MODEL        1
REMARK 921   NORMALIZED FREE ENERGY PREDICTED BY IDOCK:   -6.19 KCAL/MOL
REMARK 922        TOTAL FREE ENERGY PREDICTED BY IDOCK:   -8.86 KCAL/MOL
REMARK 923 INTER-LIGAND FREE ENERGY PREDICTED BY IDOCK:   -8.36 KCAL/MOL
REMARK 924 INTRA-LIGAND FREE ENERGY PREDICTED BY IDOCK:   -0.50 KCAL/MOL
REMARK 927      BINDING AFFINITY PREDICTED BY RF-SCORE:    0.00 PKD
ROOT
HETATM    1  C   UNL     1     -13.780  15.834  72.888  1.00  0.00    -0.551 C  
HETATM    2  O   UNL     1     -13.508  15.530  71.523  1.00  0.00    -0.479 OA 
ENDROOT
BRANCH   2   3
HETATM    3  C   UNL     1     -13.139  14.245  71.236  1.00  0.00    -0.355 A  
HETATM    4  C   UNL     1     -12.518  13.819  70.065  1.00  0.00    -0.301 A  
HETATM    5  C   UNL     1     -12.183  12.463  69.845  1.00  0.00    -0.227 A  
HETATM    6  C   UNL     1     -12.482  11.532  70.864  1.00  0.00    -0.366 A  
HETATM    7  C   UNL     1     -13.104  11.964  72.042  1.00  0.00    -0.441 A  
HETATM    8  C   UNL     1     -13.431  13.311  72.225  1.00  0.00    -0.679 A  
BRANCH   5   9
HETATM    9  C   UNL     1     -11.517  12.017  68.540  1.00  0.00    -0.293 C  
HETATM   10  O   UNL     1     -12.116  10.807  68.049  1.00  0.00    -0.778 OA 
HETATM   11  H   UNL     1     -11.704  10.531  67.239  1.00  0.00     0.000 HD 
BRANCH   9  12
HETATM   12  C   UNL     1     -11.619  13.045  67.394  1.00  0.00    -0.356 C  
BRANCH  12  13
HETATM   13  N   UNL     1     -11.558  12.487  66.061  1.00  0.00    -0.384 N  
HETATM   14  H   UNL     1     -10.893  11.745  65.843  1.00  0.00     0.000 HD 
HETATM   15  C   UNL     1     -12.409  12.966  65.087  1.00  0.00    -0.493 C  
HETATM   16  O   UNL     1     -13.168  13.917  65.266  1.00  0.00    -0.774 OA 
BRANCH  15  17
HETATM   17  C   UNL     1     -12.360  12.206  63.761  1.00  0.00    -0.532 C  
HETATM   18  N   UNL     1     -11.166  12.574  62.980  1.00  0.00    -0.682 NA 
HETATM   19  H1  UNL     1     -11.134  12.067  62.095  1.00  0.00     0.000 HD 
HETATM   20  H2  UNL     1     -10.311  12.444  63.519  1.00  0.00     0.000 HD 
ENDBRANCH  15  17
ENDBRANCH  12  13
ENDBRANCH   9  12
ENDBRANCH   5   9
BRANCH   6  21
HETATM   21  O   UNL     1     -12.135  10.231  70.612  1.00  0.00    -0.291 OA 
HETATM   22  C   UNL     1     -11.853   9.397  71.732  1.00  0.00    -0.382 C  
ENDBRANCH   6  21
ENDBRANCH   2   3
TORSDOF 6
ENDMDL
MODEL        2
REMARK 921   NORMALIZED FREE ENERGY PREDICTED BY IDOCK:   -6.08 KCAL/MOL
REMARK 922        TOTAL FREE ENERGY PREDICTED BY IDOCK:   -8.71 KCAL/MOL
REMARK 923 INTER-LIGAND FREE ENERGY PREDICTED BY IDOCK:   -8.10 KCAL/MOL
REMARK 924 INTRA-LIGAND FREE ENERGY PREDICTED BY IDOCK:   -0.61 KCAL/MOL
REMARK 927      BINDING AFFINITY PREDICTED BY RF-SCORE:    0.00 PKD
ROOT
HETATM    1  C   UNL     1     -11.178   9.564  71.442  1.00  0.00    -0.382 C  
HETATM    2  O   UNL     1     -12.215  10.149  70.659  1.00  0.00    -0.285 OA 
ENDROOT
BRANCH   2   3
HETATM    3  C   UNL     1     -12.474  11.475  70.867  1.00  0.00    -0.366 A  
HETATM    4  C   UNL     1     -12.048  12.524  70.055  1.00  0.00    -0.337 A  
HETATM    5  C   UNL     1     -12.351  13.873  70.353  1.00  0.00    -0.433 A  
HETATM    6  C   UNL     1     -13.124  14.140  71.504  1.00  0.00    -0.353 A  
HETATM    7  C   UNL     1     -13.553  13.084  72.318  1.00  0.00    -0.643 A  
HETATM    8  C   UNL     1     -13.229  11.761  72.000  1.00  0.00    -0.460 A  
BRANCH   5   9
HETATM    9  C   UNL     1     -11.855  15.009  69.454  1.00  0.00    -0.329 C  
HETATM   10  O   UNL     1     -10.921  15.844  70.158  1.00  0.00    -0.307 OA 
HETATM   11  H   UNL     1     -10.612  16.549  69.600  1.00  0.00     0.000 HD 
BRANCH   9  12
HETATM   12  C   UNL     1     -11.133  14.536  68.176  1.00  0.00    -0.266 C  
BRANCH  12  13
HETATM   13  N   UNL     1     -11.878  14.712  66.949  1.00  0.00    -0.364 N  
HETATM   14  H   UNL     1     -12.886  14.860  66.975  1.00  0.00     0.000 HD 
HETATM   15  C   UNL     1     -11.211  14.679  65.742  1.00  0.00    -0.336 C  
HETATM   16  O   UNL     1     -10.014  14.416  65.641  1.00  0.00    -0.332 OA 
BRANCH  15  17
HETATM   17  C   UNL     1     -12.071  15.022  64.524  1.00  0.00    -0.363 C  
HETATM   18  N   UNL     1     -11.646  16.294  63.914  1.00  0.00    -1.573 NA 
HETATM   19  H1  UNL     1     -12.220  16.523  63.101  1.00  0.00     0.000 HD 
HETATM   20  H2  UNL     1     -10.653  16.285  63.681  1.00  0.00     0.000 HD 
ENDBRANCH  15  17
ENDBRANCH  12  13
ENDBRANCH   9  12
ENDBRANCH   5   9
BRANCH   6  21
HETATM   21  O   UNL     1     -13.399  15.460  71.753  1.00  0.00    -0.408 OA 
HETATM   22  C   UNL     1     -13.434  15.879  73.114  1.00  0.00    -0.563 C  
ENDBRANCH   6  21
ENDBRANCH   2   3
TORSDOF 6
ENDMDL
MODEL        3
REMARK 921   NORMALIZED FREE ENERGY PREDICTED BY IDOCK:   -6.05 KCAL/MOL
REMARK 922        TOTAL FREE ENERGY PREDICTED BY IDOCK:   -8.67 KCAL/MOL
REMARK 923 INTER-LIGAND FREE ENERGY PREDICTED BY IDOCK:   -8.14 KCAL/MOL
REMARK 924 INTRA-LIGAND FREE ENERGY PREDICTED BY IDOCK:   -0.53 KCAL/MOL
REMARK 927      BINDING AFFINITY PREDICTED BY RF-SCORE:    0.00 PKD
ROOT
HETATM    1  C   UNL     1     -11.448   9.224  71.456  1.00  0.00    -0.384 C  
HETATM    2  O   UNL     1     -12.664   9.844  71.047  1.00  0.00    -0.325 OA 
ENDROOT
BRANCH   2   3
HETATM    3  C   UNL     1     -12.683  11.211  71.020  1.00  0.00    -0.378 A  
HETATM    4  C   UNL     1     -12.083  12.013  70.051  1.00  0.00    -0.355 A  
HETATM    5  C   UNL     1     -12.141  13.425  70.108  1.00  0.00    -0.415 A  
HETATM    6  C   UNL     1     -12.846  14.018  71.178  1.00  0.00    -0.357 A  
HETATM    7  C   UNL     1     -13.450  13.209  72.149  1.00  0.00    -0.653 A  
HETATM    8  C   UNL     1     -13.367  11.815  72.069  1.00  0.00    -0.417 A  
BRANCH   5   9
HETATM    9  C   UNL     1     -11.457  14.285  69.041  1.00  0.00    -0.284 C  
HETATM   10  O   UNL     1     -10.175  14.743  69.501  1.00  0.00    -0.352 OA 
HETATM   11  H   UNL     1      -9.750  15.276  68.839  1.00  0.00     0.000 HD 
BRANCH   9  12
HETATM   12  C   UNL     1     -11.201  13.554  67.707  1.00  0.00    -0.282 C  
BRANCH  12  13
HETATM   13  N   UNL     1     -11.971  14.038  66.583  1.00  0.00    -0.425 N  
HETATM   14  H   UNL     1     -12.982  14.151  66.662  1.00  0.00     0.000 HD 
HETATM   15  C   UNL     1     -11.327  14.345  65.403  1.00  0.00    -0.339 C  
HETATM   16  O   UNL     1     -10.128  14.145  65.219  1.00  0.00    -0.354 OA 
BRANCH  15  17
HETATM   17  C   UNL     1     -12.215  14.985  64.335  1.00  0.00    -0.337 C  
HETATM   18  N   UNL     1     -11.626  16.239  63.833  1.00  0.00    -1.573 NA 
HETATM   19  H1  UNL     1     -12.219  16.666  63.120  1.00  0.00     0.000 HD 
HETATM   20  H2  UNL     1     -10.675  16.097  63.494  1.00  0.00     0.000 HD 
ENDBRANCH  15  17
ENDBRANCH  12  13
ENDBRANCH   9  12
ENDBRANCH   5   9
BRANCH   6  21
HETATM   21  O   UNL     1     -12.881  15.388  71.192  1.00  0.00    -0.388 OA 
HETATM   22  C   UNL     1     -12.270  16.051  72.295  1.00  0.00    -0.519 C  
ENDBRANCH   6  21
ENDBRANCH   2   3
TORSDOF 6
ENDMDL
MODEL        4
REMARK 921   NORMALIZED FREE ENERGY PREDICTED BY IDOCK:   -6.04 KCAL/MOL
REMARK 922        TOTAL FREE ENERGY PREDICTED BY IDOCK:   -8.65 KCAL/MOL
REMARK 923 INTER-LIGAND FREE ENERGY PREDICTED BY IDOCK:   -8.08 KCAL/MOL
REMARK 924 INTRA-LIGAND FREE ENERGY PREDICTED BY IDOCK:   -0.57 KCAL/MOL
REMARK 927      BINDING AFFINITY PREDICTED BY RF-SCORE:    0.00 PKD
ROOT
HETATM    1  C   UNL     1     -11.662   9.249  71.578  1.00  0.00    -0.380 C  
HETATM    2  O   UNL     1     -12.737   9.948  70.956  1.00  0.00    -0.325 OA 
ENDROOT
BRANCH   2   3
HETATM    3  C   UNL     1     -12.699  11.313  71.006  1.00  0.00    -0.359 A  
HETATM    4  C   UNL     1     -12.035  12.143  70.105  1.00  0.00    -0.394 A  
HETATM    5  C   UNL     1     -12.037  13.550  70.241  1.00  0.00    -0.425 A  
HETATM    6  C   UNL     1     -12.753  14.111  71.320  1.00  0.00    -0.361 A  
HETATM    7  C   UNL     1     -13.421  13.276  72.224  1.00  0.00    -0.679 A  
HETATM    8  C   UNL     1     -13.392  11.887  72.067  1.00  0.00    -0.425 A  
BRANCH   5   9
HETATM    9  C   UNL     1     -11.283  14.438  69.246  1.00  0.00    -0.275 C  
HETATM   10  O   UNL     1     -10.049  14.907  69.815  1.00  0.00    -0.415 OA 
HETATM   11  H   UNL     1      -9.582  15.457  69.198  1.00  0.00     0.000 HD 
BRANCH   9  12
HETATM   12  C   UNL     1     -10.910  13.735  67.925  1.00  0.00    -0.244 C  
BRANCH  12  13
HETATM   13  N   UNL     1     -11.265  14.456  66.723  1.00  0.00    -0.327 N  
HETATM   14  H   UNL     1     -11.008  15.437  66.616  1.00  0.00     0.000 HD 
HETATM   15  C   UNL     1     -11.954  13.805  65.722  1.00  0.00    -0.399 C  
HETATM   16  O   UNL     1     -12.368  12.652  65.830  1.00  0.00    -0.594 OA 
BRANCH  15  17
HETATM   17  C   UNL     1     -12.146  14.619  64.441  1.00  0.00    -0.462 C  
HETATM   18  N   UNL     1     -12.512  13.750  63.308  1.00  0.00    -1.092 NA 
HETATM   19  H1  UNL     1     -12.640  14.294  62.453  1.00  0.00     0.000 HD 
HETATM   20  H2  UNL     1     -13.334  13.184  63.520  1.00  0.00     0.000 HD 
ENDBRANCH  15  17
ENDBRANCH  12  13
ENDBRANCH   9  12
ENDBRANCH   5   9
BRANCH   6  21
HETATM   21  O   UNL     1     -12.732  15.479  71.411  1.00  0.00    -0.387 OA 
HETATM   22  C   UNL     1     -12.107  16.053  72.555  1.00  0.00    -0.537 C  
ENDBRANCH   6  21
ENDBRANCH   2   3
TORSDOF 6
ENDMDL
MODEL        5
REMARK 921   NORMALIZED FREE ENERGY PREDICTED BY IDOCK:   -5.98 KCAL/MOL
REMARK 922        TOTAL FREE ENERGY PREDICTED BY IDOCK:   -8.57 KCAL/MOL
REMARK 923 INTER-LIGAND FREE ENERGY PREDICTED BY IDOCK:   -7.91 KCAL/MOL
REMARK 924 INTRA-LIGAND FREE ENERGY PREDICTED BY IDOCK:   -0.65 KCAL/MOL
REMARK 927      BINDING AFFINITY PREDICTED BY RF-SCORE:    0.00 PKD
ROOT
HETATM    1  C   UNL     1     -12.694  12.029  63.472  1.00  0.00    -0.443 C  
HETATM    2  O   UNL     1     -13.052  12.473  64.778  1.00  0.00    -0.853 OA 
ENDROOT
BRANCH   2   3
HETATM    3  C   UNL     1     -12.288  13.467  65.324  1.00  0.00    -0.469 A  
HETATM    4  C   UNL     1     -12.133  13.718  66.685  1.00  0.00    -0.471 A  
HETATM    5  C   UNL     1     -11.331  14.780  67.164  1.00  0.00    -0.363 A  
HETATM    6  C   UNL     1     -10.664  15.587  66.216  1.00  0.00    -0.307 A  
HETATM    7  C   UNL     1     -10.820  15.331  64.848  1.00  0.00    -0.444 A  
HETATM    8  C   UNL     1     -11.628  14.279  64.407  1.00  0.00    -0.358 A  
BRANCH   5   9
HETATM    9  C   UNL     1     -11.192  15.047  68.665  1.00  0.00    -0.278 C  
HETATM   10  O   UNL     1     -11.640  16.373  68.991  1.00  0.00    -0.276 OA 
HETATM   11  H   UNL     1     -11.554  16.538  69.923  1.00  0.00     0.000 HD 
BRANCH   9  12
HETATM   12  C   UNL     1     -12.003  14.085  69.558  1.00  0.00    -0.339 C  
BRANCH  12  13
HETATM   13  N   UNL     1     -11.835  14.278  70.981  1.00  0.00    -0.481 N  
HETATM   14  H   UNL     1     -11.087  13.798  71.481  1.00  0.00     0.000 HD 
HETATM   15  C   UNL     1     -12.696  15.119  71.656  1.00  0.00    -0.356 C  
HETATM   16  O   UNL     1     -13.668  15.653  71.127  1.00  0.00    -0.591 OA 
BRANCH  15  17
HETATM   17  C   UNL     1     -12.335  15.361  73.123  1.00  0.00    -0.451 C  
HETATM   18  N   UNL     1     -13.420  16.067  73.828  1.00  0.00    -0.863 NA 
HETATM   19  H1  UNL     1     -13.180  16.229  74.807  1.00  0.00     0.000 HD 
HETATM   20  H2  UNL     1     -14.309  15.575  73.736  1.00  0.00     0.000 HD 
ENDBRANCH  15  17
ENDBRANCH  12  13
ENDBRANCH   9  12
ENDBRANCH   5   9
BRANCH   6  21
HETATM   21  O   UNL     1      -9.894  16.601  66.723  1.00  0.00    -0.252 OA 
HETATM   22  C   UNL     1      -8.499  16.574  66.436  1.00  0.00    -0.321 C  
ENDBRANCH   6  21
ENDBRANCH   2   3
TORSDOF 6
ENDMDL
MODEL        6
REMARK 921   NORMALIZED FREE ENERGY PREDICTED BY IDOCK:   -5.87 KCAL/MOL
REMARK 922        TOTAL FREE ENERGY PREDICTED BY IDOCK:   -8.42 KCAL/MOL
REMARK 923 INTER-LIGAND FREE ENERGY PREDICTED BY IDOCK:   -7.66 KCAL/MOL
REMARK 924 INTRA-LIGAND FREE ENERGY PREDICTED BY IDOCK:   -0.76 KCAL/MOL
REMARK 927      BINDING AFFINITY PREDICTED BY RF-SCORE:    0.00 PKD
ROOT
HETATM    1  C   UNL     1     -13.997  15.331  71.412  1.00  0.00    -0.508 C  
HETATM    2  O   UNL     1     -12.719  15.775  70.964  1.00  0.00    -0.463 OA 
ENDROOT
BRANCH   2   3
HETATM    3  C   UNL     1     -12.139  15.066  69.949  1.00  0.00    -0.334 A  
HETATM    4  C   UNL     1     -11.440  15.610  68.874  1.00  0.00    -0.367 A  
HETATM    5  C   UNL     1     -10.882  14.801  67.858  1.00  0.00    -0.269 A  
HETATM    6  C   UNL     1     -11.035  13.401  67.965  1.00  0.00    -0.244 A  
HETATM    7  C   UNL     1     -11.736  12.857  69.048  1.00  0.00    -0.375 A  
HETATM    8  C   UNL     1     -12.284  13.685  70.032  1.00  0.00    -0.395 A  
BRANCH   5   9
HETATM    9  C   UNL     1     -10.134  15.425  66.676  1.00  0.00    -0.265 C  
HETATM   10  O   UNL     1      -9.022  14.602  66.285  1.00  0.00    -0.459 OA 
HETATM   11  H   UNL     1      -8.558  14.989  65.552  1.00  0.00     0.000 HD 
BRANCH   9  12
HETATM   12  C   UNL     1     -10.995  15.615  65.410  1.00  0.00    -0.333 C  
BRANCH  12  13
HETATM   13  N   UNL     1     -10.900  14.550  64.436  1.00  0.00    -0.609 N  
HETATM   14  H   UNL     1     -10.068  14.457  63.854  1.00  0.00     0.000 HD 
HETATM   15  C   UNL     1     -11.946  13.661  64.302  1.00  0.00    -0.445 C  
HETATM   16  O   UNL     1     -13.009  13.775  64.911  1.00  0.00    -0.712 OA 
BRANCH  15  17
HETATM   17  C   UNL     1     -11.677  12.493  63.351  1.00  0.00    -0.488 C  
HETATM   18  N   UNL     1     -12.909  11.728  63.086  1.00  0.00    -0.879 NA 
HETATM   19  H1  UNL     1     -12.729  10.949  62.451  1.00  0.00     0.000 HD 
HETATM   20  H2  UNL     1     -13.657  12.330  62.740  1.00  0.00     0.000 HD 
ENDBRANCH  15  17
ENDBRANCH  12  13
ENDBRANCH   9  12
ENDBRANCH   5   9
BRANCH   6  21
HETATM   21  O   UNL     1     -10.474  12.655  66.962  1.00  0.00    -0.231 OA 
HETATM   22  C   UNL     1     -10.787  11.266  66.921  1.00  0.00    -0.282 C  
ENDBRANCH   6  21
ENDBRANCH   2   3
TORSDOF 6
ENDMDL
MODEL        7
REMARK 921   NORMALIZED FREE ENERGY PREDICTED BY IDOCK:   -5.69 KCAL/MOL
REMARK 922        TOTAL FREE ENERGY PREDICTED BY IDOCK:   -8.18 KCAL/MOL
REMARK 923 INTER-LIGAND FREE ENERGY PREDICTED BY IDOCK:   -7.58 KCAL/MOL
REMARK 924 INTRA-LIGAND FREE ENERGY PREDICTED BY IDOCK:   -0.61 KCAL/MOL
REMARK 927      BINDING AFFINITY PREDICTED BY RF-SCORE:    0.00 PKD
ROOT
HETATM    1  C   UNL     1     -14.187  14.097  72.252  1.00  0.00    -0.504 C  
HETATM    2  O   UNL     1     -13.930  12.732  72.571  1.00  0.00    -0.499 OA 
ENDROOT
BRANCH   2   3
HETATM    3  C   UNL     1     -13.177  12.019  71.680  1.00  0.00    -0.260 A  
HETATM    4  C   UNL     1     -12.629  12.515  70.499  1.00  0.00    -0.177 A  
HETATM    5  C   UNL     1     -11.871  11.702  69.626  1.00  0.00    -0.419 A  
HETATM    6  C   UNL     1     -11.662  10.353  69.989  1.00  0.00    -0.286 A  
HETATM    7  C   UNL     1     -12.212   9.858  71.178  1.00  0.00    -0.468 A  
HETATM    8  C   UNL     1     -12.965  10.686  72.016  1.00  0.00    -0.466 A  
BRANCH   5   9
HETATM    9  C   UNL     1     -11.296  12.267  68.324  1.00  0.00    -0.289 C  
HETATM   10  O   UNL     1     -11.718  11.482  67.197  1.00  0.00    -0.567 OA 
HETATM   11  H   UNL     1     -11.361  11.832  66.389  1.00  0.00     0.000 HD 
BRANCH   9  12
HETATM   12  C   UNL     1     -11.720  13.719  68.021  1.00  0.00    -0.355 C  
BRANCH  12  13
HETATM   13  N   UNL     1     -12.265  13.937  66.699  1.00  0.00    -0.440 N  
HETATM   14  H   UNL     1     -13.208  13.620  66.472  1.00  0.00     0.000 HD 
HETATM   15  C   UNL     1     -11.498  14.577  65.748  1.00  0.00    -0.342 C  
HETATM   16  O   UNL     1     -10.326  14.900  65.934  1.00  0.00    -0.281 OA 
BRANCH  15  17
HETATM   17  C   UNL     1     -12.225  14.883  64.438  1.00  0.00    -0.381 C  
HETATM   18  N   UNL     1     -11.899  16.236  63.952  1.00  0.00    -1.412 NA 
HETATM   19  H1  UNL     1     -12.384  16.441  63.077  1.00  0.00     0.000 HD 
HETATM   20  H2  UNL     1     -10.892  16.369  63.862  1.00  0.00     0.000 HD 
ENDBRANCH  15  17
ENDBRANCH  12  13
ENDBRANCH   9  12
ENDBRANCH   5   9
BRANCH   6  21
HETATM   21  O   UNL     1     -10.918   9.602  69.117  1.00  0.00    -0.218 OA 
HETATM   22  C   UNL     1     -10.656   8.248  69.473  1.00  0.00    -0.213 C  
ENDBRANCH   6  21
ENDBRANCH   2   3
TORSDOF 6
ENDMDL
MODEL        8
REMARK 921   NORMALIZED FREE ENERGY PREDICTED BY IDOCK:   -5.69 KCAL/MOL
REMARK 922        TOTAL FREE ENERGY PREDICTED BY IDOCK:   -8.18 KCAL/MOL
REMARK 923 INTER-LIGAND FREE ENERGY PREDICTED BY IDOCK:   -7.82 KCAL/MOL
REMARK 924 INTRA-LIGAND FREE ENERGY PREDICTED BY IDOCK:   -0.36 KCAL/MOL
REMARK 927      BINDING AFFINITY PREDICTED BY RF-SCORE:    0.00 PKD
ROOT
HETATM    1  C   UNL     1     -12.291   7.490  71.401  1.00  0.00    -0.345 C  
HETATM    2  O   UNL     1     -11.480   8.393  70.654  1.00  0.00    -0.267 OA 
ENDROOT
BRANCH   2   3
HETATM    3  C   UNL     1     -11.818   9.716  70.707  1.00  0.00    -0.300 A  
HETATM    4  C   UNL     1     -11.333  10.714  69.864  1.00  0.00    -0.386 A  
HETATM    5  C   UNL     1     -11.728  12.065  69.998  1.00  0.00    -0.346 A  
HETATM    6  C   UNL     1     -12.656  12.388  71.012  1.00  0.00    -0.254 A  
HETATM    7  C   UNL     1     -13.144  11.382  71.856  1.00  0.00    -0.505 A  
HETATM    8  C   UNL     1     -12.726  10.057  71.704  1.00  0.00    -0.535 A  
BRANCH   5   9
HETATM    9  C   UNL     1     -11.166  13.146  69.070  1.00  0.00    -0.258 C  
HETATM   10  O   UNL     1      -9.733  13.056  68.993  1.00  0.00    -0.400 OA 
HETATM   11  H   UNL     1      -9.384  13.726  68.417  1.00  0.00     0.000 HD 
BRANCH   9  12
HETATM   12  C   UNL     1     -11.681  13.065  67.618  1.00  0.00    -0.366 C  
BRANCH  12  13
HETATM   13  N   UNL     1     -11.087  14.013  66.701  1.00  0.00    -0.304 N  
HETATM   14  H   UNL     1     -10.152  14.382  66.876  1.00  0.00     0.000 HD 
HETATM   15  C   UNL     1     -11.796  14.415  65.588  1.00  0.00    -0.355 C  
HETATM   16  O   UNL     1     -12.958  14.076  65.373  1.00  0.00    -0.726 OA 
BRANCH  15  17
HETATM   17  C   UNL     1     -11.016  15.301  64.616  1.00  0.00    -0.304 C  
HETATM   18  N   UNL     1     -11.894  16.308  63.992  1.00  0.00    -1.309 NA 
HETATM   19  H1  UNL     1     -11.373  16.899  63.344  1.00  0.00     0.000 HD 
HETATM   20  H2  UNL     1     -12.386  16.862  64.693  1.00  0.00     0.000 HD 
ENDBRANCH  15  17
ENDBRANCH  12  13
ENDBRANCH   9  12
ENDBRANCH   5   9
BRANCH   6  21
HETATM   21  O   UNL     1     -13.015  13.707  71.102  1.00  0.00    -0.321 OA 
HETATM   22  C   UNL     1     -13.974  14.061  72.095  1.00  0.00    -0.538 C  
ENDBRANCH   6  21
ENDBRANCH   2   3
TORSDOF 6
ENDMDL
MODEL        9
REMARK 921   NORMALIZED FREE ENERGY PREDICTED BY IDOCK:   -5.67 KCAL/MOL
REMARK 922        TOTAL FREE ENERGY PREDICTED BY IDOCK:   -8.15 KCAL/MOL
REMARK 923 INTER-LIGAND FREE ENERGY PREDICTED BY IDOCK:   -7.42 KCAL/MOL
REMARK 924 INTRA-LIGAND FREE ENERGY PREDICTED BY IDOCK:   -0.73 KCAL/MOL
REMARK 927      BINDING AFFINITY PREDICTED BY RF-SCORE:    0.00 PKD
ROOT
HETATM    1  C   UNL     1     -12.824  15.902  73.787  1.00  0.00    -0.584 C  
HETATM    2  O   UNL     1     -13.681  15.254  72.851  1.00  0.00    -0.478 OA 
ENDROOT
BRANCH   2   3
HETATM    3  C   UNL     1     -13.085  14.676  71.764  1.00  0.00    -0.341 A  
HETATM    4  C   UNL     1     -12.918  13.308  71.560  1.00  0.00    -0.426 A  
HETATM    5  C   UNL     1     -12.276  12.796  70.409  1.00  0.00    -0.371 A  
HETATM    6  C   UNL     1     -11.812  13.716  69.443  1.00  0.00    -0.339 A  
HETATM    7  C   UNL     1     -11.984  15.090  69.650  1.00  0.00    -0.356 A  
HETATM    8  C   UNL     1     -12.615  15.566  70.804  1.00  0.00    -0.505 A  
BRANCH   5   9
HETATM    9  C   UNL     1     -12.088  11.288  70.217  1.00  0.00    -0.373 C  
HETATM   10  O   UNL     1     -10.693  10.946  70.203  1.00  0.00    -0.463 OA 
HETATM   11  H   UNL     1     -10.576  10.011  70.084  1.00  0.00     0.000 HD 
BRANCH   9  12
HETATM   12  C   UNL     1     -12.733  10.424  71.320  1.00  0.00    -0.432 C  
BRANCH  12  13
HETATM   13  N   UNL     1     -12.822   9.012  71.021  1.00  0.00    -0.510 N  
HETATM   14  H   UNL     1     -13.594   8.652  70.460  1.00  0.00     0.000 HD 
HETATM   15  C   UNL     1     -11.854   8.156  71.503  1.00  0.00    -0.294 C  
HETATM   16  O   UNL     1     -10.953   8.516  72.258  1.00  0.00    -0.338 OA 
BRANCH  15  17
HETATM   17  C   UNL     1     -11.967   6.714  71.005  1.00  0.00    -0.359 C  
HETATM   18  N   UNL     1     -11.862   6.649  69.536  1.00  0.00    -0.632 NA 
HETATM   19  H1  UNL     1     -11.938   5.687  69.204  1.00  0.00     0.000 HD 
HETATM   20  H2  UNL     1     -11.008   7.095  69.201  1.00  0.00     0.000 HD 
ENDBRANCH  15  17
ENDBRANCH  12  13
ENDBRANCH   9  12
ENDBRANCH   5   9
BRANCH   6  21
HETATM   21  O   UNL     1     -11.201  13.176  68.341  1.00  0.00    -0.240 OA 
HETATM   22  C   UNL     1     -11.837  13.362  67.080  1.00  0.00    -0.382 C  
ENDBRANCH   6  21
ENDBRANCH   2   3
TORSDOF 6
ENDMDL
MODEL       10
REMARK 921   NORMALIZED FREE ENERGY PREDICTED BY IDOCK:   -5.66 KCAL/MOL
REMARK 922        TOTAL FREE ENERGY PREDICTED BY IDOCK:   -8.14 KCAL/MOL
REMARK 923 INTER-LIGAND FREE ENERGY PREDICTED BY IDOCK:   -7.42 KCAL/MOL
REMARK 924 INTRA-LIGAND FREE ENERGY PREDICTED BY IDOCK:   -0.72 KCAL/MOL
REMARK 927      BINDING AFFINITY PREDICTED BY RF-SCORE:    0.00 PKD
ROOT
HETATM    1  C   UNL     1     -12.534  12.042  63.368  1.00  0.00    -0.509 C  
HETATM    2  O   UNL     1     -13.122  12.544  64.564  1.00  0.00    -0.816 OA 
ENDROOT
BRANCH   2   3
HETATM    3  C   UNL     1     -12.408  13.482  65.258  1.00  0.00    -0.467 A  
HETATM    4  C   UNL     1     -12.349  13.596  66.645  1.00  0.00    -0.381 A  
HETATM    5  C   UNL     1     -11.594  14.608  67.282  1.00  0.00    -0.404 A  
HETATM    6  C   UNL     1     -10.872  15.508  66.468  1.00  0.00    -0.284 A  
HETATM    7  C   UNL     1     -10.931  15.389  65.074  1.00  0.00    -0.450 A  
HETATM    8  C   UNL     1     -11.695  14.383  64.475  1.00  0.00    -0.430 A  
BRANCH   5   9
HETATM    9  C   UNL     1     -11.561  14.724  68.808  1.00  0.00    -0.320 C  
HETATM   10  O   UNL     1     -12.360  15.832  69.253  1.00  0.00    -0.551 OA 
HETATM   11  H   UNL     1     -12.340  15.904  70.200  1.00  0.00     0.000 HD 
BRANCH   9  12
HETATM   12  C   UNL     1     -12.097  13.481  69.550  1.00  0.00    -0.297 C  
BRANCH  12  13
HETATM   13  N   UNL     1     -11.113  12.457  69.824  1.00  0.00    -0.464 N  
HETATM   14  H   UNL     1     -10.272  12.680  70.356  1.00  0.00     0.000 HD 
HETATM   15  C   UNL     1     -11.322  11.176  69.359  1.00  0.00    -0.283 C  
HETATM   16  O   UNL     1     -12.269  10.868  68.637  1.00  0.00    -0.533 OA 
BRANCH  15  17
HETATM   17  C   UNL     1     -10.295  10.146  69.831  1.00  0.00    -0.261 C  
HETATM   18  N   UNL     1      -8.919  10.637  69.632  1.00  0.00    -0.396 NA 
HETATM   19  H1  UNL     1      -8.233   9.949  69.947  1.00  0.00     0.000 HD 
HETATM   20  H2  UNL     1      -8.776  11.542  70.078  1.00  0.00     0.000 HD 
ENDBRANCH  15  17
ENDBRANCH  12  13
ENDBRANCH   9  12
ENDBRANCH   5   9
BRANCH   6  21
HETATM   21  O   UNL     1     -10.149  16.469  67.126  1.00  0.00    -0.261 OA 
HETATM   22  C   UNL     1     -10.525  17.828  66.923  1.00  0.00    -0.307 C  
ENDBRANCH   6  21
ENDBRANCH   2   3
TORSDOF 6
ENDMDL
MODEL       11
REMARK 921   NORMALIZED FREE ENERGY PREDICTED BY IDOCK:   -5.61 KCAL/MOL
REMARK 922        TOTAL FREE ENERGY PREDICTED BY IDOCK:   -8.08 KCAL/MOL
REMARK 923 INTER-LIGAND FREE ENERGY PREDICTED BY IDOCK:   -7.61 KCAL/MOL
REMARK 924 INTRA-LIGAND FREE ENERGY PREDICTED BY IDOCK:   -0.47 KCAL/MOL
REMARK 927      BINDING AFFINITY PREDICTED BY RF-SCORE:    0.00 PKD
ROOT
HETATM    1  C   UNL     1     -12.914   8.512  71.581  1.00  0.00    -0.343 C  
HETATM    2  O   UNL     1     -13.517   9.767  71.887  1.00  0.00    -0.402 OA 
ENDROOT
BRANCH   2   3
HETATM    3  C   UNL     1     -13.018  10.865  71.244  1.00  0.00    -0.392 A  
HETATM    4  C   UNL     1     -12.398  10.866  69.996  1.00  0.00    -0.385 A  
HETATM    5  C   UNL     1     -11.898  12.050  69.409  1.00  0.00    -0.384 A  
HETATM    6  C   UNL     1     -12.057  13.261  70.119  1.00  0.00    -0.333 A  
HETATM    7  C   UNL     1     -12.683  13.258  71.371  1.00  0.00    -0.401 A  
HETATM    8  C   UNL     1     -13.159  12.068  71.929  1.00  0.00    -0.475 A  
BRANCH   5   9
HETATM    9  C   UNL     1     -11.203  12.021  68.045  1.00  0.00    -0.258 C  
HETATM   10  O   UNL     1     -10.920  10.670  67.646  1.00  0.00    -0.270 OA 
HETATM   11  H   UNL     1     -10.489  10.651  66.800  1.00  0.00     0.000 HD 
BRANCH   9  12
HETATM   12  C   UNL     1     -12.028  12.644  66.900  1.00  0.00    -0.275 C  
BRANCH  12  13
HETATM   13  N   UNL     1     -11.634  13.981  66.514  1.00  0.00    -0.357 N  
HETATM   14  H   UNL     1     -11.464  14.693  67.224  1.00  0.00     0.000 HD 
HETATM   15  C   UNL     1     -11.487  14.284  65.177  1.00  0.00    -0.351 C  
HETATM   16  O   UNL     1     -11.763  13.496  64.274  1.00  0.00    -0.386 OA 
BRANCH  15  17
HETATM   17  C   UNL     1     -10.926  15.678  64.893  1.00  0.00    -0.431 C  
HETATM   18  N   UNL     1     -11.782  16.413  63.944  1.00  0.00    -1.527 NA 
HETATM   19  H1  UNL     1     -11.407  17.343  63.754  1.00  0.00     0.000 HD 
HETATM   20  H2  UNL     1     -12.748  16.456  64.266  1.00  0.00     0.000 HD 
ENDBRANCH  15  17
ENDBRANCH  12  13
ENDBRANCH   9  12
ENDBRANCH   5   9
BRANCH   6  21
HETATM   21  O   UNL     1     -11.562  14.385  69.511  1.00  0.00    -0.270 OA 
HETATM   22  C   UNL     1     -11.990  15.647  70.014  1.00  0.00    -0.368 C  
ENDBRANCH   6  21
ENDBRANCH   2   3
TORSDOF 6
ENDMDL
MODEL       12
REMARK 921   NORMALIZED FREE ENERGY PREDICTED BY IDOCK:   -5.60 KCAL/MOL
REMARK 922        TOTAL FREE ENERGY PREDICTED BY IDOCK:   -8.06 KCAL/MOL
REMARK 923 INTER-LIGAND FREE ENERGY PREDICTED BY IDOCK:   -7.40 KCAL/MOL
REMARK 924 INTRA-LIGAND FREE ENERGY PREDICTED BY IDOCK:   -0.65 KCAL/MOL
REMARK 927      BINDING AFFINITY PREDICTED BY RF-SCORE:    0.00 PKD
ROOT
HETATM    1  C   UNL     1     -10.386  18.121  66.875  1.00  0.00    -0.375 C  
HETATM    2  O   UNL     1      -9.910  17.156  65.941  1.00  0.00    -0.486 OA 
ENDROOT
BRANCH   2   3
HETATM    3  C   UNL     1     -10.677  16.039  65.760  1.00  0.00    -0.301 A  
HETATM    4  C   UNL     1     -11.001  15.107  66.743  1.00  0.00    -0.321 A  
HETATM    5  C   UNL     1     -11.792  13.969  66.464  1.00  0.00    -0.439 A  
HETATM    6  C   UNL     1     -12.272  13.801  65.147  1.00  0.00    -0.431 A  
HETATM    7  C   UNL     1     -11.948  14.741  64.161  1.00  0.00    -0.282 A  
HETATM    8  C   UNL     1     -11.155  15.851  64.467  1.00  0.00    -0.285 A  
BRANCH   5   9
HETATM    9  C   UNL     1     -12.119  12.949  67.559  1.00  0.00    -0.192 C  
HETATM   10  O   UNL     1     -11.729  11.626  67.156  1.00  0.00    -0.566 OA 
HETATM   11  H   UNL     1     -11.931  10.993  67.835  1.00  0.00     0.000 HD 
BRANCH   9  12
HETATM   12  C   UNL     1     -11.411  13.215  68.904  1.00  0.00    -0.298 C  
BRANCH  12  13
HETATM   13  N   UNL     1     -12.161  14.018  69.845  1.00  0.00    -0.334 N  
HETATM   14  H   UNL     1     -12.233  15.027  69.718  1.00  0.00     0.000 HD 
HETATM   15  C   UNL     1     -12.780  13.406  70.915  1.00  0.00    -0.272 C  
HETATM   16  O   UNL     1     -12.655  12.209  71.170  1.00  0.00    -0.365 OA 
BRANCH  15  17
HETATM   17  C   UNL     1     -13.663  14.327  71.758  1.00  0.00    -0.412 C  
HETATM   18  N   UNL     1     -14.165  15.460  70.960  1.00  0.00    -0.846 NA 
HETATM   19  H1  UNL     1     -14.754  16.075  71.523  1.00  0.00     0.000 HD 
HETATM   20  H2  UNL     1     -14.648  15.142  70.120  1.00  0.00     0.000 HD 
ENDBRANCH  15  17
ENDBRANCH  12  13
ENDBRANCH   9  12
ENDBRANCH   5   9
BRANCH   6  21
HETATM   21  O   UNL     1     -13.040  12.688  64.922  1.00  0.00    -0.850 OA 
HETATM   22  C   UNL     1     -12.763  11.924  63.753  1.00  0.00    -0.350 C  
ENDBRANCH   6  21
ENDBRANCH   2   3
TORSDOF 6
ENDMDL
MODEL       13
REMARK 921   NORMALIZED FREE ENERGY PREDICTED BY IDOCK:   -5.56 KCAL/MOL
REMARK 922        TOTAL FREE ENERGY PREDICTED BY IDOCK:   -8.00 KCAL/MOL
REMARK 923 INTER-LIGAND FREE ENERGY PREDICTED BY IDOCK:   -7.36 KCAL/MOL
REMARK 924 INTRA-LIGAND FREE ENERGY PREDICTED BY IDOCK:   -0.64 KCAL/MOL
REMARK 927      BINDING AFFINITY PREDICTED BY RF-SCORE:    0.00 PKD
ROOT
HETATM    1  C   UNL     1     -12.611  11.908  63.498  1.00  0.00    -0.459 C  
HETATM    2  O   UNL     1     -12.883  12.680  64.664  1.00  0.00    -0.704 OA 
ENDROOT
BRANCH   2   3
HETATM    3  C   UNL     1     -11.954  12.634  65.667  1.00  0.00    -0.452 A  
HETATM    4  C   UNL     1     -12.006  13.357  66.857  1.00  0.00    -0.437 A  
HETATM    5  C   UNL     1     -10.991  13.259  67.836  1.00  0.00    -0.270 A  
HETATM    6  C   UNL     1      -9.911  12.384  67.588  1.00  0.00    -0.200 A  
HETATM    7  C   UNL     1      -9.863  11.657  66.392  1.00  0.00    -0.233 A  
HETATM    8  C   UNL     1     -10.878  11.783  65.438  1.00  0.00    -0.347 A  
BRANCH   5   9
HETATM    9  C   UNL     1     -11.062  14.078  69.128  1.00  0.00    -0.259 C  
HETATM   10  O   UNL     1      -9.792  14.686  69.417  1.00  0.00    -0.397 OA 
HETATM   11  H   UNL     1      -9.836  15.194  70.218  1.00  0.00     0.000 HD 
BRANCH   9  12
HETATM   12  C   UNL     1     -12.092  15.227  69.094  1.00  0.00    -0.235 C  
BRANCH  12  13
HETATM   13  N   UNL     1     -13.051  15.224  70.176  1.00  0.00    -0.659 N  
HETATM   14  H   UNL     1     -13.984  14.836  70.036  1.00  0.00     0.000 HD 
HETATM   15  C   UNL     1     -12.694  15.750  71.400  1.00  0.00    -0.447 C  
HETATM   16  O   UNL     1     -11.618  16.311  71.602  1.00  0.00    -0.458 OA 
BRANCH  15  17
HETATM   17  C   UNL     1     -13.732  15.562  72.508  1.00  0.00    -0.574 C  
HETATM   18  N   UNL     1     -13.300  16.213  73.758  1.00  0.00    -0.916 NA 
HETATM   19  H1  UNL     1     -13.993  16.087  74.497  1.00  0.00     0.000 HD 
HETATM   20  H2  UNL     1     -13.083  17.198  73.611  1.00  0.00     0.000 HD 
ENDBRANCH  15  17
ENDBRANCH  12  13
ENDBRANCH   9  12
ENDBRANCH   5   9
BRANCH   6  21
HETATM   21  O   UNL     1      -8.953  12.316  68.566  1.00  0.00    -0.161 OA 
HETATM   22  C   UNL     1      -8.124  11.158  68.595  1.00  0.00    -0.150 C  
ENDBRANCH   6  21
ENDBRANCH   2   3
TORSDOF 6
ENDMDL
MODEL       14
REMARK 921   NORMALIZED FREE ENERGY PREDICTED BY IDOCK:   -5.47 KCAL/MOL
REMARK 922        TOTAL FREE ENERGY PREDICTED BY IDOCK:   -7.88 KCAL/MOL
REMARK 923 INTER-LIGAND FREE ENERGY PREDICTED BY IDOCK:   -7.50 KCAL/MOL
REMARK 924 INTRA-LIGAND FREE ENERGY PREDICTED BY IDOCK:   -0.38 KCAL/MOL
REMARK 927      BINDING AFFINITY PREDICTED BY RF-SCORE:    0.00 PKD
ROOT
HETATM    1  C   UNL     1     -12.268  14.901  64.235  1.00  0.00    -0.344 C  
HETATM    2  O   UNL     1     -12.841  13.623  64.496  1.00  0.00    -0.645 OA 
ENDROOT
BRANCH   2   3
HETATM    3  C   UNL     1     -12.034  12.692  65.090  1.00  0.00    -0.428 A  
HETATM    4  C   UNL     1     -11.839  12.541  66.461  1.00  0.00    -0.434 A  
HETATM    5  C   UNL     1     -10.973  11.557  66.990  1.00  0.00    -0.347 A  
HETATM    6  C   UNL     1     -10.308  10.702  66.084  1.00  0.00    -0.227 A  
HETATM    7  C   UNL     1     -10.508  10.854  64.706  1.00  0.00    -0.373 A  
HETATM    8  C   UNL     1     -11.364  11.844  64.214  1.00  0.00    -0.425 A  
BRANCH   5   9
HETATM    9  C   UNL     1     -10.761  11.424  68.501  1.00  0.00    -0.201 C  
HETATM   10  O   UNL     1      -9.858  12.434  68.980  1.00  0.00    -0.415 OA 
HETATM   11  H   UNL     1      -9.727  12.352  69.918  1.00  0.00     0.000 HD 
BRANCH   9  12
HETATM   12  C   UNL     1     -12.051  11.567  69.336  1.00  0.00    -0.279 C  
BRANCH  12  13
HETATM   13  N   UNL     1     -12.551  10.337  69.910  1.00  0.00    -0.550 N  
HETATM   14  H   UNL     1     -12.542   9.474  69.366  1.00  0.00     0.000 HD 
HETATM   15  C   UNL     1     -13.039  10.342  71.200  1.00  0.00    -0.390 C  
HETATM   16  O   UNL     1     -13.157  11.365  71.871  1.00  0.00    -0.492 OA 
BRANCH  15  17
HETATM   17  C   UNL     1     -13.402   8.962  71.753  1.00  0.00    -0.386 C  
HETATM   18  N   UNL     1     -13.913   9.060  73.132  1.00  0.00    -1.215 NA 
HETATM   19  H1  UNL     1     -14.156   8.139  73.501  1.00  0.00     0.000 HD 
HETATM   20  H2  UNL     1     -14.697   9.709  73.196  1.00  0.00     0.000 HD 
ENDBRANCH  15  17
ENDBRANCH  12  13
ENDBRANCH   9  12
ENDBRANCH   5   9
BRANCH   6  21
HETATM   21  O   UNL     1      -9.482   9.760  66.640  1.00  0.00    -0.158 OA 
HETATM   22  C   UNL     1      -9.535   8.441  66.103  1.00  0.00    -0.194 C  
ENDBRANCH   6  21
ENDBRANCH   2   3
TORSDOF 6
ENDMDL
MODEL       15
REMARK 921   NORMALIZED FREE ENERGY PREDICTED BY IDOCK:   -5.45 KCAL/MOL
REMARK 922        TOTAL FREE ENERGY PREDICTED BY IDOCK:   -7.85 KCAL/MOL
REMARK 923 INTER-LIGAND FREE ENERGY PREDICTED BY IDOCK:   -7.52 KCAL/MOL
REMARK 924 INTRA-LIGAND FREE ENERGY PREDICTED BY IDOCK:   -0.34 KCAL/MOL
REMARK 927      BINDING AFFINITY PREDICTED BY RF-SCORE:    0.00 PKD
ROOT
HETATM    1  C   UNL     1     -10.517  17.745  65.738  1.00  0.00    -0.198 C  
HETATM    2  O   UNL     1     -10.776  16.667  64.843  1.00  0.00    -0.710 OA 
ENDROOT
BRANCH   2   3
HETATM    3  C   UNL     1     -11.011  15.442  65.402  1.00  0.00    -0.368 A  
HETATM    4  C   UNL     1     -10.980  15.150  66.764  1.00  0.00    -0.321 A  
HETATM    5  C   UNL     1     -11.223  13.847  67.256  1.00  0.00    -0.329 A  
HETATM    6  C   UNL     1     -11.520  12.830  66.323  1.00  0.00    -0.354 A  
HETATM    7  C   UNL     1     -11.552  13.126  64.954  1.00  0.00    -0.356 A  
HETATM    8  C   UNL     1     -11.298  14.423  64.499  1.00  0.00    -0.328 A  
BRANCH   5   9
HETATM    9  C   UNL     1     -11.165  13.548  68.757  1.00  0.00    -0.274 C  
HETATM   10  O   UNL     1      -9.910  13.972  69.313  1.00  0.00    -0.419 OA 
HETATM   11  H   UNL     1      -9.874  13.787  70.244  1.00  0.00     0.000 HD 
BRANCH   9  12
HETATM   12  C   UNL     1     -12.262  14.250  69.585  1.00  0.00    -0.323 C  
BRANCH  12  13
HETATM   13  N   UNL     1     -11.844  14.716  70.889  1.00  0.00    -0.323 N  
HETATM   14  H   UNL     1     -10.918  14.483  71.246  1.00  0.00     0.000 HD 
HETATM   15  C   UNL     1     -12.710  15.479  71.644  1.00  0.00    -0.434 C  
HETATM   16  O   UNL     1     -13.868  15.715  71.306  1.00  0.00    -0.573 OA 
BRANCH  15  17
HETATM   17  C   UNL     1     -12.112  16.038  72.936  1.00  0.00    -0.520 C  
HETATM   18  N   UNL     1     -13.127  16.120  74.002  1.00  0.00    -0.941 NA 
HETATM   19  H1  UNL     1     -12.728  16.493  74.864  1.00  0.00     0.000 HD 
HETATM   20  H2  UNL     1     -13.581  15.219  74.157  1.00  0.00     0.000 HD 
ENDBRANCH  15  17
ENDBRANCH  12  13
ENDBRANCH   9  12
ENDBRANCH   5   9
BRANCH   6  21
HETATM   21  O   UNL     1     -11.754  11.584  66.843  1.00  0.00    -0.533 OA 
HETATM   22  C   UNL     1     -10.689  10.638  66.790  1.00  0.00    -0.210 C  
ENDBRANCH   6  21
ENDBRANCH   2   3
TORSDOF 6
ENDMDL
MODEL       16
REMARK 921   NORMALIZED FREE ENERGY PREDICTED BY IDOCK:   -5.42 KCAL/MOL
REMARK 922        TOTAL FREE ENERGY PREDICTED BY IDOCK:   -7.82 KCAL/MOL
REMARK 923 INTER-LIGAND FREE ENERGY PREDICTED BY IDOCK:   -7.26 KCAL/MOL
REMARK 924 INTRA-LIGAND FREE ENERGY PREDICTED BY IDOCK:   -0.56 KCAL/MOL
REMARK 927      BINDING AFFINITY PREDICTED BY RF-SCORE:    0.00 PKD
ROOT
HETATM    1  C   UNL     1     -11.338  15.898  70.108  1.00  0.00    -0.365 C  
HETATM    2  O   UNL     1     -11.761  15.972  68.749  1.00  0.00    -0.385 OA 
ENDROOT
BRANCH   2   3
HETATM    3  C   UNL     1     -11.603  14.846  67.990  1.00  0.00    -0.341 A  
HETATM    4  C   UNL     1     -11.632  13.536  68.462  1.00  0.00    -0.368 A  
HETATM    5  C   UNL     1     -11.445  12.427  67.605  1.00  0.00    -0.399 A  
HETATM    6  C   UNL     1     -11.242  12.677  66.230  1.00  0.00    -0.311 A  
HETATM    7  C   UNL     1     -11.216  13.996  65.758  1.00  0.00    -0.303 A  
HETATM    8  C   UNL     1     -11.394  15.071  66.633  1.00  0.00    -0.289 A  
BRANCH   5   9
HETATM    9  C   UNL     1     -11.463  10.997  68.152  1.00  0.00    -0.302 C  
HETATM   10  O   UNL     1     -10.275  10.287  67.763  1.00  0.00    -0.169 OA 
HETATM   11  H   UNL     1     -10.285   9.400  68.103  1.00  0.00     0.000 HD 
BRANCH   9  12
HETATM   12  C   UNL     1     -11.533  10.908  69.691  1.00  0.00    -0.305 C  
BRANCH  12  13
HETATM   13  N   UNL     1     -12.359   9.839  70.208  1.00  0.00    -0.486 N  
HETATM   14  H   UNL     1     -12.387   8.936  69.736  1.00  0.00     0.000 HD 
HETATM   15  C   UNL     1     -13.109  10.053  71.345  1.00  0.00    -0.417 C  
HETATM   16  O   UNL     1     -13.186  11.146  71.905  1.00  0.00    -0.470 OA 
BRANCH  15  17
HETATM   17  C   UNL     1     -13.827   8.814  71.883  1.00  0.00    -0.442 C  
HETATM   18  N   UNL     1     -14.112   8.947  73.323  1.00  0.00    -1.248 NA 
HETATM   19  H1  UNL     1     -14.591   8.120  73.681  1.00  0.00     0.000 HD 
HETATM   20  H2  UNL     1     -14.634   9.800  73.524  1.00  0.00     0.000 HD 
ENDBRANCH  15  17
ENDBRANCH  12  13
ENDBRANCH   9  12
ENDBRANCH   5   9
BRANCH   6  21
HETATM   21  O   UNL     1     -11.071  11.574  65.435  1.00  0.00    -0.267 OA 
HETATM   22  C   UNL     1     -11.117  11.767  64.025  1.00  0.00    -0.390 C  
ENDBRANCH   6  21
ENDBRANCH   2   3
TORSDOF 6
ENDMDL
MODEL       17
REMARK 921   NORMALIZED FREE ENERGY PREDICTED BY IDOCK:   -5.41 KCAL/MOL
REMARK 922        TOTAL FREE ENERGY PREDICTED BY IDOCK:   -7.80 KCAL/MOL
REMARK 923 INTER-LIGAND FREE ENERGY PREDICTED BY IDOCK:   -7.16 KCAL/MOL
REMARK 924 INTRA-LIGAND FREE ENERGY PREDICTED BY IDOCK:   -0.64 KCAL/MOL
REMARK 927      BINDING AFFINITY PREDICTED BY RF-SCORE:    0.00 PKD
ROOT
HETATM    1  C   UNL     1     -12.044  14.078  67.180  1.00  0.00    -0.401 C  
HETATM    2  O   UNL     1     -11.487  15.056  68.054  1.00  0.00    -0.321 OA 
ENDROOT
BRANCH   2   3
HETATM    3  C   UNL     1     -11.758  14.921  69.387  1.00  0.00    -0.319 A  
HETATM    4  C   UNL     1     -12.170  13.749  70.019  1.00  0.00    -0.407 A  
HETATM    5  C   UNL     1     -12.443  13.702  71.405  1.00  0.00    -0.374 A  
HETATM    6  C   UNL     1     -12.270  14.885  72.156  1.00  0.00    -0.348 A  
HETATM    7  C   UNL     1     -11.853  16.061  71.520  1.00  0.00    -0.554 A  
HETATM    8  C   UNL     1     -11.601  16.077  70.145  1.00  0.00    -0.324 A  
BRANCH   5   9
HETATM    9  C   UNL     1     -12.912  12.405  72.072  1.00  0.00    -0.271 C  
HETATM   10  O   UNL     1     -14.220  12.571  72.644  1.00  0.00    -0.495 OA 
HETATM   11  H   UNL     1     -14.511  11.767  73.057  1.00  0.00     0.000 HD 
BRANCH   9  12
HETATM   12  C   UNL     1     -13.010  11.200  71.114  1.00  0.00    -0.296 C  
BRANCH  12  13
HETATM   13  N   UNL     1     -12.057  10.141  71.359  1.00  0.00    -0.383 N  
HETATM   14  H   UNL     1     -11.099  10.221  71.018  1.00  0.00     0.000 HD 
HETATM   15  C   UNL     1     -12.455   9.020  72.059  1.00  0.00    -0.390 C  
HETATM   16  O   UNL     1     -13.615   8.827  72.416  1.00  0.00    -0.409 OA 
BRANCH  15  17
HETATM   17  C   UNL     1     -11.331   8.036  72.385  1.00  0.00    -0.382 C  
HETATM   18  N   UNL     1     -11.833   6.650  72.430  1.00  0.00    -0.468 NA 
HETATM   19  H1  UNL     1     -11.082   5.994  72.648  1.00  0.00     0.000 HD 
HETATM   20  H2  UNL     1     -12.313   6.398  71.566  1.00  0.00     0.000 HD 
ENDBRANCH  15  17
ENDBRANCH  12  13
ENDBRANCH   9  12
ENDBRANCH   5   9
BRANCH   6  21
HETATM   21  O   UNL     1     -12.540  14.793  73.497  1.00  0.00    -0.488 OA 
HETATM   22  C   UNL     1     -12.240  15.925  74.307  1.00  0.00    -0.526 C  
ENDBRANCH   6  21
ENDBRANCH   2   3
TORSDOF 6
ENDMDL
MODEL       18
REMARK 921   NORMALIZED FREE ENERGY PREDICTED BY IDOCK:   -5.40 KCAL/MOL
REMARK 922        TOTAL FREE ENERGY PREDICTED BY IDOCK:   -7.80 KCAL/MOL
REMARK 923 INTER-LIGAND FREE ENERGY PREDICTED BY IDOCK:   -7.18 KCAL/MOL
REMARK 924 INTRA-LIGAND FREE ENERGY PREDICTED BY IDOCK:   -0.61 KCAL/MOL
REMARK 927      BINDING AFFINITY PREDICTED BY RF-SCORE:    0.00 PKD
ROOT
HETATM    1  C   UNL     1     -10.528   8.490  66.968  1.00  0.00    -0.292 C  
HETATM    2  O   UNL     1     -10.581   9.333  68.116  1.00  0.00    -0.221 OA 
ENDROOT
BRANCH   2   3
HETATM    3  C   UNL     1     -11.006  10.618  67.920  1.00  0.00    -0.295 A  
HETATM    4  C   UNL     1     -11.278  11.206  66.687  1.00  0.00    -0.186 A  
HETATM    5  C   UNL     1     -11.703  12.550  66.576  1.00  0.00    -0.454 A  
HETATM    6  C   UNL     1     -11.866  13.295  67.764  1.00  0.00    -0.353 A  
HETATM    7  C   UNL     1     -11.595  12.700  69.003  1.00  0.00    -0.367 A  
HETATM    8  C   UNL     1     -11.167  11.371  69.079  1.00  0.00    -0.319 A  
BRANCH   5   9
HETATM    9  C   UNL     1     -11.977  13.178  65.206  1.00  0.00    -0.398 C  
HETATM   10  O   UNL     1     -13.129  14.036  65.261  1.00  0.00    -0.782 OA 
HETATM   11  H   UNL     1     -13.299  14.426  64.412  1.00  0.00     0.000 HD 
BRANCH   9  12
HETATM   12  C   UNL     1     -10.821  14.043  64.663  1.00  0.00    -0.403 C  
BRANCH  12  13
HETATM   13  N   UNL     1     -10.534  15.236  65.428  1.00  0.00    -0.366 N  
HETATM   14  H   UNL     1     -10.035  15.172  66.316  1.00  0.00     0.000 HD 
HETATM   15  C   UNL     1     -10.941  16.463  64.947  1.00  0.00    -0.263 C  
HETATM   16  O   UNL     1     -11.623  16.595  63.932  1.00  0.00    -1.204 OA 
BRANCH  15  17
HETATM   17  C   UNL     1     -10.457  17.664  65.762  1.00  0.00    -0.205 C  
HETATM   18  N   UNL     1      -8.987  17.677  65.869  1.00  0.00    -0.518 NA 
HETATM   19  H1  UNL     1      -8.665  18.478  66.412  1.00  0.00     0.000 HD 
HETATM   20  H2  UNL     1      -8.544  17.643  64.951  1.00  0.00     0.000 HD 
ENDBRANCH  15  17
ENDBRANCH  12  13
ENDBRANCH   9  12
ENDBRANCH   5   9
BRANCH   6  21
HETATM   21  O   UNL     1     -12.284  14.591  67.611  1.00  0.00    -0.298 OA 
HETATM   22  C   UNL     1     -11.837  15.544  68.570  1.00  0.00    -0.258 C  
ENDBRANCH   6  21
ENDBRANCH   2   3
TORSDOF 6
ENDMDL
MODEL       19
REMARK 921   NORMALIZED FREE ENERGY PREDICTED BY IDOCK:   -5.40 KCAL/MOL
REMARK 922        TOTAL FREE ENERGY PREDICTED BY IDOCK:   -7.79 KCAL/MOL
REMARK 923 INTER-LIGAND FREE ENERGY PREDICTED BY IDOCK:   -7.22 KCAL/MOL
REMARK 924 INTRA-LIGAND FREE ENERGY PREDICTED BY IDOCK:   -0.58 KCAL/MOL
REMARK 927      BINDING AFFINITY PREDICTED BY RF-SCORE:    0.00 PKD
ROOT
HETATM    1  C   UNL     1     -12.245  14.960  70.315  1.00  0.00    -0.335 C  
HETATM    2  O   UNL     1     -11.515  13.900  69.702  1.00  0.00    -0.263 OA 
ENDROOT
BRANCH   2   3
HETATM    3  C   UNL     1     -11.416  13.925  68.338  1.00  0.00    -0.311 A  
HETATM    4  C   UNL     1     -10.994  15.010  67.573  1.00  0.00    -0.307 A  
HETATM    5  C   UNL     1     -10.935  14.954  66.162  1.00  0.00    -0.334 A  
HETATM    6  C   UNL     1     -11.302  13.745  65.530  1.00  0.00    -0.307 A  
HETATM    7  C   UNL     1     -11.722  12.655  66.302  1.00  0.00    -0.460 A  
HETATM    8  C   UNL     1     -11.780  12.746  67.696  1.00  0.00    -0.422 A  
BRANCH   5   9
HETATM    9  C   UNL     1     -10.485  16.167  65.343  1.00  0.00    -0.373 C  
HETATM   10  O   UNL     1     -11.409  16.431  64.274  1.00  0.00    -1.160 OA 
HETATM   11  H   UNL     1     -11.131  17.184  63.766  1.00  0.00     0.000 HD 
BRANCH   9  12
HETATM   12  C   UNL     1     -10.380  17.475  66.154  1.00  0.00    -0.329 C  
BRANCH  12  13
HETATM   13  N   UNL     1      -9.033  17.946  66.388  1.00  0.00    -0.254 N  
HETATM   14  H   UNL     1      -8.299  17.294  66.663  1.00  0.00     0.000 HD 
HETATM   15  C   UNL     1      -8.749  19.288  66.235  1.00  0.00    -0.321 C  
HETATM   16  O   UNL     1      -9.608  20.134  65.993  1.00  0.00    -0.387 OA 
BRANCH  15  17
HETATM   17  C   UNL     1      -7.268  19.648  66.363  1.00  0.00    -0.246 C  
HETATM   18  N   UNL     1      -7.009  21.016  65.877  1.00  0.00    -0.505 NA 
HETATM   19  H1  UNL     1      -6.021  21.256  65.962  1.00  0.00     0.000 HD 
HETATM   20  H2  UNL     1      -7.604  21.699  66.345  1.00  0.00     0.000 HD 
ENDBRANCH  15  17
ENDBRANCH  12  13
ENDBRANCH   9  12
ENDBRANCH   5   9
BRANCH   6  21
HETATM   21  O   UNL     1     -11.224  13.732  64.162  1.00  0.00    -0.345 OA 
HETATM   22  C   UNL     1     -12.014  12.771  63.468  1.00  0.00    -0.555 C  
ENDBRANCH   6  21
ENDBRANCH   2   3
TORSDOF 6
ENDMDL
MODEL       20
REMARK 921   NORMALIZED FREE ENERGY PREDICTED BY IDOCK:   -5.37 KCAL/MOL
REMARK 922        TOTAL FREE ENERGY PREDICTED BY IDOCK:   -7.75 KCAL/MOL
REMARK 923 INTER-LIGAND FREE ENERGY PREDICTED BY IDOCK:   -7.14 KCAL/MOL
REMARK 924 INTRA-LIGAND FREE ENERGY PREDICTED BY IDOCK:   -0.61 KCAL/MOL
REMARK 927      BINDING AFFINITY PREDICTED BY RF-SCORE:    0.00 PKD
ROOT
HETATM    1  C   UNL     1     -12.587  13.533  71.013  1.00  0.00    -0.359 C  
HETATM    2  O   UNL     1     -12.250  13.340  69.642  1.00  0.00    -0.279 OA 
ENDROOT
BRANCH   2   3
HETATM    3  C   UNL     1     -11.715  14.409  68.980  1.00  0.00    -0.310 A  
HETATM    4  C   UNL     1     -11.449  14.470  67.614  1.00  0.00    -0.374 A  
HETATM    5  C   UNL     1     -10.880  15.616  67.012  1.00  0.00    -0.294 A  
HETATM    6  C   UNL     1     -10.595  16.726  67.836  1.00  0.00    -0.350 A  
HETATM    7  C   UNL     1     -10.866  16.664  69.209  1.00  0.00    -0.310 A  
HETATM    8  C   UNL     1     -11.420  15.512  69.775  1.00  0.00    -0.339 A  
BRANCH   5   9
HETATM    9  C   UNL     1     -10.580  15.650  65.510  1.00  0.00    -0.404 C  
HETATM   10  O   UNL     1      -9.518  14.740  65.181  1.00  0.00    -0.375 OA 
HETATM   11  H   UNL     1      -9.332  14.761  64.250  1.00  0.00     0.000 HD 
BRANCH   9  12
HETATM   12  C   UNL     1     -11.775  15.258  64.617  1.00  0.00    -0.308 C  
BRANCH  12  13
HETATM   13  N   UNL     1     -11.597  14.045  63.850  1.00  0.00    -0.634 N  
HETATM   14  H   UNL     1     -10.933  14.017  63.076  1.00  0.00     0.000 HD 
HETATM   15  C   UNL     1     -12.335  12.925  64.175  1.00  0.00    -0.376 C  
HETATM   16  O   UNL     1     -13.212  12.924  65.036  1.00  0.00    -0.765 OA 
BRANCH  15  17
HETATM   17  C   UNL     1     -11.960  11.663  63.396  1.00  0.00    -0.205 C  
HETATM   18  N   UNL     1     -10.553  11.705  62.959  1.00  0.00    -0.677 NA 
HETATM   19  H1  UNL     1     -10.304  10.862  62.439  1.00  0.00     0.000 HD 
HETATM   20  H2  UNL     1      -9.922  11.863  63.744  1.00  0.00     0.000 HD 
ENDBRANCH  15  17
ENDBRANCH  12  13
ENDBRANCH   9  12
ENDBRANCH   5   9
BRANCH   6  21
HETATM   21  O   UNL     1     -10.049  17.817  67.211  1.00  0.00    -0.311 OA 
HETATM   22  C   UNL     1     -10.740  19.057  67.329  1.00  0.00    -0.470 C  
ENDBRANCH   6  21
ENDBRANCH   2   3
TORSDOF 6
ENDMDL
MODEL       21
REMARK 921   NORMALIZED FREE ENERGY PREDICTED BY IDOCK:   -5.37 KCAL/MOL
REMARK 922        TOTAL FREE ENERGY PREDICTED BY IDOCK:   -7.74 KCAL/MOL
REMARK 923 INTER-LIGAND FREE ENERGY PREDICTED BY IDOCK:   -7.06 KCAL/MOL
REMARK 924 INTRA-LIGAND FREE ENERGY PREDICTED BY IDOCK:   -0.69 KCAL/MOL
REMARK 927      BINDING AFFINITY PREDICTED BY RF-SCORE:    0.00 PKD
ROOT
HETATM    1  C   UNL     1     -12.218  11.808  70.563  1.00  0.00    -0.347 C  
HETATM    2  O   UNL     1     -12.131  11.601  69.156  1.00  0.00    -0.317 OA 
ENDROOT
BRANCH   2   3
HETATM    3  C   UNL     1     -11.860  12.697  68.385  1.00  0.00    -0.301 A  
HETATM    4  C   UNL     1     -11.842  12.728  66.992  1.00  0.00    -0.428 A  
HETATM    5  C   UNL     1     -11.537  13.906  66.273  1.00  0.00    -0.378 A  
HETATM    6  C   UNL     1     -11.260  15.079  67.008  1.00  0.00    -0.328 A  
HETATM    7  C   UNL     1     -11.281  15.046  68.408  1.00  0.00    -0.303 A  
HETATM    8  C   UNL     1     -11.577  13.863  69.090  1.00  0.00    -0.359 A  
BRANCH   5   9
HETATM    9  C   UNL     1     -11.507  13.908  64.742  1.00  0.00    -0.362 C  
HETATM   10  O   UNL     1     -10.164  14.077  64.259  1.00  0.00    -0.674 OA 
HETATM   11  H   UNL     1     -10.145  14.078  63.309  1.00  0.00     0.000 HD 
BRANCH   9  12
HETATM   12  C   UNL     1     -12.038  12.612  64.096  1.00  0.00    -0.439 C  
BRANCH  12  13
HETATM   13  N   UNL     1     -11.136  11.978  63.160  1.00  0.00    -0.696 N  
HETATM   14  H   UNL     1     -11.129  12.259  62.180  1.00  0.00     0.000 HD 
HETATM   15  C   UNL     1     -10.285  10.987  63.605  1.00  0.00    -0.372 C  
HETATM   16  O   UNL     1     -10.310  10.544  64.752  1.00  0.00    -0.339 OA 
BRANCH  15  17
HETATM   17  C   UNL     1      -9.277  10.492  62.566  1.00  0.00    -0.297 C  
HETATM   18  N   UNL     1      -8.189  11.468  62.372  1.00  0.00    -0.635 NA 
HETATM   19  H1  UNL     1      -7.517  11.137  61.679  1.00  0.00     0.000 HD 
HETATM   20  H2  UNL     1      -7.734  11.701  63.255  1.00  0.00     0.000 HD 
ENDBRANCH  15  17
ENDBRANCH  12  13
ENDBRANCH   9  12
ENDBRANCH   5   9
BRANCH   6  21
HETATM   21  O   UNL     1     -10.975  16.199  66.271  1.00  0.00    -0.190 OA 
HETATM   22  C   UNL     1      -9.936  17.051  66.746  1.00  0.00    -0.295 C  
ENDBRANCH   6  21
ENDBRANCH   2   3
TORSDOF 6
ENDMDL
MODEL       22
REMARK 921   NORMALIZED FREE ENERGY PREDICTED BY IDOCK:   -5.36 KCAL/MOL
REMARK 922        TOTAL FREE ENERGY PREDICTED BY IDOCK:   -7.73 KCAL/MOL
REMARK 923 INTER-LIGAND FREE ENERGY PREDICTED BY IDOCK:   -7.39 KCAL/MOL
REMARK 924 INTRA-LIGAND FREE ENERGY PREDICTED BY IDOCK:   -0.34 KCAL/MOL
REMARK 927      BINDING AFFINITY PREDICTED BY RF-SCORE:    0.00 PKD
ROOT
HETATM    1  C   UNL     1     -12.560  11.951  63.266  1.00  0.00    -0.344 C  
HETATM    2  O   UNL     1     -12.617  13.255  63.838  1.00  0.00    -0.661 OA 
ENDROOT
BRANCH   2   3
HETATM    3  C   UNL     1     -12.054  13.414  65.074  1.00  0.00    -0.401 A  
HETATM    4  C   UNL     1     -11.942  12.425  66.049  1.00  0.00    -0.419 A  
HETATM    5  C   UNL     1     -11.355  12.681  67.310  1.00  0.00    -0.372 A  
HETATM    6  C   UNL     1     -10.859  13.979  67.560  1.00  0.00    -0.270 A  
HETATM    7  C   UNL     1     -10.971  14.970  66.577  1.00  0.00    -0.327 A  
HETATM    8  C   UNL     1     -11.565  14.688  65.343  1.00  0.00    -0.345 A  
BRANCH   5   9
HETATM    9  C   UNL     1     -11.261  11.582  68.372  1.00  0.00    -0.255 C  
HETATM   10  O   UNL     1      -9.975  11.602  69.014  1.00  0.00    -0.389 OA 
HETATM   11  H   UNL     1      -9.917  10.921  69.674  1.00  0.00     0.000 HD 
BRANCH   9  12
HETATM   12  C   UNL     1     -12.308  11.699  69.499  1.00  0.00    -0.089 C  
BRANCH  12  13
HETATM   13  N   UNL     1     -12.752  10.441  70.059  1.00  0.00    -0.549 N  
HETATM   14  H   UNL     1     -12.778   9.601  69.481  1.00  0.00     0.000 HD 
HETATM   15  C   UNL     1     -13.138  10.388  71.382  1.00  0.00    -0.413 C  
HETATM   16  O   UNL     1     -13.213  11.382  72.102  1.00  0.00    -0.490 OA 
BRANCH  15  17
HETATM   17  C   UNL     1     -13.447   8.984  71.904  1.00  0.00    -0.425 C  
HETATM   18  N   UNL     1     -14.019   9.034  73.261  1.00  0.00    -1.199 NA 
HETATM   19  H1  UNL     1     -14.225   8.097  73.609  1.00  0.00     0.000 HD 
HETATM   20  H2  UNL     1     -14.840   9.637  73.299  1.00  0.00     0.000 HD 
ENDBRANCH  15  17
ENDBRANCH  12  13
ENDBRANCH   9  12
ENDBRANCH   5   9
BRANCH   6  21
HETATM   21  O   UNL     1     -10.294  14.181  68.792  1.00  0.00    -0.235 OA 
HETATM   22  C   UNL     1      -9.271  15.168  68.892  1.00  0.00    -0.209 C  
ENDBRANCH   6  21
ENDBRANCH   2   3
TORSDOF 6
ENDMDL
MODEL       23
REMARK 921   NORMALIZED FREE ENERGY PREDICTED BY IDOCK:   -5.35 KCAL/MOL
REMARK 922        TOTAL FREE ENERGY PREDICTED BY IDOCK:   -7.73 KCAL/MOL
REMARK 923 INTER-LIGAND FREE ENERGY PREDICTED BY IDOCK:   -6.93 KCAL/MOL
REMARK 924 INTRA-LIGAND FREE ENERGY PREDICTED BY IDOCK:   -0.80 KCAL/MOL
REMARK 927      BINDING AFFINITY PREDICTED BY RF-SCORE:    0.00 PKD
ROOT
HETATM    1  C   UNL     1     -10.125   8.644  68.490  1.00  0.00    -0.190 C  
HETATM    2  O   UNL     1     -10.875   9.166  67.397  1.00  0.00    -0.243 OA 
ENDROOT
BRANCH   2   3
HETATM    3  C   UNL     1     -10.786  10.512  67.173  1.00  0.00    -0.259 A  
HETATM    4  C   UNL     1     -11.191  11.512  68.055  1.00  0.00    -0.335 A  
HETATM    5  C   UNL     1     -11.075  12.884  67.735  1.00  0.00    -0.291 A  
HETATM    6  C   UNL     1     -10.514  13.230  66.487  1.00  0.00    -0.281 A  
HETATM    7  C   UNL     1     -10.105  12.223  65.603  1.00  0.00    -0.275 A  
HETATM    8  C   UNL     1     -10.242  10.874  65.945  1.00  0.00    -0.314 A  
BRANCH   5   9
HETATM    9  C   UNL     1     -11.545  13.963  68.715  1.00  0.00    -0.335 C  
HETATM   10  O   UNL     1     -12.497  14.840  68.090  1.00  0.00    -0.574 OA 
HETATM   11  H   UNL     1     -12.789  15.509  68.698  1.00  0.00     0.000 HD 
BRANCH   9  12
HETATM   12  C   UNL     1     -12.232  13.413  69.982  1.00  0.00    -0.298 C  
BRANCH  12  13
HETATM   13  N   UNL     1     -11.921  14.119  71.205  1.00  0.00    -0.453 N  
HETATM   14  H   UNL     1     -11.157  13.803  71.803  1.00  0.00     0.000 HD 
HETATM   15  C   UNL     1     -12.667  15.224  71.558  1.00  0.00    -0.384 C  
HETATM   16  O   UNL     1     -13.654  15.599  70.927  1.00  0.00    -0.568 OA 
BRANCH  15  17
HETATM   17  C   UNL     1     -12.159  15.975  72.789  1.00  0.00    -0.531 C  
HETATM   18  N   UNL     1     -13.247  16.213  73.755  1.00  0.00    -0.902 NA 
HETATM   19  H1  UNL     1     -12.907  16.715  74.576  1.00  0.00     0.000 HD 
HETATM   20  H2  UNL     1     -13.716  15.345  74.012  1.00  0.00     0.000 HD 
ENDBRANCH  15  17
ENDBRANCH  12  13
ENDBRANCH   9  12
ENDBRANCH   5   9
BRANCH   6  21
HETATM   21  O   UNL     1     -10.415  14.570  66.220  1.00  0.00    -0.288 OA 
HETATM   22  C   UNL     1     -10.844  15.019  64.938  1.00  0.00    -0.411 C  
ENDBRANCH   6  21
ENDBRANCH   2   3
TORSDOF 6
ENDMDL
MODEL       24
REMARK 921   NORMALIZED FREE ENERGY PREDICTED BY IDOCK:   -5.35 KCAL/MOL
REMARK 922        TOTAL FREE ENERGY PREDICTED BY IDOCK:   -7.72 KCAL/MOL
REMARK 923 INTER-LIGAND FREE ENERGY PREDICTED BY IDOCK:   -7.12 KCAL/MOL
REMARK 924 INTRA-LIGAND FREE ENERGY PREDICTED BY IDOCK:   -0.59 KCAL/MOL
REMARK 927      BINDING AFFINITY PREDICTED BY RF-SCORE:    0.00 PKD
ROOT
HETATM    1  C   UNL     1     -13.507  13.363  72.191  1.00  0.00    -0.552 C  
HETATM    2  O   UNL     1     -12.685  12.918  71.115  1.00  0.00    -0.360 OA 
ENDROOT
BRANCH   2   3
HETATM    3  C   UNL     1     -12.229  13.873  70.250  1.00  0.00    -0.358 A  
HETATM    4  C   UNL     1     -12.125  13.735  68.867  1.00  0.00    -0.348 A  
HETATM    5  C   UNL     1     -11.627  14.773  68.046  1.00  0.00    -0.367 A  
HETATM    6  C   UNL     1     -11.246  15.983  68.665  1.00  0.00    -0.366 A  
HETATM    7  C   UNL     1     -11.354  16.121  70.055  1.00  0.00    -0.332 A  
HETATM    8  C   UNL     1     -11.841  15.072  70.840  1.00  0.00    -0.376 A  
BRANCH   5   9
HETATM    9  C   UNL     1     -11.505  14.589  66.531  1.00  0.00    -0.362 C  
HETATM   10  O   UNL     1     -10.177  14.906  66.084  1.00  0.00    -0.273 OA 
HETATM   11  H   UNL     1     -10.101  14.791  65.144  1.00  0.00     0.000 HD 
BRANCH   9  12
HETATM   12  C   UNL     1     -11.793  13.154  66.042  1.00  0.00    -0.407 C  
BRANCH  12  13
HETATM   13  N   UNL     1     -10.725  12.536  65.287  1.00  0.00    -0.278 N  
HETATM   14  H   UNL     1      -9.886  12.202  65.761  1.00  0.00     0.000 HD 
HETATM   15  C   UNL     1     -10.852  12.401  63.921  1.00  0.00    -0.420 C  
HETATM   16  O   UNL     1     -11.798  12.862  63.284  1.00  0.00    -0.537 OA 
BRANCH  15  17
HETATM   17  C   UNL     1      -9.733  11.604  63.248  1.00  0.00    -0.368 C  
HETATM   18  N   UNL     1     -10.277  10.484  62.459  1.00  0.00    -0.718 NA 
HETATM   19  H1  UNL     1      -9.530   9.952  62.010  1.00  0.00     0.000 HD 
HETATM   20  H2  UNL     1     -10.969  10.805  61.781  1.00  0.00     0.000 HD 
ENDBRANCH  15  17
ENDBRANCH  12  13
ENDBRANCH   9  12
ENDBRANCH   5   9
BRANCH   6  21
HETATM   21  O   UNL     1     -10.775  16.964  67.832  1.00  0.00    -0.347 OA 
HETATM   22  C   UNL     1     -10.360  18.190  68.427  1.00  0.00    -0.356 C  
ENDBRANCH   6  21
ENDBRANCH   2   3
TORSDOF 6
ENDMDL
MODEL       25
REMARK 921   NORMALIZED FREE ENERGY PREDICTED BY IDOCK:   -5.32 KCAL/MOL
REMARK 922        TOTAL FREE ENERGY PREDICTED BY IDOCK:   -7.68 KCAL/MOL
REMARK 923 INTER-LIGAND FREE ENERGY PREDICTED BY IDOCK:   -7.18 KCAL/MOL
REMARK 924 INTRA-LIGAND FREE ENERGY PREDICTED BY IDOCK:   -0.50 KCAL/MOL
REMARK 927      BINDING AFFINITY PREDICTED BY RF-SCORE:    0.00 PKD
ROOT
HETATM    1  C   UNL     1     -13.431   9.326  72.241  1.00  0.00    -0.482 C  
HETATM    2  O   UNL     1     -12.125   8.931  71.832  1.00  0.00    -0.325 OA 
ENDROOT
BRANCH   2   3
HETATM    3  C   UNL     1     -11.505   9.716  70.900  1.00  0.00    -0.353 A  
HETATM    4  C   UNL     1     -11.941  10.968  70.470  1.00  0.00    -0.474 A  
HETATM    5  C   UNL     1     -11.244  11.708  69.488  1.00  0.00    -0.282 A  
HETATM    6  C   UNL     1     -10.062  11.150  68.952  1.00  0.00    -0.186 A  
HETATM    7  C   UNL     1      -9.624   9.893  69.387  1.00  0.00    -0.229 A  
HETATM    8  C   UNL     1     -10.342   9.182  70.353  1.00  0.00    -0.269 A  
BRANCH   5   9
HETATM    9  C   UNL     1     -11.755  13.073  69.019  1.00  0.00    -0.329 C  
HETATM   10  O   UNL     1     -10.789  14.101  69.292  1.00  0.00    -0.295 OA 
HETATM   11  H   UNL     1     -11.105  14.947  69.002  1.00  0.00     0.000 HD 
BRANCH   9  12
HETATM   12  C   UNL     1     -12.054  13.153  67.508  1.00  0.00    -0.248 C  
BRANCH  12  13
HETATM   13  N   UNL     1     -11.347  14.195  66.796  1.00  0.00    -0.330 N  
HETATM   14  H   UNL     1     -10.525  14.635  67.210  1.00  0.00     0.000 HD 
HETATM   15  C   UNL     1     -11.794  14.587  65.551  1.00  0.00    -0.330 C  
HETATM   16  O   UNL     1     -12.827  14.157  65.041  1.00  0.00    -0.687 OA 
BRANCH  15  17
HETATM   17  C   UNL     1     -10.888  15.587  64.831  1.00  0.00    -0.427 C  
HETATM   18  N   UNL     1     -11.650  16.389  63.856  1.00  0.00    -1.602 NA 
HETATM   19  H1  UNL     1     -11.045  17.056  63.376  1.00  0.00     0.000 HD 
HETATM   20  H2  UNL     1     -12.447  16.852  64.294  1.00  0.00     0.000 HD 
ENDBRANCH  15  17
ENDBRANCH  12  13
ENDBRANCH   9  12
ENDBRANCH   5   9
BRANCH   6  21
HETATM   21  O   UNL     1      -9.415  11.903  68.007  1.00  0.00    -0.184 OA 
HETATM   22  C   UNL     1      -8.010  12.085  68.160  1.00  0.00    -0.152 C  
ENDBRANCH   6  21
ENDBRANCH   2   3
TORSDOF 6
ENDMDL
MODEL       26
REMARK 921   NORMALIZED FREE ENERGY PREDICTED BY IDOCK:   -5.31 KCAL/MOL
REMARK 922        TOTAL FREE ENERGY PREDICTED BY IDOCK:   -7.67 KCAL/MOL
REMARK 923 INTER-LIGAND FREE ENERGY PREDICTED BY IDOCK:   -7.13 KCAL/MOL
REMARK 924 INTRA-LIGAND FREE ENERGY PREDICTED BY IDOCK:   -0.54 KCAL/MOL
REMARK 927      BINDING AFFINITY PREDICTED BY RF-SCORE:    0.00 PKD
ROOT
HETATM    1  C   UNL     1      -6.596  14.416  68.495  1.00  0.00    -0.094 C  
HETATM    2  O   UNL     1      -6.379  15.158  67.298  1.00  0.00    -0.312 OA 
ENDROOT
BRANCH   2   3
HETATM    3  C   UNL     1      -7.383  15.997  66.900  1.00  0.00    -0.201 A  
HETATM    4  C   UNL     1      -8.652  15.604  66.480  1.00  0.00    -0.335 A  
HETATM    5  C   UNL     1      -9.629  16.541  66.071  1.00  0.00    -0.323 A  
HETATM    6  C   UNL     1      -9.292  17.912  66.113  1.00  0.00    -0.132 A  
HETATM    7  C   UNL     1      -8.016  18.304  66.537  1.00  0.00    -0.294 A  
HETATM    8  C   UNL     1      -7.069  17.352  66.926  1.00  0.00    -0.229 A  
BRANCH   5   9
HETATM    9  C   UNL     1     -11.011  16.083  65.597  1.00  0.00    -0.171 C  
HETATM   10  O   UNL     1     -11.167  16.310  64.187  1.00  0.00    -1.193 OA 
HETATM   11  H   UNL     1     -12.024  16.025  63.892  1.00  0.00     0.000 HD 
BRANCH   9  12
HETATM   12  C   UNL     1     -11.294  14.583  65.826  1.00  0.00    -0.336 C  
BRANCH  12  13
HETATM   13  N   UNL     1     -10.800  13.700  64.792  1.00  0.00    -0.372 N  
HETATM   14  H   UNL     1      -9.858  13.817  64.421  1.00  0.00     0.000 HD 
HETATM   15  C   UNL     1     -11.617  12.698  64.312  1.00  0.00    -0.374 C  
HETATM   16  O   UNL     1     -12.790  12.563  64.654  1.00  0.00    -0.716 OA 
BRANCH  15  17
HETATM   17  C   UNL     1     -10.943  11.737  63.331  1.00  0.00    -0.380 C  
HETATM   18  N   UNL     1      -9.495  11.995  63.242  1.00  0.00    -0.667 NA 
HETATM   19  H1  UNL     1      -9.046  11.354  62.587  1.00  0.00     0.000 HD 
HETATM   20  H2  UNL     1      -9.052  11.965  64.161  1.00  0.00     0.000 HD 
ENDBRANCH  15  17
ENDBRANCH  12  13
ENDBRANCH   9  12
ENDBRANCH   5   9
BRANCH   6  21
HETATM   21  O   UNL     1     -10.269  18.785  65.714  1.00  0.00    -0.541 OA 
HETATM   22  C   UNL     1     -10.297  20.069  66.332  1.00  0.00    -0.455 C  
ENDBRANCH   6  21
ENDBRANCH   2   3
TORSDOF 6
ENDMDL
MODEL       27
REMARK 921   NORMALIZED FREE ENERGY PREDICTED BY IDOCK:   -5.30 KCAL/MOL
REMARK 922        TOTAL FREE ENERGY PREDICTED BY IDOCK:   -7.65 KCAL/MOL
REMARK 923 INTER-LIGAND FREE ENERGY PREDICTED BY IDOCK:   -7.08 KCAL/MOL
REMARK 924 INTRA-LIGAND FREE ENERGY PREDICTED BY IDOCK:   -0.57 KCAL/MOL
REMARK 927      BINDING AFFINITY PREDICTED BY RF-SCORE:    0.00 PKD
ROOT
HETATM    1  C   UNL     1     -10.329  19.167  66.030  1.00  0.00    -0.463 C  
HETATM    2  O   UNL     1      -9.812  17.861  65.790  1.00  0.00    -0.540 OA 
ENDROOT
BRANCH   2   3
HETATM    3  C   UNL     1     -10.127  16.894  66.704  1.00  0.00    -0.304 A  
HETATM    4  C   UNL     1      -9.851  15.534  66.576  1.00  0.00    -0.281 A  
HETATM    5  C   UNL     1     -10.227  14.598  67.567  1.00  0.00    -0.225 A  
HETATM    6  C   UNL     1     -10.885  15.079  68.720  1.00  0.00    -0.249 A  
HETATM    7  C   UNL     1     -11.158  16.447  68.847  1.00  0.00    -0.328 A  
HETATM    8  C   UNL     1     -10.783  17.346  67.844  1.00  0.00    -0.351 A  
BRANCH   5   9
HETATM    9  C   UNL     1      -9.928  13.106  67.394  1.00  0.00    -0.229 C  
HETATM   10  O   UNL     1      -9.421  12.542  68.615  1.00  0.00    -0.376 OA 
HETATM   11  H   UNL     1      -9.236  11.617  68.508  1.00  0.00     0.000 HD 
BRANCH   9  12
HETATM   12  C   UNL     1     -11.155  12.256  67.004  1.00  0.00    -0.287 C  
BRANCH  12  13
HETATM   13  N   UNL     1     -11.279  11.967  65.593  1.00  0.00    -0.326 N  
HETATM   14  H   UNL     1     -10.658  11.291  65.148  1.00  0.00     0.000 HD 
HETATM   15  C   UNL     1     -12.247  12.614  64.852  1.00  0.00    -0.471 C  
HETATM   16  O   UNL     1     -12.964  13.501  65.311  1.00  0.00    -0.701 OA 
BRANCH  15  17
HETATM   17  C   UNL     1     -12.384  12.125  63.409  1.00  0.00    -0.538 C  
HETATM   18  N   UNL     1     -11.255  11.254  63.033  1.00  0.00    -0.835 NA 
HETATM   19  H1  UNL     1     -11.347  10.928  62.070  1.00  0.00     0.000 HD 
HETATM   20  H2  UNL     1     -11.149  10.477  63.684  1.00  0.00     0.000 HD 
ENDBRANCH  15  17
ENDBRANCH  12  13
ENDBRANCH   9  12
ENDBRANCH   5   9
BRANCH   6  21
HETATM   21  O   UNL     1     -11.225  14.139  69.657  1.00  0.00    -0.247 OA 
HETATM   22  C   UNL     1     -12.091  14.546  70.712  1.00  0.00    -0.329 C  
ENDBRANCH   6  21
ENDBRANCH   2   3
TORSDOF 6
ENDMDL
MODEL       28
REMARK 921   NORMALIZED FREE ENERGY PREDICTED BY IDOCK:   -5.29 KCAL/MOL
REMARK 922        TOTAL FREE ENERGY PREDICTED BY IDOCK:   -7.64 KCAL/MOL
REMARK 923 INTER-LIGAND FREE ENERGY PREDICTED BY IDOCK:   -7.18 KCAL/MOL
REMARK 924 INTRA-LIGAND FREE ENERGY PREDICTED BY IDOCK:   -0.47 KCAL/MOL
REMARK 927      BINDING AFFINITY PREDICTED BY RF-SCORE:    0.00 PKD
ROOT
HETATM    1  C   UNL     1     -10.997  12.355  63.643  1.00  0.00    -0.470 C  
HETATM    2  O   UNL     1     -10.886  13.540  64.426  1.00  0.00    -0.392 OA 
ENDROOT
BRANCH   2   3
HETATM    3  C   UNL     1     -11.193  13.435  65.754  1.00  0.00    -0.290 A  
HETATM    4  C   UNL     1     -11.296  14.495  66.652  1.00  0.00    -0.359 A  
HETATM    5  C   UNL     1     -11.606  14.294  68.017  1.00  0.00    -0.364 A  
HETATM    6  C   UNL     1     -11.830  12.971  68.458  1.00  0.00    -0.325 A  
HETATM    7  C   UNL     1     -11.729  11.907  67.553  1.00  0.00    -0.335 A  
HETATM    8  C   UNL     1     -11.412  12.139  66.211  1.00  0.00    -0.433 A  
BRANCH   5   9
HETATM    9  C   UNL     1     -11.694  15.475  68.987  1.00  0.00    -0.377 C  
HETATM   10  O   UNL     1     -12.995  15.539  69.595  1.00  0.00    -0.497 OA 
HETATM   11  H   UNL     1     -13.050  16.272  70.197  1.00  0.00     0.000 HD 
BRANCH   9  12
HETATM   12  C   UNL     1     -10.679  15.419  70.147  1.00  0.00    -0.308 C  
BRANCH  12  13
HETATM   13  N   UNL     1     -11.207  14.935  71.404  1.00  0.00    -0.566 N  
HETATM   14  H   UNL     1     -11.248  13.934  71.594  1.00  0.00     0.000 HD 
HETATM   15  C   UNL     1     -11.655  15.840  72.343  1.00  0.00    -0.409 C  
HETATM   16  O   UNL     1     -11.715  17.051  72.136  1.00  0.00    -0.018 OA 
BRANCH  15  17
HETATM   17  C   UNL     1     -12.054  15.226  73.686  1.00  0.00    -0.507 C  
HETATM   18  N   UNL     1     -13.039  16.070  74.386  1.00  0.00    -0.849 NA 
HETATM   19  H1  UNL     1     -13.304  15.659  75.283  1.00  0.00     0.000 HD 
HETATM   20  H2  UNL     1     -13.854  16.257  73.803  1.00  0.00     0.000 HD 
ENDBRANCH  15  17
ENDBRANCH  12  13
ENDBRANCH   9  12
ENDBRANCH   5   9
BRANCH   6  21
HETATM   21  O   UNL     1     -12.133  12.822  69.786  1.00  0.00    -0.296 OA 
HETATM   22  C   UNL     1     -12.065  11.508  70.333  1.00  0.00    -0.382 C  
ENDBRANCH   6  21
ENDBRANCH   2   3
TORSDOF 6
ENDMDL
MODEL       29
REMARK 921   NORMALIZED FREE ENERGY PREDICTED BY IDOCK:   -5.27 KCAL/MOL
REMARK 922        TOTAL FREE ENERGY PREDICTED BY IDOCK:   -7.61 KCAL/MOL
REMARK 923 INTER-LIGAND FREE ENERGY PREDICTED BY IDOCK:   -6.89 KCAL/MOL
REMARK 924 INTRA-LIGAND FREE ENERGY PREDICTED BY IDOCK:   -0.72 KCAL/MOL
REMARK 927      BINDING AFFINITY PREDICTED BY RF-SCORE:    0.00 PKD
ROOT
HETATM    1  C   UNL     1      -9.731  20.320  67.465  1.00  0.00    -0.435 C  
HETATM    2  O   UNL     1     -10.654  19.389  66.906  1.00  0.00    -0.428 OA 
ENDROOT
BRANCH   2   3
HETATM    3  C   UNL     1     -10.277  18.075  66.893  1.00  0.00    -0.362 A  
HETATM    4  C   UNL     1     -11.028  17.009  67.381  1.00  0.00    -0.065 A  
HETATM    5  C   UNL     1     -10.553  15.677  67.340  1.00  0.00    -0.301 A  
HETATM    6  C   UNL     1      -9.284  15.443  66.767  1.00  0.00    -0.249 A  
HETATM    7  C   UNL     1      -8.532  16.518  66.274  1.00  0.00    -0.363 A  
HETATM    8  C   UNL     1      -9.026  17.824  66.339  1.00  0.00    -0.252 A  
BRANCH   5   9
HETATM    9  C   UNL     1     -11.390  14.524  67.900  1.00  0.00    -0.310 C  
HETATM   10  O   UNL     1     -12.201  14.971  68.999  1.00  0.00    -0.538 OA 
HETATM   11  H   UNL     1     -12.721  14.256  69.347  1.00  0.00     0.000 HD 
BRANCH   9  12
HETATM   12  C   UNL     1     -12.358  13.890  66.880  1.00  0.00    -0.292 C  
BRANCH  12  13
HETATM   13  N   UNL     1     -11.725  13.142  65.816  1.00  0.00    -0.355 N  
HETATM   14  H   UNL     1     -11.144  12.332  66.030  1.00  0.00     0.000 HD 
HETATM   15  C   UNL     1     -11.915  13.535  64.507  1.00  0.00    -0.410 C  
HETATM   16  O   UNL     1     -12.529  14.553  64.193  1.00  0.00    -0.707 OA 
BRANCH  15  17
HETATM   17  C   UNL     1     -11.323  12.589  63.461  1.00  0.00    -0.486 C  
HETATM   18  N   UNL     1     -12.297  11.557  63.065  1.00  0.00    -0.935 NA 
HETATM   19  H1  UNL     1     -11.901  10.926  62.367  1.00  0.00     0.000 HD 
HETATM   20  H2  UNL     1     -13.172  11.971  62.744  1.00  0.00     0.000 HD 
ENDBRANCH  15  17
ENDBRANCH  12  13
ENDBRANCH   9  12
ENDBRANCH   5   9
BRANCH   6  21
HETATM   21  O   UNL     1      -8.865  14.139  66.742  1.00  0.00    -0.228 OA 
HETATM   22  C   UNL     1      -7.813  13.769  67.629  1.00  0.00    -0.178 C  
ENDBRANCH   6  21
ENDBRANCH   2   3
TORSDOF 6
ENDMDL
MODEL       30
REMARK 921   NORMALIZED FREE ENERGY PREDICTED BY IDOCK:   -5.25 KCAL/MOL
REMARK 922        TOTAL FREE ENERGY PREDICTED BY IDOCK:   -7.58 KCAL/MOL
REMARK 923 INTER-LIGAND FREE ENERGY PREDICTED BY IDOCK:   -6.86 KCAL/MOL
REMARK 924 INTRA-LIGAND FREE ENERGY PREDICTED BY IDOCK:   -0.72 KCAL/MOL
REMARK 927      BINDING AFFINITY PREDICTED BY RF-SCORE:    0.00 PKD
ROOT
HETATM    1  C   UNL     1     -10.348  18.160  66.281  1.00  0.00    -0.397 C  
HETATM    2  O   UNL     1      -9.726  16.897  66.059  1.00  0.00    -0.393 OA 
ENDROOT
BRANCH   2   3
HETATM    3  C   UNL     1     -10.553  15.829  65.849  1.00  0.00    -0.339 A  
HETATM    4  C   UNL     1     -10.757  14.772  66.734  1.00  0.00    -0.309 A  
HETATM    5  C   UNL     1     -11.623  13.697  66.430  1.00  0.00    -0.375 A  
HETATM    6  C   UNL     1     -12.305  13.724  65.194  1.00  0.00    -0.448 A  
HETATM    7  C   UNL     1     -12.101  14.789  64.307  1.00  0.00    -0.415 A  
HETATM    8  C   UNL     1     -11.229  15.832  64.634  1.00  0.00    -0.373 A  
BRANCH   5   9
HETATM    9  C   UNL     1     -11.816  12.538  67.412  1.00  0.00    -0.312 C  
HETATM   10  O   UNL     1     -11.589  11.276  66.763  1.00  0.00    -0.433 OA 
HETATM   11  H   UNL     1     -11.708  10.557  67.372  1.00  0.00     0.000 HD 
BRANCH   9  12
HETATM   12  C   UNL     1     -10.866  12.574  68.628  1.00  0.00    -0.248 C  
BRANCH  12  13
HETATM   13  N   UNL     1     -11.392  11.978  69.836  1.00  0.00    -0.510 N  
HETATM   14  H   UNL     1     -11.950  12.534  70.484  1.00  0.00     0.000 HD 
HETATM   15  C   UNL     1     -11.131  10.650  70.105  1.00  0.00    -0.268 C  
HETATM   16  O   UNL     1     -10.392   9.956  69.410  1.00  0.00    -0.194 OA 
BRANCH  15  17
HETATM   17  C   UNL     1     -11.856  10.090  71.330  1.00  0.00    -0.385 C  
HETATM   18  N   UNL     1     -13.310  10.319  71.239  1.00  0.00    -0.332 NA 
HETATM   19  H1  UNL     1     -13.793   9.945  72.056  1.00  0.00     0.000 HD 
HETATM   20  H2  UNL     1     -13.694   9.945  70.371  1.00  0.00     0.000 HD 
ENDBRANCH  15  17
ENDBRANCH  12  13
ENDBRANCH   9  12
ENDBRANCH   5   9
BRANCH   6  21
HETATM   21  O   UNL     1     -13.139  12.666  64.942  1.00  0.00    -0.850 OA 
HETATM   22  C   UNL     1     -12.891  11.898  63.768  1.00  0.00    -0.278 C  
ENDBRANCH   6  21
ENDBRANCH   2   3
TORSDOF 6
ENDMDL
MODEL       31
REMARK 921   NORMALIZED FREE ENERGY PREDICTED BY IDOCK:   -5.22 KCAL/MOL
REMARK 922        TOTAL FREE ENERGY PREDICTED BY IDOCK:   -7.54 KCAL/MOL
REMARK 923 INTER-LIGAND FREE ENERGY PREDICTED BY IDOCK:   -6.68 KCAL/MOL
REMARK 924 INTRA-LIGAND FREE ENERGY PREDICTED BY IDOCK:   -0.86 KCAL/MOL
REMARK 927      BINDING AFFINITY PREDICTED BY RF-SCORE:    0.00 PKD
ROOT
HETATM    1  C   UNL     1     -10.554  18.472  66.062  1.00  0.00    -0.331 C  
HETATM    2  O   UNL     1      -9.928  17.307  65.532  1.00  0.00    -0.557 OA 
ENDROOT
BRANCH   2   3
HETATM    3  C   UNL     1     -10.525  16.106  65.802  1.00  0.00    -0.367 A  
HETATM    4  C   UNL     1     -10.969  15.188  64.853  1.00  0.00    -0.434 A  
HETATM    5  C   UNL     1     -11.590  13.972  65.222  1.00  0.00    -0.339 A  
HETATM    6  C   UNL     1     -11.740  13.694  66.598  1.00  0.00    -0.388 A  
HETATM    7  C   UNL     1     -11.290  14.618  67.550  1.00  0.00    -0.361 A  
HETATM    8  C   UNL     1     -10.688  15.816  67.153  1.00  0.00    -0.312 A  
BRANCH   5   9
HETATM    9  C   UNL     1     -12.087  12.988  64.159  1.00  0.00    -0.427 C  
HETATM   10  O   UNL     1     -12.535  13.686  62.987  1.00  0.00    -1.020 OA 
HETATM   11  H   UNL     1     -12.843  13.076  62.327  1.00  0.00     0.000 HD 
BRANCH   9  12
HETATM   12  C   UNL     1     -11.019  11.982  63.680  1.00  0.00    -0.448 C  
BRANCH  12  13
HETATM   13  N   UNL     1     -10.943  10.756  64.443  1.00  0.00    -0.161 N  
HETATM   14  H   UNL     1     -11.674  10.050  64.358  1.00  0.00     0.000 HD 
HETATM   15  C   UNL     1      -9.872  10.549  65.287  1.00  0.00    -0.284 C  
HETATM   16  O   UNL     1      -9.009  11.399  65.499  1.00  0.00    -0.183 OA 
BRANCH  15  17
HETATM   17  C   UNL     1      -9.819   9.162  65.929  1.00  0.00    -0.235 C  
HETATM   18  N   UNL     1      -8.591   8.444  65.544  1.00  0.00    -0.174 NA 
HETATM   19  H1  UNL     1      -8.556   7.518  65.972  1.00  0.00     0.000 HD 
HETATM   20  H2  UNL     1      -7.756   8.988  65.758  1.00  0.00     0.000 HD 
ENDBRANCH  15  17
ENDBRANCH  12  13
ENDBRANCH   9  12
ENDBRANCH   5   9
BRANCH   6  21
HETATM   21  O   UNL     1     -12.342  12.503  66.910  1.00  0.00    -0.431 OA 
HETATM   22  C   UNL     1     -11.856  11.800  68.049  1.00  0.00    -0.234 C  
ENDBRANCH   6  21
ENDBRANCH   2   3
TORSDOF 6
ENDMDL
MODEL       32
REMARK 921   NORMALIZED FREE ENERGY PREDICTED BY IDOCK:   -5.22 KCAL/MOL
REMARK 922        TOTAL FREE ENERGY PREDICTED BY IDOCK:   -7.54 KCAL/MOL
REMARK 923 INTER-LIGAND FREE ENERGY PREDICTED BY IDOCK:   -6.65 KCAL/MOL
REMARK 924 INTRA-LIGAND FREE ENERGY PREDICTED BY IDOCK:   -0.89 KCAL/MOL
REMARK 927      BINDING AFFINITY PREDICTED BY RF-SCORE:    0.00 PKD
ROOT
HETATM    1  C   UNL     1     -13.183  10.239  71.504  1.00  0.00    -0.386 C  
HETATM    2  O   UNL     1     -11.899  10.713  71.107  1.00  0.00    -0.328 OA 
ENDROOT
BRANCH   2   3
HETATM    3  C   UNL     1     -11.864  11.632  70.095  1.00  0.00    -0.344 A  
HETATM    4  C   UNL     1     -12.096  12.999  70.230  1.00  0.00    -0.388 A  
HETATM    5  C   UNL     1     -12.053  13.878  69.123  1.00  0.00    -0.377 A  
HETATM    6  C   UNL     1     -11.748  13.335  67.856  1.00  0.00    -0.357 A  
HETATM    7  C   UNL     1     -11.513  11.961  67.724  1.00  0.00    -0.389 A  
HETATM    8  C   UNL     1     -11.572  11.116  68.836  1.00  0.00    -0.385 A  
BRANCH   5   9
HETATM    9  C   UNL     1     -12.330  15.374  69.295  1.00  0.00    -0.093 C  
HETATM   10  O   UNL     1     -13.193  15.607  70.420  1.00  0.00    -0.741 OA 
HETATM   11  H   UNL     1     -13.365  16.535  70.527  1.00  0.00     0.000 HD 
BRANCH   9  12
HETATM   12  C   UNL     1     -11.068  16.229  69.536  1.00  0.00    -0.330 C  
BRANCH  12  13
HETATM   13  N   UNL     1     -10.178  16.345  68.402  1.00  0.00    -0.247 N  
HETATM   14  H   UNL     1      -9.531  15.591  68.175  1.00  0.00     0.000 HD 
HETATM   15  C   UNL     1     -10.214  17.487  67.629  1.00  0.00    -0.343 C  
HETATM   16  O   UNL     1     -10.907  18.465  67.904  1.00  0.00    -0.356 OA 
BRANCH  15  17
HETATM   17  C   UNL     1      -9.339  17.440  66.375  1.00  0.00    -0.252 C  
HETATM   18  N   UNL     1      -9.639  16.248  65.561  1.00  0.00    -0.460 NA 
HETATM   19  H1  UNL     1      -9.055  16.217  64.724  1.00  0.00     0.000 HD 
HETATM   20  H2  UNL     1     -10.630  16.192  65.329  1.00  0.00     0.000 HD 
ENDBRANCH  15  17
ENDBRANCH  12  13
ENDBRANCH   9  12
ENDBRANCH   5   9
BRANCH   6  21
HETATM   21  O   UNL     1     -11.712  14.223  66.813  1.00  0.00    -0.370 OA 
HETATM   22  C   UNL     1     -12.534  13.945  65.683  1.00  0.00    -0.505 C  
ENDBRANCH   6  21
ENDBRANCH   2   3
TORSDOF 6
ENDMDL
MODEL       33
REMARK 921   NORMALIZED FREE ENERGY PREDICTED BY IDOCK:   -5.21 KCAL/MOL
REMARK 922        TOTAL FREE ENERGY PREDICTED BY IDOCK:   -7.54 KCAL/MOL
REMARK 923 INTER-LIGAND FREE ENERGY PREDICTED BY IDOCK:   -6.98 KCAL/MOL
REMARK 924 INTRA-LIGAND FREE ENERGY PREDICTED BY IDOCK:   -0.56 KCAL/MOL
REMARK 927      BINDING AFFINITY PREDICTED BY RF-SCORE:    0.00 PKD
ROOT
HETATM    1  C   UNL     1     -11.798  12.569  63.420  1.00  0.00    -0.503 C  
HETATM    2  O   UNL     1     -12.240  13.640  64.249  1.00  0.00    -0.485 OA 
ENDROOT
BRANCH   2   3
HETATM    3  C   UNL     1     -11.992  13.528  65.589  1.00  0.00    -0.397 A  
HETATM    4  C   UNL     1     -11.642  12.357  66.256  1.00  0.00    -0.449 A  
HETATM    5  C   UNL     1     -11.416  12.328  67.651  1.00  0.00    -0.401 A  
HETATM    6  C   UNL     1     -11.538  13.539  68.368  1.00  0.00    -0.343 A  
HETATM    7  C   UNL     1     -11.887  14.716  67.694  1.00  0.00    -0.366 A  
HETATM    8  C   UNL     1     -12.113  14.709  66.314  1.00  0.00    -0.213 A  
BRANCH   5   9
HETATM    9  C   UNL     1     -11.051  11.023  68.364  1.00  0.00    -0.251 C  
HETATM   10  O   UNL     1     -12.201  10.457  69.013  1.00  0.00    -0.701 OA 
HETATM   11  H   UNL     1     -11.975   9.647  69.454  1.00  0.00     0.000 HD 
BRANCH   9  12
HETATM   12  C   UNL     1     -10.498   9.925  67.431  1.00  0.00    -0.267 C  
BRANCH  12  13
HETATM   13  N   UNL     1     -10.937   8.581  67.737  1.00  0.00    -0.486 N  
HETATM   14  H   UNL     1     -11.718   8.427  68.374  1.00  0.00     0.000 HD 
HETATM   15  C   UNL     1     -10.288   7.510  67.159  1.00  0.00    -0.313 C  
HETATM   16  O   UNL     1      -9.286   7.630  66.456  1.00  0.00    -0.160 OA 
BRANCH  15  17
HETATM   17  C   UNL     1     -10.927   6.148  67.436  1.00  0.00    -0.314 C  
HETATM   18  N   UNL     1     -11.160   5.405  66.185  1.00  0.00    -0.784 NA 
HETATM   19  H1  UNL     1     -11.587   4.496  66.370  1.00  0.00     0.000 HD 
HETATM   20  H2  UNL     1     -10.305   5.314  65.638  1.00  0.00     0.000 HD 
ENDBRANCH  15  17
ENDBRANCH  12  13
ENDBRANCH   9  12
ENDBRANCH   5   9
BRANCH   6  21
HETATM   21  O   UNL     1     -11.305  13.468  69.716  1.00  0.00    -0.200 OA 
HETATM   22  C   UNL     1     -12.415  13.667  70.587  1.00  0.00    -0.347 C  
ENDBRANCH   6  21
ENDBRANCH   2   3
TORSDOF 6
ENDMDL
MODEL       34
REMARK 921   NORMALIZED FREE ENERGY PREDICTED BY IDOCK:   -5.16 KCAL/MOL
REMARK 922        TOTAL FREE ENERGY PREDICTED BY IDOCK:   -7.47 KCAL/MOL
REMARK 923 INTER-LIGAND FREE ENERGY PREDICTED BY IDOCK:   -7.07 KCAL/MOL
REMARK 924 INTRA-LIGAND FREE ENERGY PREDICTED BY IDOCK:   -0.40 KCAL/MOL
REMARK 927      BINDING AFFINITY PREDICTED BY RF-SCORE:    0.00 PKD
ROOT
HETATM    1  C   UNL     1     -11.062  10.253  70.347  1.00  0.00    -0.319 C  
HETATM    2  O   UNL     1     -11.679  11.240  69.525  1.00  0.00    -0.282 OA 
ENDROOT
BRANCH   2   3
HETATM    3  C   UNL     1     -11.368  11.218  68.194  1.00  0.00    -0.303 A  
HETATM    4  C   UNL     1     -11.850  12.102  67.231  1.00  0.00    -0.293 A  
HETATM    5  C   UNL     1     -11.486  11.998  65.869  1.00  0.00    -0.392 A  
HETATM    6  C   UNL     1     -10.592  10.969  65.498  1.00  0.00    -0.200 A  
HETATM    7  C   UNL     1     -10.107  10.084  66.468  1.00  0.00    -0.296 A  
HETATM    8  C   UNL     1     -10.494  10.208  67.806  1.00  0.00    -0.277 A  
BRANCH   5   9
HETATM    9  C   UNL     1     -12.045  12.971  64.827  1.00  0.00    -0.415 C  
HETATM   10  O   UNL     1     -13.184  13.676  65.348  1.00  0.00    -0.678 OA 
HETATM   11  H   UNL     1     -13.530  14.280  64.702  1.00  0.00     0.000 HD 
BRANCH   9  12
HETATM   12  C   UNL     1     -11.043  14.050  64.367  1.00  0.00    -0.286 C  
BRANCH  12  13
HETATM   13  N   UNL     1     -10.654  15.002  65.384  1.00  0.00    -0.349 N  
HETATM   14  H   UNL     1     -10.251  14.680  66.264  1.00  0.00     0.000 HD 
HETATM   15  C   UNL     1     -10.834  16.350  65.154  1.00  0.00    -0.275 C  
HETATM   16  O   UNL     1     -11.396  16.793  64.154  1.00  0.00    -1.194 OA 
BRANCH  15  17
HETATM   17  C   UNL     1     -10.254  17.267  66.232  1.00  0.00    -0.342 C  
HETATM   18  N   UNL     1     -10.363  18.684  65.841  1.00  0.00    -0.588 NA 
HETATM   19  H1  UNL     1      -9.976  19.296  66.560  1.00  0.00     0.000 HD 
HETATM   20  H2  UNL     1     -11.324  18.936  65.610  1.00  0.00     0.000 HD 
ENDBRANCH  15  17
ENDBRANCH  12  13
ENDBRANCH   9  12
ENDBRANCH   5   9
BRANCH   6  21
HETATM   21  O   UNL     1     -10.262  10.908  64.169  1.00  0.00    -0.317 OA 
HETATM   22  C   UNL     1      -9.097  10.168  63.815  1.00  0.00    -0.261 C  
ENDBRANCH   6  21
ENDBRANCH   2   3
TORSDOF 6
ENDMDL
MODEL       35
REMARK 921   NORMALIZED FREE ENERGY PREDICTED BY IDOCK:   -5.14 KCAL/MOL
REMARK 922        TOTAL FREE ENERGY PREDICTED BY IDOCK:   -7.44 KCAL/MOL
REMARK 923 INTER-LIGAND FREE ENERGY PREDICTED BY IDOCK:   -6.79 KCAL/MOL
REMARK 924 INTRA-LIGAND FREE ENERGY PREDICTED BY IDOCK:   -0.65 KCAL/MOL
REMARK 927      BINDING AFFINITY PREDICTED BY RF-SCORE:    0.00 PKD
ROOT
HETATM    1  C   UNL     1     -13.932   7.536  71.604  1.00  0.00    -0.412 C  
HETATM    2  O   UNL     1     -13.344   8.741  72.087  1.00  0.00    -0.370 OA 
ENDROOT
BRANCH   2   3
HETATM    3  C   UNL     1     -12.429   9.351  71.274  1.00  0.00    -0.335 A  
HETATM    4  C   UNL     1     -12.463  10.682  70.866  1.00  0.00    -0.495 A  
HETATM    5  C   UNL     1     -11.479  11.228  70.011  1.00  0.00    -0.359 A  
HETATM    6  C   UNL     1     -10.430  10.386  69.583  1.00  0.00    -0.243 A  
HETATM    7  C   UNL     1     -10.396   9.048  69.997  1.00  0.00    -0.226 A  
HETATM    8  C   UNL     1     -11.390   8.536  70.836  1.00  0.00    -0.304 A  
BRANCH   5   9
HETATM    9  C   UNL     1     -11.549  12.691  69.561  1.00  0.00    -0.281 C  
HETATM   10  O   UNL     1     -11.924  12.781  68.177  1.00  0.00    -0.333 OA 
HETATM   11  H   UNL     1     -11.969  13.688  67.898  1.00  0.00     0.000 HD 
BRANCH   9  12
HETATM   12  C   UNL     1     -12.571  13.545  70.341  1.00  0.00    -0.197 C  
BRANCH  12  13
HETATM   13  N   UNL     1     -12.060  14.172  71.539  1.00  0.00    -0.365 N  
HETATM   14  H   UNL     1     -11.076  14.432  71.606  1.00  0.00     0.000 HD 
HETATM   15  C   UNL     1     -12.916  14.417  72.593  1.00  0.00    -0.445 C  
HETATM   16  O   UNL     1     -14.088  14.046  72.608  1.00  0.00    -0.651 OA 
BRANCH  15  17
HETATM   17  C   UNL     1     -12.302  15.214  73.746  1.00  0.00    -0.578 C  
HETATM   18  N   UNL     1     -13.082  16.433  74.024  1.00  0.00    -0.873 NA 
HETATM   19  H1  UNL     1     -12.673  16.965  74.793  1.00  0.00     0.000 HD 
HETATM   20  H2  UNL     1     -14.064  16.218  74.197  1.00  0.00     0.000 HD 
ENDBRANCH  15  17
ENDBRANCH  12  13
ENDBRANCH   9  12
ENDBRANCH   5   9
BRANCH   6  21
HETATM   21  O   UNL     1      -9.495  10.957  68.760  1.00  0.00    -0.183 OA 
HETATM   22  C   UNL     1      -9.133  10.245  67.581  1.00  0.00    -0.137 C  
ENDBRANCH   6  21
ENDBRANCH   2   3
TORSDOF 6
ENDMDL
MODEL       36
REMARK 921   NORMALIZED FREE ENERGY PREDICTED BY IDOCK:   -5.14 KCAL/MOL
REMARK 922        TOTAL FREE ENERGY PREDICTED BY IDOCK:   -7.43 KCAL/MOL
REMARK 923 INTER-LIGAND FREE ENERGY PREDICTED BY IDOCK:   -6.93 KCAL/MOL
REMARK 924 INTRA-LIGAND FREE ENERGY PREDICTED BY IDOCK:   -0.51 KCAL/MOL
REMARK 927      BINDING AFFINITY PREDICTED BY RF-SCORE:    0.00 PKD
ROOT
HETATM    1  C   UNL     1     -10.415  19.626  65.929  1.00  0.00    -0.493 C  
HETATM    2  O   UNL     1     -10.701  19.309  67.289  1.00  0.00    -0.455 OA 
ENDROOT
BRANCH   2   3
HETATM    3  C   UNL     1     -10.179  18.142  67.775  1.00  0.00    -0.383 A  
HETATM    4  C   UNL     1     -10.893  16.971  68.017  1.00  0.00    -0.330 A  
HETATM    5  C   UNL     1     -10.274  15.810  68.534  1.00  0.00    -0.216 A  
HETATM    6  C   UNL     1      -8.886  15.856  68.791  1.00  0.00    -0.213 A  
HETATM    7  C   UNL     1      -8.170  17.034  68.544  1.00  0.00    -0.259 A  
HETATM    8  C   UNL     1      -8.814  18.169  68.041  1.00  0.00    -0.286 A  
BRANCH   5   9
HETATM    9  C   UNL     1     -11.085  14.540  68.809  1.00  0.00    -0.251 C  
HETATM   10  O   UNL     1     -12.464  14.860  69.058  1.00  0.00    -0.577 OA 
HETATM   11  H   UNL     1     -12.968  14.073  69.228  1.00  0.00     0.000 HD 
BRANCH   9  12
HETATM   12  C   UNL     1     -11.081  13.522  67.650  1.00  0.00    -0.269 C  
BRANCH  12  13
HETATM   13  N   UNL     1     -11.874  13.898  66.500  1.00  0.00    -0.392 N  
HETATM   14  H   UNL     1     -12.886  13.771  66.508  1.00  0.00     0.000 HD 
HETATM   15  C   UNL     1     -11.248  14.429  65.391  1.00  0.00    -0.335 C  
HETATM   16  O   UNL     1     -10.027  14.521  65.288  1.00  0.00    -0.363 OA 
BRANCH  15  17
HETATM   17  C   UNL     1     -12.195  14.924  64.296  1.00  0.00    -0.344 C  
HETATM   18  N   UNL     1     -11.766  16.234  63.774  1.00  0.00    -1.488 NA 
HETATM   19  H1  UNL     1     -12.398  16.564  63.044  1.00  0.00     0.000 HD 
HETATM   20  H2  UNL     1     -10.799  16.210  63.451  1.00  0.00     0.000 HD 
ENDBRANCH  15  17
ENDBRANCH  12  13
ENDBRANCH   9  12
ENDBRANCH   5   9
BRANCH   6  21
HETATM   21  O   UNL     1      -8.326  14.708  69.287  1.00  0.00    -0.098 OA 
HETATM   22  C   UNL     1      -6.958  14.760  69.679  1.00  0.00    -0.172 C  
ENDBRANCH   6  21
ENDBRANCH   2   3
TORSDOF 6
ENDMDL
MODEL       37
REMARK 921   NORMALIZED FREE ENERGY PREDICTED BY IDOCK:   -5.13 KCAL/MOL
REMARK 922        TOTAL FREE ENERGY PREDICTED BY IDOCK:   -7.42 KCAL/MOL
REMARK 923 INTER-LIGAND FREE ENERGY PREDICTED BY IDOCK:   -6.92 KCAL/MOL
REMARK 924 INTRA-LIGAND FREE ENERGY PREDICTED BY IDOCK:   -0.50 KCAL/MOL
REMARK 927      BINDING AFFINITY PREDICTED BY RF-SCORE:    0.00 PKD
ROOT
HETATM    1  C   UNL     1     -11.137   9.371  71.388  1.00  0.00    -0.380 C  
HETATM    2  O   UNL     1     -12.322   9.917  70.815  1.00  0.00    -0.295 OA 
ENDROOT
BRANCH   2   3
HETATM    3  C   UNL     1     -12.459  11.277  70.858  1.00  0.00    -0.394 A  
HETATM    4  C   UNL     1     -11.959  12.175  69.917  1.00  0.00    -0.380 A  
HETATM    5  C   UNL     1     -12.137  13.572  70.047  1.00  0.00    -0.411 A  
HETATM    6  C   UNL     1     -12.860  14.048  71.163  1.00  0.00    -0.357 A  
HETATM    7  C   UNL     1     -13.363  13.143  72.106  1.00  0.00    -0.621 A  
HETATM    8  C   UNL     1     -13.163  11.768  71.954  1.00  0.00    -0.468 A  
BRANCH   5   9
HETATM    9  C   UNL     1     -11.561  14.539  69.009  1.00  0.00    -0.298 C  
HETATM   10  O   UNL     1     -12.526  15.544  68.658  1.00  0.00    -0.507 OA 
HETATM   11  H   UNL     1     -12.169  16.144  68.015  1.00  0.00     0.000 HD 
BRANCH   9  12
HETATM   12  C   UNL     1     -10.301  15.296  69.478  1.00  0.00    -0.262 C  
BRANCH  12  13
HETATM   13  N   UNL     1     -10.291  16.712  69.188  1.00  0.00    -0.307 N  
HETATM   14  H   UNL     1     -10.809  17.363  69.778  1.00  0.00     0.000 HD 
HETATM   15  C   UNL     1      -9.575  17.176  68.104  1.00  0.00    -0.270 C  
HETATM   16  O   UNL     1      -9.007  16.433  67.305  1.00  0.00    -0.192 OA 
BRANCH  15  17
HETATM   17  C   UNL     1      -9.516  18.699  67.978  1.00  0.00    -0.315 C  
HETATM   18  N   UNL     1     -10.267  19.353  69.065  1.00  0.00    -0.593 NA 
HETATM   19  H1  UNL     1     -10.227  20.369  68.981  1.00  0.00     0.000 HD 
HETATM   20  H2  UNL     1      -9.950  19.039  69.982  1.00  0.00     0.000 HD 
ENDBRANCH  15  17
ENDBRANCH  12  13
ENDBRANCH   9  12
ENDBRANCH   5   9
BRANCH   6  21
HETATM   21  O   UNL     1     -13.012  15.407  71.247  1.00  0.00    -0.405 OA 
HETATM   22  C   UNL     1     -12.415  16.069  72.358  1.00  0.00    -0.469 C  
ENDBRANCH   6  21
ENDBRANCH   2   3
TORSDOF 6
ENDMDL
MODEL       38
REMARK 921   NORMALIZED FREE ENERGY PREDICTED BY IDOCK:   -5.12 KCAL/MOL
REMARK 922        TOTAL FREE ENERGY PREDICTED BY IDOCK:   -7.41 KCAL/MOL
REMARK 923 INTER-LIGAND FREE ENERGY PREDICTED BY IDOCK:   -6.96 KCAL/MOL
REMARK 924 INTRA-LIGAND FREE ENERGY PREDICTED BY IDOCK:   -0.45 KCAL/MOL
REMARK 927      BINDING AFFINITY PREDICTED BY RF-SCORE:    0.00 PKD
ROOT
HETATM    1  C   UNL     1     -13.933   8.936  72.044  1.00  0.00    -0.437 C  
HETATM    2  O   UNL     1     -13.281  10.190  71.863  1.00  0.00    -0.427 OA 
ENDROOT
BRANCH   2   3
HETATM    3  C   UNL     1     -12.255  10.230  70.961  1.00  0.00    -0.384 A  
HETATM    4  C   UNL     1     -12.213  11.015  69.811  1.00  0.00    -0.388 A  
HETATM    5  C   UNL     1     -11.114  10.984  68.923  1.00  0.00    -0.295 A  
HETATM    6  C   UNL     1     -10.029  10.136  69.238  1.00  0.00    -0.219 A  
HETATM    7  C   UNL     1     -10.073   9.350  70.396  1.00  0.00    -0.310 A  
HETATM    8  C   UNL     1     -11.179   9.396  71.250  1.00  0.00    -0.437 A  
BRANCH   5   9
HETATM    9  C   UNL     1     -11.100  11.844  67.655  1.00  0.00    -0.257 C  
HETATM   10  O   UNL     1     -11.836  11.206  66.599  1.00  0.00    -0.206 OA 
HETATM   11  H   UNL     1     -11.828  11.739  65.813  1.00  0.00     0.000 HD 
BRANCH   9  12
HETATM   12  C   UNL     1     -11.726  13.243  67.832  1.00  0.00    -0.357 C  
BRANCH  12  13
HETATM   13  N   UNL     1     -11.052  14.311  67.128  1.00  0.00    -0.302 N  
HETATM   14  H   UNL     1     -10.213  14.738  67.519  1.00  0.00     0.000 HD 
HETATM   15  C   UNL     1     -11.555  14.747  65.919  1.00  0.00    -0.286 C  
HETATM   16  O   UNL     1     -12.610  14.335  65.441  1.00  0.00    -0.460 OA 
BRANCH  15  17
HETATM   17  C   UNL     1     -10.684  15.775  65.195  1.00  0.00    -0.435 C  
HETATM   18  N   UNL     1     -11.404  16.377  64.059  1.00  0.00    -1.539 NA 
HETATM   19  H1  UNL     1     -10.822  17.062  63.576  1.00  0.00     0.000 HD 
HETATM   20  H2  UNL     1     -12.294  16.779  64.350  1.00  0.00     0.000 HD 
ENDBRANCH  15  17
ENDBRANCH  12  13
ENDBRANCH   9  12
ENDBRANCH   5   9
BRANCH   6  21
HETATM   21  O   UNL     1      -8.983  10.141  68.353  1.00  0.00    -0.119 OA 
HETATM   22  C   UNL     1      -7.982   9.140  68.514  1.00  0.00    -0.102 C  
ENDBRANCH   6  21
ENDBRANCH   2   3
TORSDOF 6
ENDMDL
MODEL       39
REMARK 921   NORMALIZED FREE ENERGY PREDICTED BY IDOCK:   -5.11 KCAL/MOL
REMARK 922        TOTAL FREE ENERGY PREDICTED BY IDOCK:   -7.40 KCAL/MOL
REMARK 923 INTER-LIGAND FREE ENERGY PREDICTED BY IDOCK:   -6.99 KCAL/MOL
REMARK 924 INTRA-LIGAND FREE ENERGY PREDICTED BY IDOCK:   -0.41 KCAL/MOL
REMARK 927      BINDING AFFINITY PREDICTED BY RF-SCORE:    0.00 PKD
ROOT
HETATM    1  C   UNL     1     -12.863  10.559  71.009  1.00  0.00    -0.407 C  
HETATM    2  O   UNL     1     -11.638  10.687  70.294  1.00  0.00    -0.286 OA 
ENDROOT
BRANCH   2   3
HETATM    3  C   UNL     1     -11.610  11.596  69.273  1.00  0.00    -0.320 A  
HETATM    4  C   UNL     1     -11.714  12.978  69.412  1.00  0.00    -0.386 A  
HETATM    5  C   UNL     1     -11.689  13.847  68.296  1.00  0.00    -0.396 A  
HETATM    6  C   UNL     1     -11.537  13.276  67.014  1.00  0.00    -0.359 A  
HETATM    7  C   UNL     1     -11.429  11.886  66.878  1.00  0.00    -0.390 A  
HETATM    8  C   UNL     1     -11.467  11.053  68.000  1.00  0.00    -0.365 A  
BRANCH   5   9
HETATM    9  C   UNL     1     -11.825  15.362  68.474  1.00  0.00    -0.272 C  
HETATM   10  O   UNL     1     -12.503  15.672  69.703  1.00  0.00    -0.560 OA 
HETATM   11  H   UNL     1     -12.587  16.612  69.814  1.00  0.00     0.000 HD 
BRANCH   9  12
HETATM   12  C   UNL     1     -10.481  16.117  68.522  1.00  0.00    -0.269 C  
BRANCH  12  13
HETATM   13  N   UNL     1     -10.582  17.558  68.449  1.00  0.00    -0.365 N  
HETATM   14  H   UNL     1     -10.752  18.106  69.292  1.00  0.00     0.000 HD 
HETATM   15  C   UNL     1     -10.447  18.185  67.228  1.00  0.00    -0.393 C  
HETATM   16  O   UNL     1     -10.331  17.574  66.167  1.00  0.00    -0.361 OA 
BRANCH  15  17
HETATM   17  C   UNL     1     -10.425  19.713  67.291  1.00  0.00    -0.469 C  
HETATM   18  N   UNL     1      -9.898  20.290  66.041  1.00  0.00    -0.638 NA 
HETATM   19  H1  UNL     1      -9.883  21.310  66.083  1.00  0.00     0.000 HD 
HETATM   20  H2  UNL     1     -10.413  19.955  65.227  1.00  0.00     0.000 HD 
ENDBRANCH  15  17
ENDBRANCH  12  13
ENDBRANCH   9  12
ENDBRANCH   5   9
BRANCH   6  21
HETATM   21  O   UNL     1     -11.512  14.154  65.962  1.00  0.00    -0.327 OA 
HETATM   22  C   UNL     1     -10.529  13.944  64.953  1.00  0.00    -0.426 C  
ENDBRANCH   6  21
ENDBRANCH   2   3
TORSDOF 6
ENDMDL
MODEL       40
REMARK 921   NORMALIZED FREE ENERGY PREDICTED BY IDOCK:   -5.11 KCAL/MOL
REMARK 922        TOTAL FREE ENERGY PREDICTED BY IDOCK:   -7.40 KCAL/MOL
REMARK 923 INTER-LIGAND FREE ENERGY PREDICTED BY IDOCK:   -6.98 KCAL/MOL
REMARK 924 INTRA-LIGAND FREE ENERGY PREDICTED BY IDOCK:   -0.42 KCAL/MOL
REMARK 927      BINDING AFFINITY PREDICTED BY RF-SCORE:    0.00 PKD
ROOT
HETATM    1  C   UNL     1      -9.006   8.849  65.823  1.00  0.00    -0.203 C  
HETATM    2  O   UNL     1      -9.578   8.149  66.925  1.00  0.00    -0.176 OA 
ENDROOT
BRANCH   2   3
HETATM    3  C   UNL     1     -10.196   8.903  67.883  1.00  0.00    -0.222 A  
HETATM    4  C   UNL     1     -10.511  10.256  67.776  1.00  0.00    -0.269 A  
HETATM    5  C   UNL     1     -11.141  10.964  68.825  1.00  0.00    -0.310 A  
HETATM    6  C   UNL     1     -11.466  10.255  70.002  1.00  0.00    -0.296 A  
HETATM    7  C   UNL     1     -11.151   8.894  70.106  1.00  0.00    -0.217 A  
HETATM    8  C   UNL     1     -10.519   8.225  69.054  1.00  0.00    -0.212 A  
BRANCH   5   9
HETATM    9  C   UNL     1     -11.460  12.456  68.689  1.00  0.00    -0.303 C  
HETATM   10  O   UNL     1     -10.284  13.251  68.914  1.00  0.00    -0.404 OA 
HETATM   11  H   UNL     1     -10.481  14.176  68.829  1.00  0.00     0.000 HD 
BRANCH   9  12
HETATM   12  C   UNL     1     -11.998  12.865  67.302  1.00  0.00    -0.309 C  
BRANCH  12  13
HETATM   13  N   UNL     1     -11.331  13.994  66.693  1.00  0.00    -0.324 N  
HETATM   14  H   UNL     1     -10.532  14.430  67.153  1.00  0.00     0.000 HD 
HETATM   15  C   UNL     1     -11.784  14.475  65.482  1.00  0.00    -0.343 C  
HETATM   16  O   UNL     1     -12.794  14.049  64.925  1.00  0.00    -0.692 OA 
BRANCH  15  17
HETATM   17  C   UNL     1     -10.917  15.572  64.863  1.00  0.00    -0.436 C  
HETATM   18  N   UNL     1     -11.702  16.416  63.943  1.00  0.00    -1.527 NA 
HETATM   19  H1  UNL     1     -11.122  17.147  63.530  1.00  0.00     0.000 HD 
HETATM   20  H2  UNL     1     -12.526  16.803  64.401  1.00  0.00     0.000 HD 
ENDBRANCH  15  17
ENDBRANCH  12  13
ENDBRANCH   9  12
ENDBRANCH   5   9
BRANCH   6  21
HETATM   21  O   UNL     1     -12.081  10.978  70.991  1.00  0.00    -0.340 OA 
HETATM   22  C   UNL     1     -13.227  10.402  71.611  1.00  0.00    -0.400 C  
ENDBRANCH   6  21
ENDBRANCH   2   3
TORSDOF 6
ENDMDL
MODEL       41
REMARK 921   NORMALIZED FREE ENERGY PREDICTED BY IDOCK:   -5.10 KCAL/MOL
REMARK 922        TOTAL FREE ENERGY PREDICTED BY IDOCK:   -7.39 KCAL/MOL
REMARK 923 INTER-LIGAND FREE ENERGY PREDICTED BY IDOCK:   -6.98 KCAL/MOL
REMARK 924 INTRA-LIGAND FREE ENERGY PREDICTED BY IDOCK:   -0.41 KCAL/MOL
REMARK 927      BINDING AFFINITY PREDICTED BY RF-SCORE:    0.00 PKD
ROOT
HETATM    1  C   UNL     1     -12.263  14.911  64.330  1.00  0.00    -0.381 C  
HETATM    2  O   UNL     1     -12.851  13.712  64.829  1.00  0.00    -0.680 OA 
ENDROOT
BRANCH   2   3
HETATM    3  C   UNL     1     -12.003  12.789  65.375  1.00  0.00    -0.436 A  
HETATM    4  C   UNL     1     -11.762  12.610  66.735  1.00  0.00    -0.460 A  
HETATM    5  C   UNL     1     -10.855  11.636  67.213  1.00  0.00    -0.302 A  
HETATM    6  C   UNL     1     -10.198  10.820  66.267  1.00  0.00    -0.245 A  
HETATM    7  C   UNL     1     -10.445  11.000  64.900  1.00  0.00    -0.371 A  
HETATM    8  C   UNL     1     -11.340  11.979  64.459  1.00  0.00    -0.393 A  
BRANCH   5   9
HETATM    9  C   UNL     1     -10.594  11.472  68.713  1.00  0.00    -0.211 C  
HETATM   10  O   UNL     1      -9.577  12.386  69.157  1.00  0.00    -0.329 OA 
HETATM   11  H   UNL     1      -9.415  12.285  70.087  1.00  0.00     0.000 HD 
BRANCH   9  12
HETATM   12  C   UNL     1     -11.826  11.733  69.604  1.00  0.00    -0.339 C  
BRANCH  12  13
HETATM   13  N   UNL     1     -11.909  13.064  70.163  1.00  0.00    -0.503 N  
HETATM   14  H   UNL     1     -11.389  13.834  69.742  1.00  0.00     0.000 HD 
HETATM   15  C   UNL     1     -12.700  13.284  71.272  1.00  0.00    -0.323 C  
HETATM   16  O   UNL     1     -13.278  12.382  71.876  1.00  0.00    -0.464 OA 
BRANCH  15  17
HETATM   17  C   UNL     1     -12.829  14.751  71.687  1.00  0.00    -0.332 C  
HETATM   18  N   UNL     1     -13.462  15.551  70.624  1.00  0.00    -0.829 NA 
HETATM   19  H1  UNL     1     -13.548  16.530  70.901  1.00  0.00     0.000 HD 
HETATM   20  H2  UNL     1     -14.362  15.160  70.346  1.00  0.00     0.000 HD 
ENDBRANCH  15  17
ENDBRANCH  12  13
ENDBRANCH   9  12
ENDBRANCH   5   9
BRANCH   6  21
HETATM   21  O   UNL     1      -9.333   9.885  66.774  1.00  0.00    -0.145 OA 
HETATM   22  C   UNL     1      -9.589   8.518  66.468  1.00  0.00    -0.236 C  
ENDBRANCH   6  21
ENDBRANCH   2   3
TORSDOF 6
ENDMDL
MODEL       42
REMARK 921   NORMALIZED FREE ENERGY PREDICTED BY IDOCK:   -5.09 KCAL/MOL
REMARK 922        TOTAL FREE ENERGY PREDICTED BY IDOCK:   -7.38 KCAL/MOL
REMARK 923 INTER-LIGAND FREE ENERGY PREDICTED BY IDOCK:   -6.85 KCAL/MOL
REMARK 924 INTRA-LIGAND FREE ENERGY PREDICTED BY IDOCK:   -0.53 KCAL/MOL
REMARK 927      BINDING AFFINITY PREDICTED BY RF-SCORE:    0.00 PKD
ROOT
HETATM    1  C   UNL     1     -13.577  13.464  72.223  1.00  0.00    -0.605 C  
HETATM    2  O   UNL     1     -12.492  14.306  71.843  1.00  0.00    -0.330 OA 
ENDROOT
BRANCH   2   3
HETATM    3  C   UNL     1     -12.171  14.339  70.515  1.00  0.00    -0.356 A  
HETATM    4  C   UNL     1     -12.075  13.233  69.673  1.00  0.00    -0.331 A  
HETATM    5  C   UNL     1     -11.722  13.358  68.310  1.00  0.00    -0.391 A  
HETATM    6  C   UNL     1     -11.481  14.653  67.803  1.00  0.00    -0.340 A  
HETATM    7  C   UNL     1     -11.580  15.764  68.650  1.00  0.00    -0.392 A  
HETATM    8  C   UNL     1     -11.922  15.606  69.997  1.00  0.00    -0.384 A  
BRANCH   5   9
HETATM    9  C   UNL     1     -11.606  12.124  67.410  1.00  0.00    -0.340 C  
HETATM   10  O   UNL     1     -12.296  12.332  66.167  1.00  0.00    -0.588 OA 
HETATM   11  H   UNL     1     -12.224  11.567  65.609  1.00  0.00     0.000 HD 
BRANCH   9  12
HETATM   12  C   UNL     1     -10.157  11.744  67.040  1.00  0.00    -0.209 C  
BRANCH  12  13
HETATM   13  N   UNL     1      -9.888  11.655  65.622  1.00  0.00    -0.234 N  
HETATM   14  H   UNL     1      -9.803  12.502  65.059  1.00  0.00     0.000 HD 
HETATM   15  C   UNL     1      -9.748  10.414  65.036  1.00  0.00    -0.300 C  
HETATM   16  O   UNL     1      -9.929   9.360  65.642  1.00  0.00    -0.304 OA 
BRANCH  15  17
HETATM   17  C   UNL     1      -9.321  10.443  63.567  1.00  0.00    -0.297 C  
HETATM   18  N   UNL     1     -10.408  10.943  62.707  1.00  0.00    -0.783 NA 
HETATM   19  H1  UNL     1     -10.123  10.962  61.727  1.00  0.00     0.000 HD 
HETATM   20  H2  UNL     1     -10.743  11.854  63.018  1.00  0.00     0.000 HD 
ENDBRANCH  15  17
ENDBRANCH  12  13
ENDBRANCH   9  12
ENDBRANCH   5   9
BRANCH   6  21
HETATM   21  O   UNL     1     -11.148  14.729  66.475  1.00  0.00    -0.324 OA 
HETATM   22  C   UNL     1     -10.331  15.820  66.063  1.00  0.00    -0.340 C  
ENDBRANCH   6  21
ENDBRANCH   2   3
TORSDOF 6
ENDMDL
MODEL       43
REMARK 921   NORMALIZED FREE ENERGY PREDICTED BY IDOCK:   -5.00 KCAL/MOL
REMARK 922        TOTAL FREE ENERGY PREDICTED BY IDOCK:   -7.26 KCAL/MOL
REMARK 923 INTER-LIGAND FREE ENERGY PREDICTED BY IDOCK:   -6.84 KCAL/MOL
REMARK 924 INTRA-LIGAND FREE ENERGY PREDICTED BY IDOCK:   -0.41 KCAL/MOL
REMARK 927      BINDING AFFINITY PREDICTED BY RF-SCORE:    0.00 PKD
ROOT
HETATM    1  C   UNL     1     -11.056   9.853  70.978  1.00  0.00    -0.331 C  
HETATM    2  O   UNL     1     -11.916  10.592  70.115  1.00  0.00    -0.281 OA 
ENDROOT
BRANCH   2   3
HETATM    3  C   UNL     1     -12.300  11.834  70.540  1.00  0.00    -0.299 A  
HETATM    4  C   UNL     1     -12.028  13.035  69.888  1.00  0.00    -0.381 A  
HETATM    5  C   UNL     1     -12.452  14.280  70.407  1.00  0.00    -0.426 A  
HETATM    6  C   UNL     1     -13.186  14.282  71.613  1.00  0.00    -0.356 A  
HETATM    7  C   UNL     1     -13.460  13.072  72.265  1.00  0.00    -0.645 A  
HETATM    8  C   UNL     1     -13.018  11.858  71.731  1.00  0.00    -0.455 A  
BRANCH   5   9
HETATM    9  C   UNL     1     -12.125  15.588  69.681  1.00  0.00    -0.328 C  
HETATM   10  O   UNL     1     -11.541  16.541  70.585  1.00  0.00    -0.531 OA 
HETATM   11  H   UNL     1     -11.337  17.352  70.135  1.00  0.00     0.000 HD 
BRANCH   9  12
HETATM   12  C   UNL     1     -11.128  15.433  68.514  1.00  0.00    -0.295 C  
BRANCH  12  13
HETATM   13  N   UNL     1      -9.794  15.929  68.775  1.00  0.00    -0.207 N  
HETATM   14  H   UNL     1      -9.078  15.308  69.153  1.00  0.00     0.000 HD 
HETATM   15  C   UNL     1      -9.499  17.250  68.509  1.00  0.00    -0.285 C  
HETATM   16  O   UNL     1     -10.341  18.066  68.140  1.00  0.00    -0.364 OA 
BRANCH  15  17
HETATM   17  C   UNL     1      -8.027  17.626  68.684  1.00  0.00    -0.275 C  
HETATM   18  N   UNL     1      -7.852  19.089  68.721  1.00  0.00    -0.349 NA 
HETATM   19  H1  UNL     1      -6.869  19.339  68.838  1.00  0.00     0.000 HD 
HETATM   20  H2  UNL     1      -8.436  19.518  69.439  1.00  0.00     0.000 HD 
ENDBRANCH  15  17
ENDBRANCH  12  13
ENDBRANCH   9  12
ENDBRANCH   5   9
BRANCH   6  21
HETATM   21  O   UNL     1     -13.582  15.509  72.077  1.00  0.00    -0.445 OA 
HETATM   22  C   UNL     1     -13.150  15.891  73.379  1.00  0.00    -0.587 C  
ENDBRANCH   6  21
ENDBRANCH   2   3
TORSDOF 6
ENDMDL
MODEL       44
REMARK 921   NORMALIZED FREE ENERGY PREDICTED BY IDOCK:   -4.99 KCAL/MOL
REMARK 922        TOTAL FREE ENERGY PREDICTED BY IDOCK:   -7.24 KCAL/MOL
REMARK 923 INTER-LIGAND FREE ENERGY PREDICTED BY IDOCK:   -6.82 KCAL/MOL
REMARK 924 INTRA-LIGAND FREE ENERGY PREDICTED BY IDOCK:   -0.42 KCAL/MOL
REMARK 927      BINDING AFFINITY PREDICTED BY RF-SCORE:    0.00 PKD
ROOT
HETATM    1  C   UNL     1     -10.032   8.089  68.152  1.00  0.00    -0.185 C  
HETATM    2  O   UNL     1      -9.919   8.569  69.489  1.00  0.00    -0.185 OA 
ENDROOT
BRANCH   2   3
HETATM    3  C   UNL     1     -10.626   9.696  69.803  1.00  0.00    -0.242 A  
HETATM    4  C   UNL     1     -10.569  10.909  69.119  1.00  0.00    -0.253 A  
HETATM    5  C   UNL     1     -11.328  12.032  69.523  1.00  0.00    -0.298 A  
HETATM    6  C   UNL     1     -12.173  11.893  70.645  1.00  0.00    -0.331 A  
HETATM    7  C   UNL     1     -12.230  10.672  71.329  1.00  0.00    -0.447 A  
HETATM    8  C   UNL     1     -11.460   9.583  70.911  1.00  0.00    -0.405 A  
BRANCH   5   9
HETATM    9  C   UNL     1     -11.234  13.359  68.765  1.00  0.00    -0.275 C  
HETATM   10  O   UNL     1      -9.891  13.592  68.309  1.00  0.00    -0.224 OA 
HETATM   11  H   UNL     1      -9.832  14.415  67.839  1.00  0.00     0.000 HD 
BRANCH   9  12
HETATM   12  C   UNL     1     -12.133  13.440  67.515  1.00  0.00    -0.279 C  
BRANCH  12  13
HETATM   13  N   UNL     1     -11.567  12.871  66.312  1.00  0.00    -0.352 N  
HETATM   14  H   UNL     1     -10.707  12.324  66.356  1.00  0.00     0.000 HD 
HETATM   15  C   UNL     1     -12.200  13.074  65.103  1.00  0.00    -0.459 C  
HETATM   16  O   UNL     1     -13.186  13.797  64.974  1.00  0.00    -0.733 OA 
BRANCH  15  17
HETATM   17  C   UNL     1     -11.596  12.307  63.926  1.00  0.00    -0.444 C  
HETATM   18  N   UNL     1     -12.646  11.815  63.017  1.00  0.00    -0.873 NA 
HETATM   19  H1  UNL     1     -12.243  11.303  62.231  1.00  0.00     0.000 HD 
HETATM   20  H2  UNL     1     -13.253  12.571  62.700  1.00  0.00     0.000 HD 
ENDBRANCH  15  17
ENDBRANCH  12  13
ENDBRANCH   9  12
ENDBRANCH   5   9
BRANCH   6  21
HETATM   21  O   UNL     1     -12.894  13.004  70.998  1.00  0.00    -0.288 OA 
HETATM   22  C   UNL     1     -13.593  12.967  72.239  1.00  0.00    -0.547 C  
ENDBRANCH   6  21
ENDBRANCH   2   3
TORSDOF 6
ENDMDL
MODEL       45
REMARK 921   NORMALIZED FREE ENERGY PREDICTED BY IDOCK:   -4.96 KCAL/MOL
REMARK 922        TOTAL FREE ENERGY PREDICTED BY IDOCK:   -7.19 KCAL/MOL
REMARK 923 INTER-LIGAND FREE ENERGY PREDICTED BY IDOCK:   -6.54 KCAL/MOL
REMARK 924 INTRA-LIGAND FREE ENERGY PREDICTED BY IDOCK:   -0.66 KCAL/MOL
REMARK 927      BINDING AFFINITY PREDICTED BY RF-SCORE:    0.00 PKD
ROOT
HETATM    1  C   UNL     1      -8.674   8.521  65.598  1.00  0.00    -0.181 C  
HETATM    2  O   UNL     1      -8.900   9.405  64.503  1.00  0.00    -0.201 OA 
ENDROOT
BRANCH   2   3
HETATM    3  C   UNL     1      -9.831  10.389  64.685  1.00  0.00    -0.338 A  
HETATM    4  C   UNL     1     -10.357  10.795  65.909  1.00  0.00    -0.302 A  
HETATM    5  C   UNL     1     -11.331  11.816  66.004  1.00  0.00    -0.335 A  
HETATM    6  C   UNL     1     -11.755  12.442  64.812  1.00  0.00    -0.368 A  
HETATM    7  C   UNL     1     -11.222  12.034  63.582  1.00  0.00    -0.528 A  
HETATM    8  C   UNL     1     -10.268  11.014  63.521  1.00  0.00    -0.424 A  
BRANCH   5   9
HETATM    9  C   UNL     1     -11.907  12.231  67.361  1.00  0.00    -0.257 C  
HETATM   10  O   UNL     1     -12.230  11.075  68.152  1.00  0.00    -0.765 OA 
HETATM   11  H   UNL     1     -12.587  11.332  68.994  1.00  0.00     0.000 HD 
BRANCH   9  12
HETATM   12  C   UNL     1     -10.955  13.089  68.219  1.00  0.00    -0.260 C  
BRANCH  12  13
HETATM   13  N   UNL     1     -10.304  14.173  67.517  1.00  0.00    -0.247 N  
HETATM   14  H   UNL     1      -9.478  13.994  66.945  1.00  0.00     0.000 HD 
HETATM   15  C   UNL     1     -10.809  15.451  67.628  1.00  0.00    -0.304 C  
HETATM   16  O   UNL     1     -11.744  15.743  68.372  1.00  0.00    -0.366 OA 
BRANCH  15  17
HETATM   17  C   UNL     1     -10.133  16.489  66.730  1.00  0.00    -0.288 C  
HETATM   18  N   UNL     1      -8.883  15.961  66.155  1.00  0.00    -0.341 NA 
HETATM   19  H1  UNL     1      -8.432  16.654  65.556  1.00  0.00     0.000 HD 
HETATM   20  H2  UNL     1      -9.039  15.082  65.662  1.00  0.00     0.000 HD 
ENDBRANCH  15  17
ENDBRANCH  12  13
ENDBRANCH   9  12
ENDBRANCH   5   9
BRANCH   6  21
HETATM   21  O   UNL     1     -12.694  13.430  64.950  1.00  0.00    -0.633 OA 
HETATM   22  C   UNL     1     -12.384  14.713  64.415  1.00  0.00    -0.398 C  
ENDBRANCH   6  21
ENDBRANCH   2   3
TORSDOF 6
ENDMDL
MODEL       46
REMARK 921   NORMALIZED FREE ENERGY PREDICTED BY IDOCK:   -4.94 KCAL/MOL
REMARK 922        TOTAL FREE ENERGY PREDICTED BY IDOCK:   -7.17 KCAL/MOL
REMARK 923 INTER-LIGAND FREE ENERGY PREDICTED BY IDOCK:   -6.56 KCAL/MOL
REMARK 924 INTRA-LIGAND FREE ENERGY PREDICTED BY IDOCK:   -0.61 KCAL/MOL
REMARK 927      BINDING AFFINITY PREDICTED BY RF-SCORE:    0.00 PKD
ROOT
HETATM    1  C   UNL     1      -9.775  10.731  64.263  1.00  0.00    -0.302 C  
HETATM    2  O   UNL     1     -10.984  11.485  64.235  1.00  0.00    -0.336 OA 
ENDROOT
BRANCH   2   3
HETATM    3  C   UNL     1     -11.076  12.538  65.102  1.00  0.00    -0.299 A  
HETATM    4  C   UNL     1     -10.006  13.280  65.598  1.00  0.00    -0.242 A  
HETATM    5  C   UNL     1     -10.192  14.348  66.505  1.00  0.00    -0.276 A  
HETATM    6  C   UNL     1     -11.512  14.666  66.895  1.00  0.00    -0.363 A  
HETATM    7  C   UNL     1     -12.586  13.920  66.393  1.00  0.00    -0.314 A  
HETATM    8  C   UNL     1     -12.368  12.863  65.504  1.00  0.00    -0.517 A  
BRANCH   5   9
HETATM    9  C   UNL     1      -8.998  15.136  67.050  1.00  0.00    -0.234 C  
HETATM   10  O   UNL     1      -7.792  14.359  66.962  1.00  0.00    -0.342 OA 
HETATM   11  H   UNL     1      -7.050  14.848  67.299  1.00  0.00     0.000 HD 
BRANCH   9  12
HETATM   12  C   UNL     1      -8.716  16.456  66.303  1.00  0.00    -0.334 C  
BRANCH  12  13
HETATM   13  N   UNL     1      -9.263  17.642  66.923  1.00  0.00    -0.256 N  
HETATM   14  H   UNL     1      -8.887  17.980  67.809  1.00  0.00     0.000 HD 
HETATM   15  C   UNL     1     -10.298  18.313  66.306  1.00  0.00    -0.405 C  
HETATM   16  O   UNL     1     -10.851  17.905  65.287  1.00  0.00    -0.614 OA 
BRANCH  15  17
HETATM   17  C   UNL     1     -10.697  19.630  66.974  1.00  0.00    -0.455 C  
HETATM   18  N   UNL     1      -9.609  20.621  66.888  1.00  0.00    -0.654 NA 
HETATM   19  H1  UNL     1      -9.875  21.500  67.334  1.00  0.00     0.000 HD 
HETATM   20  H2  UNL     1      -9.308  20.765  65.924  1.00  0.00     0.000 HD 
ENDBRANCH  15  17
ENDBRANCH  12  13
ENDBRANCH   9  12
ENDBRANCH   5   9
BRANCH   6  21
HETATM   21  O   UNL     1     -11.647  15.711  67.770  1.00  0.00    -0.270 OA 
HETATM   22  C   UNL     1     -11.737  15.399  69.158  1.00  0.00    -0.345 C  
ENDBRANCH   6  21
ENDBRANCH   2   3
TORSDOF 6
ENDMDL
MODEL       47
REMARK 921   NORMALIZED FREE ENERGY PREDICTED BY IDOCK:   -4.92 KCAL/MOL
REMARK 922        TOTAL FREE ENERGY PREDICTED BY IDOCK:   -7.14 KCAL/MOL
REMARK 923 INTER-LIGAND FREE ENERGY PREDICTED BY IDOCK:   -6.97 KCAL/MOL
REMARK 924 INTRA-LIGAND FREE ENERGY PREDICTED BY IDOCK:   -0.16 KCAL/MOL
REMARK 927      BINDING AFFINITY PREDICTED BY RF-SCORE:    0.00 PKD
ROOT
HETATM    1  C   UNL     1     -10.247   9.189  69.434  1.00  0.00    -0.210 C  
HETATM    2  O   UNL     1     -11.355   9.743  68.732  1.00  0.00    -0.083 OA 
ENDROOT
BRANCH   2   3
HETATM    3  C   UNL     1     -11.605  11.074  68.922  1.00  0.00    -0.314 A  
HETATM    4  C   UNL     1     -11.624  12.048  67.926  1.00  0.00    -0.405 A  
HETATM    5  C   UNL     1     -11.878  13.409  68.214  1.00  0.00    -0.393 A  
HETATM    6  C   UNL     1     -12.134  13.766  69.556  1.00  0.00    -0.334 A  
HETATM    7  C   UNL     1     -12.116  12.785  70.555  1.00  0.00    -0.369 A  
HETATM    8  C   UNL     1     -11.852  11.449  70.238  1.00  0.00    -0.438 A  
BRANCH   5   9
HETATM    9  C   UNL     1     -11.876  14.463  67.103  1.00  0.00    -0.410 C  
HETATM   10  O   UNL     1     -10.555  14.994  66.908  1.00  0.00    -0.285 OA 
HETATM   11  H   UNL     1     -10.553  15.648  66.218  1.00  0.00     0.000 HD 
BRANCH   9  12
HETATM   12  C   UNL     1     -12.336  13.935  65.728  1.00  0.00    -0.486 C  
BRANCH  12  13
HETATM   13  N   UNL     1     -11.371  13.113  65.031  1.00  0.00    -0.294 N  
HETATM   14  H   UNL     1     -10.375  13.210  65.227  1.00  0.00     0.000 HD 
HETATM   15  C   UNL     1     -11.811  12.196  64.099  1.00  0.00    -0.404 C  
HETATM   16  O   UNL     1     -12.988  12.097  63.757  1.00  0.00    -0.753 OA 
BRANCH  15  17
HETATM   17  C   UNL     1     -10.722  11.283  63.535  1.00  0.00    -0.335 C  
HETATM   18  N   UNL     1      -9.482  12.035  63.267  1.00  0.00    -0.667 NA 
HETATM   19  H1  UNL     1      -8.756  11.425  62.890  1.00  0.00     0.000 HD 
HETATM   20  H2  UNL     1      -9.161  12.534  64.096  1.00  0.00     0.000 HD 
ENDBRANCH  15  17
ENDBRANCH  12  13
ENDBRANCH   9  12
ENDBRANCH   5   9
BRANCH   6  21
HETATM   21  O   UNL     1     -12.381  15.094  69.789  1.00  0.00    -0.300 OA 
HETATM   22  C   UNL     1     -12.995  15.441  71.026  1.00  0.00    -0.492 C  
ENDBRANCH   6  21
ENDBRANCH   2   3
TORSDOF 6
ENDMDL
MODEL       48
REMARK 921   NORMALIZED FREE ENERGY PREDICTED BY IDOCK:   -4.91 KCAL/MOL
REMARK 922        TOTAL FREE ENERGY PREDICTED BY IDOCK:   -7.12 KCAL/MOL
REMARK 923 INTER-LIGAND FREE ENERGY PREDICTED BY IDOCK:   -6.86 KCAL/MOL
REMARK 924 INTRA-LIGAND FREE ENERGY PREDICTED BY IDOCK:   -0.26 KCAL/MOL
REMARK 927      BINDING AFFINITY PREDICTED BY RF-SCORE:    0.00 PKD
ROOT
HETATM    1  C   UNL     1     -12.569  11.897  63.397  1.00  0.00    -0.431 C  
HETATM    2  O   UNL     1     -11.883  13.033  63.919  1.00  0.00    -0.411 OA 
ENDROOT
BRANCH   2   3
HETATM    3  C   UNL     1     -11.822  13.146  65.280  1.00  0.00    -0.365 A  
HETATM    4  C   UNL     1     -11.960  14.327  66.005  1.00  0.00    -0.412 A  
HETATM    5  C   UNL     1     -11.869  14.356  67.415  1.00  0.00    -0.430 A  
HETATM    6  C   UNL     1     -11.646  13.136  68.090  1.00  0.00    -0.339 A  
HETATM    7  C   UNL     1     -11.510  11.949  67.359  1.00  0.00    -0.393 A  
HETATM    8  C   UNL     1     -11.596  11.956  65.964  1.00  0.00    -0.296 A  
BRANCH   5   9
HETATM    9  C   UNL     1     -12.007  15.671  68.187  1.00  0.00     0.059 C  
HETATM   10  O   UNL     1     -12.525  15.436  69.507  1.00  0.00    -0.577 OA 
HETATM   11  H   UNL     1     -12.611  16.251  69.986  1.00  0.00     0.000 HD 
BRANCH   9  12
HETATM   12  C   UNL     1     -10.680  16.437  68.376  1.00  0.00    -0.327 C  
BRANCH  12  13
HETATM   13  N   UNL     1     -10.717  17.831  67.995  1.00  0.00    -0.361 N  
HETATM   14  H   UNL     1     -10.969  18.546  68.678  1.00  0.00     0.000 HD 
HETATM   15  C   UNL     1     -10.406  18.187  66.699  1.00  0.00    -0.376 C  
HETATM   16  O   UNL     1     -10.182  17.366  65.811  1.00  0.00    -0.555 OA 
BRANCH  15  17
HETATM   17  C   UNL     1     -10.333  19.694  66.448  1.00  0.00    -0.504 C  
HETATM   18  N   UNL     1      -8.966  20.108  66.082  1.00  0.00    -0.567 NA 
HETATM   19  H1  UNL     1      -8.918  21.114  65.915  1.00  0.00     0.000 HD 
HETATM   20  H2  UNL     1      -8.615  19.577  65.285  1.00  0.00     0.000 HD 
ENDBRANCH  15  17
ENDBRANCH  12  13
ENDBRANCH   9  12
ENDBRANCH   5   9
BRANCH   6  21
HETATM   21  O   UNL     1     -11.570  13.208  69.457  1.00  0.00    -0.285 OA 
HETATM   22  C   UNL     1     -12.153  12.145  70.205  1.00  0.00    -0.290 C  
ENDBRANCH   6  21
ENDBRANCH   2   3
TORSDOF 6
ENDMDL
MODEL       49
REMARK 921   NORMALIZED FREE ENERGY PREDICTED BY IDOCK:   -4.90 KCAL/MOL
REMARK 922        TOTAL FREE ENERGY PREDICTED BY IDOCK:   -7.12 KCAL/MOL
REMARK 923 INTER-LIGAND FREE ENERGY PREDICTED BY IDOCK:   -6.65 KCAL/MOL
REMARK 924 INTRA-LIGAND FREE ENERGY PREDICTED BY IDOCK:   -0.47 KCAL/MOL
REMARK 927      BINDING AFFINITY PREDICTED BY RF-SCORE:    0.00 PKD
ROOT
HETATM    1  C   UNL     1     -12.174  12.281  63.315  1.00  0.00    -0.423 C  
HETATM    2  O   UNL     1     -12.521  13.647  63.524  1.00  0.00    -0.736 OA 
ENDROOT
BRANCH   2   3
HETATM    3  C   UNL     1     -12.046  14.238  64.662  1.00  0.00    -0.463 A  
HETATM    4  C   UNL     1     -11.354  15.446  64.723  1.00  0.00    -0.381 A  
HETATM    5  C   UNL     1     -10.885  15.980  65.945  1.00  0.00    -0.210 A  
HETATM    6  C   UNL     1     -11.153  15.259  67.130  1.00  0.00    -0.323 A  
HETATM    7  C   UNL     1     -11.851  14.047  67.066  1.00  0.00    -0.458 A  
HETATM    8  C   UNL     1     -12.293  13.541  65.840  1.00  0.00    -0.507 A  
BRANCH   5   9
HETATM    9  C   UNL     1     -10.111  17.300  65.983  1.00  0.00    -0.262 C  
HETATM   10  O   UNL     1     -10.652  18.180  66.982  1.00  0.00    -0.378 OA 
HETATM   11  H   UNL     1     -10.171  18.999  67.006  1.00  0.00     0.000 HD 
BRANCH   9  12
HETATM   12  C   UNL     1      -8.611  17.146  66.311  1.00  0.00    -0.241 C  
BRANCH  12  13
HETATM   13  N   UNL     1      -7.895  18.386  66.511  1.00  0.00    -0.245 N  
HETATM   14  H   UNL     1      -7.665  18.983  65.716  1.00  0.00     0.000 HD 
HETATM   15  C   UNL     1      -7.525  18.756  67.788  1.00  0.00    -0.228 C  
HETATM   16  O   UNL     1      -7.693  18.037  68.771  1.00  0.00    -0.296 OA 
BRANCH  15  17
HETATM   17  C   UNL     1      -6.905  20.150  67.897  1.00  0.00    -0.278 C  
HETATM   18  N   UNL     1      -7.564  21.099  66.982  1.00  0.00    -0.719 NA 
HETATM   19  H1  UNL     1      -7.151  22.029  67.055  1.00  0.00     0.000 HD 
HETATM   20  H2  UNL     1      -8.573  21.123  67.130  1.00  0.00     0.000 HD 
ENDBRANCH  15  17
ENDBRANCH  12  13
ENDBRANCH   9  12
ENDBRANCH   5   9
BRANCH   6  21
HETATM   21  O   UNL     1     -10.686  15.815  68.292  1.00  0.00    -0.260 OA 
HETATM   22  C   UNL     1      -9.928  14.980  69.162  1.00  0.00    -0.237 C  
ENDBRANCH   6  21
ENDBRANCH   2   3
TORSDOF 6
ENDMDL
MODEL       50
REMARK 921   NORMALIZED FREE ENERGY PREDICTED BY IDOCK:   -4.90 KCAL/MOL
REMARK 922        TOTAL FREE ENERGY PREDICTED BY IDOCK:   -7.12 KCAL/MOL
REMARK 923 INTER-LIGAND FREE ENERGY PREDICTED BY IDOCK:   -6.69 KCAL/MOL
REMARK 924 INTRA-LIGAND FREE ENERGY PREDICTED BY IDOCK:   -0.43 KCAL/MOL
REMARK 927      BINDING AFFINITY PREDICTED BY RF-SCORE:    0.00 PKD
ROOT
HETATM    1  C   UNL     1     -12.167  16.013  72.286  1.00  0.00    -0.519 C  
HETATM    2  O   UNL     1     -11.738  16.184  70.938  1.00  0.00    -0.398 OA 
ENDROOT
BRANCH   2   3
HETATM    3  C   UNL     1     -11.771  15.078  70.134  1.00  0.00    -0.299 A  
HETATM    4  C   UNL     1     -11.855  13.758  70.570  1.00  0.00    -0.296 A  
HETATM    5  C   UNL     1     -11.870  12.670  69.667  1.00  0.00    -0.379 A  
HETATM    6  C   UNL     1     -11.813  12.955  68.285  1.00  0.00    -0.330 A  
HETATM    7  C   UNL     1     -11.732  14.283  67.849  1.00  0.00    -0.394 A  
HETATM    8  C   UNL     1     -11.709  15.336  68.769  1.00  0.00    -0.374 A  
BRANCH   5   9
HETATM    9  C   UNL     1     -11.944  11.227  70.173  1.00  0.00    -0.369 C  
HETATM   10  O   UNL     1     -13.008  10.513  69.523  1.00  0.00    -0.602 OA 
HETATM   11  H   UNL     1     -13.054   9.617  69.837  1.00  0.00     0.000 HD 
BRANCH   9  12
HETATM   12  C   UNL     1     -10.662  10.404  69.930  1.00  0.00    -0.279 C  
BRANCH  12  13
HETATM   13  N   UNL     1     -10.271   9.539  71.021  1.00  0.00    -0.292 N  
HETATM   14  H   UNL     1      -9.780   9.919  71.830  1.00  0.00     0.000 HD 
HETATM   15  C   UNL     1     -10.568   8.193  70.958  1.00  0.00    -0.210 C  
HETATM   16  O   UNL     1     -11.076   7.662  69.972  1.00  0.00    -0.254 OA 
BRANCH  15  17
HETATM   17  C   UNL     1     -10.240   7.404  72.226  1.00  0.00    -0.200 C  
HETATM   18  N   UNL     1     -11.359   7.449  73.186  1.00  0.00    -0.601 NA 
HETATM   19  H1  UNL     1     -11.140   6.923  74.032  1.00  0.00     0.000 HD 
HETATM   20  H2  UNL     1     -12.230   7.132  72.761  1.00  0.00     0.000 HD 
ENDBRANCH  15  17
ENDBRANCH  12  13
ENDBRANCH   9  12
ENDBRANCH   5   9
BRANCH   6  21
HETATM   21  O   UNL     1     -11.835  11.872  67.445  1.00  0.00    -0.571 OA 
HETATM   22  C   UNL     1     -11.681  12.119  66.051  1.00  0.00    -0.321 C  
ENDBRANCH   6  21
ENDBRANCH   2   3
TORSDOF 6
ENDMDL
MODEL       51
REMARK 921   NORMALIZED FREE ENERGY PREDICTED BY IDOCK:   -4.89 KCAL/MOL
REMARK 922        TOTAL FREE ENERGY PREDICTED BY IDOCK:   -7.10 KCAL/MOL
REMARK 923 INTER-LIGAND FREE ENERGY PREDICTED BY IDOCK:   -6.55 KCAL/MOL
REMARK 924 INTRA-LIGAND FREE ENERGY PREDICTED BY IDOCK:   -0.56 KCAL/MOL
REMARK 927      BINDING AFFINITY PREDICTED BY RF-SCORE:    0.00 PKD
ROOT
HETATM    1  C   UNL     1      -8.671   8.185  66.225  1.00  0.00    -0.150 C  
HETATM    2  O   UNL     1      -8.844   9.071  65.122  1.00  0.00    -0.188 OA 
ENDROOT
BRANCH   2   3
HETATM    3  C   UNL     1      -9.766  10.069  65.270  1.00  0.00    -0.306 A  
HETATM    4  C   UNL     1     -10.294  10.517  66.479  1.00  0.00    -0.294 A  
HETATM    5  C   UNL     1     -11.257  11.550  66.538  1.00  0.00    -0.324 A  
HETATM    6  C   UNL     1     -11.670  12.144  65.325  1.00  0.00    -0.308 A  
HETATM    7  C   UNL     1     -11.135  11.694  64.111  1.00  0.00    -0.435 A  
HETATM    8  C   UNL     1     -10.191  10.663  64.085  1.00  0.00    -0.365 A  
BRANCH   5   9
HETATM    9  C   UNL     1     -11.836  12.011  67.879  1.00  0.00    -0.250 C  
HETATM   10  O   UNL     1     -12.398  10.902  68.600  1.00  0.00    -0.805 OA 
HETATM   11  H   UNL     1     -12.756  11.188  69.432  1.00  0.00     0.000 HD 
BRANCH   9  12
HETATM   12  C   UNL     1     -10.804  12.661  68.824  1.00  0.00    -0.231 C  
BRANCH  12  13
HETATM   13  N   UNL     1     -11.249  13.871  69.481  1.00  0.00    -0.388 N  
HETATM   14  H   UNL     1     -10.904  14.780  69.174  1.00  0.00     0.000 HD 
HETATM   15  C   UNL     1     -12.145  13.783  70.526  1.00  0.00    -0.345 C  
HETATM   16  O   UNL     1     -12.527  12.714  70.997  1.00  0.00    -0.368 OA 
BRANCH  15  17
HETATM   17  C   UNL     1     -12.657  15.128  71.046  1.00  0.00    -0.377 C  
HETATM   18  N   UNL     1     -11.728  16.220  70.702  1.00  0.00    -0.516 NA 
HETATM   19  H1  UNL     1     -12.070  17.117  71.049  1.00  0.00     0.000 HD 
HETATM   20  H2  UNL     1     -11.542  16.252  69.700  1.00  0.00     0.000 HD 
ENDBRANCH  15  17
ENDBRANCH  12  13
ENDBRANCH   9  12
ENDBRANCH   5   9
BRANCH   6  21
HETATM   21  O   UNL     1     -12.600  13.144  65.430  1.00  0.00    -0.483 OA 
HETATM   22  C   UNL     1     -12.192  14.461  65.071  1.00  0.00    -0.414 C  
ENDBRANCH   6  21
ENDBRANCH   2   3
TORSDOF 6
ENDMDL
MODEL       52
REMARK 921   NORMALIZED FREE ENERGY PREDICTED BY IDOCK:   -4.89 KCAL/MOL
REMARK 922        TOTAL FREE ENERGY PREDICTED BY IDOCK:   -7.10 KCAL/MOL
REMARK 923 INTER-LIGAND FREE ENERGY PREDICTED BY IDOCK:   -6.45 KCAL/MOL
REMARK 924 INTRA-LIGAND FREE ENERGY PREDICTED BY IDOCK:   -0.65 KCAL/MOL
REMARK 927      BINDING AFFINITY PREDICTED BY RF-SCORE:    0.00 PKD
ROOT
HETATM    1  C   UNL     1      -9.163  11.097  62.745  1.00  0.00    -0.348 C  
HETATM    2  O   UNL     1     -10.525  11.375  63.058  1.00  0.00    -0.283 OA 
ENDROOT
BRANCH   2   3
HETATM    3  C   UNL     1     -10.820  11.627  64.369  1.00  0.00    -0.339 A  
HETATM    4  C   UNL     1     -10.259  10.980  65.467  1.00  0.00    -0.327 A  
HETATM    5  C   UNL     1     -10.634  11.295  66.794  1.00  0.00    -0.305 A  
HETATM    6  C   UNL     1     -11.595  12.311  66.988  1.00  0.00    -0.349 A  
HETATM    7  C   UNL     1     -12.156  12.961  65.882  1.00  0.00    -0.503 A  
HETATM    8  C   UNL     1     -11.772  12.619  64.582  1.00  0.00    -0.411 A  
BRANCH   5   9
HETATM    9  C   UNL     1     -10.015  10.556  67.984  1.00  0.00    -0.155 C  
HETATM   10  O   UNL     1      -9.581  11.485  68.991  1.00  0.00    -0.397 OA 
HETATM   11  H   UNL     1      -9.197  11.027  69.729  1.00  0.00     0.000 HD 
BRANCH   9  12
HETATM   12  C   UNL     1     -10.974   9.574  68.688  1.00  0.00    -0.072 C  
BRANCH  12  13
HETATM   13  N   UNL     1     -11.740  10.138  69.778  1.00  0.00    -0.425 N  
HETATM   14  H   UNL     1     -12.070  11.102  69.730  1.00  0.00     0.000 HD 
HETATM   15  C   UNL     1     -12.019   9.360  70.882  1.00  0.00    -0.280 C  
HETATM   16  O   UNL     1     -11.573   8.225  71.036  1.00  0.00    -0.274 OA 
BRANCH  15  17
HETATM   17  C   UNL     1     -12.957  10.009  71.902  1.00  0.00    -0.447 C  
HETATM   18  N   UNL     1     -13.552   8.999  72.796  1.00  0.00    -0.845 NA 
HETATM   19  H1  UNL     1     -14.177   9.431  73.476  1.00  0.00     0.000 HD 
HETATM   20  H2  UNL     1     -12.836   8.432  73.250  1.00  0.00     0.000 HD 
ENDBRANCH  15  17
ENDBRANCH  12  13
ENDBRANCH   9  12
ENDBRANCH   5   9
BRANCH   6  21
HETATM   21  O   UNL     1     -11.925  12.588  68.289  1.00  0.00    -0.328 OA 
HETATM   22  C   UNL     1     -12.035  13.958  68.662  1.00  0.00    -0.366 C  
ENDBRANCH   6  21
ENDBRANCH   2   3
TORSDOF 6
ENDMDL
MODEL       53
REMARK 921   NORMALIZED FREE ENERGY PREDICTED BY IDOCK:   -4.88 KCAL/MOL
REMARK 922        TOTAL FREE ENERGY PREDICTED BY IDOCK:   -7.09 KCAL/MOL
REMARK 923 INTER-LIGAND FREE ENERGY PREDICTED BY IDOCK:   -6.46 KCAL/MOL
REMARK 924 INTRA-LIGAND FREE ENERGY PREDICTED BY IDOCK:   -0.63 KCAL/MOL
REMARK 927      BINDING AFFINITY PREDICTED BY RF-SCORE:    0.00 PKD
ROOT
HETATM    1  C   UNL     1     -13.286  15.876  73.235  1.00  0.00    -0.595 C  
HETATM    2  O   UNL     1     -13.985  15.297  72.136  1.00  0.00    -0.455 OA 
ENDROOT
BRANCH   2   3
HETATM    3  C   UNL     1     -13.425  14.189  71.562  1.00  0.00    -0.344 A  
HETATM    4  C   UNL     1     -12.694  14.169  70.377  1.00  0.00    -0.341 A  
HETATM    5  C   UNL     1     -12.161  12.972  69.846  1.00  0.00    -0.347 A  
HETATM    6  C   UNL     1     -12.373  11.775  70.564  1.00  0.00    -0.299 A  
HETATM    7  C   UNL     1     -13.106  11.799  71.758  1.00  0.00    -0.480 A  
HETATM    8  C   UNL     1     -13.629  12.998  72.251  1.00  0.00    -0.643 A  
BRANCH   5   9
HETATM    9  C   UNL     1     -11.377  12.975  68.530  1.00  0.00    -0.288 C  
HETATM   10  O   UNL     1     -11.993  12.103  67.568  1.00  0.00    -0.544 OA 
HETATM   11  H   UNL     1     -11.507  12.105  66.752  1.00  0.00     0.000 HD 
BRANCH   9  12
HETATM   12  C   UNL     1     -11.275  14.358  67.856  1.00  0.00    -0.286 C  
BRANCH  12  13
HETATM   13  N   UNL     1      -9.939  14.905  67.774  1.00  0.00    -0.221 N  
HETATM   14  H   UNL     1      -9.324  14.651  67.001  1.00  0.00     0.000 HD 
HETATM   15  C   UNL     1      -9.502  15.775  68.752  1.00  0.00    -0.219 C  
HETATM   16  O   UNL     1     -10.162  16.048  69.752  1.00  0.00    -0.267 OA 
BRANCH  15  17
HETATM   17  C   UNL     1      -8.133  16.403  68.486  1.00  0.00    -0.205 C  
HETATM   18  N   UNL     1      -8.225  17.873  68.419  1.00  0.00    -0.293 NA 
HETATM   19  H1  UNL     1      -7.311  18.292  68.242  1.00  0.00     0.000 HD 
HETATM   20  H2  UNL     1      -8.660  18.260  69.256  1.00  0.00     0.000 HD 
ENDBRANCH  15  17
ENDBRANCH  12  13
ENDBRANCH   9  12
ENDBRANCH   5   9
BRANCH   6  21
HETATM   21  O   UNL     1     -11.835  10.640  70.017  1.00  0.00    -0.272 OA 
HETATM   22  C   UNL     1     -11.125   9.763  70.888  1.00  0.00    -0.357 C  
ENDBRANCH   6  21
ENDBRANCH   2   3
TORSDOF 6
ENDMDL
MODEL       54
REMARK 921   NORMALIZED FREE ENERGY PREDICTED BY IDOCK:   -4.87 KCAL/MOL
REMARK 922        TOTAL FREE ENERGY PREDICTED BY IDOCK:   -7.08 KCAL/MOL
REMARK 923 INTER-LIGAND FREE ENERGY PREDICTED BY IDOCK:   -6.55 KCAL/MOL
REMARK 924 INTRA-LIGAND FREE ENERGY PREDICTED BY IDOCK:   -0.53 KCAL/MOL
REMARK 927      BINDING AFFINITY PREDICTED BY RF-SCORE:    0.00 PKD
ROOT
HETATM    1  C   UNL     1     -12.072  14.140  70.469  1.00  0.00    -0.350 C  
HETATM    2  O   UNL     1     -12.097  12.796  69.994  1.00  0.00    -0.328 OA 
ENDROOT
BRANCH   2   3
HETATM    3  C   UNL     1     -11.792  12.600  68.676  1.00  0.00    -0.302 A  
HETATM    4  C   UNL     1     -11.292  11.423  68.124  1.00  0.00    -0.374 A  
HETATM    5  C   UNL     1     -10.990  11.312  66.747  1.00  0.00    -0.339 A  
HETATM    6  C   UNL     1     -11.226  12.433  65.923  1.00  0.00    -0.336 A  
HETATM    7  C   UNL     1     -11.732  13.615  66.480  1.00  0.00    -0.414 A  
HETATM    8  C   UNL     1     -12.011  13.696  67.847  1.00  0.00    -0.382 A  
BRANCH   5   9
HETATM    9  C   UNL     1     -10.423  10.012  66.168  1.00  0.00    -0.086 C  
HETATM   10  O   UNL     1      -9.005  10.123  65.959  1.00  0.00    -0.145 OA 
HETATM   11  H   UNL     1      -8.653   9.317  65.600  1.00  0.00     0.000 HD 
BRANCH   9  12
HETATM   12  C   UNL     1     -10.630   8.775  67.065  1.00  0.00    -0.213 C  
BRANCH  12  13
HETATM   13  N   UNL     1     -10.501   7.500  66.394  1.00  0.00    -0.423 N  
HETATM   14  H   UNL     1     -10.167   7.456  65.432  1.00  0.00     0.000 HD 
HETATM   15  C   UNL     1     -10.834   6.344  67.068  1.00  0.00    -0.392 C  
HETATM   16  O   UNL     1     -11.326   6.340  68.195  1.00  0.00    -0.278 OA 
BRANCH  15  17
HETATM   17  C   UNL     1     -10.520   5.050  66.315  1.00  0.00    -0.303 C  
HETATM   18  N   UNL     1     -11.520   4.789  65.264  1.00  0.00    -1.061 NA 
HETATM   19  H1  UNL     1     -11.311   3.925  64.762  1.00  0.00     0.000 HD 
HETATM   20  H2  UNL     1     -11.610   5.581  64.628  1.00  0.00     0.000 HD 
ENDBRANCH  15  17
ENDBRANCH  12  13
ENDBRANCH   9  12
ENDBRANCH   5   9
BRANCH   6  21
HETATM   21  O   UNL     1     -10.925  12.280  64.594  1.00  0.00    -0.284 OA 
HETATM   22  C   UNL     1     -12.008  12.285  63.669  1.00  0.00    -0.543 C  
ENDBRANCH   6  21
ENDBRANCH   2   3
TORSDOF 6
ENDMDL
MODEL       55
REMARK 921   NORMALIZED FREE ENERGY PREDICTED BY IDOCK:   -4.86 KCAL/MOL
REMARK 922        TOTAL FREE ENERGY PREDICTED BY IDOCK:   -7.07 KCAL/MOL
REMARK 923 INTER-LIGAND FREE ENERGY PREDICTED BY IDOCK:   -6.57 KCAL/MOL
REMARK 924 INTRA-LIGAND FREE ENERGY PREDICTED BY IDOCK:   -0.49 KCAL/MOL
REMARK 927      BINDING AFFINITY PREDICTED BY RF-SCORE:    0.00 PKD
ROOT
HETATM    1  C   UNL     1     -12.497  11.877  63.467  1.00  0.00    -0.492 C  
HETATM    2  O   UNL     1     -12.962  12.451  64.685  1.00  0.00    -0.793 OA 
ENDROOT
BRANCH   2   3
HETATM    3  C   UNL     1     -12.035  12.645  65.671  1.00  0.00    -0.452 A  
HETATM    4  C   UNL     1     -12.170  13.509  66.756  1.00  0.00    -0.392 A  
HETATM    5  C   UNL     1     -11.151  13.659  67.725  1.00  0.00    -0.293 A  
HETATM    6  C   UNL     1      -9.977  12.889  67.578  1.00  0.00    -0.215 A  
HETATM    7  C   UNL     1      -9.845  12.019  66.488  1.00  0.00    -0.225 A  
HETATM    8  C   UNL     1     -10.866  11.901  65.541  1.00  0.00    -0.343 A  
BRANCH   5   9
HETATM    9  C   UNL     1     -11.317  14.628  68.899  1.00  0.00    -0.283 C  
HETATM   10  O   UNL     1     -11.104  13.955  70.150  1.00  0.00    -0.473 OA 
HETATM   11  H   UNL     1     -11.206  14.557  70.879  1.00  0.00     0.000 HD 
BRANCH   9  12
HETATM   12  C   UNL     1     -10.339  15.821  68.878  1.00  0.00    -0.224 C  
BRANCH  12  13
HETATM   13  N   UNL     1     -10.403  16.648  67.694  1.00  0.00    -0.297 N  
HETATM   14  H   UNL     1     -10.528  16.224  66.775  1.00  0.00     0.000 HD 
HETATM   15  C   UNL     1     -10.294  18.018  67.818  1.00  0.00    -0.393 C  
HETATM   16  O   UNL     1     -10.054  18.580  68.885  1.00  0.00    -0.386 OA 
BRANCH  15  17
HETATM   17  C   UNL     1     -10.523  18.799  66.523  1.00  0.00    -0.427 C  
HETATM   18  N   UNL     1     -10.594  17.895  65.361  1.00  0.00    -0.599 NA 
HETATM   19  H1  UNL     1     -10.746  18.417  64.497  1.00  0.00     0.000 HD 
HETATM   20  H2  UNL     1     -11.300  17.171  65.492  1.00  0.00     0.000 HD 
ENDBRANCH  15  17
ENDBRANCH  12  13
ENDBRANCH   9  12
ENDBRANCH   5   9
BRANCH   6  21
HETATM   21  O   UNL     1      -9.018  13.061  68.542  1.00  0.00    -0.152 OA 
HETATM   22  C   UNL     1      -7.683  12.688  68.216  1.00  0.00    -0.135 C  
ENDBRANCH   6  21
ENDBRANCH   2   3
TORSDOF 6
ENDMDL
MODEL       56
REMARK 921   NORMALIZED FREE ENERGY PREDICTED BY IDOCK:   -4.85 KCAL/MOL
REMARK 922        TOTAL FREE ENERGY PREDICTED BY IDOCK:   -7.04 KCAL/MOL
REMARK 923 INTER-LIGAND FREE ENERGY PREDICTED BY IDOCK:   -6.43 KCAL/MOL
REMARK 924 INTRA-LIGAND FREE ENERGY PREDICTED BY IDOCK:   -0.61 KCAL/MOL
REMARK 927      BINDING AFFINITY PREDICTED BY RF-SCORE:    0.00 PKD
ROOT
HETATM    1  C   UNL     1     -11.587   9.124  71.856  1.00  0.00    -0.360 C  
HETATM    2  O   UNL     1     -12.330   9.761  70.820  1.00  0.00    -0.286 OA 
ENDROOT
BRANCH   2   3
HETATM    3  C   UNL     1     -12.500  11.114  70.923  1.00  0.00    -0.409 A  
HETATM    4  C   UNL     1     -11.861  12.075  70.143  1.00  0.00    -0.383 A  
HETATM    5  C   UNL     1     -12.087  13.459  70.327  1.00  0.00    -0.419 A  
HETATM    6  C   UNL     1     -13.003  13.855  71.325  1.00  0.00    -0.341 A  
HETATM    7  C   UNL     1     -13.647  12.886  72.106  1.00  0.00    -0.589 A  
HETATM    8  C   UNL     1     -13.395  11.526  71.906  1.00  0.00    -0.408 A  
BRANCH   5   9
HETATM    9  C   UNL     1     -11.357  14.497  69.469  1.00  0.00    -0.275 C  
HETATM   10  O   UNL     1     -10.378  15.204  70.248  1.00  0.00    -0.481 OA 
HETATM   11  H   UNL     1      -9.925  15.848  69.716  1.00  0.00     0.000 HD 
BRANCH   9  12
HETATM   12  C   UNL     1     -10.601  13.903  68.263  1.00  0.00    -0.257 C  
BRANCH  12  13
HETATM   13  N   UNL     1      -9.183  13.704  68.463  1.00  0.00    -0.327 N  
HETATM   14  H   UNL     1      -8.688  14.218  69.192  1.00  0.00     0.000 HD 
HETATM   15  C   UNL     1      -8.504  12.811  67.660  1.00  0.00    -0.178 C  
HETATM   16  O   UNL     1      -9.025  12.231  66.710  1.00  0.00    -0.204 OA 
BRANCH  15  17
HETATM   17  C   UNL     1      -7.046  12.573  68.056  1.00  0.00    -0.103 C  
HETATM   18  N   UNL     1      -6.139  12.814  66.919  1.00  0.00    -0.457 NA 
HETATM   19  H1  UNL     1      -5.166  12.654  67.183  1.00  0.00     0.000 HD 
HETATM   20  H2  UNL     1      -6.273  13.744  66.523  1.00  0.00     0.000 HD 
ENDBRANCH  15  17
ENDBRANCH  12  13
ENDBRANCH   9  12
ENDBRANCH   5   9
BRANCH   6  21
HETATM   21  O   UNL     1     -13.196  15.205  71.466  1.00  0.00    -0.360 OA 
HETATM   22  C   UNL     1     -13.618  15.680  72.741  1.00  0.00    -0.593 C  
ENDBRANCH   6  21
ENDBRANCH   2   3
TORSDOF 6
ENDMDL
MODEL       57
REMARK 921   NORMALIZED FREE ENERGY PREDICTED BY IDOCK:   -4.84 KCAL/MOL
REMARK 922        TOTAL FREE ENERGY PREDICTED BY IDOCK:   -7.03 KCAL/MOL
REMARK 923 INTER-LIGAND FREE ENERGY PREDICTED BY IDOCK:   -6.63 KCAL/MOL
REMARK 924 INTRA-LIGAND FREE ENERGY PREDICTED BY IDOCK:   -0.40 KCAL/MOL
REMARK 927      BINDING AFFINITY PREDICTED BY RF-SCORE:    0.00 PKD
ROOT
HETATM    1  C   UNL     1     -14.051  14.499  72.240  1.00  0.00    -0.500 C  
HETATM    2  O   UNL     1     -13.448  15.560  71.504  1.00  0.00    -0.479 OA 
ENDROOT
BRANCH   2   3
HETATM    3  C   UNL     1     -12.456  15.218  70.626  1.00  0.00    -0.406 A  
HETATM    4  C   UNL     1     -12.473  14.121  69.768  1.00  0.00    -0.266 A  
HETATM    5  C   UNL     1     -11.395  13.834  68.900  1.00  0.00    -0.328 A  
HETATM    6  C   UNL     1     -10.285  14.707  68.908  1.00  0.00    -0.241 A  
HETATM    7  C   UNL     1     -10.272  15.811  69.770  1.00  0.00    -0.291 A  
HETATM    8  C   UNL     1     -11.350  16.062  70.624  1.00  0.00    -0.424 A  
BRANCH   5   9
HETATM    9  C   UNL     1     -11.429  12.611  67.979  1.00  0.00    -0.318 C  
HETATM   10  O   UNL     1     -12.222  11.560  68.556  1.00  0.00    -0.524 OA 
HETATM   11  H   UNL     1     -12.244  10.801  67.985  1.00  0.00     0.000 HD 
BRANCH   9  12
HETATM   12  C   UNL     1     -12.028  12.885  66.584  1.00  0.00    -0.366 C  
BRANCH  12  13
HETATM   13  N   UNL     1     -11.179  12.526  65.469  1.00  0.00    -0.303 N  
HETATM   14  H   UNL     1     -10.171  12.438  65.596  1.00  0.00     0.000 HD 
HETATM   15  C   UNL     1     -11.746  12.304  64.231  1.00  0.00    -0.381 C  
HETATM   16  O   UNL     1     -12.939  12.482  63.995  1.00  0.00    -0.733 OA 
BRANCH  15  17
HETATM   17  C   UNL     1     -10.776  11.790  63.165  1.00  0.00    -0.251 C  
HETATM   18  N   UNL     1      -9.403  11.701  63.693  1.00  0.00    -0.500 NA 
HETATM   19  H1  UNL     1      -8.757  11.358  62.982  1.00  0.00     0.000 HD 
HETATM   20  H2  UNL     1      -9.363  11.136  64.541  1.00  0.00     0.000 HD 
ENDBRANCH  15  17
ENDBRANCH  12  13
ENDBRANCH   9  12
ENDBRANCH   5   9
BRANCH   6  21
HETATM   21  O   UNL     1      -9.265  14.394  68.047  1.00  0.00    -0.181 OA 
HETATM   22  C   UNL     1      -7.948  14.331  68.585  1.00  0.00    -0.139 C  
ENDBRANCH   6  21
ENDBRANCH   2   3
TORSDOF 6
ENDMDL
MODEL       58
REMARK 921   NORMALIZED FREE ENERGY PREDICTED BY IDOCK:   -4.83 KCAL/MOL
REMARK 922        TOTAL FREE ENERGY PREDICTED BY IDOCK:   -7.01 KCAL/MOL
REMARK 923 INTER-LIGAND FREE ENERGY PREDICTED BY IDOCK:   -6.22 KCAL/MOL
REMARK 924 INTRA-LIGAND FREE ENERGY PREDICTED BY IDOCK:   -0.80 KCAL/MOL
REMARK 927      BINDING AFFINITY PREDICTED BY RF-SCORE:    0.00 PKD
ROOT
HETATM    1  C   UNL     1      -7.012   7.707  71.239  1.00  0.00    -0.050 C  
HETATM    2  O   UNL     1      -7.790   8.196  70.151  1.00  0.00    -0.093 OA 
ENDROOT
BRANCH   2   3
HETATM    3  C   UNL     1      -9.004   8.747  70.457  1.00  0.00    -0.177 A  
HETATM    4  C   UNL     1      -9.636   9.767  69.749  1.00  0.00    -0.256 A  
HETATM    5  C   UNL     1     -10.888  10.289  70.145  1.00  0.00    -0.362 A  
HETATM    6  C   UNL     1     -11.507   9.733  71.286  1.00  0.00    -0.385 A  
HETATM    7  C   UNL     1     -10.871   8.706  71.995  1.00  0.00    -0.430 A  
HETATM    8  C   UNL     1      -9.628   8.219  71.582  1.00  0.00    -0.261 A  
BRANCH   5   9
HETATM    9  C   UNL     1     -11.554  11.423  69.360  1.00  0.00    -0.323 C  
HETATM   10  O   UNL     1     -11.788  12.560  70.207  1.00  0.00    -0.489 OA 
HETATM   11  H   UNL     1     -12.200  13.264  69.720  1.00  0.00     0.000 HD 
BRANCH   9  12
HETATM   12  C   UNL     1     -10.723  11.939  68.166  1.00  0.00    -0.215 C  
BRANCH  12  13
HETATM   13  N   UNL     1     -11.490  12.301  66.995  1.00  0.00    -0.336 N  
HETATM   14  H   UNL     1     -11.717  11.600  66.290  1.00  0.00     0.000 HD 
HETATM   15  C   UNL     1     -11.913  13.605  66.840  1.00  0.00    -0.410 C  
HETATM   16  O   UNL     1     -11.596  14.511  67.608  1.00  0.00    -0.344 OA 
BRANCH  15  17
HETATM   17  C   UNL     1     -12.838  13.841  65.644  1.00  0.00    -0.408 C  
HETATM   18  N   UNL     1     -12.959  12.627  64.817  1.00  0.00    -0.867 NA 
HETATM   19  H1  UNL     1     -13.575  12.785  64.019  1.00  0.00     0.000 HD 
HETATM   20  H2  UNL     1     -13.258  11.825  65.370  1.00  0.00     0.000 HD 
ENDBRANCH  15  17
ENDBRANCH  12  13
ENDBRANCH   9  12
ENDBRANCH   5   9
BRANCH   6  21
HETATM   21  O   UNL     1     -12.723  10.265  71.632  1.00  0.00    -0.392 OA 
HETATM   22  C   UNL     1     -13.718   9.369  72.118  1.00  0.00    -0.420 C  
ENDBRANCH   6  21
ENDBRANCH   2   3
TORSDOF 6
ENDMDL
MODEL       59
REMARK 921   NORMALIZED FREE ENERGY PREDICTED BY IDOCK:   -4.82 KCAL/MOL
REMARK 922        TOTAL FREE ENERGY PREDICTED BY IDOCK:   -7.01 KCAL/MOL
REMARK 923 INTER-LIGAND FREE ENERGY PREDICTED BY IDOCK:   -6.59 KCAL/MOL
REMARK 924 INTRA-LIGAND FREE ENERGY PREDICTED BY IDOCK:   -0.42 KCAL/MOL
REMARK 927      BINDING AFFINITY PREDICTED BY RF-SCORE:    0.00 PKD
ROOT
HETATM    1  C   UNL     1     -10.282  10.757  66.902  1.00  0.00    -0.227 C  
HETATM    2  O   UNL     1      -9.724  11.796  67.701  1.00  0.00    -0.177 OA 
ENDROOT
BRANCH   2   3
HETATM    3  C   UNL     1     -10.577  12.458  68.539  1.00  0.00    -0.231 A  
HETATM    4  C   UNL     1     -10.713  13.841  68.636  1.00  0.00    -0.270 A  
HETATM    5  C   UNL     1     -11.614  14.443  69.544  1.00  0.00    -0.352 A  
HETATM    6  C   UNL     1     -12.402  13.598  70.356  1.00  0.00    -0.345 A  
HETATM    7  C   UNL     1     -12.266  12.208  70.254  1.00  0.00    -0.344 A  
HETATM    8  C   UNL     1     -11.359  11.644  69.353  1.00  0.00    -0.342 A  
BRANCH   5   9
HETATM    9  C   UNL     1     -11.731  15.967  69.644  1.00  0.00    -0.317 C  
HETATM   10  O   UNL     1     -11.855  16.380  71.015  1.00  0.00    -0.589 OA 
HETATM   11  H   UNL     1     -11.926  17.325  71.078  1.00  0.00     0.000 HD 
BRANCH   9  12
HETATM   12  C   UNL     1     -10.521  16.734  69.071  1.00  0.00    -0.336 C  
BRANCH  12  13
HETATM   13  N   UNL     1     -10.739  17.349  67.780  1.00  0.00    -0.365 N  
HETATM   14  H   UNL     1     -11.437  16.971  67.141  1.00  0.00     0.000 HD 
HETATM   15  C   UNL     1      -9.992  18.452  67.421  1.00  0.00    -0.334 C  
HETATM   16  O   UNL     1      -9.076  18.897  68.110  1.00  0.00    -0.294 OA 
BRANCH  15  17
HETATM   17  C   UNL     1     -10.407  19.105  66.102  1.00  0.00    -0.484 C  
HETATM   18  N   UNL     1      -9.726  20.399  65.912  1.00  0.00    -0.635 NA 
HETATM   19  H1  UNL     1     -10.003  20.835  65.031  1.00  0.00     0.000 HD 
HETATM   20  H2  UNL     1      -8.713  20.302  65.980  1.00  0.00     0.000 HD 
ENDBRANCH  15  17
ENDBRANCH  12  13
ENDBRANCH   9  12
ENDBRANCH   5   9
BRANCH   6  21
HETATM   21  O   UNL     1     -13.266  14.224  71.217  1.00  0.00    -0.336 OA 
HETATM   22  C   UNL     1     -13.650  13.516  72.392  1.00  0.00    -0.608 C  
ENDBRANCH   6  21
ENDBRANCH   2   3
TORSDOF 6
ENDMDL
MODEL       60
REMARK 921   NORMALIZED FREE ENERGY PREDICTED BY IDOCK:   -4.82 KCAL/MOL
REMARK 922        TOTAL FREE ENERGY PREDICTED BY IDOCK:   -7.01 KCAL/MOL
REMARK 923 INTER-LIGAND FREE ENERGY PREDICTED BY IDOCK:   -6.79 KCAL/MOL
REMARK 924 INTRA-LIGAND FREE ENERGY PREDICTED BY IDOCK:   -0.22 KCAL/MOL
REMARK 927      BINDING AFFINITY PREDICTED BY RF-SCORE:    0.00 PKD
ROOT
HETATM    1  C   UNL     1     -12.520  14.208  70.751  1.00  0.00    -0.366 C  
HETATM    2  O   UNL     1     -12.452  14.418  69.343  1.00  0.00    -0.248 OA 
ENDROOT
BRANCH   2   3
HETATM    3  C   UNL     1     -11.910  13.411  68.593  1.00  0.00    -0.362 A  
HETATM    4  C   UNL     1     -11.201  12.319  69.089  1.00  0.00    -0.300 A  
HETATM    5  C   UNL     1     -10.661  11.328  68.237  1.00  0.00    -0.231 A  
HETATM    6  C   UNL     1     -10.874  11.459  66.848  1.00  0.00    -0.285 A  
HETATM    7  C   UNL     1     -11.590  12.556  66.352  1.00  0.00    -0.449 A  
HETATM    8  C   UNL     1     -12.102  13.525  67.220  1.00  0.00    -0.367 A  
BRANCH   5   9
HETATM    9  C   UNL     1      -9.870  10.147  68.806  1.00  0.00    -0.175 C  
HETATM   10  O   UNL     1      -8.955  10.588  69.822  1.00  0.00    -0.400 OA 
HETATM   11  H   UNL     1      -8.463   9.856  70.175  1.00  0.00     0.000 HD 
BRANCH   9  12
HETATM   12  C   UNL     1     -10.742   9.054  69.457  1.00  0.00    -0.206 C  
BRANCH  12  13
HETATM   13  N   UNL     1     -11.942   9.532  70.107  1.00  0.00    -0.467 N  
HETATM   14  H   UNL     1     -12.706   9.923  69.556  1.00  0.00     0.000 HD 
HETATM   15  C   UNL     1     -12.045   9.454  71.481  1.00  0.00    -0.379 C  
HETATM   16  O   UNL     1     -11.125   9.077  72.204  1.00  0.00    -0.350 OA 
BRANCH  15  17
HETATM   17  C   UNL     1     -13.410   9.850  72.045  1.00  0.00    -0.432 C  
HETATM   18  N   UNL     1     -13.819   8.946  73.135  1.00  0.00    -1.176 NA 
HETATM   19  H1  UNL     1     -14.730   9.210  73.511  1.00  0.00     0.000 HD 
HETATM   20  H2  UNL     1     -13.110   8.897  73.867  1.00  0.00     0.000 HD 
ENDBRANCH  15  17
ENDBRANCH  12  13
ENDBRANCH   9  12
ENDBRANCH   5   9
BRANCH   6  21
HETATM   21  O   UNL     1     -10.339  10.474  66.060  1.00  0.00    -0.248 OA 
HETATM   22  C   UNL     1     -10.066  10.795  64.699  1.00  0.00    -0.344 C  
ENDBRANCH   6  21
ENDBRANCH   2   3
TORSDOF 6
ENDMDL
MODEL       61
REMARK 921   NORMALIZED FREE ENERGY PREDICTED BY IDOCK:   -4.82 KCAL/MOL
REMARK 922        TOTAL FREE ENERGY PREDICTED BY IDOCK:   -7.01 KCAL/MOL
REMARK 923 INTER-LIGAND FREE ENERGY PREDICTED BY IDOCK:   -6.42 KCAL/MOL
REMARK 924 INTRA-LIGAND FREE ENERGY PREDICTED BY IDOCK:   -0.59 KCAL/MOL
REMARK 927      BINDING AFFINITY PREDICTED BY RF-SCORE:    0.00 PKD
ROOT
HETATM    1  C   UNL     1     -12.460  12.674  64.691  1.00  0.00    -0.466 C  
HETATM    2  O   UNL     1     -11.291  12.818  65.494  1.00  0.00    -0.294 OA 
ENDROOT
BRANCH   2   3
HETATM    3  C   UNL     1     -11.481  13.055  66.827  1.00  0.00    -0.345 A  
HETATM    4  C   UNL     1     -11.471  12.092  67.833  1.00  0.00    -0.396 A  
HETATM    5  C   UNL     1     -11.691  12.424  69.190  1.00  0.00    -0.376 A  
HETATM    6  C   UNL     1     -11.909  13.781  69.514  1.00  0.00    -0.339 A  
HETATM    7  C   UNL     1     -11.916  14.748  68.500  1.00  0.00    -0.284 A  
HETATM    8  C   UNL     1     -11.705  14.385  67.167  1.00  0.00    -0.424 A  
BRANCH   5   9
HETATM    9  C   UNL     1     -11.693  11.343  70.275  1.00  0.00    -0.306 C  
HETATM   10  O   UNL     1     -13.031  11.077  70.727  1.00  0.00    -0.286 OA 
HETATM   11  H   UNL     1     -13.033  10.407  71.400  1.00  0.00     0.000 HD 
BRANCH   9  12
HETATM   12  C   UNL     1     -11.114   9.988  69.821  1.00  0.00    -0.274 C  
BRANCH  12  13
HETATM   13  N   UNL     1     -11.826   8.824  70.300  1.00  0.00    -0.466 N  
HETATM   14  H   UNL     1     -12.660   8.493  69.815  1.00  0.00     0.000 HD 
HETATM   15  C   UNL     1     -11.366   8.164  71.421  1.00  0.00    -0.259 C  
HETATM   16  O   UNL     1     -10.422   8.566  72.099  1.00  0.00    -0.297 OA 
BRANCH  15  17
HETATM   17  C   UNL     1     -12.107   6.867  71.751  1.00  0.00    -0.346 C  
HETATM   18  N   UNL     1     -13.542   7.116  71.978  1.00  0.00    -0.557 NA 
HETATM   19  H1  UNL     1     -14.035   6.250  72.198  1.00  0.00     0.000 HD 
HETATM   20  H2  UNL     1     -13.968   7.601  71.189  1.00  0.00     0.000 HD 
ENDBRANCH  15  17
ENDBRANCH  12  13
ENDBRANCH   9  12
ENDBRANCH   5   9
BRANCH   6  21
HETATM   21  O   UNL     1     -12.113  14.059  70.840  1.00  0.00    -0.333 OA 
HETATM   22  C   UNL     1     -11.945  15.409  71.262  1.00  0.00    -0.374 C  
ENDBRANCH   6  21
ENDBRANCH   2   3
TORSDOF 6
ENDMDL
MODEL       62
REMARK 921   NORMALIZED FREE ENERGY PREDICTED BY IDOCK:   -4.81 KCAL/MOL
REMARK 922        TOTAL FREE ENERGY PREDICTED BY IDOCK:   -6.99 KCAL/MOL
REMARK 923 INTER-LIGAND FREE ENERGY PREDICTED BY IDOCK:   -6.69 KCAL/MOL
REMARK 924 INTRA-LIGAND FREE ENERGY PREDICTED BY IDOCK:   -0.31 KCAL/MOL
REMARK 927      BINDING AFFINITY PREDICTED BY RF-SCORE:    0.00 PKD
ROOT
HETATM    1  C   UNL     1     -12.453  14.086  71.427  1.00  0.00    -0.356 C  
HETATM    2  O   UNL     1     -12.514  14.525  70.072  1.00  0.00    -0.334 OA 
ENDROOT
BRANCH   2   3
HETATM    3  C   UNL     1     -12.071  13.652  69.118  1.00  0.00    -0.319 A  
HETATM    4  C   UNL     1     -12.193  13.822  67.741  1.00  0.00    -0.208 A  
HETATM    5  C   UNL     1     -11.716  12.859  66.823  1.00  0.00    -0.445 A  
HETATM    6  C   UNL     1     -11.088  11.704  67.338  1.00  0.00    -0.281 A  
HETATM    7  C   UNL     1     -10.965  11.537  68.723  1.00  0.00    -0.271 A  
HETATM    8  C   UNL     1     -11.455  12.504  69.606  1.00  0.00    -0.255 A  
BRANCH   5   9
HETATM    9  C   UNL     1     -11.879  13.061  65.313  1.00  0.00    -0.376 C  
HETATM   10  O   UNL     1     -13.171  13.612  65.009  1.00  0.00    -0.729 OA 
HETATM   11  H   UNL     1     -13.272  13.738  64.073  1.00  0.00     0.000 HD 
BRANCH   9  12
HETATM   12  C   UNL     1     -10.844  14.019  64.687  1.00  0.00    -0.403 C  
BRANCH  12  13
HETATM   13  N   UNL     1     -10.171  14.893  65.623  1.00  0.00    -0.332 N  
HETATM   14  H   UNL     1      -9.605  14.503  66.376  1.00  0.00     0.000 HD 
HETATM   15  C   UNL     1     -10.302  16.259  65.487  1.00  0.00    -0.338 C  
HETATM   16  O   UNL     1     -11.041  16.785  64.656  1.00  0.00    -0.844 OA 
BRANCH  15  17
HETATM   17  C   UNL     1      -9.433  17.085  66.437  1.00  0.00    -0.271 C  
HETATM   18  N   UNL     1      -9.423  18.507  66.049  1.00  0.00    -0.494 NA 
HETATM   19  H1  UNL     1      -8.843  19.057  66.683  1.00  0.00     0.000 HD 
HETATM   20  H2  UNL     1     -10.369  18.883  65.983  1.00  0.00     0.000 HD 
ENDBRANCH  15  17
ENDBRANCH  12  13
ENDBRANCH   9  12
ENDBRANCH   5   9
BRANCH   6  21
HETATM   21  O   UNL     1     -10.636  10.799  66.413  1.00  0.00    -0.246 OA 
HETATM   22  C   UNL     1      -9.575   9.933  66.804  1.00  0.00    -0.183 C  
ENDBRANCH   6  21
ENDBRANCH   2   3
TORSDOF 6
ENDMDL
MODEL       63
REMARK 921   NORMALIZED FREE ENERGY PREDICTED BY IDOCK:   -4.81 KCAL/MOL
REMARK 922        TOTAL FREE ENERGY PREDICTED BY IDOCK:   -6.99 KCAL/MOL
REMARK 923 INTER-LIGAND FREE ENERGY PREDICTED BY IDOCK:   -6.34 KCAL/MOL
REMARK 924 INTRA-LIGAND FREE ENERGY PREDICTED BY IDOCK:   -0.65 KCAL/MOL
REMARK 927      BINDING AFFINITY PREDICTED BY RF-SCORE:    0.00 PKD
ROOT
HETATM    1  C   UNL     1     -11.486  16.183  70.673  1.00  0.00    -0.361 C  
HETATM    2  O   UNL     1     -12.690  15.473  70.947  1.00  0.00    -0.424 OA 
ENDROOT
BRANCH   2   3
HETATM    3  C   UNL     1     -12.618  14.107  70.940  1.00  0.00    -0.363 A  
HETATM    4  C   UNL     1     -11.871  13.337  70.053  1.00  0.00    -0.365 A  
HETATM    5  C   UNL     1     -11.865  11.924  70.109  1.00  0.00    -0.390 A  
HETATM    6  C   UNL     1     -12.634  11.297  71.113  1.00  0.00    -0.397 A  
HETATM    7  C   UNL     1     -13.383  12.074  72.006  1.00  0.00    -0.447 A  
HETATM    8  C   UNL     1     -13.375  13.469  71.918  1.00  0.00    -0.529 A  
BRANCH   5   9
HETATM    9  C   UNL     1     -11.048  11.100  69.109  1.00  0.00    -0.248 C  
HETATM   10  O   UNL     1     -11.906  10.256  68.323  1.00  0.00    -0.734 OA 
HETATM   11  H   UNL     1     -11.400   9.745  67.703  1.00  0.00     0.000 HD 
BRANCH   9  12
HETATM   12  C   UNL     1     -10.236  11.944  68.105  1.00  0.00    -0.199 C  
BRANCH  12  13
HETATM   13  N   UNL     1      -8.858  12.180  68.474  1.00  0.00    -0.332 N  
HETATM   14  H   UNL     1      -8.323  11.460  68.959  1.00  0.00     0.000 HD 
HETATM   15  C   UNL     1      -8.272  13.390  68.165  1.00  0.00    -0.160 C  
HETATM   16  O   UNL     1      -8.890  14.328  67.664  1.00  0.00    -0.177 OA 
BRANCH  15  17
HETATM   17  C   UNL     1      -6.776  13.475  68.469  1.00  0.00    -0.095 C  
HETATM   18  N   UNL     1      -6.017  13.927  67.289  1.00  0.00    -0.346 NA 
HETATM   19  H1  UNL     1      -5.019  13.983  67.492  1.00  0.00     0.000 HD 
HETATM   20  H2  UNL     1      -6.378  14.810  66.928  1.00  0.00     0.000 HD 
ENDBRANCH  15  17
ENDBRANCH  12  13
ENDBRANCH   9  12
ENDBRANCH   5   9
BRANCH   6  21
HETATM   21  O   UNL     1     -12.595   9.927  71.135  1.00  0.00    -0.322 OA 
HETATM   22  C   UNL     1     -13.533   9.256  71.970  1.00  0.00    -0.451 C  
ENDBRANCH   6  21
ENDBRANCH   2   3
TORSDOF 6
ENDMDL
MODEL       64
REMARK 921   NORMALIZED FREE ENERGY PREDICTED BY IDOCK:   -4.81 KCAL/MOL
REMARK 922        TOTAL FREE ENERGY PREDICTED BY IDOCK:   -6.99 KCAL/MOL
REMARK 923 INTER-LIGAND FREE ENERGY PREDICTED BY IDOCK:   -6.44 KCAL/MOL
REMARK 924 INTRA-LIGAND FREE ENERGY PREDICTED BY IDOCK:   -0.55 KCAL/MOL
REMARK 927      BINDING AFFINITY PREDICTED BY RF-SCORE:    0.00 PKD
ROOT
HETATM    1  C   UNL     1      -9.511  20.646  66.809  1.00  0.00    -0.198 C  
HETATM    2  O   UNL     1     -10.555  19.677  66.839  1.00  0.00    -0.447 OA 
ENDROOT
BRANCH   2   3
HETATM    3  C   UNL     1     -10.187  18.367  66.711  1.00  0.00    -0.388 A  
HETATM    4  C   UNL     1     -10.762  17.442  65.842  1.00  0.00    -0.123 A  
HETATM    5  C   UNL     1     -10.327  16.098  65.783  1.00  0.00    -0.398 A  
HETATM    6  C   UNL     1      -9.264  15.708  66.627  1.00  0.00    -0.266 A  
HETATM    7  C   UNL     1      -8.686  16.640  67.498  1.00  0.00    -0.198 A  
HETATM    8  C   UNL     1      -9.146  17.959  67.539  1.00  0.00    -0.245 A  
BRANCH   5   9
HETATM    9  C   UNL     1     -10.988  15.096  64.832  1.00  0.00    -0.419 C  
HETATM   10  O   UNL     1     -10.043  14.105  64.398  1.00  0.00    -0.682 OA 
HETATM   11  H   UNL     1     -10.453  13.483  63.809  1.00  0.00     0.000 HD 
BRANCH   9  12
HETATM   12  C   UNL     1     -12.171  14.322  65.451  1.00  0.00    -0.405 C  
BRANCH  12  13
HETATM   13  N   UNL     1     -11.953  13.839  66.796  1.00  0.00    -0.413 N  
HETATM   14  H   UNL     1     -11.869  14.495  67.572  1.00  0.00     0.000 HD 
HETATM   15  C   UNL     1     -11.860  12.481  67.021  1.00  0.00    -0.323 C  
HETATM   16  O   UNL     1     -11.864  11.648  66.116  1.00  0.00    -0.409 OA 
BRANCH  15  17
HETATM   17  C   UNL     1     -11.777  12.079  68.494  1.00  0.00    -0.332 C  
HETATM   18  N   UNL     1     -12.042  10.639  68.669  1.00  0.00    -0.812 NA 
HETATM   19  H1  UNL     1     -11.987  10.371  69.652  1.00  0.00     0.000 HD 
HETATM   20  H2  UNL     1     -11.424  10.072  68.089  1.00  0.00     0.000 HD 
ENDBRANCH  15  17
ENDBRANCH  12  13
ENDBRANCH   9  12
ENDBRANCH   5   9
BRANCH   6  21
HETATM   21  O   UNL     1      -8.870  14.398  66.534  1.00  0.00    -0.202 OA 
HETATM   22  C   UNL     1      -8.028  13.890  67.564  1.00  0.00    -0.179 C  
ENDBRANCH   6  21
ENDBRANCH   2   3
TORSDOF 6
ENDMDL
MODEL       65
REMARK 921   NORMALIZED FREE ENERGY PREDICTED BY IDOCK:   -4.77 KCAL/MOL
REMARK 922        TOTAL FREE ENERGY PREDICTED BY IDOCK:   -6.93 KCAL/MOL
REMARK 923 INTER-LIGAND FREE ENERGY PREDICTED BY IDOCK:   -6.07 KCAL/MOL
REMARK 924 INTRA-LIGAND FREE ENERGY PREDICTED BY IDOCK:   -0.86 KCAL/MOL
REMARK 927      BINDING AFFINITY PREDICTED BY RF-SCORE:    0.00 PKD
ROOT
HETATM    1  C   UNL     1     -10.472  17.337  65.640  1.00  0.00    -0.181 C  
HETATM    2  O   UNL     1     -10.793  16.280  64.739  1.00  0.00    -0.671 OA 
ENDROOT
BRANCH   2   3
HETATM    3  C   UNL     1     -11.044  15.054  65.288  1.00  0.00    -0.386 A  
HETATM    4  C   UNL     1     -10.888  13.828  64.646  1.00  0.00    -0.416 A  
HETATM    5  C   UNL     1     -11.186  12.603  65.288  1.00  0.00    -0.335 A  
HETATM    6  C   UNL     1     -11.638  12.647  66.625  1.00  0.00    -0.381 A  
HETATM    7  C   UNL     1     -11.792  13.882  67.269  1.00  0.00    -0.442 A  
HETATM    8  C   UNL     1     -11.498  15.075  66.604  1.00  0.00    -0.251 A  
BRANCH   5   9
HETATM    9  C   UNL     1     -11.024  11.269  64.553  1.00  0.00    -0.231 C  
HETATM   10  O   UNL     1     -11.117  11.456  63.131  1.00  0.00    -0.783 OA 
HETATM   11  H   UNL     1     -11.016  10.628  62.675  1.00  0.00     0.000 HD 
BRANCH   9  12
HETATM   12  C   UNL     1      -9.675  10.566  64.808  1.00  0.00    -0.305 C  
BRANCH  12  13
HETATM   13  N   UNL     1      -9.621   9.755  66.005  1.00  0.00    -0.215 N  
HETATM   14  H   UNL     1     -10.200   8.920  66.088  1.00  0.00     0.000 HD 
HETATM   15  C   UNL     1      -8.779  10.122  67.034  1.00  0.00    -0.132 C  
HETATM   16  O   UNL     1      -8.126  11.164  67.030  1.00  0.00    -0.135 OA 
BRANCH  15  17
HETATM   17  C   UNL     1      -8.695   9.116  68.183  1.00  0.00    -0.129 C  
HETATM   18  N   UNL     1      -8.427   9.793  69.465  1.00  0.00    -0.154 NA 
HETATM   19  H1  UNL     1      -8.370   9.122  70.232  1.00  0.00     0.000 HD 
HETATM   20  H2  UNL     1      -9.114  10.523  69.654  1.00  0.00     0.000 HD 
ENDBRANCH  15  17
ENDBRANCH  12  13
ENDBRANCH   9  12
ENDBRANCH   5   9
BRANCH   6  21
HETATM   21  O   UNL     1     -11.910  11.438  67.209  1.00  0.00    -0.594 OA 
HETATM   22  C   UNL     1     -11.766  11.344  68.624  1.00  0.00    -0.329 C  
ENDBRANCH   6  21
ENDBRANCH   2   3
TORSDOF 6
ENDMDL
MODEL       66
REMARK 921   NORMALIZED FREE ENERGY PREDICTED BY IDOCK:   -4.76 KCAL/MOL
REMARK 922        TOTAL FREE ENERGY PREDICTED BY IDOCK:   -6.93 KCAL/MOL
REMARK 923 INTER-LIGAND FREE ENERGY PREDICTED BY IDOCK:   -6.25 KCAL/MOL
REMARK 924 INTRA-LIGAND FREE ENERGY PREDICTED BY IDOCK:   -0.67 KCAL/MOL
REMARK 927      BINDING AFFINITY PREDICTED BY RF-SCORE:    0.00 PKD
ROOT
HETATM    1  C   UNL     1     -14.271   8.654  72.203  1.00  0.00    -0.439 C  
HETATM    2  O   UNL     1     -13.457   9.819  72.295  1.00  0.00    -0.434 OA 
ENDROOT
BRANCH   2   3
HETATM    3  C   UNL     1     -12.452   9.946  71.377  1.00  0.00    -0.398 A  
HETATM    4  C   UNL     1     -12.376  10.921  70.384  1.00  0.00    -0.436 A  
HETATM    5  C   UNL     1     -11.304  10.970  69.464  1.00  0.00    -0.356 A  
HETATM    6  C   UNL     1     -10.282  10.003  69.582  1.00  0.00    -0.239 A  
HETATM    7  C   UNL     1     -10.360   9.025  70.583  1.00  0.00    -0.284 A  
HETATM    8  C   UNL     1     -11.439   8.998  71.472  1.00  0.00    -0.407 A  
BRANCH   5   9
HETATM    9  C   UNL     1     -11.253  12.041  68.370  1.00  0.00    -0.262 C  
HETATM   10  O   UNL     1     -11.668  11.499  67.106  1.00  0.00    -0.567 OA 
HETATM   11  H   UNL     1     -11.637  12.163  66.427  1.00  0.00     0.000 HD 
BRANCH   9  12
HETATM   12  C   UNL     1     -12.160  13.260  68.635  1.00  0.00    -0.222 C  
BRANCH  12  13
HETATM   13  N   UNL     1     -11.549  14.328  69.396  1.00  0.00    -0.287 N  
HETATM   14  H   UNL     1     -10.612  14.656  69.161  1.00  0.00     0.000 HD 
HETATM   15  C   UNL     1     -12.244  14.897  70.442  1.00  0.00    -0.336 C  
HETATM   16  O   UNL     1     -13.336  14.485  70.828  1.00  0.00    -0.341 OA 
BRANCH  15  17
HETATM   17  C   UNL     1     -11.564  16.110  71.079  1.00  0.00    -0.393 C  
HETATM   18  N   UNL     1     -12.146  16.415  72.399  1.00  0.00    -0.576 NA 
HETATM   19  H1  UNL     1     -11.692  17.225  72.824  1.00  0.00     0.000 HD 
HETATM   20  H2  UNL     1     -12.120  15.603  73.016  1.00  0.00     0.000 HD 
ENDBRANCH  15  17
ENDBRANCH  12  13
ENDBRANCH   9  12
ENDBRANCH   5   9
BRANCH   6  21
HETATM   21  O   UNL     1      -9.260  10.090  68.674  1.00  0.00    -0.143 OA 
HETATM   22  C   UNL     1      -9.168   9.067  67.687  1.00  0.00    -0.136 C  
ENDBRANCH   6  21
ENDBRANCH   2   3
TORSDOF 6
ENDMDL
MODEL       67
REMARK 921   NORMALIZED FREE ENERGY PREDICTED BY IDOCK:   -4.76 KCAL/MOL
REMARK 922        TOTAL FREE ENERGY PREDICTED BY IDOCK:   -6.92 KCAL/MOL
REMARK 923 INTER-LIGAND FREE ENERGY PREDICTED BY IDOCK:   -6.41 KCAL/MOL
REMARK 924 INTRA-LIGAND FREE ENERGY PREDICTED BY IDOCK:   -0.52 KCAL/MOL
REMARK 927      BINDING AFFINITY PREDICTED BY RF-SCORE:    0.00 PKD
ROOT
HETATM    1  C   UNL     1     -13.130  14.676  71.653  1.00  0.00    -0.346 C  
HETATM    2  O   UNL     1     -12.440  15.813  71.141  1.00  0.00    -0.423 OA 
ENDROOT
BRANCH   2   3
HETATM    3  C   UNL     1     -11.504  15.583  70.171  1.00  0.00    -0.327 A  
HETATM    4  C   UNL     1     -11.181  14.340  69.630  1.00  0.00    -0.256 A  
HETATM    5  C   UNL     1     -10.187  14.191  68.637  1.00  0.00    -0.238 A  
HETATM    6  C   UNL     1      -9.525  15.352  68.181  1.00  0.00    -0.202 A  
HETATM    7  C   UNL     1      -9.853  16.601  68.725  1.00  0.00    -0.252 A  
HETATM    8  C   UNL     1     -10.834  16.713  69.714  1.00  0.00    -0.238 A  
BRANCH   5   9
HETATM    9  C   UNL     1      -9.838  12.811  68.072  1.00  0.00    -0.226 C  
HETATM   10  O   UNL     1     -10.247  11.772  68.976  1.00  0.00    -0.378 OA 
HETATM   11  H   UNL     1     -10.031  10.916  68.626  1.00  0.00     0.000 HD 
BRANCH   9  12
HETATM   12  C   UNL     1     -10.508  12.493  66.719  1.00  0.00    -0.225 C  
BRANCH  12  13
HETATM   13  N   UNL     1     -11.416  13.506  66.229  1.00  0.00    -0.316 N  
HETATM   14  H   UNL     1     -12.123  13.906  66.846  1.00  0.00     0.000 HD 
HETATM   15  C   UNL     1     -11.319  13.927  64.919  1.00  0.00    -0.347 C  
HETATM   16  O   UNL     1     -10.549  13.419  64.105  1.00  0.00    -0.394 OA 
BRANCH  15  17
HETATM   17  C   UNL     1     -12.228  15.101  64.553  1.00  0.00    -0.267 C  
HETATM   18  N   UNL     1     -11.448  16.230  64.015  1.00  0.00    -1.521 NA 
HETATM   19  H1  UNL     1     -12.055  17.014  63.771  1.00  0.00     0.000 HD 
HETATM   20  H2  UNL     1     -10.870  15.943  63.225  1.00  0.00     0.000 HD 
ENDBRANCH  15  17
ENDBRANCH  12  13
ENDBRANCH   9  12
ENDBRANCH   5   9
BRANCH   6  21
HETATM   21  O   UNL     1      -8.572  15.163  67.214  1.00  0.00    -0.172 OA 
HETATM   22  C   UNL     1      -8.542  16.089  66.132  1.00  0.00    -0.280 C  
ENDBRANCH   6  21
ENDBRANCH   2   3
TORSDOF 6
ENDMDL
MODEL       68
REMARK 921   NORMALIZED FREE ENERGY PREDICTED BY IDOCK:   -4.75 KCAL/MOL
REMARK 922        TOTAL FREE ENERGY PREDICTED BY IDOCK:   -6.91 KCAL/MOL
REMARK 923 INTER-LIGAND FREE ENERGY PREDICTED BY IDOCK:   -6.44 KCAL/MOL
REMARK 924 INTRA-LIGAND FREE ENERGY PREDICTED BY IDOCK:   -0.47 KCAL/MOL
REMARK 927      BINDING AFFINITY PREDICTED BY RF-SCORE:    0.00 PKD
ROOT
HETATM    1  C   UNL     1      -9.150  15.938  67.229  1.00  0.00    -0.205 C  
HETATM    2  O   UNL     1     -10.469  15.445  67.013  1.00  0.00    -0.282 OA 
ENDROOT
BRANCH   2   3
HETATM    3  C   UNL     1     -11.065  14.794  68.057  1.00  0.00    -0.286 A  
HETATM    4  C   UNL     1     -11.198  13.414  68.185  1.00  0.00    -0.304 A  
HETATM    5  C   UNL     1     -11.843  12.823  69.297  1.00  0.00    -0.358 A  
HETATM    6  C   UNL     1     -12.345  13.677  70.303  1.00  0.00    -0.322 A  
HETATM    7  C   UNL     1     -12.207  15.065  70.173  1.00  0.00    -0.392 A  
HETATM    8  C   UNL     1     -11.573  15.618  69.057  1.00  0.00    -0.396 A  
BRANCH   5   9
HETATM    9  C   UNL     1     -11.992  11.303  69.405  1.00  0.00    -0.341 C  
HETATM   10  O   UNL     1     -12.193  10.717  68.108  1.00  0.00    -0.765 OA 
HETATM   11  H   UNL     1     -12.286   9.774  68.175  1.00  0.00     0.000 HD 
BRANCH   9  12
HETATM   12  C   UNL     1     -10.770  10.588  70.016  1.00  0.00    -0.224 C  
BRANCH  12  13
HETATM   13  N   UNL     1     -11.062   9.714  71.130  1.00  0.00    -0.359 N  
HETATM   14  H   UNL     1     -11.201  10.099  72.065  1.00  0.00     0.000 HD 
HETATM   15  C   UNL     1     -11.153   8.354  70.918  1.00  0.00    -0.254 C  
HETATM   16  O   UNL     1     -10.908   7.824  69.836  1.00  0.00    -0.247 OA 
BRANCH  15  17
HETATM   17  C   UNL     1     -11.610   7.545  72.133  1.00  0.00    -0.298 C  
HETATM   18  N   UNL     1     -13.068   7.647  72.323  1.00  0.00    -0.503 NA 
HETATM   19  H1  UNL     1     -13.373   7.107  73.134  1.00  0.00     0.000 HD 
HETATM   20  H2  UNL     1     -13.575   7.377  71.480  1.00  0.00     0.000 HD 
ENDBRANCH  15  17
ENDBRANCH  12  13
ENDBRANCH   9  12
ENDBRANCH   5   9
BRANCH   6  21
HETATM   21  O   UNL     1     -12.957  13.063  71.364  1.00  0.00    -0.354 OA 
HETATM   22  C   UNL     1     -13.303  13.874  72.483  1.00  0.00    -0.554 C  
ENDBRANCH   6  21
ENDBRANCH   2   3
TORSDOF 6
ENDMDL
MODEL       69
REMARK 921   NORMALIZED FREE ENERGY PREDICTED BY IDOCK:   -4.75 KCAL/MOL
REMARK 922        TOTAL FREE ENERGY PREDICTED BY IDOCK:   -6.91 KCAL/MOL
REMARK 923 INTER-LIGAND FREE ENERGY PREDICTED BY IDOCK:   -6.48 KCAL/MOL
REMARK 924 INTRA-LIGAND FREE ENERGY PREDICTED BY IDOCK:   -0.43 KCAL/MOL
REMARK 927      BINDING AFFINITY PREDICTED BY RF-SCORE:    0.00 PKD
ROOT
HETATM    1  C   UNL     1     -12.535  12.371  63.210  1.00  0.00    -0.337 C  
HETATM    2  O   UNL     1     -12.569  13.518  64.054  1.00  0.00    -0.661 OA 
ENDROOT
BRANCH   2   3
HETATM    3  C   UNL     1     -11.755  13.502  65.153  1.00  0.00    -0.322 A  
HETATM    4  C   UNL     1     -11.934  12.711  66.286  1.00  0.00    -0.439 A  
HETATM    5  C   UNL     1     -11.048  12.768  67.386  1.00  0.00    -0.312 A  
HETATM    6  C   UNL     1      -9.946  13.648  67.306  1.00  0.00    -0.240 A  
HETATM    7  C   UNL     1      -9.767  14.440  66.165  1.00  0.00    -0.335 A  
HETATM    8  C   UNL     1     -10.667  14.367  65.098  1.00  0.00    -0.413 A  
BRANCH   5   9
HETATM    9  C   UNL     1     -11.277  11.901  68.628  1.00  0.00    -0.257 C  
HETATM   10  O   UNL     1     -10.027  11.563  69.251  1.00  0.00    -0.418 OA 
HETATM   11  H   UNL     1     -10.169  11.026  70.022  1.00  0.00     0.000 HD 
BRANCH   9  12
HETATM   12  C   UNL     1     -12.135  12.573  69.719  1.00  0.00    -0.224 C  
BRANCH  12  13
HETATM   13  N   UNL     1     -11.528  13.718  70.361  1.00  0.00    -0.508 N  
HETATM   14  H   UNL     1     -10.520  13.863  70.310  1.00  0.00     0.000 HD 
HETATM   15  C   UNL     1     -12.325  14.614  71.043  1.00  0.00    -0.333 C  
HETATM   16  O   UNL     1     -13.531  14.446  71.214  1.00  0.00    -0.354 OA 
BRANCH  15  17
HETATM   17  C   UNL     1     -11.599  15.859  71.554  1.00  0.00    -0.465 C  
HETATM   18  N   UNL     1     -12.058  16.227  72.905  1.00  0.00    -0.529 NA 
HETATM   19  H1  UNL     1     -11.573  17.058  73.246  1.00  0.00     0.000 HD 
HETATM   20  H2  UNL     1     -11.969  15.446  73.556  1.00  0.00     0.000 HD 
ENDBRANCH  15  17
ENDBRANCH  12  13
ENDBRANCH   9  12
ENDBRANCH   5   9
BRANCH   6  21
HETATM   21  O   UNL     1      -9.110  13.667  68.392  1.00  0.00    -0.193 OA 
HETATM   22  C   UNL     1      -7.945  14.483  68.311  1.00  0.00    -0.137 C  
ENDBRANCH   6  21
ENDBRANCH   2   3
TORSDOF 6
ENDMDL
MODEL       70
REMARK 921   NORMALIZED FREE ENERGY PREDICTED BY IDOCK:   -4.74 KCAL/MOL
REMARK 922        TOTAL FREE ENERGY PREDICTED BY IDOCK:   -6.90 KCAL/MOL
REMARK 923 INTER-LIGAND FREE ENERGY PREDICTED BY IDOCK:   -6.31 KCAL/MOL
REMARK 924 INTRA-LIGAND FREE ENERGY PREDICTED BY IDOCK:   -0.60 KCAL/MOL
REMARK 927      BINDING AFFINITY PREDICTED BY RF-SCORE:    0.00 PKD
ROOT
HETATM    1  C   UNL     1      -6.616  14.111  67.620  1.00  0.00    -0.155 C  
HETATM    2  O   UNL     1      -6.499  15.361  66.945  1.00  0.00    -0.193 OA 
ENDROOT
BRANCH   2   3
HETATM    3  C   UNL     1      -7.625  16.134  66.875  1.00  0.00    -0.240 A  
HETATM    4  C   UNL     1      -8.804  15.795  66.214  1.00  0.00    -0.378 A  
HETATM    5  C   UNL     1      -9.919  16.663  66.180  1.00  0.00    -0.356 A  
HETATM    6  C   UNL     1      -9.820  17.898  66.858  1.00  0.00    -0.321 A  
HETATM    7  C   UNL     1      -8.635  18.235  67.524  1.00  0.00    -0.253 A  
HETATM    8  C   UNL     1      -7.546  17.358  67.531  1.00  0.00    -0.201 A  
BRANCH   5   9
HETATM    9  C   UNL     1     -11.197  16.275  65.430  1.00  0.00     0.037 C  
HETATM   10  O   UNL     1     -11.187  16.809  64.096  1.00  0.00    -1.415 OA 
HETATM   11  H   UNL     1     -11.979  16.568  63.630  1.00  0.00     0.000 HD 
BRANCH   9  12
HETATM   12  C   UNL     1     -11.409  14.754  65.285  1.00  0.00    -0.363 C  
BRANCH  12  13
HETATM   13  N   UNL     1     -11.914  14.088  66.465  1.00  0.00    -0.424 N  
HETATM   14  H   UNL     1     -12.789  14.391  66.892  1.00  0.00     0.000 HD 
HETATM   15  C   UNL     1     -11.201  13.040  67.008  1.00  0.00    -0.289 C  
HETATM   16  O   UNL     1     -10.099  12.689  66.591  1.00  0.00    -0.232 OA 
BRANCH  15  17
HETATM   17  C   UNL     1     -11.900  12.318  68.161  1.00  0.00    -0.311 C  
HETATM   18  N   UNL     1     -11.984  10.868  67.910  1.00  0.00    -0.735 NA 
HETATM   19  H1  UNL     1     -12.451  10.387  68.679  1.00  0.00     0.000 HD 
HETATM   20  H2  UNL     1     -11.066  10.468  67.717  1.00  0.00     0.000 HD 
ENDBRANCH  15  17
ENDBRANCH  12  13
ENDBRANCH   9  12
ENDBRANCH   5   9
BRANCH   6  21
HETATM   21  O   UNL     1     -10.926  18.706  66.804  1.00  0.00    -0.237 OA 
HETATM   22  C   UNL     1     -10.761  20.010  66.255  1.00  0.00    -0.239 C  
ENDBRANCH   6  21
ENDBRANCH   2   3
TORSDOF 6
ENDMDL
MODEL       71
REMARK 921   NORMALIZED FREE ENERGY PREDICTED BY IDOCK:   -4.74 KCAL/MOL
REMARK 922        TOTAL FREE ENERGY PREDICTED BY IDOCK:   -6.90 KCAL/MOL
REMARK 923 INTER-LIGAND FREE ENERGY PREDICTED BY IDOCK:   -6.50 KCAL/MOL
REMARK 924 INTRA-LIGAND FREE ENERGY PREDICTED BY IDOCK:   -0.40 KCAL/MOL
REMARK 927      BINDING AFFINITY PREDICTED BY RF-SCORE:    0.00 PKD
ROOT
HETATM    1  C   UNL     1     -10.679  18.227  65.594  1.00  0.00    -0.033 C  
HETATM    2  O   UNL     1     -11.224  17.323  64.635  1.00  0.00    -1.014 OA 
ENDROOT
BRANCH   2   3
HETATM    3  C   UNL     1     -11.056  15.988  64.879  1.00  0.00    -0.370 A  
HETATM    4  C   UNL     1     -10.119  15.431  65.747  1.00  0.00    -0.391 A  
HETATM    5  C   UNL     1     -10.005  14.034  65.929  1.00  0.00    -0.325 A  
HETATM    6  C   UNL     1     -10.888  13.197  65.213  1.00  0.00    -0.297 A  
HETATM    7  C   UNL     1     -11.831  13.760  64.343  1.00  0.00    -0.458 A  
HETATM    8  C   UNL     1     -11.912  15.145  64.177  1.00  0.00    -0.187 A  
BRANCH   5   9
HETATM    9  C   UNL     1      -8.955  13.446  66.876  1.00  0.00    -0.209 C  
HETATM   10  O   UNL     1      -7.847  14.348  67.031  1.00  0.00    -0.342 OA 
HETATM   11  H   UNL     1      -7.195  13.984  67.619  1.00  0.00     0.000 HD 
BRANCH   9  12
HETATM   12  C   UNL     1      -9.476  13.154  68.298  1.00  0.00    -0.210 C  
BRANCH  12  13
HETATM   13  N   UNL     1      -9.974  14.305  69.018  1.00  0.00    -0.395 N  
HETATM   14  H   UNL     1      -9.328  15.003  69.386  1.00  0.00     0.000 HD 
HETATM   15  C   UNL     1     -11.334  14.452  69.203  1.00  0.00    -0.277 C  
HETATM   16  O   UNL     1     -12.154  13.601  68.863  1.00  0.00    -0.347 OA 
BRANCH  15  17
HETATM   17  C   UNL     1     -11.755  15.774  69.846  1.00  0.00    -0.357 C  
HETATM   18  N   UNL     1     -13.140  15.706  70.345  1.00  0.00    -0.725 NA 
HETATM   19  H1  UNL     1     -13.421  16.588  70.774  1.00  0.00     0.000 HD 
HETATM   20  H2  UNL     1     -13.270  14.920  70.983  1.00  0.00     0.000 HD 
ENDBRANCH  15  17
ENDBRANCH  12  13
ENDBRANCH   9  12
ENDBRANCH   5   9
BRANCH   6  21
HETATM   21  O   UNL     1     -10.747  11.850  65.423  1.00  0.00    -0.267 OA 
HETATM   22  C   UNL     1      -9.991  11.111  64.468  1.00  0.00    -0.296 C  
ENDBRANCH   6  21
ENDBRANCH   2   3
TORSDOF 6
ENDMDL
MODEL       72
REMARK 921   NORMALIZED FREE ENERGY PREDICTED BY IDOCK:   -4.73 KCAL/MOL
REMARK 922        TOTAL FREE ENERGY PREDICTED BY IDOCK:   -6.88 KCAL/MOL
REMARK 923 INTER-LIGAND FREE ENERGY PREDICTED BY IDOCK:   -6.31 KCAL/MOL
REMARK 924 INTRA-LIGAND FREE ENERGY PREDICTED BY IDOCK:   -0.57 KCAL/MOL
REMARK 927      BINDING AFFINITY PREDICTED BY RF-SCORE:    0.00 PKD
ROOT
HETATM    1  C   UNL     1      -9.865  20.356  67.146  1.00  0.00    -0.461 C  
HETATM    2  O   UNL     1     -10.429  19.542  68.170  1.00  0.00    -0.422 OA 
ENDROOT
BRANCH   2   3
HETATM    3  C   UNL     1     -10.179  18.200  68.102  1.00  0.00    -0.388 A  
HETATM    4  C   UNL     1     -11.138  17.191  68.140  1.00  0.00    -0.118 A  
HETATM    5  C   UNL     1     -10.789  15.822  68.076  1.00  0.00    -0.309 A  
HETATM    6  C   UNL     1      -9.421  15.492  67.954  1.00  0.00    -0.201 A  
HETATM    7  C   UNL     1      -8.459  16.508  67.913  1.00  0.00    -0.182 A  
HETATM    8  C   UNL     1      -8.836  17.852  67.988  1.00  0.00    -0.268 A  
BRANCH   5   9
HETATM    9  C   UNL     1     -11.861  14.731  68.139  1.00  0.00    -0.287 C  
HETATM   10  O   UNL     1     -11.599  13.702  67.171  1.00  0.00    -0.324 OA 
HETATM   11  H   UNL     1     -12.265  13.025  67.209  1.00  0.00     0.000 HD 
BRANCH   9  12
HETATM   12  C   UNL     1     -11.964  14.022  69.505  1.00  0.00    -0.339 C  
BRANCH  12  13
HETATM   13  N   UNL     1     -12.987  14.536  70.389  1.00  0.00    -0.519 N  
HETATM   14  H   UNL     1     -13.970  14.327  70.216  1.00  0.00     0.000 HD 
HETATM   15  C   UNL     1     -12.620  15.311  71.469  1.00  0.00    -0.373 C  
HETATM   16  O   UNL     1     -11.463  15.669  71.678  1.00  0.00    -0.387 OA 
BRANCH  15  17
HETATM   17  C   UNL     1     -13.766  15.675  72.415  1.00  0.00    -0.528 C  
HETATM   18  N   UNL     1     -13.255  16.106  73.729  1.00  0.00    -0.902 NA 
HETATM   19  H1  UNL     1     -14.020  16.349  74.360  1.00  0.00     0.000 HD 
HETATM   20  H2  UNL     1     -12.586  16.870  73.638  1.00  0.00     0.000 HD 
ENDBRANCH  15  17
ENDBRANCH  12  13
ENDBRANCH   9  12
ENDBRANCH   5   9
BRANCH   6  21
HETATM   21  O   UNL     1      -9.128  14.154  67.890  1.00  0.00    -0.176 OA 
HETATM   22  C   UNL     1      -7.903  13.722  68.474  1.00  0.00    -0.132 C  
ENDBRANCH   6  21
ENDBRANCH   2   3
TORSDOF 6
ENDMDL
MODEL       73
REMARK 921   NORMALIZED FREE ENERGY PREDICTED BY IDOCK:   -4.72 KCAL/MOL
REMARK 922        TOTAL FREE ENERGY PREDICTED BY IDOCK:   -6.87 KCAL/MOL
REMARK 923 INTER-LIGAND FREE ENERGY PREDICTED BY IDOCK:   -6.41 KCAL/MOL
REMARK 924 INTRA-LIGAND FREE ENERGY PREDICTED BY IDOCK:   -0.46 KCAL/MOL
REMARK 927      BINDING AFFINITY PREDICTED BY RF-SCORE:    0.00 PKD
ROOT
HETATM    1  C   UNL     1     -10.266   9.445  67.780  1.00  0.00    -0.222 C  
HETATM    2  O   UNL     1     -11.515  10.127  67.705  1.00  0.00    -0.287 OA 
ENDROOT
BRANCH   2   3
HETATM    3  C   UNL     1     -11.762  11.073  68.661  1.00  0.00    -0.296 A  
HETATM    4  C   UNL     1     -11.575  12.445  68.514  1.00  0.00    -0.358 A  
HETATM    5  C   UNL     1     -11.844  13.354  69.563  1.00  0.00    -0.391 A  
HETATM    6  C   UNL     1     -12.330  12.835  70.783  1.00  0.00    -0.287 A  
HETATM    7  C   UNL     1     -12.519  11.455  70.927  1.00  0.00    -0.478 A  
HETATM    8  C   UNL     1     -12.235  10.581  69.873  1.00  0.00    -0.289 A  
BRANCH   5   9
HETATM    9  C   UNL     1     -11.613  14.857  69.382  1.00  0.00    -0.309 C  
HETATM   10  O   UNL     1     -10.677  15.350  70.354  1.00  0.00    -0.322 OA 
HETATM   11  H   UNL     1     -10.533  16.282  70.241  1.00  0.00     0.000 HD 
BRANCH   9  12
HETATM   12  C   UNL     1     -11.048  15.249  68.001  1.00  0.00    -0.312 C  
BRANCH  12  13
HETATM   13  N   UNL     1     -11.992  15.180  66.908  1.00  0.00    -0.113 N  
HETATM   14  H   UNL     1     -12.953  15.496  67.036  1.00  0.00     0.000 HD 
HETATM   15  C   UNL     1     -11.581  14.681  65.689  1.00  0.00    -0.328 C  
HETATM   16  O   UNL     1     -10.464  14.203  65.500  1.00  0.00    -0.305 OA 
BRANCH  15  17
HETATM   17  C   UNL     1     -12.617  14.791  64.569  1.00  0.00    -0.095 C  
HETATM   18  N   UNL     1     -12.292  13.885  63.453  1.00  0.00    -1.139 NA 
HETATM   19  H1  UNL     1     -12.984  13.958  62.706  1.00  0.00     0.000 HD 
HETATM   20  H2  UNL     1     -12.184  12.922  63.771  1.00  0.00     0.000 HD 
ENDBRANCH  15  17
ENDBRANCH  12  13
ENDBRANCH   9  12
ENDBRANCH   5   9
BRANCH   6  21
HETATM   21  O   UNL     1     -12.583  13.751  71.770  1.00  0.00    -0.302 OA 
HETATM   22  C   UNL     1     -13.879  13.740  72.362  1.00  0.00    -0.579 C  
ENDBRANCH   6  21
ENDBRANCH   2   3
TORSDOF 6
ENDMDL
MODEL       74
REMARK 921   NORMALIZED FREE ENERGY PREDICTED BY IDOCK:   -4.72 KCAL/MOL
REMARK 922        TOTAL FREE ENERGY PREDICTED BY IDOCK:   -6.87 KCAL/MOL
REMARK 923 INTER-LIGAND FREE ENERGY PREDICTED BY IDOCK:   -6.27 KCAL/MOL
REMARK 924 INTRA-LIGAND FREE ENERGY PREDICTED BY IDOCK:   -0.59 KCAL/MOL
REMARK 927      BINDING AFFINITY PREDICTED BY RF-SCORE:    0.00 PKD
ROOT
HETATM    1  C   UNL     1      -9.502   9.936  69.268  1.00  0.00    -0.209 C  
HETATM    2  O   UNL     1      -8.829  10.948  68.524  1.00  0.00    -0.140 OA 
ENDROOT
BRANCH   2   3
HETATM    3  C   UNL     1      -9.486  11.460  67.440  1.00  0.00    -0.167 A  
HETATM    4  C   UNL     1     -10.130  12.694  67.387  1.00  0.00    -0.218 A  
HETATM    5  C   UNL     1     -10.800  13.140  66.225  1.00  0.00    -0.292 A  
HETATM    6  C   UNL     1     -10.789  12.301  65.089  1.00  0.00    -0.301 A  
HETATM    7  C   UNL     1     -10.138  11.062  65.144  1.00  0.00    -0.346 A  
HETATM    8  C   UNL     1      -9.493  10.645  66.312  1.00  0.00    -0.213 A  
BRANCH   5   9
HETATM    9  C   UNL     1     -11.516  14.493  66.199  1.00  0.00    -0.357 C  
HETATM   10  O   UNL     1     -12.931  14.318  66.013  1.00  0.00    -0.470 OA 
HETATM   11  H   UNL     1     -13.375  15.157  65.998  1.00  0.00     0.000 HD 
BRANCH   9  12
HETATM   12  C   UNL     1     -11.350  15.323  67.489  1.00  0.00    -0.297 C  
BRANCH  12  13
HETATM   13  N   UNL     1     -12.315  15.041  68.529  1.00  0.00    -0.579 N  
HETATM   14  H   UNL     1     -13.281  14.818  68.289  1.00  0.00     0.000 HD 
HETATM   15  C   UNL     1     -11.918  15.078  69.849  1.00  0.00    -0.334 C  
HETATM   16  O   UNL     1     -10.794  15.428  70.204  1.00  0.00    -0.273 OA 
BRANCH  15  17
HETATM   17  C   UNL     1     -12.979  14.622  70.852  1.00  0.00    -0.365 C  
HETATM   18  N   UNL     1     -14.146  15.523  70.839  1.00  0.00    -0.845 NA 
HETATM   19  H1  UNL     1     -14.854  15.219  71.508  1.00  0.00     0.000 HD 
HETATM   20  H2  UNL     1     -14.533  15.621  69.900  1.00  0.00     0.000 HD 
ENDBRANCH  15  17
ENDBRANCH  12  13
ENDBRANCH   9  12
ENDBRANCH   5   9
BRANCH   6  21
HETATM   21  O   UNL     1     -11.445  12.775  63.983  1.00  0.00    -0.360 OA 
HETATM   22  C   UNL     1     -12.600  12.063  63.548  1.00  0.00    -0.507 C  
ENDBRANCH   6  21
ENDBRANCH   2   3
TORSDOF 6
ENDMDL
MODEL       75
REMARK 921   NORMALIZED FREE ENERGY PREDICTED BY IDOCK:   -4.71 KCAL/MOL
REMARK 922        TOTAL FREE ENERGY PREDICTED BY IDOCK:   -6.86 KCAL/MOL
REMARK 923 INTER-LIGAND FREE ENERGY PREDICTED BY IDOCK:   -6.46 KCAL/MOL
REMARK 924 INTRA-LIGAND FREE ENERGY PREDICTED BY IDOCK:   -0.40 KCAL/MOL
REMARK 927      BINDING AFFINITY PREDICTED BY RF-SCORE:    0.00 PKD
ROOT
HETATM    1  C   UNL     1      -7.037   8.595  71.399  1.00  0.00    -0.088 C  
HETATM    2  O   UNL     1      -8.031   8.157  72.321  1.00  0.00    -0.114 OA 
ENDROOT
BRANCH   2   3
HETATM    3  C   UNL     1      -9.336   8.346  71.959  1.00  0.00    -0.262 A  
HETATM    4  C   UNL     1      -9.845   9.466  71.306  1.00  0.00    -0.245 A  
HETATM    5  C   UNL     1     -11.216   9.586  70.981  1.00  0.00    -0.432 A  
HETATM    6  C   UNL     1     -12.074   8.518  71.323  1.00  0.00    -0.286 A  
HETATM    7  C   UNL     1     -11.560   7.391  71.977  1.00  0.00    -0.321 A  
HETATM    8  C   UNL     1     -10.200   7.308  72.293  1.00  0.00    -0.225 A  
BRANCH   5   9
HETATM    9  C   UNL     1     -11.753  10.836  70.280  1.00  0.00    -0.352 C  
HETATM   10  O   UNL     1     -12.523  10.479  69.120  1.00  0.00    -0.750 OA 
HETATM   11  H   UNL     1     -12.857  11.255  68.685  1.00  0.00     0.000 HD 
BRANCH   9  12
HETATM   12  C   UNL     1     -12.674  11.709  71.157  1.00  0.00    -0.325 C  
BRANCH  12  13
HETATM   13  N   UNL     1     -12.595  13.131  70.907  1.00  0.00    -0.330 N  
HETATM   14  H   UNL     1     -12.061  13.486  70.115  1.00  0.00     0.000 HD 
HETATM   15  C   UNL     1     -13.250  14.004  71.752  1.00  0.00    -0.375 C  
HETATM   16  O   UNL     1     -13.833  13.643  72.772  1.00  0.00    -0.727 OA 
BRANCH  15  17
HETATM   17  C   UNL     1     -13.219  15.468  71.309  1.00  0.00    -0.515 C  
HETATM   18  N   UNL     1     -12.642  15.604  69.960  1.00  0.00    -0.554 NA 
HETATM   19  H1  UNL     1     -12.622  16.581  69.665  1.00  0.00     0.000 HD 
HETATM   20  H2  UNL     1     -13.129  15.017  69.283  1.00  0.00     0.000 HD 
ENDBRANCH  15  17
ENDBRANCH  12  13
ENDBRANCH   9  12
ENDBRANCH   5   9
BRANCH   6  21
HETATM   21  O   UNL     1     -13.393   8.673  70.985  1.00  0.00    -0.085 OA 
HETATM   22  C   UNL     1     -14.369   8.259  71.936  1.00  0.00    -0.476 C  
ENDBRANCH   6  21
ENDBRANCH   2   3
TORSDOF 6
ENDMDL
MODEL       76
REMARK 921   NORMALIZED FREE ENERGY PREDICTED BY IDOCK:   -4.71 KCAL/MOL
REMARK 922        TOTAL FREE ENERGY PREDICTED BY IDOCK:   -6.85 KCAL/MOL
REMARK 923 INTER-LIGAND FREE ENERGY PREDICTED BY IDOCK:   -6.28 KCAL/MOL
REMARK 924 INTRA-LIGAND FREE ENERGY PREDICTED BY IDOCK:   -0.58 KCAL/MOL
REMARK 927      BINDING AFFINITY PREDICTED BY RF-SCORE:    0.00 PKD
ROOT
HETATM    1  C   UNL     1     -11.594  16.173  70.629  1.00  0.00    -0.321 C  
HETATM    2  O   UNL     1     -12.749  15.475  71.087  1.00  0.00    -0.402 OA 
ENDROOT
BRANCH   2   3
HETATM    3  C   UNL     1     -12.683  14.109  71.094  1.00  0.00    -0.361 A  
HETATM    4  C   UNL     1     -11.936  13.326  70.217  1.00  0.00    -0.372 A  
HETATM    5  C   UNL     1     -11.937  11.914  70.287  1.00  0.00    -0.416 A  
HETATM    6  C   UNL     1     -12.712  11.300  71.295  1.00  0.00    -0.405 A  
HETATM    7  C   UNL     1     -13.461  12.090  72.177  1.00  0.00    -0.338 A  
HETATM    8  C   UNL     1     -13.446  13.484  72.075  1.00  0.00    -0.584 A  
BRANCH   5   9
HETATM    9  C   UNL     1     -11.121  11.075  69.299  1.00  0.00    -0.254 C  
HETATM   10  O   UNL     1     -11.984  10.392  68.376  1.00  0.00    -0.759 OA 
HETATM   11  H   UNL     1     -11.478   9.872  67.762  1.00  0.00     0.000 HD 
BRANCH   9  12
HETATM   12  C   UNL     1     -10.132  11.892  68.441  1.00  0.00    -0.206 C  
BRANCH  12  13
HETATM   13  N   UNL     1      -9.959  11.419  67.085  1.00  0.00    -0.190 N  
HETATM   14  H   UNL     1     -10.570  11.754  66.341  1.00  0.00     0.000 HD 
HETATM   15  C   UNL     1      -8.958  10.511  66.808  1.00  0.00    -0.137 C  
HETATM   16  O   UNL     1      -8.250  10.004  67.676  1.00  0.00    -0.113 OA 
BRANCH  15  17
HETATM   17  C   UNL     1      -8.774  10.194  65.323  1.00  0.00    -0.165 C  
HETATM   18  N   UNL     1      -9.236   8.830  65.008  1.00  0.00    -0.433 NA 
HETATM   19  H1  UNL     1      -9.112   8.619  64.017  1.00  0.00     0.000 HD 
HETATM   20  H2  UNL     1     -10.200   8.683  65.306  1.00  0.00     0.000 HD 
ENDBRANCH  15  17
ENDBRANCH  12  13
ENDBRANCH   9  12
ENDBRANCH   5   9
BRANCH   6  21
HETATM   21  O   UNL     1     -12.680   9.931  71.330  1.00  0.00    -0.341 OA 
HETATM   22  C   UNL     1     -13.526   9.277  72.271  1.00  0.00    -0.482 C  
ENDBRANCH   6  21
ENDBRANCH   2   3
TORSDOF 6
ENDMDL
MODEL       77
REMARK 921   NORMALIZED FREE ENERGY PREDICTED BY IDOCK:   -4.71 KCAL/MOL
REMARK 922        TOTAL FREE ENERGY PREDICTED BY IDOCK:   -6.85 KCAL/MOL
REMARK 923 INTER-LIGAND FREE ENERGY PREDICTED BY IDOCK:   -6.40 KCAL/MOL
REMARK 924 INTRA-LIGAND FREE ENERGY PREDICTED BY IDOCK:   -0.46 KCAL/MOL
REMARK 927      BINDING AFFINITY PREDICTED BY RF-SCORE:    0.00 PKD
ROOT
HETATM    1  C   UNL     1     -13.838   8.975  72.410  1.00  0.00    -0.475 C  
HETATM    2  O   UNL     1     -13.641  10.062  71.511  1.00  0.00    -0.299 OA 
ENDROOT
BRANCH   2   3
HETATM    3  C   UNL     1     -12.403  10.177  70.941  1.00  0.00    -0.363 A  
HETATM    4  C   UNL     1     -12.035  11.114  69.978  1.00  0.00    -0.447 A  
HETATM    5  C   UNL     1     -10.732  11.152  69.430  1.00  0.00    -0.220 A  
HETATM    6  C   UNL     1      -9.787  10.214  69.900  1.00  0.00    -0.177 A  
HETATM    7  C   UNL     1     -10.159   9.275  70.870  1.00  0.00    -0.373 A  
HETATM    8  C   UNL     1     -11.459   9.257  71.384  1.00  0.00    -0.439 A  
BRANCH   5   9
HETATM    9  C   UNL     1     -10.358  12.181  68.359  1.00  0.00    -0.229 C  
HETATM   10  O   UNL     1      -9.108  12.815  68.676  1.00  0.00    -0.377 OA 
HETATM   11  H   UNL     1      -8.875  13.453  68.012  1.00  0.00     0.000 HD 
BRANCH   9  12
HETATM   12  C   UNL     1     -10.195  11.591  66.943  1.00  0.00    -0.217 C  
BRANCH  12  13
HETATM   13  N   UNL     1     -11.331  11.773  66.067  1.00  0.00    -0.313 N  
HETATM   14  H   UNL     1     -12.280  11.675  66.427  1.00  0.00     0.000 HD 
HETATM   15  C   UNL     1     -11.119  12.081  64.739  1.00  0.00    -0.317 C  
HETATM   16  O   UNL     1     -10.001  12.124  64.229  1.00  0.00    -0.285 OA 
BRANCH  15  17
HETATM   17  C   UNL     1     -12.387  12.395  63.944  1.00  0.00    -0.508 C  
HETATM   18  N   UNL     1     -12.318  13.738  63.340  1.00  0.00    -1.100 NA 
HETATM   19  H1  UNL     1     -13.164  13.947  62.809  1.00  0.00     0.000 HD 
HETATM   20  H2  UNL     1     -11.480  13.849  62.769  1.00  0.00     0.000 HD 
ENDBRANCH  15  17
ENDBRANCH  12  13
ENDBRANCH   9  12
ENDBRANCH   5   9
BRANCH   6  21
HETATM   21  O   UNL     1      -8.536  10.290  69.347  1.00  0.00    -0.156 OA 
HETATM   22  C   UNL     1      -7.974   9.091  68.822  1.00  0.00    -0.101 C  
ENDBRANCH   6  21
ENDBRANCH   2   3
TORSDOF 6
ENDMDL
MODEL       78
REMARK 921   NORMALIZED FREE ENERGY PREDICTED BY IDOCK:   -4.70 KCAL/MOL
REMARK 922        TOTAL FREE ENERGY PREDICTED BY IDOCK:   -6.84 KCAL/MOL
REMARK 923 INTER-LIGAND FREE ENERGY PREDICTED BY IDOCK:   -6.20 KCAL/MOL
REMARK 924 INTRA-LIGAND FREE ENERGY PREDICTED BY IDOCK:   -0.64 KCAL/MOL
REMARK 927      BINDING AFFINITY PREDICTED BY RF-SCORE:    0.00 PKD
ROOT
HETATM    1  C   UNL     1     -13.860  13.474  72.385  1.00  0.00    -0.586 C  
HETATM    2  O   UNL     1     -12.967  13.210  71.307  1.00  0.00    -0.325 OA 
ENDROOT
BRANCH   2   3
HETATM    3  C   UNL     1     -12.608  11.907  71.105  1.00  0.00    -0.288 A  
HETATM    4  C   UNL     1     -11.702  11.451  70.150  1.00  0.00    -0.414 A  
HETATM    5  C   UNL     1     -11.399  10.078  70.001  1.00  0.00    -0.334 A  
HETATM    6  C   UNL     1     -12.033   9.160  70.867  1.00  0.00    -0.242 A  
HETATM    7  C   UNL     1     -12.942   9.621  71.827  1.00  0.00    -0.514 A  
HETATM    8  C   UNL     1     -13.227  10.985  71.943  1.00  0.00    -0.503 A  
BRANCH   5   9
HETATM    9  C   UNL     1     -10.413   9.601  68.931  1.00  0.00    -0.215 C  
HETATM   10  O   UNL     1     -11.035   8.649  68.052  1.00  0.00    -0.475 OA 
HETATM   11  H   UNL     1     -10.423   8.353  67.388  1.00  0.00     0.000 HD 
BRANCH   9  12
HETATM   12  C   UNL     1      -9.864  10.725  68.028  1.00  0.00    -0.165 C  
BRANCH  12  13
HETATM   13  N   UNL     1     -10.468  10.812  66.718  1.00  0.00    -0.243 N  
HETATM   14  H   UNL     1     -11.483  10.814  66.617  1.00  0.00     0.000 HD 
HETATM   15  C   UNL     1      -9.660  10.891  65.603  1.00  0.00    -0.224 C  
HETATM   16  O   UNL     1      -8.434  10.803  65.653  1.00  0.00    -0.170 OA 
BRANCH  15  17
HETATM   17  C   UNL     1     -10.403  11.126  64.287  1.00  0.00    -0.351 C  
HETATM   18  N   UNL     1     -10.109  12.463  63.741  1.00  0.00    -0.550 NA 
HETATM   19  H1  UNL     1     -10.605  12.620  62.863  1.00  0.00     0.000 HD 
HETATM   20  H2  UNL     1      -9.105  12.614  63.638  1.00  0.00     0.000 HD 
ENDBRANCH  15  17
ENDBRANCH  12  13
ENDBRANCH   9  12
ENDBRANCH   5   9
BRANCH   6  21
HETATM   21  O   UNL     1     -11.706   7.841  70.691  1.00  0.00    -0.266 OA 
HETATM   22  C   UNL     1     -11.944   6.954  71.780  1.00  0.00    -0.333 C  
ENDBRANCH   6  21
ENDBRANCH   2   3
TORSDOF 6
ENDMDL
MODEL       79
REMARK 921   NORMALIZED FREE ENERGY PREDICTED BY IDOCK:   -4.69 KCAL/MOL
REMARK 922        TOTAL FREE ENERGY PREDICTED BY IDOCK:   -6.83 KCAL/MOL
REMARK 923 INTER-LIGAND FREE ENERGY PREDICTED BY IDOCK:   -6.30 KCAL/MOL
REMARK 924 INTRA-LIGAND FREE ENERGY PREDICTED BY IDOCK:   -0.53 KCAL/MOL
REMARK 927      BINDING AFFINITY PREDICTED BY RF-SCORE:    0.00 PKD
ROOT
HETATM    1  C   UNL     1     -10.181   8.056  68.743  1.00  0.00    -0.206 C  
HETATM    2  O   UNL     1     -10.439   9.457  68.698  1.00  0.00    -0.202 OA 
ENDROOT
BRANCH   2   3
HETATM    3  C   UNL     1     -10.473  10.040  67.461  1.00  0.00    -0.254 A  
HETATM    4  C   UNL     1     -11.124  11.229  67.141  1.00  0.00    -0.364 A  
HETATM    5  C   UNL     1     -11.119  11.755  65.828  1.00  0.00    -0.351 A  
HETATM    6  C   UNL     1     -10.413  11.046  64.832  1.00  0.00    -0.303 A  
HETATM    7  C   UNL     1      -9.757   9.852  65.157  1.00  0.00    -0.376 A  
HETATM    8  C   UNL     1      -9.789   9.353  66.463  1.00  0.00    -0.325 A  
BRANCH   5   9
HETATM    9  C   UNL     1     -11.858  13.055  65.498  1.00  0.00    -0.395 C  
HETATM   10  O   UNL     1     -13.160  12.777  64.956  1.00  0.00    -0.811 OA 
HETATM   11  H   UNL     1     -13.619  13.583  64.751  1.00  0.00     0.000 HD 
BRANCH   9  12
HETATM   12  C   UNL     1     -12.085  13.981  66.711  1.00  0.00    -0.447 C  
BRANCH  12  13
HETATM   13  N   UNL     1     -11.057  14.975  66.925  1.00  0.00    -0.330 N  
HETATM   14  H   UNL     1     -10.410  15.217  66.175  1.00  0.00     0.000 HD 
HETATM   15  C   UNL     1     -10.959  15.594  68.154  1.00  0.00    -0.314 C  
HETATM   16  O   UNL     1     -11.651  15.280  69.122  1.00  0.00    -0.293 OA 
BRANCH  15  17
HETATM   17  C   UNL     1      -9.936  16.728  68.222  1.00  0.00    -0.273 C  
HETATM   18  N   UNL     1     -10.458  17.871  68.993  1.00  0.00    -0.416 NA 
HETATM   19  H1  UNL     1      -9.775  18.628  69.038  1.00  0.00     0.000 HD 
HETATM   20  H2  UNL     1     -10.765  17.586  69.923  1.00  0.00     0.000 HD 
ENDBRANCH  15  17
ENDBRANCH  12  13
ENDBRANCH   9  12
ENDBRANCH   5   9
BRANCH   6  21
HETATM   21  O   UNL     1     -10.430  11.594  63.576  1.00  0.00    -0.368 OA 
HETATM   22  C   UNL     1      -9.455  11.133  62.644  1.00  0.00    -0.276 C  
ENDBRANCH   6  21
ENDBRANCH   2   3
TORSDOF 6
ENDMDL
MODEL       80
REMARK 921   NORMALIZED FREE ENERGY PREDICTED BY IDOCK:   -4.69 KCAL/MOL
REMARK 922        TOTAL FREE ENERGY PREDICTED BY IDOCK:   -6.83 KCAL/MOL
REMARK 923 INTER-LIGAND FREE ENERGY PREDICTED BY IDOCK:   -6.24 KCAL/MOL
REMARK 924 INTRA-LIGAND FREE ENERGY PREDICTED BY IDOCK:   -0.59 KCAL/MOL
REMARK 927      BINDING AFFINITY PREDICTED BY RF-SCORE:    0.00 PKD
ROOT
HETATM    1  C   UNL     1     -11.046  14.990  70.375  1.00  0.00    -0.229 C  
HETATM    2  O   UNL     1     -12.130  14.738  69.485  1.00  0.00    -0.307 OA 
ENDROOT
BRANCH   2   3
HETATM    3  C   UNL     1     -11.894  13.872  68.453  1.00  0.00    -0.374 A  
HETATM    4  C   UNL     1     -11.555  12.527  68.582  1.00  0.00    -0.357 A  
HETATM    5  C   UNL     1     -11.315  11.705  67.457  1.00  0.00    -0.364 A  
HETATM    6  C   UNL     1     -11.445  12.280  66.174  1.00  0.00    -0.374 A  
HETATM    7  C   UNL     1     -11.789  13.632  66.048  1.00  0.00    -0.415 A  
HETATM    8  C   UNL     1     -12.010  14.421  67.180  1.00  0.00    -0.419 A  
BRANCH   5   9
HETATM    9  C   UNL     1     -10.924  10.234  67.626  1.00  0.00    -0.294 C  
HETATM   10  O   UNL     1      -9.774   9.916  66.824  1.00  0.00    -0.174 OA 
HETATM   11  H   UNL     1      -9.532   9.004  66.929  1.00  0.00     0.000 HD 
BRANCH   9  12
HETATM   12  C   UNL     1     -10.564   9.836  69.072  1.00  0.00    -0.219 C  
BRANCH  12  13
HETATM   13  N   UNL     1     -11.275   8.686  69.588  1.00  0.00    -0.445 N  
HETATM   14  H   UNL     1     -11.443   7.875  68.994  1.00  0.00     0.000 HD 
HETATM   15  C   UNL     1     -11.723   8.697  70.893  1.00  0.00    -0.252 C  
HETATM   16  O   UNL     1     -11.629   9.678  71.628  1.00  0.00    -0.382 OA 
BRANCH  15  17
HETATM   17  C   UNL     1     -12.328   7.377  71.374  1.00  0.00    -0.361 C  
HETATM   18  N   UNL     1     -13.788   7.356  71.171  1.00  0.00    -0.615 NA 
HETATM   19  H1  UNL     1     -14.191   6.475  71.493  1.00  0.00     0.000 HD 
HETATM   20  H2  UNL     1     -14.034   7.550  70.201  1.00  0.00     0.000 HD 
ENDBRANCH  15  17
ENDBRANCH  12  13
ENDBRANCH   9  12
ENDBRANCH   5   9
BRANCH   6  21
HETATM   21  O   UNL     1     -11.209  11.447  65.112  1.00  0.00    -0.197 OA 
HETATM   22  C   UNL     1     -11.580  11.909  63.818  1.00  0.00    -0.462 C  
ENDBRANCH   6  21
ENDBRANCH   2   3
TORSDOF 6
ENDMDL
MODEL       81
REMARK 921   NORMALIZED FREE ENERGY PREDICTED BY IDOCK:   -4.69 KCAL/MOL
REMARK 922        TOTAL FREE ENERGY PREDICTED BY IDOCK:   -6.83 KCAL/MOL
REMARK 923 INTER-LIGAND FREE ENERGY PREDICTED BY IDOCK:   -6.29 KCAL/MOL
REMARK 924 INTRA-LIGAND FREE ENERGY PREDICTED BY IDOCK:   -0.54 KCAL/MOL
REMARK 927      BINDING AFFINITY PREDICTED BY RF-SCORE:    0.00 PKD
ROOT
HETATM    1  C   UNL     1      -6.603  17.252  67.530  1.00  0.00    -0.144 C  
HETATM    2  O   UNL     1      -6.905  16.154  66.672  1.00  0.00    -0.236 OA 
ENDROOT
BRANCH   2   3
HETATM    3  C   UNL     1      -8.177  15.657  66.729  1.00  0.00    -0.265 A  
HETATM    4  C   UNL     1      -9.179  15.878  65.787  1.00  0.00    -0.241 A  
HETATM    5  C   UNL     1     -10.476  15.333  65.931  1.00  0.00    -0.345 A  
HETATM    6  C   UNL     1     -10.737  14.531  67.064  1.00  0.00    -0.291 A  
HETATM    7  C   UNL     1      -9.727  14.309  68.008  1.00  0.00    -0.223 A  
HETATM    8  C   UNL     1      -8.457  14.869  67.841  1.00  0.00    -0.154 A  
BRANCH   5   9
HETATM    9  C   UNL     1     -11.566  15.607  64.890  1.00  0.00    -0.156 C  
HETATM   10  O   UNL     1     -11.207  16.722  64.058  1.00  0.00    -1.438 OA 
HETATM   11  H   UNL     1     -11.883  16.892  63.412  1.00  0.00     0.000 HD 
BRANCH   9  12
HETATM   12  C   UNL     1     -11.839  14.427  63.935  1.00  0.00    -0.054 C  
BRANCH  12  13
HETATM   13  N   UNL     1     -10.924  13.313  64.055  1.00  0.00    -0.538 N  
HETATM   14  H   UNL     1      -9.937  13.477  64.255  1.00  0.00     0.000 HD 
HETATM   15  C   UNL     1     -11.398  12.028  63.897  1.00  0.00    -0.425 C  
HETATM   16  O   UNL     1     -12.554  11.772  63.567  1.00  0.00    -0.523 OA 
BRANCH  15  17
HETATM   17  C   UNL     1     -10.376  10.927  64.190  1.00  0.00    -0.364 C  
HETATM   18  N   UNL     1      -9.252  11.444  64.992  1.00  0.00    -0.380 NA 
HETATM   19  H1  UNL     1      -8.571  10.710  65.187  1.00  0.00     0.000 HD 
HETATM   20  H2  UNL     1      -9.578  11.892  65.848  1.00  0.00     0.000 HD 
ENDBRANCH  15  17
ENDBRANCH  12  13
ENDBRANCH   9  12
ENDBRANCH   5   9
BRANCH   6  21
HETATM   21  O   UNL     1     -12.004  14.020  67.161  1.00  0.00    -0.400 OA 
HETATM   22  C   UNL     1     -12.132  12.623  67.412  1.00  0.00    -0.111 C  
ENDBRANCH   6  21
ENDBRANCH   2   3
TORSDOF 6
ENDMDL
MODEL       82
REMARK 921   NORMALIZED FREE ENERGY PREDICTED BY IDOCK:   -4.67 KCAL/MOL
REMARK 922        TOTAL FREE ENERGY PREDICTED BY IDOCK:   -6.80 KCAL/MOL
REMARK 923 INTER-LIGAND FREE ENERGY PREDICTED BY IDOCK:   -6.09 KCAL/MOL
REMARK 924 INTRA-LIGAND FREE ENERGY PREDICTED BY IDOCK:   -0.71 KCAL/MOL
REMARK 927      BINDING AFFINITY PREDICTED BY RF-SCORE:    0.00 PKD
ROOT
HETATM    1  C   UNL     1      -9.565  19.581  66.173  1.00  0.00    -0.362 C  
HETATM    2  O   UNL     1     -10.185  18.375  65.735  1.00  0.00    -0.571 OA 
ENDROOT
BRANCH   2   3
HETATM    3  C   UNL     1      -9.996  17.265  66.511  1.00  0.00    -0.305 A  
HETATM    4  C   UNL     1     -10.599  17.020  67.742  1.00  0.00    -0.350 A  
HETATM    5  C   UNL     1     -10.334  15.847  68.486  1.00  0.00    -0.232 A  
HETATM    6  C   UNL     1      -9.441  14.901  67.937  1.00  0.00    -0.200 A  
HETATM    7  C   UNL     1      -8.838  15.148  66.698  1.00  0.00    -0.321 A  
HETATM    8  C   UNL     1      -9.114  16.323  65.991  1.00  0.00    -0.332 A  
BRANCH   5   9
HETATM    9  C   UNL     1     -10.996  15.611  69.847  1.00  0.00    -0.318 C  
HETATM   10  O   UNL     1     -11.343  16.859  70.469  1.00  0.00    -0.405 OA 
HETATM   11  H   UNL     1     -11.754  16.713  71.313  1.00  0.00     0.000 HD 
BRANCH   9  12
HETATM   12  C   UNL     1     -12.298  14.785  69.783  1.00  0.00    -0.249 C  
BRANCH  12  13
HETATM   13  N   UNL     1     -12.122  13.383  69.475  1.00  0.00    -0.304 N  
HETATM   14  H   UNL     1     -11.831  13.093  68.542  1.00  0.00     0.000 HD 
HETATM   15  C   UNL     1     -12.350  12.441  70.456  1.00  0.00    -0.262 C  
HETATM   16  O   UNL     1     -12.788  12.722  71.571  1.00  0.00    -0.354 OA 
BRANCH  15  17
HETATM   17  C   UNL     1     -11.993  11.006  70.064  1.00  0.00    -0.351 C  
HETATM   18  N   UNL     1     -12.149  10.797  68.613  1.00  0.00    -0.816 NA 
HETATM   19  H1  UNL     1     -11.910   9.840  68.351  1.00  0.00     0.000 HD 
HETATM   20  H2  UNL     1     -11.612  11.478  68.076  1.00  0.00     0.000 HD 
ENDBRANCH  15  17
ENDBRANCH  12  13
ENDBRANCH   9  12
ENDBRANCH   5   9
BRANCH   6  21
HETATM   21  O   UNL     1      -9.218  13.777  68.688  1.00  0.00    -0.167 OA 
HETATM   22  C   UNL     1      -8.923  12.569  67.993  1.00  0.00    -0.192 C  
ENDBRANCH   6  21
ENDBRANCH   2   3
TORSDOF 6
ENDMDL
MODEL       83
REMARK 921   NORMALIZED FREE ENERGY PREDICTED BY IDOCK:   -4.66 KCAL/MOL
REMARK 922        TOTAL FREE ENERGY PREDICTED BY IDOCK:   -6.79 KCAL/MOL
REMARK 923 INTER-LIGAND FREE ENERGY PREDICTED BY IDOCK:   -6.21 KCAL/MOL
REMARK 924 INTRA-LIGAND FREE ENERGY PREDICTED BY IDOCK:   -0.58 KCAL/MOL
REMARK 927      BINDING AFFINITY PREDICTED BY RF-SCORE:    0.00 PKD
ROOT
HETATM    1  C   UNL     1     -13.966   8.907  72.244  1.00  0.00    -0.466 C  
HETATM    2  O   UNL     1     -12.663   8.405  72.527  1.00  0.00    -0.327 OA 
ENDROOT
BRANCH   2   3
HETATM    3  C   UNL     1     -11.641   8.858  71.740  1.00  0.00    -0.352 A  
HETATM    4  C   UNL     1     -11.781   9.640  70.595  1.00  0.00    -0.353 A  
HETATM    5  C   UNL     1     -10.667  10.055  69.830  1.00  0.00    -0.328 A  
HETATM    6  C   UNL     1      -9.381   9.668  70.268  1.00  0.00    -0.242 A  
HETATM    7  C   UNL     1      -9.242   8.885  71.421  1.00  0.00    -0.328 A  
HETATM    8  C   UNL     1     -10.365   8.483  72.150  1.00  0.00    -0.409 A  
BRANCH   5   9
HETATM    9  C   UNL     1     -10.849  10.898  68.565  1.00  0.00    -0.220 C  
HETATM   10  O   UNL     1     -12.028  10.494  67.850  1.00  0.00    -0.696 OA 
HETATM   11  H   UNL     1     -12.142  11.017  67.065  1.00  0.00     0.000 HD 
BRANCH   9  12
HETATM   12  C   UNL     1     -11.001  12.410  68.828  1.00  0.00    -0.246 C  
BRANCH  12  13
HETATM   13  N   UNL     1     -10.312  13.269  67.890  1.00  0.00    -0.233 N  
HETATM   14  H   UNL     1      -9.399  13.659  68.124  1.00  0.00     0.000 HD 
HETATM   15  C   UNL     1     -10.901  13.557  66.677  1.00  0.00    -0.283 C  
HETATM   16  O   UNL     1     -12.036  13.190  66.376  1.00  0.00    -0.384 OA 
BRANCH  15  17
HETATM   17  C   UNL     1     -10.022  14.351  65.709  1.00  0.00    -0.329 C  
HETATM   18  N   UNL     1     -10.242  13.922  64.316  1.00  0.00    -0.703 NA 
HETATM   19  H1  UNL     1      -9.655  14.452  63.671  1.00  0.00     0.000 HD 
HETATM   20  H2  UNL     1     -11.227  13.976  64.058  1.00  0.00     0.000 HD 
ENDBRANCH  15  17
ENDBRANCH  12  13
ENDBRANCH   9  12
ENDBRANCH   5   9
BRANCH   6  21
HETATM   21  O   UNL     1      -8.329  10.097  69.501  1.00  0.00    -0.154 OA 
HETATM   22  C   UNL     1      -7.041  10.127  70.109  1.00  0.00    -0.157 C  
ENDBRANCH   6  21
ENDBRANCH   2   3
TORSDOF 6
ENDMDL
MODEL       84
REMARK 921   NORMALIZED FREE ENERGY PREDICTED BY IDOCK:   -4.65 KCAL/MOL
REMARK 922        TOTAL FREE ENERGY PREDICTED BY IDOCK:   -6.78 KCAL/MOL
REMARK 923 INTER-LIGAND FREE ENERGY PREDICTED BY IDOCK:   -6.18 KCAL/MOL
REMARK 924 INTRA-LIGAND FREE ENERGY PREDICTED BY IDOCK:   -0.60 KCAL/MOL
REMARK 927      BINDING AFFINITY PREDICTED BY RF-SCORE:    0.00 PKD
ROOT
HETATM    1  C   UNL     1     -10.649   6.361  73.447  1.00  0.00    -0.276 C  
HETATM    2  O   UNL     1     -11.534   7.346  72.920  1.00  0.00    -0.298 OA 
ENDROOT
BRANCH   2   3
HETATM    3  C   UNL     1     -11.249   7.830  71.673  1.00  0.00    -0.248 A  
HETATM    4  C   UNL     1     -11.455   9.138  71.243  1.00  0.00    -0.405 A  
HETATM    5  C   UNL     1     -11.143   9.551  69.927  1.00  0.00    -0.244 A  
HETATM    6  C   UNL     1     -10.592   8.596  69.045  1.00  0.00    -0.160 A  
HETATM    7  C   UNL     1     -10.384   7.282  69.481  1.00  0.00    -0.230 A  
HETATM    8  C   UNL     1     -10.712   6.902  70.786  1.00  0.00    -0.262 A  
BRANCH   5   9
HETATM    9  C   UNL     1     -11.396  10.992  69.472  1.00  0.00    -0.287 C  
HETATM   10  O   UNL     1     -12.277  11.021  68.338  1.00  0.00    -0.770 OA 
HETATM   11  H   UNL     1     -12.435  11.914  68.056  1.00  0.00     0.000 HD 
BRANCH   9  12
HETATM   12  C   UNL     1     -12.045  11.890  70.546  1.00  0.00    -0.331 C  
BRANCH  12  13
HETATM   13  N   UNL     1     -12.007  13.308  70.265  1.00  0.00    -0.471 N  
HETATM   14  H   UNL     1     -11.560  13.654  69.416  1.00  0.00     0.000 HD 
HETATM   15  C   UNL     1     -12.581  14.190  71.157  1.00  0.00    -0.367 C  
HETATM   16  O   UNL     1     -13.053  13.842  72.238  1.00  0.00    -0.384 OA 
BRANCH  15  17
HETATM   17  C   UNL     1     -12.612  15.646  70.689  1.00  0.00    -0.414 C  
HETATM   18  N   UNL     1     -12.287  15.752  69.255  1.00  0.00    -0.526 NA 
HETATM   19  H1  UNL     1     -12.307  16.723  68.944  1.00  0.00     0.000 HD 
HETATM   20  H2  UNL     1     -12.896  15.162  68.689  1.00  0.00     0.000 HD 
ENDBRANCH  15  17
ENDBRANCH  12  13
ENDBRANCH   9  12
ENDBRANCH   5   9
BRANCH   6  21
HETATM   21  O   UNL     1     -10.300   9.040  67.781  1.00  0.00    -0.219 OA 
HETATM   22  C   UNL     1     -10.105   8.058  66.768  1.00  0.00    -0.287 C  
ENDBRANCH   6  21
ENDBRANCH   2   3
TORSDOF 6
ENDMDL
MODEL       85
REMARK 921   NORMALIZED FREE ENERGY PREDICTED BY IDOCK:   -4.65 KCAL/MOL
REMARK 922        TOTAL FREE ENERGY PREDICTED BY IDOCK:   -6.77 KCAL/MOL
REMARK 923 INTER-LIGAND FREE ENERGY PREDICTED BY IDOCK:   -6.70 KCAL/MOL
REMARK 924 INTRA-LIGAND FREE ENERGY PREDICTED BY IDOCK:   -0.07 KCAL/MOL
REMARK 927      BINDING AFFINITY PREDICTED BY RF-SCORE:    0.00 PKD
ROOT
HETATM    1  C   UNL     1     -11.542  16.071  70.753  1.00  0.00    -0.400 C  
HETATM    2  O   UNL     1     -12.737  15.338  71.013  1.00  0.00    -0.356 OA 
ENDROOT
BRANCH   2   3
HETATM    3  C   UNL     1     -12.649  13.975  70.967  1.00  0.00    -0.366 A  
HETATM    4  C   UNL     1     -11.978  13.236  69.995  1.00  0.00    -0.399 A  
HETATM    5  C   UNL     1     -11.949  11.822  70.016  1.00  0.00    -0.421 A  
HETATM    6  C   UNL     1     -12.612  11.161  71.073  1.00  0.00    -0.403 A  
HETATM    7  C   UNL     1     -13.283  11.906  72.050  1.00  0.00    -0.461 A  
HETATM    8  C   UNL     1     -13.302  13.303  71.996  1.00  0.00    -0.582 A  
BRANCH   5   9
HETATM    9  C   UNL     1     -11.220  11.033  68.925  1.00  0.00    -0.265 C  
HETATM   10  O   UNL     1     -12.122  10.680  67.863  1.00  0.00    -0.649 OA 
HETATM   11  H   UNL     1     -11.670  10.190  67.186  1.00  0.00     0.000 HD 
BRANCH   9  12
HETATM   12  C   UNL     1     -10.053  11.794  68.265  1.00  0.00    -0.197 C  
BRANCH  12  13
HETATM   13  N   UNL     1     -10.439  12.927  67.453  1.00  0.00    -0.232 N  
HETATM   14  H   UNL     1     -10.721  13.804  67.892  1.00  0.00     0.000 HD 
HETATM   15  C   UNL     1     -10.422  12.813  66.079  1.00  0.00    -0.274 C  
HETATM   16  O   UNL     1     -10.179  11.758  65.494  1.00  0.00    -0.233 OA 
BRANCH  15  17
HETATM   17  C   UNL     1     -10.706  14.112  65.323  1.00  0.00    -0.364 C  
HETATM   18  N   UNL     1      -9.549  15.024  65.378  1.00  0.00    -0.425 NA 
HETATM   19  H1  UNL     1      -9.739  15.891  64.874  1.00  0.00     0.000 HD 
HETATM   20  H2  UNL     1      -8.700  14.571  65.041  1.00  0.00     0.000 HD 
ENDBRANCH  15  17
ENDBRANCH  12  13
ENDBRANCH   9  12
ENDBRANCH   5   9
BRANCH   6  21
HETATM   21  O   UNL     1     -12.554   9.792  71.058  1.00  0.00    -0.317 OA 
HETATM   22  C   UNL     1     -11.587   9.165  71.896  1.00  0.00    -0.360 C  
ENDBRANCH   6  21
ENDBRANCH   2   3
TORSDOF 6
ENDMDL
MODEL       86
REMARK 921   NORMALIZED FREE ENERGY PREDICTED BY IDOCK:   -4.63 KCAL/MOL
REMARK 922        TOTAL FREE ENERGY PREDICTED BY IDOCK:   -6.75 KCAL/MOL
REMARK 923 INTER-LIGAND FREE ENERGY PREDICTED BY IDOCK:   -6.29 KCAL/MOL
REMARK 924 INTRA-LIGAND FREE ENERGY PREDICTED BY IDOCK:   -0.46 KCAL/MOL
REMARK 927      BINDING AFFINITY PREDICTED BY RF-SCORE:    0.00 PKD
ROOT
HETATM    1  C   UNL     1     -12.726  11.915  63.470  1.00  0.00    -0.405 C  
HETATM    2  O   UNL     1     -13.199  12.470  64.694  1.00  0.00    -0.848 OA 
ENDROOT
BRANCH   2   3
HETATM    3  C   UNL     1     -12.460  13.481  65.242  1.00  0.00    -0.482 A  
HETATM    4  C   UNL     1     -12.264  13.699  66.603  1.00  0.00    -0.437 A  
HETATM    5  C   UNL     1     -11.492  14.782  67.085  1.00  0.00    -0.375 A  
HETATM    6  C   UNL     1     -10.897  15.645  66.139  1.00  0.00    -0.264 A  
HETATM    7  C   UNL     1     -11.093  15.421  64.770  1.00  0.00    -0.416 A  
HETATM    8  C   UNL     1     -11.870  14.347  64.326  1.00  0.00    -0.385 A  
BRANCH   5   9
HETATM    9  C   UNL     1     -11.307  15.011  68.588  1.00  0.00    -0.296 C  
HETATM   10  O   UNL     1     -12.429  14.495  69.323  1.00  0.00    -0.556 OA 
HETATM   11  H   UNL     1     -12.315  14.637  70.256  1.00  0.00     0.000 HD 
BRANCH   9  12
HETATM   12  C   UNL     1     -10.054  14.335  69.182  1.00  0.00    -0.055 C  
BRANCH  12  13
HETATM   13  N   UNL     1      -9.530  13.228  68.414  1.00  0.00    -0.304 N  
HETATM   14  H   UNL     1     -10.159  12.527  68.025  1.00  0.00     0.000 HD 
HETATM   15  C   UNL     1      -8.169  13.129  68.212  1.00  0.00    -0.154 C  
HETATM   16  O   UNL     1      -7.355  13.891  68.730  1.00  0.00    -0.115 OA 
BRANCH  15  17
HETATM   17  C   UNL     1      -7.741  12.006  67.266  1.00  0.00    -0.168 C  
HETATM   18  N   UNL     1      -6.347  12.187  66.820  1.00  0.00    -0.449 NA 
HETATM   19  H1  UNL     1      -6.062  11.438  66.189  1.00  0.00     0.000 HD 
HETATM   20  H2  UNL     1      -5.710  12.275  67.611  1.00  0.00     0.000 HD 
ENDBRANCH  15  17
ENDBRANCH  12  13
ENDBRANCH   9  12
ENDBRANCH   5   9
BRANCH   6  21
HETATM   21  O   UNL     1     -10.153  16.677  66.648  1.00  0.00    -0.279 OA 
HETATM   22  C   UNL     1      -8.771  16.723  66.306  1.00  0.00    -0.307 C  
ENDBRANCH   6  21
ENDBRANCH   2   3
TORSDOF 6
ENDMDL
MODEL       87
REMARK 921   NORMALIZED FREE ENERGY PREDICTED BY IDOCK:   -4.62 KCAL/MOL
REMARK 922        TOTAL FREE ENERGY PREDICTED BY IDOCK:   -6.74 KCAL/MOL
REMARK 923 INTER-LIGAND FREE ENERGY PREDICTED BY IDOCK:   -6.35 KCAL/MOL
REMARK 924 INTRA-LIGAND FREE ENERGY PREDICTED BY IDOCK:   -0.39 KCAL/MOL
REMARK 927      BINDING AFFINITY PREDICTED BY RF-SCORE:    0.00 PKD
ROOT
HETATM    1  C   UNL     1      -9.000  17.531  67.013  1.00  0.00    -0.240 C  
HETATM    2  O   UNL     1      -9.764  17.383  65.819  1.00  0.00    -0.533 OA 
ENDROOT
BRANCH   2   3
HETATM    3  C   UNL     1     -10.421  16.196  65.648  1.00  0.00    -0.383 A  
HETATM    4  C   UNL     1     -10.324  15.085  66.484  1.00  0.00    -0.287 A  
HETATM    5  C   UNL     1     -11.031  13.889  66.224  1.00  0.00    -0.298 A  
HETATM    6  C   UNL     1     -11.868  13.846  65.087  1.00  0.00    -0.362 A  
HETATM    7  C   UNL     1     -11.966  14.965  64.251  1.00  0.00    -0.355 A  
HETATM    8  C   UNL     1     -11.246  16.131  64.530  1.00  0.00    -0.275 A  
BRANCH   5   9
HETATM    9  C   UNL     1     -10.892  12.675  67.147  1.00  0.00    -0.253 C  
HETATM   10  O   UNL     1     -12.158  12.018  67.320  1.00  0.00    -0.572 OA 
HETATM   11  H   UNL     1     -12.072  11.265  67.892  1.00  0.00     0.000 HD 
BRANCH   9  12
HETATM   12  C   UNL     1      -9.913  11.598  66.635  1.00  0.00    -0.203 C  
BRANCH  12  13
HETATM   13  N   UNL     1      -9.791  11.513  65.197  1.00  0.00    -0.251 N  
HETATM   14  H   UNL     1      -9.962  12.334  64.616  1.00  0.00     0.000 HD 
HETATM   15  C   UNL     1      -9.440  10.312  64.617  1.00  0.00    -0.293 C  
HETATM   16  O   UNL     1      -9.309   9.269  65.256  1.00  0.00    -0.241 OA 
BRANCH  15  17
HETATM   17  C   UNL     1      -9.197  10.374  63.108  1.00  0.00    -0.294 C  
HETATM   18  N   UNL     1      -9.302   9.037  62.496  1.00  0.00    -0.495 NA 
HETATM   19  H1  UNL     1      -9.140   9.079  61.489  1.00  0.00     0.000 HD 
HETATM   20  H2  UNL     1     -10.194   8.594  62.714  1.00  0.00     0.000 HD 
ENDBRANCH  15  17
ENDBRANCH  12  13
ENDBRANCH   9  12
ENDBRANCH   5   9
BRANCH   6  21
HETATM   21  O   UNL     1     -12.539  12.670  64.876  1.00  0.00    -0.510 OA 
HETATM   22  C   UNL     1     -12.657  12.213  63.532  1.00  0.00    -0.506 C  
ENDBRANCH   6  21
ENDBRANCH   2   3
TORSDOF 6
ENDMDL
MODEL       88
REMARK 921   NORMALIZED FREE ENERGY PREDICTED BY IDOCK:   -4.62 KCAL/MOL
REMARK 922        TOTAL FREE ENERGY PREDICTED BY IDOCK:   -6.74 KCAL/MOL
REMARK 923 INTER-LIGAND FREE ENERGY PREDICTED BY IDOCK:   -6.20 KCAL/MOL
REMARK 924 INTRA-LIGAND FREE ENERGY PREDICTED BY IDOCK:   -0.54 KCAL/MOL
REMARK 927      BINDING AFFINITY PREDICTED BY RF-SCORE:    0.00 PKD
ROOT
HETATM    1  C   UNL     1      -9.247  11.828  68.195  1.00  0.00    -0.186 C  
HETATM    2  O   UNL     1     -10.567  12.150  68.624  1.00  0.00    -0.223 OA 
ENDROOT
BRANCH   2   3
HETATM    3  C   UNL     1     -11.124  11.340  69.574  1.00  0.00    -0.238 A  
HETATM    4  C   UNL     1     -10.680  10.065  69.917  1.00  0.00    -0.328 A  
HETATM    5  C   UNL     1     -11.326   9.288  70.906  1.00  0.00    -0.373 A  
HETATM    6  C   UNL     1     -12.442   9.848  71.565  1.00  0.00    -0.411 A  
HETATM    7  C   UNL     1     -12.885  11.131  71.220  1.00  0.00    -0.515 A  
HETATM    8  C   UNL     1     -12.230  11.870  70.231  1.00  0.00    -0.353 A  
BRANCH   5   9
HETATM    9  C   UNL     1     -10.829   7.881  71.251  1.00  0.00    -0.235 C  
HETATM   10  O   UNL     1     -10.832   7.674  72.673  1.00  0.00    -0.279 OA 
HETATM   11  H   UNL     1     -10.525   6.802  72.888  1.00  0.00     0.000 HD 
BRANCH   9  12
HETATM   12  C   UNL     1     -11.679   6.744  70.649  1.00  0.00    -0.386 C  
BRANCH  12  13
HETATM   13  N   UNL     1     -11.618   6.628  69.208  1.00  0.00    -0.646 N  
HETATM   14  H   UNL     1     -12.254   7.167  68.621  1.00  0.00     0.000 HD 
HETATM   15  C   UNL     1     -10.691   5.781  68.636  1.00  0.00    -0.233 C  
HETATM   16  O   UNL     1      -9.961   5.041  69.292  1.00  0.00    -0.183 OA 
BRANCH  15  17
HETATM   17  C   UNL     1     -10.618   5.849  67.110  1.00  0.00    -0.299 C  
HETATM   18  N   UNL     1     -10.780   7.233  66.630  1.00  0.00    -0.494 NA 
HETATM   19  H1  UNL     1     -10.730   7.278  65.611  1.00  0.00     0.000 HD 
HETATM   20  H2  UNL     1     -10.106   7.862  67.066  1.00  0.00     0.000 HD 
ENDBRANCH  15  17
ENDBRANCH  12  13
ENDBRANCH   9  12
ENDBRANCH   5   9
BRANCH   6  21
HETATM   21  O   UNL     1     -13.034   9.063  72.520  1.00  0.00    -0.418 OA 
HETATM   22  C   UNL     1     -14.399   8.704  72.323  1.00  0.00    -0.396 C  
ENDBRANCH   6  21
ENDBRANCH   2   3
TORSDOF 6
ENDMDL
MODEL       89
REMARK 921   NORMALIZED FREE ENERGY PREDICTED BY IDOCK:   -4.62 KCAL/MOL
REMARK 922        TOTAL FREE ENERGY PREDICTED BY IDOCK:   -6.73 KCAL/MOL
REMARK 923 INTER-LIGAND FREE ENERGY PREDICTED BY IDOCK:   -5.99 KCAL/MOL
REMARK 924 INTRA-LIGAND FREE ENERGY PREDICTED BY IDOCK:   -0.74 KCAL/MOL
REMARK 927      BINDING AFFINITY PREDICTED BY RF-SCORE:    0.00 PKD
ROOT
HETATM    1  C   UNL     1      -9.539  18.509  68.483  1.00  0.00    -0.358 C  
HETATM    2  O   UNL     1      -8.448  17.606  68.641  1.00  0.00    -0.290 OA 
ENDROOT
BRANCH   2   3
HETATM    3  C   UNL     1      -8.709  16.279  68.443  1.00  0.00    -0.205 A  
HETATM    4  C   UNL     1      -9.973  15.712  68.298  1.00  0.00    -0.213 A  
HETATM    5  C   UNL     1     -10.153  14.322  68.110  1.00  0.00    -0.232 A  
HETATM    6  C   UNL     1      -9.003  13.505  68.054  1.00  0.00    -0.189 A  
HETATM    7  C   UNL     1      -7.733  14.079  68.198  1.00  0.00    -0.143 A  
HETATM    8  C   UNL     1      -7.589  15.455  68.392  1.00  0.00    -0.116 A  
BRANCH   5   9
HETATM    9  C   UNL     1     -11.555  13.721  67.971  1.00  0.00    -0.333 C  
HETATM   10  O   UNL     1     -12.450  14.285  68.943  1.00  0.00    -0.563 OA 
HETATM   11  H   UNL     1     -13.320  13.913  68.857  1.00  0.00     0.000 HD 
BRANCH   9  12
HETATM   12  C   UNL     1     -12.211  13.955  66.594  1.00  0.00    -0.424 C  
BRANCH  12  13
HETATM   13  N   UNL     1     -12.038  12.881  65.641  1.00  0.00    -0.438 N  
HETATM   14  H   UNL     1     -12.634  12.054  65.682  1.00  0.00     0.000 HD 
HETATM   15  C   UNL     1     -11.059  12.985  64.675  1.00  0.00    -0.332 C  
HETATM   16  O   UNL     1     -10.253  13.913  64.631  1.00  0.00    -0.417 OA 
BRANCH  15  17
HETATM   17  C   UNL     1     -11.063  11.864  63.634  1.00  0.00    -0.440 C  
HETATM   18  N   UNL     1     -12.404  11.686  63.048  1.00  0.00    -0.956 NA 
HETATM   19  H1  UNL     1     -12.406  10.938  62.354  1.00  0.00     0.000 HD 
HETATM   20  H2  UNL     1     -12.762  12.559  62.661  1.00  0.00     0.000 HD 
ENDBRANCH  15  17
ENDBRANCH  12  13
ENDBRANCH   9  12
ENDBRANCH   5   9
BRANCH   6  21
HETATM   21  O   UNL     1      -9.223  12.166  67.865  1.00  0.00    -0.175 OA 
HETATM   22  C   UNL     1      -8.505  11.524  66.815  1.00  0.00    -0.168 C  
ENDBRANCH   6  21
ENDBRANCH   2   3
TORSDOF 6
ENDMDL
MODEL       90
REMARK 921   NORMALIZED FREE ENERGY PREDICTED BY IDOCK:   -4.62 KCAL/MOL
REMARK 922        TOTAL FREE ENERGY PREDICTED BY IDOCK:   -6.73 KCAL/MOL
REMARK 923 INTER-LIGAND FREE ENERGY PREDICTED BY IDOCK:   -6.35 KCAL/MOL
REMARK 924 INTRA-LIGAND FREE ENERGY PREDICTED BY IDOCK:   -0.38 KCAL/MOL
REMARK 927      BINDING AFFINITY PREDICTED BY RF-SCORE:    0.00 PKD
ROOT
HETATM    1  C   UNL     1     -10.413  17.418  65.768  1.00  0.00    -0.215 C  
HETATM    2  O   UNL     1     -10.732  16.454  64.768  1.00  0.00    -0.700 OA 
ENDROOT
BRANCH   2   3
HETATM    3  C   UNL     1     -11.003  15.185  65.197  1.00  0.00    -0.417 A  
HETATM    4  C   UNL     1     -10.924  14.030  64.422  1.00  0.00    -0.280 A  
HETATM    5  C   UNL     1     -11.237  12.754  64.945  1.00  0.00    -0.331 A  
HETATM    6  C   UNL     1     -11.622  12.669  66.301  1.00  0.00    -0.386 A  
HETATM    7  C   UNL     1     -11.698  13.831  67.079  1.00  0.00    -0.420 A  
HETATM    8  C   UNL     1     -11.391  15.079  66.529  1.00  0.00    -0.280 A  
BRANCH   5   9
HETATM    9  C   UNL     1     -11.160  11.502  64.066  1.00  0.00    -0.365 C  
HETATM   10  O   UNL     1     -12.249  11.470  63.129  1.00  0.00    -0.932 OA 
HETATM   11  H   UNL     1     -12.201  10.694  62.583  1.00  0.00     0.000 HD 
BRANCH   9  12
HETATM   12  C   UNL     1      -9.868  11.393  63.230  1.00  0.00    -0.404 C  
BRANCH  12  13
HETATM   13  N   UNL     1      -8.679  11.051  63.979  1.00  0.00    -0.374 N  
HETATM   14  H   UNL     1      -8.258  11.728  64.614  1.00  0.00     0.000 HD 
HETATM   15  C   UNL     1      -8.119   9.800  63.825  1.00  0.00    -0.149 C  
HETATM   16  O   UNL     1      -8.528   8.975  63.010  1.00  0.00    -0.193 OA 
BRANCH  15  17
HETATM   17  C   UNL     1      -6.956   9.497  64.771  1.00  0.00    -0.104 C  
HETATM   18  N   UNL     1      -5.989   8.576  64.148  1.00  0.00    -0.066 NA 
HETATM   19  H1  UNL     1      -5.213   8.374  64.780  1.00  0.00     0.000 HD 
HETATM   20  H2  UNL     1      -5.660   8.930  63.250  1.00  0.00     0.000 HD 
ENDBRANCH  15  17
ENDBRANCH  12  13
ENDBRANCH   9  12
ENDBRANCH   5   9
BRANCH   6  21
HETATM   21  O   UNL     1     -11.910  11.413  66.768  1.00  0.00    -0.443 OA 
HETATM   22  C   UNL     1     -10.858  10.687  67.396  1.00  0.00    -0.296 C  
ENDBRANCH   6  21
ENDBRANCH   2   3
TORSDOF 6
ENDMDL
MODEL       91
REMARK 921   NORMALIZED FREE ENERGY PREDICTED BY IDOCK:   -4.61 KCAL/MOL
REMARK 922        TOTAL FREE ENERGY PREDICTED BY IDOCK:   -6.72 KCAL/MOL
REMARK 923 INTER-LIGAND FREE ENERGY PREDICTED BY IDOCK:   -6.13 KCAL/MOL
REMARK 924 INTRA-LIGAND FREE ENERGY PREDICTED BY IDOCK:   -0.59 KCAL/MOL
REMARK 927      BINDING AFFINITY PREDICTED BY RF-SCORE:    0.00 PKD
ROOT
HETATM    1  C   UNL     1      -7.866  16.516  66.476  1.00  0.00    -0.303 C  
HETATM    2  O   UNL     1      -7.278  15.496  67.278  1.00  0.00    -0.197 OA 
ENDROOT
BRANCH   2   3
HETATM    3  C   UNL     1      -8.062  14.417  67.579  1.00  0.00    -0.190 A  
HETATM    4  C   UNL     1      -9.358  14.470  68.085  1.00  0.00    -0.197 A  
HETATM    5  C   UNL     1     -10.095  13.301  68.382  1.00  0.00    -0.237 A  
HETATM    6  C   UNL     1      -9.485  12.052  68.135  1.00  0.00    -0.200 A  
HETATM    7  C   UNL     1      -8.182  12.001  67.623  1.00  0.00    -0.155 A  
HETATM    8  C   UNL     1      -7.476  13.176  67.349  1.00  0.00    -0.131 A  
BRANCH   5   9
HETATM    9  C   UNL     1     -11.512  13.387  68.956  1.00  0.00    -0.301 C  
HETATM   10  O   UNL     1     -11.602  12.676  70.202  1.00  0.00    -0.521 OA 
HETATM   11  H   UNL     1     -12.481  12.730  70.558  1.00  0.00     0.000 HD 
BRANCH   9  12
HETATM   12  C   UNL     1     -11.993  14.824  69.244  1.00  0.00    -0.294 C  
BRANCH  12  13
HETATM   13  N   UNL     1     -13.052  14.933  70.223  1.00  0.00    -0.625 N  
HETATM   14  H   UNL     1     -13.972  14.536  70.033  1.00  0.00     0.000 HD 
HETATM   15  C   UNL     1     -12.807  15.581  71.415  1.00  0.00    -0.465 C  
HETATM   16  O   UNL     1     -11.749  16.157  71.663  1.00  0.00    -0.467 OA 
BRANCH  15  17
HETATM   17  C   UNL     1     -13.948  15.509  72.431  1.00  0.00    -0.560 C  
HETATM   18  N   UNL     1     -13.598  16.213  73.677  1.00  0.00    -0.878 NA 
HETATM   19  H1  UNL     1     -14.360  16.165  74.355  1.00  0.00     0.000 HD 
HETATM   20  H2  UNL     1     -13.317  17.177  73.497  1.00  0.00     0.000 HD 
ENDBRANCH  15  17
ENDBRANCH  12  13
ENDBRANCH   9  12
ENDBRANCH   5   9
BRANCH   6  21
HETATM   21  O   UNL     1     -10.236  10.944  68.432  1.00  0.00    -0.165 OA 
HETATM   22  C   UNL     1     -10.320   9.922  67.443  1.00  0.00    -0.246 C  
ENDBRANCH   6  21
ENDBRANCH   2   3
TORSDOF 6
ENDMDL
MODEL       92
REMARK 921   NORMALIZED FREE ENERGY PREDICTED BY IDOCK:   -4.61 KCAL/MOL
REMARK 922        TOTAL FREE ENERGY PREDICTED BY IDOCK:   -6.72 KCAL/MOL
REMARK 923 INTER-LIGAND FREE ENERGY PREDICTED BY IDOCK:   -5.81 KCAL/MOL
REMARK 924 INTRA-LIGAND FREE ENERGY PREDICTED BY IDOCK:   -0.91 KCAL/MOL
REMARK 927      BINDING AFFINITY PREDICTED BY RF-SCORE:    0.00 PKD
ROOT
HETATM    1  C   UNL     1      -9.767  19.117  66.815  1.00  0.00    -0.338 C  
HETATM    2  O   UNL     1      -9.471  17.760  66.495  1.00  0.00    -0.278 OA 
ENDROOT
BRANCH   2   3
HETATM    3  C   UNL     1     -10.234  16.801  67.101  1.00  0.00    -0.295 A  
HETATM    4  C   UNL     1     -10.900  15.763  66.453  1.00  0.00    -0.226 A  
HETATM    5  C   UNL     1     -11.681  14.819  67.158  1.00  0.00    -0.351 A  
HETATM    6  C   UNL     1     -11.762  14.941  68.562  1.00  0.00    -0.310 A  
HETATM    7  C   UNL     1     -11.089  15.984  69.212  1.00  0.00    -0.331 A  
HETATM    8  C   UNL     1     -10.332  16.907  68.484  1.00  0.00    -0.336 A  
BRANCH   5   9
HETATM    9  C   UNL     1     -12.419  13.698  66.420  1.00  0.00    -0.324 C  
HETATM   10  O   UNL     1     -12.752  14.101  65.082  1.00  0.00    -0.616 OA 
HETATM   11  H   UNL     1     -13.209  13.406  64.624  1.00  0.00     0.000 HD 
BRANCH   9  12
HETATM   12  C   UNL     1     -11.613  12.389  66.288  1.00  0.00    -0.393 C  
BRANCH  12  13
HETATM   13  N   UNL     1     -11.727  11.481  67.408  1.00  0.00    -0.226 N  
HETATM   14  H   UNL     1     -12.575  10.930  67.539  1.00  0.00     0.000 HD 
HETATM   15  C   UNL     1     -10.678  11.366  68.296  1.00  0.00    -0.204 C  
HETATM   16  O   UNL     1      -9.670  12.068  68.241  1.00  0.00    -0.197 OA 
BRANCH  15  17
HETATM   17  C   UNL     1     -10.850  10.273  69.353  1.00  0.00    -0.245 C  
HETATM   18  N   UNL     1     -12.239  10.219  69.842  1.00  0.00    -0.497 NA 
HETATM   19  H1  UNL     1     -12.353   9.490  70.547  1.00  0.00     0.000 HD 
HETATM   20  H2  UNL     1     -12.902  10.107  69.075  1.00  0.00     0.000 HD 
ENDBRANCH  15  17
ENDBRANCH  12  13
ENDBRANCH   9  12
ENDBRANCH   5   9
BRANCH   6  21
HETATM   21  O   UNL     1     -12.525  14.003  69.207  1.00  0.00    -0.259 OA 
HETATM   22  C   UNL     1     -12.328  13.845  70.609  1.00  0.00    -0.381 C  
ENDBRANCH   6  21
ENDBRANCH   2   3
TORSDOF 6
ENDMDL
MODEL       93
REMARK 921   NORMALIZED FREE ENERGY PREDICTED BY IDOCK:   -4.60 KCAL/MOL
REMARK 922        TOTAL FREE ENERGY PREDICTED BY IDOCK:   -6.72 KCAL/MOL
REMARK 923 INTER-LIGAND FREE ENERGY PREDICTED BY IDOCK:   -6.08 KCAL/MOL
REMARK 924 INTRA-LIGAND FREE ENERGY PREDICTED BY IDOCK:   -0.64 KCAL/MOL
REMARK 927      BINDING AFFINITY PREDICTED BY RF-SCORE:    0.00 PKD
ROOT
HETATM    1  C   UNL     1      -7.284  16.501  68.751  1.00  0.00    -0.197 C  
HETATM    2  O   UNL     1      -7.352  15.454  67.786  1.00  0.00    -0.132 OA 
ENDROOT
BRANCH   2   3
HETATM    3  C   UNL     1      -8.593  15.131  67.311  1.00  0.00    -0.198 A  
HETATM    4  C   UNL     1      -9.437  14.155  67.837  1.00  0.00    -0.211 A  
HETATM    5  C   UNL     1     -10.703  13.876  67.273  1.00  0.00    -0.286 A  
HETATM    6  C   UNL     1     -11.111  14.632  66.152  1.00  0.00    -0.334 A  
HETATM    7  C   UNL     1     -10.262  15.615  65.627  1.00  0.00    -0.402 A  
HETATM    8  C   UNL     1      -9.012  15.860  66.202  1.00  0.00    -0.376 A  
BRANCH   5   9
HETATM    9  C   UNL     1     -11.603  12.785  67.859  1.00  0.00    -0.351 C  
HETATM   10  O   UNL     1     -11.970  11.830  66.850  1.00  0.00    -0.605 OA 
HETATM   11  H   UNL     1     -12.528  11.153  67.214  1.00  0.00     0.000 HD 
BRANCH   9  12
HETATM   12  C   UNL     1     -10.957  11.978  69.004  1.00  0.00    -0.210 C  
BRANCH  12  13
HETATM   13  N   UNL     1     -11.781  11.812  70.181  1.00  0.00    -0.475 N  
HETATM   14  H   UNL     1     -12.232  12.619  70.612  1.00  0.00     0.000 HD 
HETATM   15  C   UNL     1     -11.953  10.552  70.715  1.00  0.00    -0.370 C  
HETATM   16  O   UNL     1     -11.365   9.557  70.295  1.00  0.00    -0.247 OA 
BRANCH  15  17
HETATM   17  C   UNL     1     -12.958  10.475  71.866  1.00  0.00    -0.447 C  
HETATM   18  N   UNL     1     -13.451  11.815  72.233  1.00  0.00    -0.547 NA 
HETATM   19  H1  UNL     1     -14.121  11.763  73.001  1.00  0.00     0.000 HD 
HETATM   20  H2  UNL     1     -13.839  12.305  71.427  1.00  0.00     0.000 HD 
ENDBRANCH  15  17
ENDBRANCH  12  13
ENDBRANCH   9  12
ENDBRANCH   5   9
BRANCH   6  21
HETATM   21  O   UNL     1     -12.347  14.333  65.641  1.00  0.00    -0.419 OA 
HETATM   22  C   UNL     1     -12.519  14.445  64.231  1.00  0.00    -0.272 C  
ENDBRANCH   6  21
ENDBRANCH   2   3
TORSDOF 6
ENDMDL
MODEL       94
REMARK 921   NORMALIZED FREE ENERGY PREDICTED BY IDOCK:   -4.60 KCAL/MOL
REMARK 922        TOTAL FREE ENERGY PREDICTED BY IDOCK:   -6.71 KCAL/MOL
REMARK 923 INTER-LIGAND FREE ENERGY PREDICTED BY IDOCK:   -6.20 KCAL/MOL
REMARK 924 INTRA-LIGAND FREE ENERGY PREDICTED BY IDOCK:   -0.51 KCAL/MOL
REMARK 927      BINDING AFFINITY PREDICTED BY RF-SCORE:    0.00 PKD
ROOT
HETATM    1  C   UNL     1      -8.171  11.111  66.664  1.00  0.00    -0.158 C  
HETATM    2  O   UNL     1      -9.523  10.693  66.833  1.00  0.00    -0.162 OA 
ENDROOT
BRANCH   2   3
HETATM    3  C   UNL     1      -9.911  10.349  68.098  1.00  0.00    -0.151 A  
HETATM    4  C   UNL     1     -11.178  10.546  68.641  1.00  0.00    -0.328 A  
HETATM    5  C   UNL     1     -11.490  10.172  69.969  1.00  0.00    -0.344 A  
HETATM    6  C   UNL     1     -10.476   9.567  70.743  1.00  0.00    -0.314 A  
HETATM    7  C   UNL     1      -9.204   9.367  70.193  1.00  0.00    -0.268 A  
HETATM    8  C   UNL     1      -8.924   9.758  68.880  1.00  0.00    -0.144 A  
BRANCH   5   9
HETATM    9  C   UNL     1     -12.886  10.416  70.549  1.00  0.00    -0.254 C  
HETATM   10  O   UNL     1     -13.398   9.224  71.166  1.00  0.00    -0.509 OA 
HETATM   11  H   UNL     1     -14.264   9.375  71.526  1.00  0.00     0.000 HD 
BRANCH   9  12
HETATM   12  C   UNL     1     -12.940  11.518  71.628  1.00  0.00    -0.394 C  
BRANCH  12  13
HETATM   13  N   UNL     1     -12.726  12.863  71.143  1.00  0.00    -0.335 N  
HETATM   14  H   UNL     1     -12.131  13.031  70.332  1.00  0.00     0.000 HD 
HETATM   15  C   UNL     1     -13.335  13.920  71.789  1.00  0.00    -0.381 C  
HETATM   16  O   UNL     1     -13.989  13.790  72.822  1.00  0.00    -0.714 OA 
BRANCH  15  17
HETATM   17  C   UNL     1     -13.159  15.277  71.105  1.00  0.00    -0.479 C  
HETATM   18  N   UNL     1     -12.693  15.116  69.716  1.00  0.00    -0.613 NA 
HETATM   19  H1  UNL     1     -12.575  16.022  69.260  1.00  0.00     0.000 HD 
HETATM   20  H2  UNL     1     -13.309  14.504  69.182  1.00  0.00     0.000 HD 
ENDBRANCH  15  17
ENDBRANCH  12  13
ENDBRANCH   9  12
ENDBRANCH   5   9
BRANCH   6  21
HETATM   21  O   UNL     1     -10.823   9.215  72.021  1.00  0.00    -0.352 OA 
HETATM   22  C   UNL     1     -10.451   7.915  72.469  1.00  0.00    -0.300 C  
ENDBRANCH   6  21
ENDBRANCH   2   3
TORSDOF 6
ENDMDL
MODEL       95
REMARK 921   NORMALIZED FREE ENERGY PREDICTED BY IDOCK:   -4.59 KCAL/MOL
REMARK 922        TOTAL FREE ENERGY PREDICTED BY IDOCK:   -6.70 KCAL/MOL
REMARK 923 INTER-LIGAND FREE ENERGY PREDICTED BY IDOCK:   -6.04 KCAL/MOL
REMARK 924 INTRA-LIGAND FREE ENERGY PREDICTED BY IDOCK:   -0.66 KCAL/MOL
REMARK 927      BINDING AFFINITY PREDICTED BY RF-SCORE:    0.00 PKD
ROOT
HETATM    1  C   UNL     1     -12.395  12.765  63.417  1.00  0.00    -0.437 C  
HETATM    2  O   UNL     1     -12.673  13.102  64.774  1.00  0.00    -0.648 OA 
ENDROOT
BRANCH   2   3
HETATM    3  C   UNL     1     -11.602  13.209  65.617  1.00  0.00    -0.338 A  
HETATM    4  C   UNL     1     -10.827  14.351  65.805  1.00  0.00    -0.308 A  
HETATM    5  C   UNL     1      -9.724  14.369  66.691  1.00  0.00    -0.289 A  
HETATM    6  C   UNL     1      -9.428  13.189  67.407  1.00  0.00    -0.214 A  
HETATM    7  C   UNL     1     -10.211  12.043  67.217  1.00  0.00    -0.221 A  
HETATM    8  C   UNL     1     -11.289  12.054  66.327  1.00  0.00    -0.415 A  
BRANCH   5   9
HETATM    9  C   UNL     1      -8.876  15.632  66.866  1.00  0.00    -0.250 C  
HETATM   10  O   UNL     1      -7.512  15.387  66.487  1.00  0.00    -0.243 OA 
HETATM   11  H   UNL     1      -6.985  16.170  66.595  1.00  0.00     0.000 HD 
BRANCH   9  12
HETATM   12  C   UNL     1      -9.348  16.834  66.023  1.00  0.00    -0.210 C  
BRANCH  12  13
HETATM   13  N   UNL     1      -9.319  18.111  66.703  1.00  0.00    -0.289 N  
HETATM   14  H   UNL     1     -10.049  18.354  67.373  1.00  0.00     0.000 HD 
HETATM   15  C   UNL     1      -8.296  18.997  66.436  1.00  0.00    -0.307 C  
HETATM   16  O   UNL     1      -7.442  18.798  65.575  1.00  0.00    -0.493 OA 
BRANCH  15  17
HETATM   17  C   UNL     1      -8.286  20.248  67.316  1.00  0.00    -0.343 C  
HETATM   18  N   UNL     1      -7.346  21.257  66.796  1.00  0.00    -0.755 NA 
HETATM   19  H1  UNL     1      -7.339  22.092  67.383  1.00  0.00     0.000 HD 
HETATM   20  H2  UNL     1      -7.544  21.485  65.821  1.00  0.00     0.000 HD 
ENDBRANCH  15  17
ENDBRANCH  12  13
ENDBRANCH   9  12
ENDBRANCH   5   9
BRANCH   6  21
HETATM   21  O   UNL     1      -8.356  13.252  68.257  1.00  0.00    -0.152 OA 
HETATM   22  C   UNL     1      -7.695  12.031  68.576  1.00  0.00    -0.127 C  
ENDBRANCH   6  21
ENDBRANCH   2   3
TORSDOF 6
ENDMDL
MODEL       96
REMARK 921   NORMALIZED FREE ENERGY PREDICTED BY IDOCK:   -4.58 KCAL/MOL
REMARK 922        TOTAL FREE ENERGY PREDICTED BY IDOCK:   -6.69 KCAL/MOL
REMARK 923 INTER-LIGAND FREE ENERGY PREDICTED BY IDOCK:   -6.70 KCAL/MOL
REMARK 924 INTRA-LIGAND FREE ENERGY PREDICTED BY IDOCK:    0.01 KCAL/MOL
REMARK 927      BINDING AFFINITY PREDICTED BY RF-SCORE:    0.00 PKD
ROOT
HETATM    1  C   UNL     1      -9.609  16.547  67.214  1.00  0.00    -0.242 C  
HETATM    2  O   UNL     1     -10.981  16.407  67.576  1.00  0.00    -0.285 OA 
ENDROOT
BRANCH   2   3
HETATM    3  C   UNL     1     -11.309  15.328  68.348  1.00  0.00    -0.329 A  
HETATM    4  C   UNL     1     -11.167  13.992  67.981  1.00  0.00    -0.302 A  
HETATM    5  C   UNL     1     -11.546  12.935  68.840  1.00  0.00    -0.360 A  
HETATM    6  C   UNL     1     -12.067  13.266  70.110  1.00  0.00    -0.333 A  
HETATM    7  C   UNL     1     -12.207  14.611  70.478  1.00  0.00    -0.389 A  
HETATM    8  C   UNL     1     -11.831  15.633  69.601  1.00  0.00    -0.377 A  
BRANCH   5   9
HETATM    9  C   UNL     1     -11.397  11.474  68.405  1.00  0.00    -0.279 C  
HETATM   10  O   UNL     1     -12.625  10.755  68.603  1.00  0.00    -0.669 OA 
HETATM   11  H   UNL     1     -12.533   9.849  68.333  1.00  0.00     0.000 HD 
BRANCH   9  12
HETATM   12  C   UNL     1     -11.024  11.290  66.920  1.00  0.00    -0.290 C  
BRANCH  12  13
HETATM   13  N   UNL     1     -11.767  12.116  65.993  1.00  0.00    -0.373 N  
HETATM   14  H   UNL     1     -12.562  12.666  66.316  1.00  0.00     0.000 HD 
HETATM   15  C   UNL     1     -11.389  12.153  64.667  1.00  0.00    -0.326 C  
HETATM   16  O   UNL     1     -10.497  11.446  64.201  1.00  0.00    -0.306 OA 
BRANCH  15  17
HETATM   17  C   UNL     1     -12.149  13.168  63.812  1.00  0.00    -0.495 C  
HETATM   18  N   UNL     1     -11.546  14.509  63.915  1.00  0.00    -0.565 NA 
HETATM   19  H1  UNL     1     -12.054  15.186  63.344  1.00  0.00     0.000 HD 
HETATM   20  H2  UNL     1     -10.553  14.492  63.683  1.00  0.00     0.000 HD 
ENDBRANCH  15  17
ENDBRANCH  12  13
ENDBRANCH   9  12
ENDBRANCH   5   9
BRANCH   6  21
HETATM   21  O   UNL     1     -12.417  12.212  70.913  1.00  0.00    -0.368 OA 
HETATM   22  C   UNL     1     -13.350  12.462  71.959  1.00  0.00    -0.407 C  
ENDBRANCH   6  21
ENDBRANCH   2   3
TORSDOF 6
ENDMDL
MODEL       97
REMARK 921   NORMALIZED FREE ENERGY PREDICTED BY IDOCK:   -4.56 KCAL/MOL
REMARK 922        TOTAL FREE ENERGY PREDICTED BY IDOCK:   -6.65 KCAL/MOL
REMARK 923 INTER-LIGAND FREE ENERGY PREDICTED BY IDOCK:   -6.07 KCAL/MOL
REMARK 924 INTRA-LIGAND FREE ENERGY PREDICTED BY IDOCK:   -0.59 KCAL/MOL
REMARK 927      BINDING AFFINITY PREDICTED BY RF-SCORE:    0.00 PKD
ROOT
HETATM    1  C   UNL     1     -10.375  18.676  66.359  1.00  0.00    -0.432 C  
HETATM    2  O   UNL     1      -9.564  17.681  65.740  1.00  0.00    -0.524 OA 
ENDROOT
BRANCH   2   3
HETATM    3  C   UNL     1      -9.589  16.431  66.293  1.00  0.00    -0.311 A  
HETATM    4  C   UNL     1     -10.727  15.758  66.732  1.00  0.00    -0.293 A  
HETATM    5  C   UNL     1     -10.660  14.468  67.307  1.00  0.00    -0.280 A  
HETATM    6  C   UNL     1      -9.392  13.855  67.415  1.00  0.00    -0.228 A  
HETATM    7  C   UNL     1      -8.250  14.533  66.971  1.00  0.00    -0.164 A  
HETATM    8  C   UNL     1      -8.349  15.812  66.415  1.00  0.00    -0.267 A  
BRANCH   5   9
HETATM    9  C   UNL     1     -11.924  13.757  67.798  1.00  0.00    -0.356 C  
HETATM   10  O   UNL     1     -12.033  12.449  67.215  1.00  0.00    -0.516 OA 
HETATM   11  H   UNL     1     -12.817  12.008  67.520  1.00  0.00     0.000 HD 
BRANCH   9  12
HETATM   12  C   UNL     1     -11.984  13.555  69.326  1.00  0.00    -0.330 C  
BRANCH  12  13
HETATM   13  N   UNL     1     -12.027  12.176  69.762  1.00  0.00    -0.317 N  
HETATM   14  H   UNL     1     -11.636  11.438  69.177  1.00  0.00     0.000 HD 
HETATM   15  C   UNL     1     -12.603  11.868  70.977  1.00  0.00    -0.283 C  
HETATM   16  O   UNL     1     -13.169  12.700  71.683  1.00  0.00    -0.396 OA 
BRANCH  15  17
HETATM   17  C   UNL     1     -12.462  10.405  71.401  1.00  0.00    -0.415 C  
HETATM   18  N   UNL     1     -13.478  10.042  72.406  1.00  0.00    -0.610 NA 
HETATM   19  H1  UNL     1     -13.383   9.066  72.689  1.00  0.00     0.000 HD 
HETATM   20  H2  UNL     1     -14.421  10.249  72.077  1.00  0.00     0.000 HD 
ENDBRANCH  15  17
ENDBRANCH  12  13
ENDBRANCH   9  12
ENDBRANCH   5   9
BRANCH   6  21
HETATM   21  O   UNL     1      -9.373  12.604  67.973  1.00  0.00    -0.197 OA 
HETATM   22  C   UNL     1      -8.387  11.689  67.503  1.00  0.00    -0.151 C  
ENDBRANCH   6  21
ENDBRANCH   2   3
TORSDOF 6
ENDMDL
MODEL       98
REMARK 921   NORMALIZED FREE ENERGY PREDICTED BY IDOCK:   -4.56 KCAL/MOL
REMARK 922        TOTAL FREE ENERGY PREDICTED BY IDOCK:   -6.65 KCAL/MOL
REMARK 923 INTER-LIGAND FREE ENERGY PREDICTED BY IDOCK:   -6.34 KCAL/MOL
REMARK 924 INTRA-LIGAND FREE ENERGY PREDICTED BY IDOCK:   -0.31 KCAL/MOL
REMARK 927      BINDING AFFINITY PREDICTED BY RF-SCORE:    0.00 PKD
ROOT
HETATM    1  C   UNL     1      -9.397   8.745  68.247  1.00  0.00    -0.137 C  
HETATM    2  O   UNL     1     -10.345   9.793  68.434  1.00  0.00    -0.184 OA 
ENDROOT
BRANCH   2   3
HETATM    3  C   UNL     1     -10.477  10.696  67.415  1.00  0.00    -0.235 A  
HETATM    4  C   UNL     1     -10.874  12.024  67.553  1.00  0.00    -0.284 A  
HETATM    5  C   UNL     1     -10.997  12.888  66.440  1.00  0.00    -0.310 A  
HETATM    6  C   UNL     1     -10.689  12.372  65.163  1.00  0.00    -0.292 A  
HETATM    7  C   UNL     1     -10.288  11.037  65.027  1.00  0.00    -0.360 A  
HETATM    8  C   UNL     1     -10.185  10.206  66.147  1.00  0.00    -0.285 A  
BRANCH   5   9
HETATM    9  C   UNL     1     -11.453  14.339  66.617  1.00  0.00    -0.364 C  
HETATM   10  O   UNL     1     -12.371  14.455  67.716  1.00  0.00    -0.620 OA 
HETATM   11  H   UNL     1     -12.654  15.356  67.826  1.00  0.00     0.000 HD 
BRANCH   9  12
HETATM   12  C   UNL     1     -10.308  15.333  66.905  1.00  0.00    -0.278 C  
BRANCH  12  13
HETATM   13  N   UNL     1     -10.728  16.633  67.379  1.00  0.00    -0.293 N  
HETATM   14  H   UNL     1     -11.501  16.716  68.039  1.00  0.00     0.000 HD 
HETATM   15  C   UNL     1     -10.071  17.761  66.932  1.00  0.00    -0.342 C  
HETATM   16  O   UNL     1      -9.194  17.731  66.071  1.00  0.00    -0.503 OA 
BRANCH  15  17
HETATM   17  C   UNL     1     -10.500  19.063  67.610  1.00  0.00    -0.440 C  
HETATM   18  N   UNL     1     -10.170  19.050  69.046  1.00  0.00    -0.535 NA 
HETATM   19  H1  UNL     1     -10.456  19.919  69.498  1.00  0.00     0.000 HD 
HETATM   20  H2  UNL     1      -9.181  18.853  69.201  1.00  0.00     0.000 HD 
ENDBRANCH  15  17
ENDBRANCH  12  13
ENDBRANCH   9  12
ENDBRANCH   5   9
BRANCH   6  21
HETATM   21  O   UNL     1     -10.817  13.245  64.114  1.00  0.00    -0.396 OA 
HETATM   22  C   UNL     1     -12.012  13.173  63.341  1.00  0.00    -0.483 C  
ENDBRANCH   6  21
ENDBRANCH   2   3
TORSDOF 6
ENDMDL
MODEL       99
REMARK 921   NORMALIZED FREE ENERGY PREDICTED BY IDOCK:   -4.54 KCAL/MOL
REMARK 922        TOTAL FREE ENERGY PREDICTED BY IDOCK:   -6.63 KCAL/MOL
REMARK 923 INTER-LIGAND FREE ENERGY PREDICTED BY IDOCK:   -6.04 KCAL/MOL
REMARK 924 INTRA-LIGAND FREE ENERGY PREDICTED BY IDOCK:   -0.59 KCAL/MOL
REMARK 927      BINDING AFFINITY PREDICTED BY RF-SCORE:    0.00 PKD
ROOT
HETATM    1  C   UNL     1      -6.343  15.507  69.648  1.00  0.00    -0.163 C  
HETATM    2  O   UNL     1      -6.491  14.978  68.334  1.00  0.00    -0.093 OA 
ENDROOT
BRANCH   2   3
HETATM    3  C   UNL     1      -7.729  15.079  67.762  1.00  0.00    -0.153 A  
HETATM    4  C   UNL     1      -8.856  14.347  68.128  1.00  0.00    -0.180 A  
HETATM    5  C   UNL     1     -10.098  14.506  67.471  1.00  0.00    -0.228 A  
HETATM    6  C   UNL     1     -10.181  15.453  66.428  1.00  0.00    -0.286 A  
HETATM    7  C   UNL     1      -9.047  16.191  66.064  1.00  0.00    -0.354 A  
HETATM    8  C   UNL     1      -7.830  16.003  66.726  1.00  0.00    -0.288 A  
BRANCH   5   9
HETATM    9  C   UNL     1     -11.318  13.675  67.881  1.00  0.00    -0.295 C  
HETATM   10  O   UNL     1     -12.536  14.381  67.592  1.00  0.00    -0.596 OA 
HETATM   11  H   UNL     1     -13.292  13.865  67.845  1.00  0.00     0.000 HD 
BRANCH   9  12
HETATM   12  C   UNL     1     -11.427  12.315  67.161  1.00  0.00    -0.352 C  
BRANCH  12  13
HETATM   13  N   UNL     1     -10.949  12.301  65.796  1.00  0.00    -0.290 N  
HETATM   14  H   UNL     1      -9.953  12.211  65.601  1.00  0.00     0.000 HD 
HETATM   15  C   UNL     1     -11.854  12.410  64.761  1.00  0.00    -0.382 C  
HETATM   16  O   UNL     1     -13.055  12.610  64.936  1.00  0.00    -0.850 OA 
BRANCH  15  17
HETATM   17  C   UNL     1     -11.255  12.236  63.365  1.00  0.00    -0.420 C  
HETATM   18  N   UNL     1      -9.785  12.149  63.423  1.00  0.00    -0.645 NA 
HETATM   19  H1  UNL     1      -9.385  12.033  62.491  1.00  0.00     0.000 HD 
HETATM   20  H2  UNL     1      -9.478  11.412  64.058  1.00  0.00     0.000 HD 
ENDBRANCH  15  17
ENDBRANCH  12  13
ENDBRANCH   9  12
ENDBRANCH   5   9
BRANCH   6  21
HETATM   21  O   UNL     1     -11.404  15.580  65.823  1.00  0.00    -0.199 OA 
HETATM   22  C   UNL     1     -11.422  15.816  64.418  1.00  0.00    -0.263 C  
ENDBRANCH   6  21
ENDBRANCH   2   3
TORSDOF 6
ENDMDL
MODEL      100
REMARK 921   NORMALIZED FREE ENERGY PREDICTED BY IDOCK:   -4.53 KCAL/MOL
REMARK 922        TOTAL FREE ENERGY PREDICTED BY IDOCK:   -6.62 KCAL/MOL
REMARK 923 INTER-LIGAND FREE ENERGY PREDICTED BY IDOCK:   -6.07 KCAL/MOL
REMARK 924 INTRA-LIGAND FREE ENERGY PREDICTED BY IDOCK:   -0.54 KCAL/MOL
REMARK 927      BINDING AFFINITY PREDICTED BY RF-SCORE:    0.00 PKD
ROOT
HETATM    1  C   UNL     1     -10.062  15.493  66.313  1.00  0.00    -0.295 C  
HETATM    2  O   UNL     1     -10.964  16.017  67.284  1.00  0.00    -0.300 OA 
ENDROOT
BRANCH   2   3
HETATM    3  C   UNL     1     -11.357  15.170  68.283  1.00  0.00    -0.327 A  
HETATM    4  C   UNL     1     -11.166  13.791  68.302  1.00  0.00    -0.301 A  
HETATM    5  C   UNL     1     -11.619  12.987  69.374  1.00  0.00    -0.360 A  
HETATM    6  C   UNL     1     -12.267  13.624  70.454  1.00  0.00    -0.363 A  
HETATM    7  C   UNL     1     -12.455  15.012  70.434  1.00  0.00    -0.407 A  
HETATM    8  C   UNL     1     -12.005  15.778  69.355  1.00  0.00    -0.321 A  
BRANCH   5   9
HETATM    9  C   UNL     1     -11.412  11.469  69.362  1.00  0.00    -0.309 C  
HETATM   10  O   UNL     1     -12.411  10.825  68.554  1.00  0.00    -0.825 OA 
HETATM   11  H   UNL     1     -12.283   9.884  68.546  1.00  0.00     0.000 HD 
BRANCH   9  12
HETATM   12  C   UNL     1     -10.047  11.020  68.800  1.00  0.00    -0.203 C  
BRANCH  12  13
HETATM   13  N   UNL     1     -10.077  10.512  67.446  1.00  0.00    -0.188 N  
HETATM   14  H   UNL     1     -10.711   9.754  67.194  1.00  0.00     0.000 HD 
HETATM   15  C   UNL     1      -9.240  11.062  66.498  1.00  0.00    -0.171 C  
HETATM   16  O   UNL     1      -8.393  11.914  66.762  1.00  0.00    -0.178 OA 
BRANCH  15  17
HETATM   17  C   UNL     1      -9.460  10.551  65.074  1.00  0.00    -0.244 C  
HETATM   18  N   UNL     1      -9.690   9.095  65.060  1.00  0.00    -0.367 NA 
HETATM   19  H1  UNL     1      -9.836   8.754  64.110  1.00  0.00     0.000 HD 
HETATM   20  H2  UNL     1     -10.458   8.831  65.677  1.00  0.00     0.000 HD 
ENDBRANCH  15  17
ENDBRANCH  12  13
ENDBRANCH   9  12
ENDBRANCH   5   9
BRANCH   6  21
HETATM   21  O   UNL     1     -12.684  12.808  71.473  1.00  0.00    -0.321 OA 
HETATM   22  C   UNL     1     -13.648  13.332  72.382  1.00  0.00    -0.594 C  
ENDBRANCH   6  21
ENDBRANCH   2   3
TORSDOF 6
ENDMDL
MODEL      101
REMARK 921   NORMALIZED FREE ENERGY PREDICTED BY IDOCK:   -4.51 KCAL/MOL
REMARK 922        TOTAL FREE ENERGY PREDICTED BY IDOCK:   -6.59 KCAL/MOL
REMARK 923 INTER-LIGAND FREE ENERGY PREDICTED BY IDOCK:   -5.95 KCAL/MOL
REMARK 924 INTRA-LIGAND FREE ENERGY PREDICTED BY IDOCK:   -0.64 KCAL/MOL
REMARK 927      BINDING AFFINITY PREDICTED BY RF-SCORE:    0.00 PKD
ROOT
HETATM    1  C   UNL     1     -10.043  17.708  68.523  1.00  0.00    -0.375 C  
HETATM    2  O   UNL     1     -10.494  16.605  69.305  1.00  0.00    -0.300 OA 
ENDROOT
BRANCH   2   3
HETATM    3  C   UNL     1     -10.860  15.475  68.627  1.00  0.00    -0.267 A  
HETATM    4  C   UNL     1     -11.001  14.204  69.180  1.00  0.00    -0.280 A  
HETATM    5  C   UNL     1     -11.372  13.085  68.400  1.00  0.00    -0.326 A  
HETATM    6  C   UNL     1     -11.618  13.287  67.025  1.00  0.00    -0.359 A  
HETATM    7  C   UNL     1     -11.479  14.566  66.471  1.00  0.00    -0.366 A  
HETATM    8  C   UNL     1     -11.101  15.651  67.268  1.00  0.00    -0.238 A  
BRANCH   5   9
HETATM    9  C   UNL     1     -11.501  11.695  69.029  1.00  0.00    -0.294 C  
HETATM   10  O   UNL     1     -12.534  10.936  68.380  1.00  0.00    -0.659 OA 
HETATM   11  H   UNL     1     -12.615  10.073  68.770  1.00  0.00     0.000 HD 
BRANCH   9  12
HETATM   12  C   UNL     1     -10.220  10.839  68.944  1.00  0.00    -0.203 C  
BRANCH  12  13
HETATM   13  N   UNL     1      -9.703  10.638  67.608  1.00  0.00    -0.164 N  
HETATM   14  H   UNL     1      -9.183  11.380  67.140  1.00  0.00     0.000 HD 
HETATM   15  C   UNL     1      -9.920   9.433  66.973  1.00  0.00    -0.221 C  
HETATM   16  O   UNL     1     -10.614   8.537  67.449  1.00  0.00    -0.277 OA 
BRANCH  15  17
HETATM   17  C   UNL     1      -9.206   9.279  65.629  1.00  0.00    -0.231 C  
HETATM   18  N   UNL     1      -9.120   7.862  65.231  1.00  0.00    -0.372 NA 
HETATM   19  H1  UNL     1      -8.643   7.760  64.334  1.00  0.00     0.000 HD 
HETATM   20  H2  UNL     1     -10.039   7.420  65.220  1.00  0.00     0.000 HD 
ENDBRANCH  15  17
ENDBRANCH  12  13
ENDBRANCH   9  12
ENDBRANCH   5   9
BRANCH   6  21
HETATM   21  O   UNL     1     -11.980  12.177  66.307  1.00  0.00    -0.605 OA 
HETATM   22  C   UNL     1     -12.226  12.345  64.914  1.00  0.00    -0.418 C  
ENDBRANCH   6  21
ENDBRANCH   2   3
TORSDOF 6
ENDMDL
MODEL      102
REMARK 921   NORMALIZED FREE ENERGY PREDICTED BY IDOCK:   -4.51 KCAL/MOL
REMARK 922        TOTAL FREE ENERGY PREDICTED BY IDOCK:   -6.59 KCAL/MOL
REMARK 923 INTER-LIGAND FREE ENERGY PREDICTED BY IDOCK:   -5.80 KCAL/MOL
REMARK 924 INTRA-LIGAND FREE ENERGY PREDICTED BY IDOCK:   -0.79 KCAL/MOL
REMARK 927      BINDING AFFINITY PREDICTED BY RF-SCORE:    0.00 PKD
ROOT
HETATM    1  C   UNL     1     -14.138  15.203  72.079  1.00  0.00    -0.559 C  
HETATM    2  O   UNL     1     -12.832  15.545  71.623  1.00  0.00    -0.384 OA 
ENDROOT
BRANCH   2   3
HETATM    3  C   UNL     1     -12.356  14.860  70.540  1.00  0.00    -0.342 A  
HETATM    4  C   UNL     1     -12.186  13.479  70.462  1.00  0.00    -0.433 A  
HETATM    5  C   UNL     1     -11.672  12.853  69.303  1.00  0.00    -0.378 A  
HETATM    6  C   UNL     1     -11.344  13.668  68.198  1.00  0.00    -0.288 A  
HETATM    7  C   UNL     1     -11.518  15.055  68.279  1.00  0.00    -0.349 A  
HETATM    8  C   UNL     1     -12.019  15.645  69.442  1.00  0.00    -0.349 A  
BRANCH   5   9
HETATM    9  C   UNL     1     -11.477  11.334  69.249  1.00  0.00    -0.301 C  
HETATM   10  O   UNL     1     -12.109  10.780  68.084  1.00  0.00    -0.802 OA 
HETATM   11  H   UNL     1     -11.988   9.839  68.050  1.00  0.00     0.000 HD 
BRANCH   9  12
HETATM   12  C   UNL     1     -10.002  10.887  69.194  1.00  0.00    -0.161 C  
BRANCH  12  13
HETATM   13  N   UNL     1      -9.602  10.240  67.963  1.00  0.00    -0.145 N  
HETATM   14  H   UNL     1     -10.152   9.471  67.583  1.00  0.00     0.000 HD 
HETATM   15  C   UNL     1      -8.469  10.675  67.308  1.00  0.00    -0.126 C  
HETATM   16  O   UNL     1      -7.717  11.536  67.762  1.00  0.00    -0.113 OA 
BRANCH  15  17
HETATM   17  C   UNL     1      -8.224  10.021  65.947  1.00  0.00    -0.128 C  
HETATM   18  N   UNL     1      -8.481  10.968  64.847  1.00  0.00    -0.377 NA 
HETATM   19  H1  UNL     1      -8.318  10.532  63.939  1.00  0.00     0.000 HD 
HETATM   20  H2  UNL     1      -7.938  11.825  64.955  1.00  0.00     0.000 HD 
ENDBRANCH  15  17
ENDBRANCH  12  13
ENDBRANCH   9  12
ENDBRANCH   5   9
BRANCH   6  21
HETATM   21  O   UNL     1     -10.855  13.019  67.094  1.00  0.00    -0.255 OA 
HETATM   22  C   UNL     1     -10.308  13.819  66.050  1.00  0.00    -0.308 C  
ENDBRANCH   6  21
ENDBRANCH   2   3
TORSDOF 6
ENDMDL
MODEL      103
REMARK 921   NORMALIZED FREE ENERGY PREDICTED BY IDOCK:   -4.50 KCAL/MOL
REMARK 922        TOTAL FREE ENERGY PREDICTED BY IDOCK:   -6.57 KCAL/MOL
REMARK 923 INTER-LIGAND FREE ENERGY PREDICTED BY IDOCK:   -6.16 KCAL/MOL
REMARK 924 INTRA-LIGAND FREE ENERGY PREDICTED BY IDOCK:   -0.41 KCAL/MOL
REMARK 927      BINDING AFFINITY PREDICTED BY RF-SCORE:    0.00 PKD
ROOT
HETATM    1  C   UNL     1     -10.941  11.788  66.186  1.00  0.00    -0.307 C  
HETATM    2  O   UNL     1     -10.303  12.340  67.334  1.00  0.00    -0.205 OA 
ENDROOT
BRANCH   2   3
HETATM    3  C   UNL     1     -11.027  12.361  68.494  1.00  0.00    -0.245 A  
HETATM    4  C   UNL     1     -11.318  11.257  69.292  1.00  0.00    -0.354 A  
HETATM    5  C   UNL     1     -12.088  11.369  70.472  1.00  0.00    -0.487 A  
HETATM    6  C   UNL     1     -12.553  12.649  70.843  1.00  0.00    -0.249 A  
HETATM    7  C   UNL     1     -12.257  13.758  70.040  1.00  0.00    -0.407 A  
HETATM    8  C   UNL     1     -11.500  13.613  68.873  1.00  0.00    -0.344 A  
BRANCH   5   9
HETATM    9  C   UNL     1     -12.410  10.136  71.322  1.00  0.00    -0.400 C  
HETATM   10  O   UNL     1     -13.248   9.221  70.597  1.00  0.00    -0.515 OA 
HETATM   11  H   UNL     1     -13.447   8.456  71.124  1.00  0.00     0.000 HD 
BRANCH   9  12
HETATM   12  C   UNL     1     -11.171   9.329  71.762  1.00  0.00    -0.343 C  
BRANCH  12  13
HETATM   13  N   UNL     1     -11.169   7.939  71.363  1.00  0.00    -0.243 N  
HETATM   14  H   UNL     1     -11.281   7.684  70.382  1.00  0.00     0.000 HD 
HETATM   15  C   UNL     1     -11.014   6.960  72.323  1.00  0.00    -0.242 C  
HETATM   16  O   UNL     1     -10.965   7.200  73.527  1.00  0.00    -0.328 OA 
BRANCH  15  17
HETATM   17  C   UNL     1     -10.881   5.539  71.773  1.00  0.00    -0.211 C  
HETATM   18  N   UNL     1     -10.741   4.557  72.863  1.00  0.00    -0.208 NA 
HETATM   19  H1  UNL     1     -10.652   3.609  72.496  1.00  0.00     0.000 HD 
HETATM   20  H2  UNL     1     -11.506   4.630  73.533  1.00  0.00     0.000 HD 
ENDBRANCH  15  17
ENDBRANCH  12  13
ENDBRANCH   9  12
ENDBRANCH   5   9
BRANCH   6  21
HETATM   21  O   UNL     1     -13.291  12.713  71.996  1.00  0.00    -0.502 OA 
HETATM   22  C   UNL     1     -13.759  13.993  72.408  1.00  0.00    -0.568 C  
ENDBRANCH   6  21
ENDBRANCH   2   3
TORSDOF 6
ENDMDL
MODEL      104
REMARK 921   NORMALIZED FREE ENERGY PREDICTED BY IDOCK:   -4.50 KCAL/MOL
REMARK 922        TOTAL FREE ENERGY PREDICTED BY IDOCK:   -6.57 KCAL/MOL
REMARK 923 INTER-LIGAND FREE ENERGY PREDICTED BY IDOCK:   -5.85 KCAL/MOL
REMARK 924 INTRA-LIGAND FREE ENERGY PREDICTED BY IDOCK:   -0.72 KCAL/MOL
REMARK 927      BINDING AFFINITY PREDICTED BY RF-SCORE:    0.00 PKD
ROOT
HETATM    1  C   UNL     1     -13.461  15.831  73.199  1.00  0.00    -0.561 C  
HETATM    2  O   UNL     1     -13.843  15.591  71.847  1.00  0.00    -0.476 OA 
ENDROOT
BRANCH   2   3
HETATM    3  C   UNL     1     -13.072  14.717  71.132  1.00  0.00    -0.366 A  
HETATM    4  C   UNL     1     -12.172  15.061  70.126  1.00  0.00    -0.392 A  
HETATM    5  C   UNL     1     -11.423  14.088  69.426  1.00  0.00    -0.343 A  
HETATM    6  C   UNL     1     -11.595  12.733  69.785  1.00  0.00    -0.218 A  
HETATM    7  C   UNL     1     -12.499  12.390  70.799  1.00  0.00    -0.356 A  
HETATM    8  C   UNL     1     -13.232  13.375  71.466  1.00  0.00    -0.395 A  
BRANCH   5   9
HETATM    9  C   UNL     1     -10.453  14.491  68.312  1.00  0.00    -0.242 C  
HETATM   10  O   UNL     1      -9.162  13.896  68.518  1.00  0.00    -0.215 OA 
HETATM   11  H   UNL     1      -8.561  14.146  67.827  1.00  0.00     0.000 HD 
BRANCH   9  12
HETATM   12  C   UNL     1     -10.902  14.067  66.898  1.00  0.00    -0.290 C  
BRANCH  12  13
HETATM   13  N   UNL     1     -10.067  13.074  66.260  1.00  0.00    -0.277 N  
HETATM   14  H   UNL     1      -9.051  13.131  66.332  1.00  0.00     0.000 HD 
HETATM   15  C   UNL     1     -10.656  12.047  65.553  1.00  0.00    -0.273 C  
HETATM   16  O   UNL     1     -11.868  11.975  65.355  1.00  0.00    -0.338 OA 
BRANCH  15  17
HETATM   17  C   UNL     1      -9.687  10.977  65.047  1.00  0.00    -0.254 C  
HETATM   18  N   UNL     1      -8.316  11.232  65.526  1.00  0.00    -0.373 NA 
HETATM   19  H1  UNL     1      -7.670  10.518  65.188  1.00  0.00     0.000 HD 
HETATM   20  H2  UNL     1      -8.284  11.317  66.542  1.00  0.00     0.000 HD 
ENDBRANCH  15  17
ENDBRANCH  12  13
ENDBRANCH   9  12
ENDBRANCH   5   9
BRANCH   6  21
HETATM   21  O   UNL     1     -10.845  11.824  69.086  1.00  0.00    -0.224 OA 
HETATM   22  C   UNL     1     -10.815  10.485  69.571  1.00  0.00    -0.256 C  
ENDBRANCH   6  21
ENDBRANCH   2   3
TORSDOF 6
ENDMDL
MODEL      105
REMARK 921   NORMALIZED FREE ENERGY PREDICTED BY IDOCK:   -4.48 KCAL/MOL
REMARK 922        TOTAL FREE ENERGY PREDICTED BY IDOCK:   -6.55 KCAL/MOL
REMARK 923 INTER-LIGAND FREE ENERGY PREDICTED BY IDOCK:   -6.16 KCAL/MOL
REMARK 924 INTRA-LIGAND FREE ENERGY PREDICTED BY IDOCK:   -0.38 KCAL/MOL
REMARK 927      BINDING AFFINITY PREDICTED BY RF-SCORE:    0.00 PKD
ROOT
HETATM    1  C   UNL     1      -9.369   5.671  66.611  1.00  0.00    -0.144 C  
HETATM    2  O   UNL     1     -10.296   6.748  66.722  1.00  0.00    -0.230 OA 
ENDROOT
BRANCH   2   3
HETATM    3  C   UNL     1     -10.625   7.153  67.986  1.00  0.00    -0.196 A  
HETATM    4  C   UNL     1     -10.562   8.461  68.463  1.00  0.00    -0.149 A  
HETATM    5  C   UNL     1     -10.909   8.790  69.793  1.00  0.00    -0.196 A  
HETATM    6  C   UNL     1     -11.344   7.749  70.643  1.00  0.00    -0.264 A  
HETATM    7  C   UNL     1     -11.409   6.436  70.160  1.00  0.00    -0.485 A  
HETATM    8  C   UNL     1     -11.050   6.141  68.842  1.00  0.00    -0.417 A  
BRANCH   5   9
HETATM    9  C   UNL     1     -10.814  10.233  70.298  1.00  0.00    -0.286 C  
HETATM   10  O   UNL     1      -9.771  10.945  69.612  1.00  0.00    -0.428 OA 
HETATM   11  H   UNL     1      -9.712  11.840  69.924  1.00  0.00     0.000 HD 
BRANCH   9  12
HETATM   12  C   UNL     1     -12.102  11.059  70.102  1.00  0.00    -0.356 C  
BRANCH  12  13
HETATM   13  N   UNL     1     -11.969  12.475  70.362  1.00  0.00    -0.519 N  
HETATM   14  H   UNL     1     -11.326  13.042  69.809  1.00  0.00     0.000 HD 
HETATM   15  C   UNL     1     -12.721  13.053  71.364  1.00  0.00    -0.281 C  
HETATM   16  O   UNL     1     -13.444  12.407  72.120  1.00  0.00    -0.525 OA 
BRANCH  15  17
HETATM   17  C   UNL     1     -12.609  14.576  71.452  1.00  0.00    -0.341 C  
HETATM   18  N   UNL     1     -13.146  15.220  70.240  1.00  0.00    -0.678 NA 
HETATM   19  H1  UNL     1     -13.071  16.236  70.299  1.00  0.00     0.000 HD 
HETATM   20  H2  UNL     1     -14.103  14.924  70.050  1.00  0.00     0.000 HD 
ENDBRANCH  15  17
ENDBRANCH  12  13
ENDBRANCH   9  12
ENDBRANCH   5   9
BRANCH   6  21
HETATM   21  O   UNL     1     -11.675   8.114  71.922  1.00  0.00    -0.275 OA 
HETATM   22  C   UNL     1     -10.944   7.513  72.987  1.00  0.00    -0.390 C  
ENDBRANCH   6  21
ENDBRANCH   2   3
TORSDOF 6
ENDMDL
MODEL      106
REMARK 921   NORMALIZED FREE ENERGY PREDICTED BY IDOCK:   -4.46 KCAL/MOL
REMARK 922        TOTAL FREE ENERGY PREDICTED BY IDOCK:   -6.52 KCAL/MOL
REMARK 923 INTER-LIGAND FREE ENERGY PREDICTED BY IDOCK:   -5.89 KCAL/MOL
REMARK 924 INTRA-LIGAND FREE ENERGY PREDICTED BY IDOCK:   -0.64 KCAL/MOL
REMARK 927      BINDING AFFINITY PREDICTED BY RF-SCORE:    0.00 PKD
ROOT
HETATM    1  C   UNL     1     -13.130  15.663  72.866  1.00  0.00    -0.520 C  
HETATM    2  O   UNL     1     -13.309  15.837  71.463  1.00  0.00    -0.484 OA 
ENDROOT
BRANCH   2   3
HETATM    3  C   UNL     1     -12.650  14.964  70.642  1.00  0.00    -0.363 A  
HETATM    4  C   UNL     1     -11.982  15.300  69.467  1.00  0.00    -0.356 A  
HETATM    5  C   UNL     1     -11.336  14.328  68.669  1.00  0.00    -0.302 A  
HETATM    6  C   UNL     1     -11.367  12.985  69.104  1.00  0.00    -0.273 A  
HETATM    7  C   UNL     1     -12.038  12.651  70.287  1.00  0.00    -0.372 A  
HETATM    8  C   UNL     1     -12.675  13.634  71.049  1.00  0.00    -0.408 A  
BRANCH   5   9
HETATM    9  C   UNL     1     -10.624  14.721  67.371  1.00  0.00    -0.268 C  
HETATM   10  O   UNL     1     -11.111  13.942  66.266  1.00  0.00    -0.300 OA 
HETATM   11  H   UNL     1     -10.670  14.186  65.461  1.00  0.00     0.000 HD 
BRANCH   9  12
HETATM   12  C   UNL     1     -10.808  16.199  66.970  1.00  0.00    -0.194 C  
BRANCH  12  13
HETATM   13  N   UNL     1      -9.581  16.939  66.772  1.00  0.00    -0.251 N  
HETATM   14  H   UNL     1      -8.826  16.544  66.211  1.00  0.00     0.000 HD 
HETATM   15  C   UNL     1      -9.441  18.185  67.347  1.00  0.00    -0.255 C  
HETATM   16  O   UNL     1     -10.277  18.674  68.104  1.00  0.00    -0.357 OA 
BRANCH  15  17
HETATM   17  C   UNL     1      -8.168  18.936  66.951  1.00  0.00    -0.268 C  
HETATM   18  N   UNL     1      -8.480  20.108  66.113  1.00  0.00    -0.548 NA 
HETATM   19  H1  UNL     1      -7.631  20.608  65.849  1.00  0.00     0.000 HD 
HETATM   20  H2  UNL     1      -9.154  20.725  66.568  1.00  0.00     0.000 HD 
ENDBRANCH  15  17
ENDBRANCH  12  13
ENDBRANCH   9  12
ENDBRANCH   5   9
BRANCH   6  21
HETATM   21  O   UNL     1     -10.724  12.077  68.304  1.00  0.00    -0.207 OA 
HETATM   22  C   UNL     1      -9.792  11.198  68.925  1.00  0.00    -0.162 C  
ENDBRANCH   6  21
ENDBRANCH   2   3
TORSDOF 6
ENDMDL
MODEL      107
REMARK 921   NORMALIZED FREE ENERGY PREDICTED BY IDOCK:   -4.46 KCAL/MOL
REMARK 922        TOTAL FREE ENERGY PREDICTED BY IDOCK:   -6.52 KCAL/MOL
REMARK 923 INTER-LIGAND FREE ENERGY PREDICTED BY IDOCK:   -5.97 KCAL/MOL
REMARK 924 INTRA-LIGAND FREE ENERGY PREDICTED BY IDOCK:   -0.55 KCAL/MOL
REMARK 927      BINDING AFFINITY PREDICTED BY RF-SCORE:    0.00 PKD
ROOT
HETATM    1  C   UNL     1      -5.979  13.410  67.912  1.00  0.00    -0.140 C  
HETATM    2  O   UNL     1      -6.012  14.820  68.118  1.00  0.00    -0.118 OA 
ENDROOT
BRANCH   2   3
HETATM    3  C   UNL     1      -7.097  15.491  67.627  1.00  0.00    -0.174 A  
HETATM    4  C   UNL     1      -8.428  15.231  67.947  1.00  0.00    -0.151 A  
HETATM    5  C   UNL     1      -9.492  15.969  67.380  1.00  0.00    -0.220 A  
HETATM    6  C   UNL     1      -9.174  17.006  66.477  1.00  0.00    -0.271 A  
HETATM    7  C   UNL     1      -7.835  17.267  66.158  1.00  0.00    -0.305 A  
HETATM    8  C   UNL     1      -6.805  16.513  66.729  1.00  0.00    -0.225 A  
BRANCH   5   9
HETATM    9  C   UNL     1     -10.948  15.651  67.735  1.00  0.00    -0.316 C  
HETATM   10  O   UNL     1     -11.595  14.953  66.658  1.00  0.00    -0.342 OA 
HETATM   11  H   UNL     1     -12.497  14.756  66.878  1.00  0.00     0.000 HD 
BRANCH   9  12
HETATM   12  C   UNL     1     -11.116  14.764  68.986  1.00  0.00    -0.256 C  
BRANCH  12  13
HETATM   13  N   UNL     1     -12.394  14.877  69.653  1.00  0.00    -0.527 N  
HETATM   14  H   UNL     1     -13.255  14.645  69.159  1.00  0.00     0.000 HD 
HETATM   15  C   UNL     1     -12.437  15.303  70.965  1.00  0.00    -0.384 C  
HETATM   16  O   UNL     1     -11.444  15.682  71.582  1.00  0.00    -0.387 OA 
BRANCH  15  17
HETATM   17  C   UNL     1     -13.822  15.244  71.612  1.00  0.00    -0.519 C  
HETATM   18  N   UNL     1     -13.888  14.182  72.632  1.00  0.00    -0.653 NA 
HETATM   19  H1  UNL     1     -14.812  14.144  73.064  1.00  0.00     0.000 HD 
HETATM   20  H2  UNL     1     -13.151  14.287  73.330  1.00  0.00     0.000 HD 
ENDBRANCH  15  17
ENDBRANCH  12  13
ENDBRANCH   9  12
ENDBRANCH   5   9
BRANCH   6  21
HETATM   21  O   UNL     1     -10.235  17.699  65.955  1.00  0.00    -0.517 OA 
HETATM   22  C   UNL     1     -10.329  19.087  66.262  1.00  0.00    -0.459 C  
ENDBRANCH   6  21
ENDBRANCH   2   3
TORSDOF 6
ENDMDL
MODEL      108
REMARK 921   NORMALIZED FREE ENERGY PREDICTED BY IDOCK:   -4.46 KCAL/MOL
REMARK 922        TOTAL FREE ENERGY PREDICTED BY IDOCK:   -6.52 KCAL/MOL
REMARK 923 INTER-LIGAND FREE ENERGY PREDICTED BY IDOCK:   -6.07 KCAL/MOL
REMARK 924 INTRA-LIGAND FREE ENERGY PREDICTED BY IDOCK:   -0.45 KCAL/MOL
REMARK 927      BINDING AFFINITY PREDICTED BY RF-SCORE:    0.00 PKD
ROOT
HETATM    1  C   UNL     1      -6.078  14.529  67.709  1.00  0.00    -0.117 C  
HETATM    2  O   UNL     1      -6.994  13.634  68.335  1.00  0.00    -0.086 OA 
ENDROOT
BRANCH   2   3
HETATM    3  C   UNL     1      -8.255  14.106  68.572  1.00  0.00    -0.146 A  
HETATM    4  C   UNL     1      -9.436  13.553  68.081  1.00  0.00    -0.214 A  
HETATM    5  C   UNL     1     -10.702  14.116  68.366  1.00  0.00    -0.264 A  
HETATM    6  C   UNL     1     -10.748  15.263  69.188  1.00  0.00    -0.251 A  
HETATM    7  C   UNL     1      -9.559  15.816  69.682  1.00  0.00    -0.233 A  
HETATM    8  C   UNL     1      -8.323  15.241  69.374  1.00  0.00    -0.232 A  
BRANCH   5   9
HETATM    9  C   UNL     1     -11.984  13.499  67.799  1.00  0.00    -0.334 C  
HETATM   10  O   UNL     1     -12.646  14.421  66.918  1.00  0.00    -0.540 OA 
HETATM   11  H   UNL     1     -13.441  14.039  66.566  1.00  0.00     0.000 HD 
BRANCH   9  12
HETATM   12  C   UNL     1     -11.759  12.209  66.984  1.00  0.00    -0.303 C  
BRANCH  12  13
HETATM   13  N   UNL     1     -11.236  12.408  65.650  1.00  0.00    -0.309 N  
HETATM   14  H   UNL     1     -10.232  12.504  65.500  1.00  0.00     0.000 HD 
HETATM   15  C   UNL     1     -12.108  12.467  64.583  1.00  0.00    -0.428 C  
HETATM   16  O   UNL     1     -13.330  12.448  64.711  1.00  0.00    -0.718 OA 
BRANCH  15  17
HETATM   17  C   UNL     1     -11.437  12.532  63.210  1.00  0.00    -0.341 C  
HETATM   18  N   UNL     1     -10.542  11.380  62.999  1.00  0.00    -0.727 NA 
HETATM   19  H1  UNL     1     -10.094  11.424  62.083  1.00  0.00     0.000 HD 
HETATM   20  H2  UNL     1     -11.031  10.496  63.136  1.00  0.00     0.000 HD 
ENDBRANCH  15  17
ENDBRANCH  12  13
ENDBRANCH   9  12
ENDBRANCH   5   9
BRANCH   6  21
HETATM   21  O   UNL     1     -11.994  15.772  69.443  1.00  0.00    -0.370 OA 
HETATM   22  C   UNL     1     -12.570  15.495  70.716  1.00  0.00    -0.452 C  
ENDBRANCH   6  21
ENDBRANCH   2   3
TORSDOF 6
ENDMDL
MODEL      109
REMARK 921   NORMALIZED FREE ENERGY PREDICTED BY IDOCK:   -4.45 KCAL/MOL
REMARK 922        TOTAL FREE ENERGY PREDICTED BY IDOCK:   -6.51 KCAL/MOL
REMARK 923 INTER-LIGAND FREE ENERGY PREDICTED BY IDOCK:   -5.91 KCAL/MOL
REMARK 924 INTRA-LIGAND FREE ENERGY PREDICTED BY IDOCK:   -0.60 KCAL/MOL
REMARK 927      BINDING AFFINITY PREDICTED BY RF-SCORE:    0.00 PKD
ROOT
HETATM    1  C   UNL     1     -12.843  11.946  63.576  1.00  0.00    -0.305 C  
HETATM    2  O   UNL     1     -13.040  12.713  64.761  1.00  0.00    -0.852 OA 
ENDROOT
BRANCH   2   3
HETATM    3  C   UNL     1     -11.918  13.107  65.435  1.00  0.00    -0.406 A  
HETATM    4  C   UNL     1     -11.530  14.425  65.668  1.00  0.00    -0.336 A  
HETATM    5  C   UNL     1     -10.342  14.743  66.366  1.00  0.00    -0.297 A  
HETATM    6  C   UNL     1      -9.550  13.679  66.848  1.00  0.00    -0.262 A  
HETATM    7  C   UNL     1      -9.944  12.355  66.615  1.00  0.00    -0.236 A  
HETATM    8  C   UNL     1     -11.119  12.073  65.912  1.00  0.00    -0.369 A  
BRANCH   5   9
HETATM    9  C   UNL     1      -9.929  16.200  66.593  1.00  0.00    -0.260 C  
HETATM   10  O   UNL     1     -10.128  16.978  65.401  1.00  0.00    -0.581 OA 
HETATM   11  H   UNL     1      -9.872  17.882  65.541  1.00  0.00     0.000 HD 
BRANCH   9  12
HETATM   12  C   UNL     1     -10.714  16.916  67.711  1.00  0.00    -0.315 C  
BRANCH  12  13
HETATM   13  N   UNL     1     -10.505  16.390  69.042  1.00  0.00    -0.267 N  
HETATM   14  H   UNL     1      -9.595  16.478  69.494  1.00  0.00     0.000 HD 
HETATM   15  C   UNL     1     -11.549  15.769  69.696  1.00  0.00    -0.358 C  
HETATM   16  O   UNL     1     -12.640  15.554  69.171  1.00  0.00    -0.013 OA 
BRANCH  15  17
HETATM   17  C   UNL     1     -11.258  15.384  71.148  1.00  0.00    -0.361 C  
HETATM   18  N   UNL     1     -12.025  14.190  71.546  1.00  0.00    -0.382 NA 
HETATM   19  H1  UNL     1     -11.830  13.934  72.515  1.00  0.00     0.000 HD 
HETATM   20  H2  UNL     1     -11.859  13.410  70.911  1.00  0.00     0.000 HD 
ENDBRANCH  15  17
ENDBRANCH  12  13
ENDBRANCH   9  12
ENDBRANCH   5   9
BRANCH   6  21
HETATM   21  O   UNL     1      -8.411  14.032  67.523  1.00  0.00    -0.170 OA 
HETATM   22  C   UNL     1      -7.566  12.982  67.982  1.00  0.00    -0.139 C  
ENDBRANCH   6  21
ENDBRANCH   2   3
TORSDOF 6
ENDMDL
MODEL      110
REMARK 921   NORMALIZED FREE ENERGY PREDICTED BY IDOCK:   -4.42 KCAL/MOL
REMARK 922        TOTAL FREE ENERGY PREDICTED BY IDOCK:   -6.47 KCAL/MOL
REMARK 923 INTER-LIGAND FREE ENERGY PREDICTED BY IDOCK:   -6.07 KCAL/MOL
REMARK 924 INTRA-LIGAND FREE ENERGY PREDICTED BY IDOCK:   -0.40 KCAL/MOL
REMARK 927      BINDING AFFINITY PREDICTED BY RF-SCORE:    0.00 PKD
ROOT
HETATM    1  C   UNL     1     -12.470  12.537  63.679  1.00  0.00    -0.470 C  
HETATM    2  O   UNL     1     -12.640  12.564  65.094  1.00  0.00    -0.631 OA 
ENDROOT
BRANCH   2   3
HETATM    3  C   UNL     1     -11.570  12.179  65.853  1.00  0.00    -0.364 A  
HETATM    4  C   UNL     1     -11.627  11.729  67.170  1.00  0.00    -0.342 A  
HETATM    5  C   UNL     1     -10.464  11.363  67.887  1.00  0.00    -0.212 A  
HETATM    6  C   UNL     1      -9.221  11.448  67.223  1.00  0.00    -0.165 A  
HETATM    7  C   UNL     1      -9.167  11.898  65.898  1.00  0.00    -0.147 A  
HETATM    8  C   UNL     1     -10.334  12.262  65.219  1.00  0.00    -0.311 A  
BRANCH   5   9
HETATM    9  C   UNL     1     -10.552  10.889  69.340  1.00  0.00    -0.197 C  
HETATM   10  O   UNL     1     -11.504  11.675  70.076  1.00  0.00    -0.431 OA 
HETATM   11  H   UNL     1     -11.559  11.381  70.978  1.00  0.00     0.000 HD 
BRANCH   9  12
HETATM   12  C   UNL     1     -10.991   9.419  69.502  1.00  0.00    -0.173 C  
BRANCH  12  13
HETATM   13  N   UNL     1     -12.300   9.228  70.086  1.00  0.00    -0.229 N  
HETATM   14  H   UNL     1     -13.140   9.445  69.549  1.00  0.00     0.000 HD 
HETATM   15  C   UNL     1     -12.403   8.751  71.376  1.00  0.00    -0.306 C  
HETATM   16  O   UNL     1     -11.429   8.558  72.102  1.00  0.00    -0.331 OA 
BRANCH  15  17
HETATM   17  C   UNL     1     -13.831   8.451  71.837  1.00  0.00    -0.408 C  
HETATM   18  N   UNL     1     -14.134   9.132  73.108  1.00  0.00    -1.155 NA 
HETATM   19  H1  UNL     1     -15.086   8.931  73.415  1.00  0.00     0.000 HD 
HETATM   20  H2  UNL     1     -13.963  10.135  73.046  1.00  0.00     0.000 HD 
ENDBRANCH  15  17
ENDBRANCH  12  13
ENDBRANCH   9  12
ENDBRANCH   5   9
BRANCH   6  21
HETATM   21  O   UNL     1      -8.122  11.078  67.953  1.00  0.00    -0.109 OA 
HETATM   22  C   UNL     1      -6.871  11.020  67.274  1.00  0.00    -0.088 C  
ENDBRANCH   6  21
ENDBRANCH   2   3
TORSDOF 6
ENDMDL
MODEL      111
REMARK 921   NORMALIZED FREE ENERGY PREDICTED BY IDOCK:   -4.41 KCAL/MOL
REMARK 922        TOTAL FREE ENERGY PREDICTED BY IDOCK:   -6.45 KCAL/MOL
REMARK 923 INTER-LIGAND FREE ENERGY PREDICTED BY IDOCK:   -5.71 KCAL/MOL
REMARK 924 INTRA-LIGAND FREE ENERGY PREDICTED BY IDOCK:   -0.75 KCAL/MOL
REMARK 927      BINDING AFFINITY PREDICTED BY RF-SCORE:    0.00 PKD
ROOT
HETATM    1  C   UNL     1      -8.553   6.699  72.205  1.00  0.00    -0.121 C  
HETATM    2  O   UNL     1      -9.835   6.515  71.612  1.00  0.00    -0.168 OA 
ENDROOT
BRANCH   2   3
HETATM    3  C   UNL     1     -10.554   7.643  71.331  1.00  0.00    -0.213 A  
HETATM    4  C   UNL     1     -10.398   8.448  70.205  1.00  0.00    -0.214 A  
HETATM    5  C   UNL     1     -11.178   9.609  70.000  1.00  0.00    -0.271 A  
HETATM    6  C   UNL     1     -12.151   9.935  70.970  1.00  0.00    -0.358 A  
HETATM    7  C   UNL     1     -12.308   9.122  72.100  1.00  0.00    -0.424 A  
HETATM    8  C   UNL     1     -11.514   7.986  72.278  1.00  0.00    -0.419 A  
BRANCH   5   9
HETATM    9  C   UNL     1     -10.973  10.487  68.762  1.00  0.00    -0.251 C  
HETATM   10  O   UNL     1     -12.235  10.840  68.172  1.00  0.00    -0.765 OA 
HETATM   11  H   UNL     1     -12.109  11.385  67.405  1.00  0.00     0.000 HD 
BRANCH   9  12
HETATM   12  C   UNL     1     -10.242  11.817  69.042  1.00  0.00    -0.021 C  
BRANCH  12  13
HETATM   13  N   UNL     1     -11.102  12.969  69.202  1.00  0.00    -0.381 N  
HETATM   14  H   UNL     1     -11.905  12.930  69.830  1.00  0.00     0.000 HD 
HETATM   15  C   UNL     1     -10.826  14.122  68.497  1.00  0.00    -0.252 C  
HETATM   16  O   UNL     1      -9.928  14.201  67.661  1.00  0.00    -0.228 OA 
BRANCH  15  17
HETATM   17  C   UNL     1     -11.710  15.318  68.854  1.00  0.00    -0.342 C  
HETATM   18  N   UNL     1     -12.773  14.932  69.799  1.00  0.00    -0.598 NA 
HETATM   19  H1  UNL     1     -13.362  15.731  70.037  1.00  0.00     0.000 HD 
HETATM   20  H2  UNL     1     -12.389  14.487  70.633  1.00  0.00     0.000 HD 
ENDBRANCH  15  17
ENDBRANCH  12  13
ENDBRANCH   9  12
ENDBRANCH   5   9
BRANCH   6  21
HETATM   21  O   UNL     1     -12.888  11.065  70.729  1.00  0.00    -0.322 OA 
HETATM   22  C   UNL     1     -13.195  11.899  71.842  1.00  0.00    -0.362 C  
ENDBRANCH   6  21
ENDBRANCH   2   3
TORSDOF 6
ENDMDL
MODEL      112
REMARK 921   NORMALIZED FREE ENERGY PREDICTED BY IDOCK:   -4.40 KCAL/MOL
REMARK 922        TOTAL FREE ENERGY PREDICTED BY IDOCK:   -6.44 KCAL/MOL
REMARK 923 INTER-LIGAND FREE ENERGY PREDICTED BY IDOCK:   -6.02 KCAL/MOL
REMARK 924 INTRA-LIGAND FREE ENERGY PREDICTED BY IDOCK:   -0.43 KCAL/MOL
REMARK 927      BINDING AFFINITY PREDICTED BY RF-SCORE:    0.00 PKD
ROOT
HETATM    1  C   UNL     1      -6.464  14.454  67.828  1.00  0.00    -0.165 C  
HETATM    2  O   UNL     1      -7.618  15.217  67.486  1.00  0.00    -0.157 OA 
ENDROOT
BRANCH   2   3
HETATM    3  C   UNL     1      -8.724  14.520  67.086  1.00  0.00    -0.219 A  
HETATM    4  C   UNL     1      -9.146  13.297  67.603  1.00  0.00    -0.204 A  
HETATM    5  C   UNL     1     -10.299  12.637  67.119  1.00  0.00    -0.239 A  
HETATM    6  C   UNL     1     -11.039  13.261  66.091  1.00  0.00    -0.285 A  
HETATM    7  C   UNL     1     -10.614  14.492  65.575  1.00  0.00    -0.364 A  
HETATM    8  C   UNL     1      -9.464  15.115  66.068  1.00  0.00    -0.358 A  
BRANCH   5   9
HETATM    9  C   UNL     1     -10.731  11.284  67.693  1.00  0.00    -0.226 C  
HETATM   10  O   UNL     1     -12.131  11.291  68.016  1.00  0.00    -0.638 OA 
HETATM   11  H   UNL     1     -12.400  10.452  68.371  1.00  0.00     0.000 HD 
BRANCH   9  12
HETATM   12  C   UNL     1     -10.515  10.093  66.737  1.00  0.00    -0.204 C  
BRANCH  12  13
HETATM   13  N   UNL     1     -11.010   8.822  67.217  1.00  0.00    -0.378 N  
HETATM   14  H   UNL     1     -11.849   8.781  67.796  1.00  0.00     0.000 HD 
HETATM   15  C   UNL     1     -10.338   7.664  66.885  1.00  0.00    -0.318 C  
HETATM   16  O   UNL     1      -9.275   7.657  66.267  1.00  0.00    -0.174 OA 
BRANCH  15  17
HETATM   17  C   UNL     1     -11.030   6.372  67.322  1.00  0.00    -0.392 C  
HETATM   18  N   UNL     1     -11.243   5.468  66.178  1.00  0.00    -0.761 NA 
HETATM   19  H1  UNL     1     -11.705   4.606  66.470  1.00  0.00     0.000 HD 
HETATM   20  H2  UNL     1     -10.372   5.278  65.683  1.00  0.00     0.000 HD 
ENDBRANCH  15  17
ENDBRANCH  12  13
ENDBRANCH   9  12
ENDBRANCH   5   9
BRANCH   6  21
HETATM   21  O   UNL     1     -12.151  12.590  65.656  1.00  0.00    -0.480 OA 
HETATM   22  C   UNL     1     -12.331  12.457  64.249  1.00  0.00    -0.455 C  
ENDBRANCH   6  21
ENDBRANCH   2   3
TORSDOF 6
ENDMDL
MODEL      113
REMARK 921   NORMALIZED FREE ENERGY PREDICTED BY IDOCK:   -4.40 KCAL/MOL
REMARK 922        TOTAL FREE ENERGY PREDICTED BY IDOCK:   -6.44 KCAL/MOL
REMARK 923 INTER-LIGAND FREE ENERGY PREDICTED BY IDOCK:   -6.08 KCAL/MOL
REMARK 924 INTRA-LIGAND FREE ENERGY PREDICTED BY IDOCK:   -0.36 KCAL/MOL
REMARK 927      BINDING AFFINITY PREDICTED BY RF-SCORE:    0.00 PKD
ROOT
HETATM    1  C   UNL     1     -10.681  12.876  64.025  1.00  0.00    -0.399 C  
HETATM    2  O   UNL     1     -11.824  13.400  64.695  1.00  0.00    -0.360 OA 
ENDROOT
BRANCH   2   3
HETATM    3  C   UNL     1     -11.595  14.155  65.811  1.00  0.00    -0.343 A  
HETATM    4  C   UNL     1     -10.904  15.364  65.847  1.00  0.00    -0.328 A  
HETATM    5  C   UNL     1     -10.700  16.075  67.052  1.00  0.00    -0.277 A  
HETATM    6  C   UNL     1     -11.236  15.533  68.241  1.00  0.00    -0.343 A  
HETATM    7  C   UNL     1     -11.933  14.319  68.202  1.00  0.00    -0.343 A  
HETATM    8  C   UNL     1     -12.109  13.635  66.995  1.00  0.00    -0.423 A  
BRANCH   5   9
HETATM    9  C   UNL     1      -9.921  17.393  67.067  1.00  0.00    -0.295 C  
HETATM   10  O   UNL     1     -10.667  18.419  67.742  1.00  0.00    -0.414 OA 
HETATM   11  H   UNL     1     -10.183  19.237  67.752  1.00  0.00     0.000 HD 
BRANCH   9  12
HETATM   12  C   UNL     1      -8.555  17.313  67.780  1.00  0.00    -0.225 C  
BRANCH  12  13
HETATM   13  N   UNL     1      -7.931  18.588  68.059  1.00  0.00    -0.269 N  
HETATM   14  H   UNL     1      -8.231  19.428  67.562  1.00  0.00     0.000 HD 
HETATM   15  C   UNL     1      -6.928  18.660  69.002  1.00  0.00    -0.281 C  
HETATM   16  O   UNL     1      -6.464  17.671  69.567  1.00  0.00    -0.248 OA 
BRANCH  15  17
HETATM   17  C   UNL     1      -6.445  20.076  69.320  1.00  0.00    -0.324 C  
HETATM   18  N   UNL     1      -6.281  20.270  70.772  1.00  0.00    -0.515 NA 
HETATM   19  H1  UNL     1      -5.959  21.215  70.983  1.00  0.00     0.000 HD 
HETATM   20  H2  UNL     1      -5.667  19.564  71.177  1.00  0.00     0.000 HD 
ENDBRANCH  15  17
ENDBRANCH  12  13
ENDBRANCH   9  12
ENDBRANCH   5   9
BRANCH   6  21
HETATM   21  O   UNL     1     -11.021  16.257  69.384  1.00  0.00    -0.300 OA 
HETATM   22  C   UNL     1     -11.611  15.777  70.588  1.00  0.00    -0.390 C  
ENDBRANCH   6  21
ENDBRANCH   2   3
TORSDOF 6
ENDMDL
MODEL      114
REMARK 921   NORMALIZED FREE ENERGY PREDICTED BY IDOCK:   -4.39 KCAL/MOL
REMARK 922        TOTAL FREE ENERGY PREDICTED BY IDOCK:   -6.42 KCAL/MOL
REMARK 923 INTER-LIGAND FREE ENERGY PREDICTED BY IDOCK:   -5.86 KCAL/MOL
REMARK 924 INTRA-LIGAND FREE ENERGY PREDICTED BY IDOCK:   -0.57 KCAL/MOL
REMARK 927      BINDING AFFINITY PREDICTED BY RF-SCORE:    0.00 PKD
ROOT
HETATM    1  C   UNL     1     -12.541   9.624  71.586  1.00  0.00    -0.402 C  
HETATM    2  O   UNL     1     -12.486  10.873  70.904  1.00  0.00    -0.343 OA 
ENDROOT
BRANCH   2   3
HETATM    3  C   UNL     1     -11.851  10.889  69.693  1.00  0.00    -0.344 A  
HETATM    4  C   UNL     1     -12.029  11.844  68.694  1.00  0.00    -0.291 A  
HETATM    5  C   UNL     1     -11.340  11.776  67.462  1.00  0.00    -0.377 A  
HETATM    6  C   UNL     1     -10.436  10.709  67.265  1.00  0.00    -0.246 A  
HETATM    7  C   UNL     1     -10.256   9.752  68.272  1.00  0.00    -0.212 A  
HETATM    8  C   UNL     1     -10.961   9.843  69.476  1.00  0.00    -0.274 A  
BRANCH   5   9
HETATM    9  C   UNL     1     -11.567  12.828  66.372  1.00  0.00    -0.378 C  
HETATM   10  O   UNL     1     -12.585  12.398  65.453  1.00  0.00    -0.637 OA 
HETATM   11  H   UNL     1     -12.726  13.050  64.777  1.00  0.00     0.000 HD 
BRANCH   9  12
HETATM   12  C   UNL     1     -12.021  14.203  66.904  1.00  0.00    -0.449 C  
BRANCH  12  13
HETATM   13  N   UNL     1     -10.964  15.175  67.077  1.00  0.00    -0.319 N  
HETATM   14  H   UNL     1     -10.305  15.358  66.321  1.00  0.00     0.000 HD 
HETATM   15  C   UNL     1     -10.856  15.852  68.274  1.00  0.00    -0.315 C  
HETATM   16  O   UNL     1     -11.563  15.610  69.250  1.00  0.00    -0.319 OA 
BRANCH  15  17
HETATM   17  C   UNL     1      -9.798  16.956  68.292  1.00  0.00    -0.266 C  
HETATM   18  N   UNL     1     -10.422  18.290  68.346  1.00  0.00    -0.330 NA 
HETATM   19  H1  UNL     1      -9.715  19.027  68.358  1.00  0.00     0.000 HD 
HETATM   20  H2  UNL     1     -11.063  18.372  69.135  1.00  0.00     0.000 HD 
ENDBRANCH  15  17
ENDBRANCH  12  13
ENDBRANCH   9  12
ENDBRANCH   5   9
BRANCH   6  21
HETATM   21  O   UNL     1      -9.785  10.685  66.060  1.00  0.00    -0.191 OA 
HETATM   22  C   UNL     1      -8.362  10.763  66.078  1.00  0.00    -0.163 C  
ENDBRANCH   6  21
ENDBRANCH   2   3
TORSDOF 6
ENDMDL
MODEL      115
REMARK 921   NORMALIZED FREE ENERGY PREDICTED BY IDOCK:   -4.38 KCAL/MOL
REMARK 922        TOTAL FREE ENERGY PREDICTED BY IDOCK:   -6.41 KCAL/MOL
REMARK 923 INTER-LIGAND FREE ENERGY PREDICTED BY IDOCK:   -5.79 KCAL/MOL
REMARK 924 INTRA-LIGAND FREE ENERGY PREDICTED BY IDOCK:   -0.62 KCAL/MOL
REMARK 927      BINDING AFFINITY PREDICTED BY RF-SCORE:    0.00 PKD
ROOT
HETATM    1  C   UNL     1      -9.651   6.908  66.706  1.00  0.00    -0.168 C  
HETATM    2  O   UNL     1     -10.677   7.852  67.001  1.00  0.00    -0.339 OA 
ENDROOT
BRANCH   2   3
HETATM    3  C   UNL     1     -10.304   9.164  67.088  1.00  0.00    -0.267 A  
HETATM    4  C   UNL     1     -11.083  10.200  67.599  1.00  0.00    -0.275 A  
HETATM    5  C   UNL     1     -10.621  11.535  67.638  1.00  0.00    -0.235 A  
HETATM    6  C   UNL     1      -9.322  11.803  67.155  1.00  0.00    -0.177 A  
HETATM    7  C   UNL     1      -8.539  10.760  66.644  1.00  0.00    -0.143 A  
HETATM    8  C   UNL     1      -9.029   9.451  66.610  1.00  0.00    -0.170 A  
BRANCH   5   9
HETATM    9  C   UNL     1     -11.505  12.659  68.188  1.00  0.00    -0.313 C  
HETATM   10  O   UNL     1     -10.795  13.432  69.170  1.00  0.00    -0.369 OA 
HETATM   11  H   UNL     1     -11.343  14.129  69.511  1.00  0.00     0.000 HD 
BRANCH   9  12
HETATM   12  C   UNL     1     -11.994  13.660  67.121  1.00  0.00    -0.393 C  
BRANCH  12  13
HETATM   13  N   UNL     1     -12.283  13.086  65.826  1.00  0.00    -0.454 N  
HETATM   14  H   UNL     1     -12.989  12.356  65.732  1.00  0.00     0.000 HD 
HETATM   15  C   UNL     1     -11.594  13.535  64.718  1.00  0.00    -0.349 C  
HETATM   16  O   UNL     1     -10.672  14.345  64.782  1.00  0.00    -0.408 OA 
BRANCH  15  17
HETATM   17  C   UNL     1     -12.083  12.965  63.385  1.00  0.00    -0.530 C  
HETATM   18  N   UNL     1     -11.443  11.669  63.094  1.00  0.00    -0.841 NA 
HETATM   19  H1  UNL     1     -11.769  11.289  62.204  1.00  0.00     0.000 HD 
HETATM   20  H2  UNL     1     -11.576  11.006  63.857  1.00  0.00     0.000 HD 
ENDBRANCH  15  17
ENDBRANCH  12  13
ENDBRANCH   9  12
ENDBRANCH   5   9
BRANCH   6  21
HETATM   21  O   UNL     1      -8.913  13.109  67.217  1.00  0.00    -0.198 OA 
HETATM   22  C   UNL     1      -7.530  13.355  67.457  1.00  0.00    -0.162 C  
ENDBRANCH   6  21
ENDBRANCH   2   3
TORSDOF 6
ENDMDL
MODEL      116
REMARK 921   NORMALIZED FREE ENERGY PREDICTED BY IDOCK:   -4.37 KCAL/MOL
REMARK 922        TOTAL FREE ENERGY PREDICTED BY IDOCK:   -6.40 KCAL/MOL
REMARK 923 INTER-LIGAND FREE ENERGY PREDICTED BY IDOCK:   -5.84 KCAL/MOL
REMARK 924 INTRA-LIGAND FREE ENERGY PREDICTED BY IDOCK:   -0.56 KCAL/MOL
REMARK 927      BINDING AFFINITY PREDICTED BY RF-SCORE:    0.00 PKD
ROOT
HETATM    1  C   UNL     1      -5.790  12.692  69.144  1.00  0.00    -0.080 C  
HETATM    2  O   UNL     1      -7.190  12.822  68.916  1.00  0.00    -0.097 OA 
ENDROOT
BRANCH   2   3
HETATM    3  C   UNL     1      -7.656  14.075  68.629  1.00  0.00    -0.130 A  
HETATM    4  C   UNL     1      -8.771  14.369  67.846  1.00  0.00    -0.168 A  
HETATM    5  C   UNL     1      -9.176  15.699  67.589  1.00  0.00    -0.193 A  
HETATM    6  C   UNL     1      -8.423  16.745  68.166  1.00  0.00    -0.213 A  
HETATM    7  C   UNL     1      -7.305  16.447  68.954  1.00  0.00    -0.214 A  
HETATM    8  C   UNL     1      -6.925  15.121  69.182  1.00  0.00    -0.147 A  
BRANCH   5   9
HETATM    9  C   UNL     1     -10.394  15.995  66.709  1.00  0.00    -0.300 C  
HETATM   10  O   UNL     1      -9.986  16.464  65.414  1.00  0.00    -0.534 OA 
HETATM   11  H   UNL     1     -10.741  16.648  64.868  1.00  0.00     0.000 HD 
BRANCH   9  12
HETATM   12  C   UNL     1     -11.306  14.777  66.459  1.00  0.00    -0.344 C  
BRANCH  12  13
HETATM   13  N   UNL     1     -11.073  14.080  65.214  1.00  0.00    -0.312 N  
HETATM   14  H   UNL     1     -10.139  14.057  64.803  1.00  0.00     0.000 HD 
HETATM   15  C   UNL     1     -12.124  13.445  64.586  1.00  0.00    -0.410 C  
HETATM   16  O   UNL     1     -13.285  13.512  64.984  1.00  0.00    -0.721 OA 
BRANCH  15  17
HETATM   17  C   UNL     1     -11.734  12.619  63.358  1.00  0.00    -0.498 C  
HETATM   18  N   UNL     1     -12.781  11.638  63.022  1.00  0.00    -0.865 NA 
HETATM   19  H1  UNL     1     -12.521  11.087  62.203  1.00  0.00     0.000 HD 
HETATM   20  H2  UNL     1     -13.689  12.086  62.900  1.00  0.00     0.000 HD 
ENDBRANCH  15  17
ENDBRANCH  12  13
ENDBRANCH   9  12
ENDBRANCH   5   9
BRANCH   6  21
HETATM   21  O   UNL     1      -8.853  18.018  67.895  1.00  0.00    -0.258 OA 
HETATM   22  C   UNL     1      -8.161  19.093  68.521  1.00  0.00    -0.359 C  
ENDBRANCH   6  21
ENDBRANCH   2   3
TORSDOF 6
ENDMDL
MODEL      117
REMARK 921   NORMALIZED FREE ENERGY PREDICTED BY IDOCK:   -4.35 KCAL/MOL
REMARK 922        TOTAL FREE ENERGY PREDICTED BY IDOCK:   -6.37 KCAL/MOL
REMARK 923 INTER-LIGAND FREE ENERGY PREDICTED BY IDOCK:   -6.56 KCAL/MOL
REMARK 924 INTRA-LIGAND FREE ENERGY PREDICTED BY IDOCK:    0.19 KCAL/MOL
REMARK 927      BINDING AFFINITY PREDICTED BY RF-SCORE:    0.00 PKD
ROOT
HETATM    1  C   UNL     1     -11.765  12.236  66.104  1.00  0.00    -0.376 C  
HETATM    2  O   UNL     1     -11.339  11.921  67.426  1.00  0.00    -0.285 OA 
ENDROOT
BRANCH   2   3
HETATM    3  C   UNL     1     -11.247  12.960  68.311  1.00  0.00    -0.270 A  
HETATM    4  C   UNL     1     -10.241  13.924  68.331  1.00  0.00    -0.243 A  
HETATM    5  C   UNL     1     -10.216  14.959  69.293  1.00  0.00    -0.219 A  
HETATM    6  C   UNL     1     -11.261  15.009  70.242  1.00  0.00    -0.252 A  
HETATM    7  C   UNL     1     -12.272  14.040  70.218  1.00  0.00    -0.430 A  
HETATM    8  C   UNL     1     -12.263  13.023  69.259  1.00  0.00    -0.138 A  
BRANCH   5   9
HETATM    9  C   UNL     1      -9.089  15.996  69.306  1.00  0.00    -0.235 C  
HETATM   10  O   UNL     1      -7.821  15.367  69.554  1.00  0.00    -0.220 OA 
HETATM   11  H   UNL     1      -7.122  16.010  69.562  1.00  0.00     0.000 HD 
BRANCH   9  12
HETATM   12  C   UNL     1      -8.932  16.776  67.984  1.00  0.00    -0.217 C  
BRANCH  12  13
HETATM   13  N   UNL     1      -9.353  16.066  66.797  1.00  0.00    -0.225 N  
HETATM   14  H   UNL     1      -8.945  15.161  66.566  1.00  0.00     0.000 HD 
HETATM   15  C   UNL     1     -10.314  16.624  65.980  1.00  0.00    -0.340 C  
HETATM   16  O   UNL     1     -10.776  17.750  66.157  1.00  0.00    -0.268 OA 
BRANCH  15  17
HETATM   17  C   UNL     1     -10.787  15.723  64.838  1.00  0.00    -0.413 C  
HETATM   18  N   UNL     1     -11.567  16.485  63.846  1.00  0.00    -1.578 NA 
HETATM   19  H1  UNL     1     -11.883  15.883  63.085  1.00  0.00     0.000 HD 
HETATM   20  H2  UNL     1     -11.046  17.290  63.498  1.00  0.00     0.000 HD 
ENDBRANCH  15  17
ENDBRANCH  12  13
ENDBRANCH   9  12
ENDBRANCH   5   9
BRANCH   6  21
HETATM   21  O   UNL     1     -11.200  16.032  71.152  1.00  0.00    -0.354 OA 
HETATM   22  C   UNL     1     -11.830  15.827  72.414  1.00  0.00    -0.501 C  
ENDBRANCH   6  21
ENDBRANCH   2   3
TORSDOF 6
ENDMDL
MODEL      118
REMARK 921   NORMALIZED FREE ENERGY PREDICTED BY IDOCK:   -4.34 KCAL/MOL
REMARK 922        TOTAL FREE ENERGY PREDICTED BY IDOCK:   -6.36 KCAL/MOL
REMARK 923 INTER-LIGAND FREE ENERGY PREDICTED BY IDOCK:   -5.97 KCAL/MOL
REMARK 924 INTRA-LIGAND FREE ENERGY PREDICTED BY IDOCK:   -0.39 KCAL/MOL
REMARK 927      BINDING AFFINITY PREDICTED BY RF-SCORE:    0.00 PKD
ROOT
HETATM    1  C   UNL     1     -12.743  11.741  63.384  1.00  0.00    -0.267 C  
HETATM    2  O   UNL     1     -13.223  12.480  64.504  1.00  0.00    -0.832 OA 
ENDROOT
BRANCH   2   3
HETATM    3  C   UNL     1     -12.328  13.299  65.134  1.00  0.00    -0.466 A  
HETATM    4  C   UNL     1     -11.674  13.021  66.332  1.00  0.00    -0.444 A  
HETATM    5  C   UNL     1     -10.771  13.935  66.922  1.00  0.00    -0.284 A  
HETATM    6  C   UNL     1     -10.527  15.153  66.252  1.00  0.00    -0.307 A  
HETATM    7  C   UNL     1     -11.183  15.429  65.046  1.00  0.00    -0.393 A  
HETATM    8  C   UNL     1     -12.078  14.509  64.493  1.00  0.00    -0.501 A  
BRANCH   5   9
HETATM    9  C   UNL     1     -10.080  13.612  68.250  1.00  0.00    -0.240 C  
HETATM   10  O   UNL     1     -10.991  12.969  69.157  1.00  0.00    -0.359 OA 
HETATM   11  H   UNL     1     -10.562  12.769  69.980  1.00  0.00     0.000 HD 
BRANCH   9  12
HETATM   12  C   UNL     1      -8.865  12.670  68.119  1.00  0.00    -0.194 C  
BRANCH  12  13
HETATM   13  N   UNL     1      -7.805  12.898  69.076  1.00  0.00    -0.325 N  
HETATM   14  H   UNL     1      -7.812  13.731  69.664  1.00  0.00     0.000 HD 
HETATM   15  C   UNL     1      -6.783  11.978  69.186  1.00  0.00    -0.101 C  
HETATM   16  O   UNL     1      -6.673  11.003  68.444  1.00  0.00    -0.057 OA 
BRANCH  15  17
HETATM   17  C   UNL     1      -5.799  12.245  70.327  1.00  0.00    -0.166 C  
HETATM   18  N   UNL     1      -6.141  13.487  71.044  1.00  0.00    -0.509 NA 
HETATM   19  H1  UNL     1      -5.484  13.665  71.805  1.00  0.00     0.000 HD 
HETATM   20  H2  UNL     1      -7.105  13.475  71.375  1.00  0.00     0.000 HD 
ENDBRANCH  15  17
ENDBRANCH  12  13
ENDBRANCH   9  12
ENDBRANCH   5   9
BRANCH   6  21
HETATM   21  O   UNL     1      -9.641  16.006  66.856  1.00  0.00    -0.217 OA 
HETATM   22  C   UNL     1     -10.149  17.246  67.342  1.00  0.00    -0.307 C  
ENDBRANCH   6  21
ENDBRANCH   2   3
TORSDOF 6
ENDMDL
MODEL      119
REMARK 921   NORMALIZED FREE ENERGY PREDICTED BY IDOCK:   -4.33 KCAL/MOL
REMARK 922        TOTAL FREE ENERGY PREDICTED BY IDOCK:   -6.34 KCAL/MOL
REMARK 923 INTER-LIGAND FREE ENERGY PREDICTED BY IDOCK:   -5.80 KCAL/MOL
REMARK 924 INTRA-LIGAND FREE ENERGY PREDICTED BY IDOCK:   -0.54 KCAL/MOL
REMARK 927      BINDING AFFINITY PREDICTED BY RF-SCORE:    0.00 PKD
ROOT
HETATM    1  C   UNL     1     -12.239  12.638  65.034  1.00  0.00    -0.476 C  
HETATM    2  O   UNL     1     -11.213  12.317  65.969  1.00  0.00    -0.302 OA 
ENDROOT
BRANCH   2   3
HETATM    3  C   UNL     1     -11.520  12.450  67.295  1.00  0.00    -0.354 A  
HETATM    4  C   UNL     1     -11.579  11.414  68.224  1.00  0.00    -0.376 A  
HETATM    5  C   UNL     1     -11.919  11.640  69.577  1.00  0.00    -0.383 A  
HETATM    6  C   UNL     1     -12.188  12.965  69.982  1.00  0.00    -0.222 A  
HETATM    7  C   UNL     1     -12.126  14.006  69.046  1.00  0.00    -0.358 A  
HETATM    8  C   UNL     1     -11.795  13.748  67.713  1.00  0.00    -0.404 A  
BRANCH   5   9
HETATM    9  C   UNL     1     -11.995  10.480  70.575  1.00  0.00    -0.342 C  
HETATM   10  O   UNL     1     -13.339   9.981  70.675  1.00  0.00    -0.602 OA 
HETATM   11  H   UNL     1     -13.386   9.261  71.293  1.00  0.00     0.000 HD 
BRANCH   9  12
HETATM   12  C   UNL     1     -11.112   9.270  70.207  1.00  0.00    -0.251 C  
BRANCH  12  13
HETATM   13  N   UNL     1      -9.687   9.490  70.325  1.00  0.00    -0.248 N  
HETATM   14  H   UNL     1      -9.302   9.939  71.156  1.00  0.00     0.000 HD 
HETATM   15  C   UNL     1      -8.853   9.086  69.303  1.00  0.00    -0.139 C  
HETATM   16  O   UNL     1      -9.265   8.622  68.242  1.00  0.00    -0.138 OA 
BRANCH  15  17
HETATM   17  C   UNL     1      -7.359   9.235  69.598  1.00  0.00    -0.068 C  
HETATM   18  N   UNL     1      -7.107  10.362  70.513  1.00  0.00    -0.448 NA 
HETATM   19  H1  UNL     1      -6.110  10.461  70.710  1.00  0.00     0.000 HD 
HETATM   20  H2  UNL     1      -7.652  10.278  71.371  1.00  0.00     0.000 HD 
ENDBRANCH  15  17
ENDBRANCH  12  13
ENDBRANCH   9  12
ENDBRANCH   5   9
BRANCH   6  21
HETATM   21  O   UNL     1     -12.508  13.140  71.303  1.00  0.00    -0.332 OA 
HETATM   22  C   UNL     1     -13.250  14.305  71.651  1.00  0.00    -0.356 C  
ENDBRANCH   6  21
ENDBRANCH   2   3
TORSDOF 6
ENDMDL
MODEL      120
REMARK 921   NORMALIZED FREE ENERGY PREDICTED BY IDOCK:   -4.31 KCAL/MOL
REMARK 922        TOTAL FREE ENERGY PREDICTED BY IDOCK:   -6.32 KCAL/MOL
REMARK 923 INTER-LIGAND FREE ENERGY PREDICTED BY IDOCK:   -6.30 KCAL/MOL
REMARK 924 INTRA-LIGAND FREE ENERGY PREDICTED BY IDOCK:   -0.02 KCAL/MOL
REMARK 927      BINDING AFFINITY PREDICTED BY RF-SCORE:    0.00 PKD
ROOT
HETATM    1  C   UNL     1     -12.046  14.630  69.955  1.00  0.00    -0.329 C  
HETATM    2  O   UNL     1     -12.295  13.381  69.317  1.00  0.00    -0.233 OA 
ENDROOT
BRANCH   2   3
HETATM    3  C   UNL     1     -11.752  13.202  68.075  1.00  0.00    -0.355 A  
HETATM    4  C   UNL     1     -11.942  14.036  66.976  1.00  0.00    -0.472 A  
HETATM    5  C   UNL     1     -11.350  13.767  65.720  1.00  0.00    -0.309 A  
HETATM    6  C   UNL     1     -10.532  12.622  65.604  1.00  0.00    -0.275 A  
HETATM    7  C   UNL     1     -10.340  11.786  66.712  1.00  0.00    -0.251 A  
HETATM    8  C   UNL     1     -10.948  12.075  67.937  1.00  0.00    -0.266 A  
BRANCH   5   9
HETATM    9  C   UNL     1     -11.590  14.690  64.522  1.00  0.00    -0.370 C  
HETATM   10  O   UNL     1     -12.995  14.817  64.250  1.00  0.00    -0.512 OA 
HETATM   11  H   UNL     1     -13.144  15.390  63.507  1.00  0.00     0.000 HD 
BRANCH   9  12
HETATM   12  C   UNL     1     -11.056  16.125  64.711  1.00  0.00    -0.333 C  
BRANCH  12  13
HETATM   13  N   UNL     1     -10.504  16.408  66.018  1.00  0.00    -0.335 N  
HETATM   14  H   UNL     1     -10.268  15.647  66.654  1.00  0.00     0.000 HD 
HETATM   15  C   UNL     1     -10.300  17.719  66.396  1.00  0.00    -0.351 C  
HETATM   16  O   UNL     1     -10.647  18.679  65.711  1.00  0.00    -0.567 OA 
BRANCH  15  17
HETATM   17  C   UNL     1      -9.579  17.895  67.734  1.00  0.00    -0.277 C  
HETATM   18  N   UNL     1     -10.506  17.717  68.866  1.00  0.00    -0.392 NA 
HETATM   19  H1  UNL     1     -10.025  17.835  69.758  1.00  0.00     0.000 HD 
HETATM   20  H2  UNL     1     -10.991  16.821  68.816  1.00  0.00     0.000 HD 
ENDBRANCH  15  17
ENDBRANCH  12  13
ENDBRANCH   9  12
ENDBRANCH   5   9
BRANCH   6  21
HETATM   21  O   UNL     1      -9.974  12.402  64.372  1.00  0.00    -0.269 OA 
HETATM   22  C   UNL     1     -10.380  11.233  63.665  1.00  0.00    -0.408 C  
ENDBRANCH   6  21
ENDBRANCH   2   3
TORSDOF 6
ENDMDL
MODEL      121
REMARK 921   NORMALIZED FREE ENERGY PREDICTED BY IDOCK:   -4.31 KCAL/MOL
REMARK 922        TOTAL FREE ENERGY PREDICTED BY IDOCK:   -6.32 KCAL/MOL
REMARK 923 INTER-LIGAND FREE ENERGY PREDICTED BY IDOCK:   -6.01 KCAL/MOL
REMARK 924 INTRA-LIGAND FREE ENERGY PREDICTED BY IDOCK:   -0.31 KCAL/MOL
REMARK 927      BINDING AFFINITY PREDICTED BY RF-SCORE:    0.00 PKD
ROOT
HETATM    1  C   UNL     1     -10.198   9.618  67.249  1.00  0.00    -0.233 C  
HETATM    2  O   UNL     1     -11.355  10.436  67.101  1.00  0.00    -0.274 OA 
ENDROOT
BRANCH   2   3
HETATM    3  C   UNL     1     -11.276  11.713  67.582  1.00  0.00    -0.281 A  
HETATM    4  C   UNL     1     -10.664  12.788  66.940  1.00  0.00    -0.272 A  
HETATM    5  C   UNL     1     -10.616  14.077  67.519  1.00  0.00    -0.260 A  
HETATM    6  C   UNL     1     -11.228  14.263  68.778  1.00  0.00    -0.262 A  
HETATM    7  C   UNL     1     -11.845  13.181  69.420  1.00  0.00    -0.383 A  
HETATM    8  C   UNL     1     -11.867  11.916  68.825  1.00  0.00    -0.371 A  
BRANCH   5   9
HETATM    9  C   UNL     1      -9.920  15.237  66.801  1.00  0.00    -0.242 C  
HETATM   10  O   UNL     1      -9.016  14.746  65.797  1.00  0.00    -0.422 OA 
HETATM   11  H   UNL     1      -8.585  15.466  65.351  1.00  0.00     0.000 HD 
BRANCH   9  12
HETATM   12  C   UNL     1     -10.882  16.204  66.079  1.00  0.00    -0.154 C  
BRANCH  12  13
HETATM   13  N   UNL     1     -10.311  17.483  65.718  1.00  0.00    -0.282 N  
HETATM   14  H   UNL     1      -9.903  17.622  64.794  1.00  0.00     0.000 HD 
HETATM   15  C   UNL     1     -10.325  18.513  66.635  1.00  0.00    -0.408 C  
HETATM   16  O   UNL     1     -10.721  18.379  67.792  1.00  0.00    -0.414 OA 
BRANCH  15  17
HETATM   17  C   UNL     1      -9.830  19.857  66.098  1.00  0.00    -0.458 C  
HETATM   18  N   UNL     1      -9.531  20.792  67.196  1.00  0.00    -0.658 NA 
HETATM   19  H1  UNL     1      -9.201  21.689  66.837  1.00  0.00     0.000 HD 
HETATM   20  H2  UNL     1      -8.872  20.389  67.862  1.00  0.00     0.000 HD 
ENDBRANCH  15  17
ENDBRANCH  12  13
ENDBRANCH   9  12
ENDBRANCH   5   9
BRANCH   6  21
HETATM   21  O   UNL     1     -11.163  15.528  69.299  1.00  0.00    -0.268 OA 
HETATM   22  C   UNL     1     -11.248  15.662  70.714  1.00  0.00    -0.367 C  
ENDBRANCH   6  21
ENDBRANCH   2   3
TORSDOF 6
ENDMDL
MODEL      122
REMARK 921   NORMALIZED FREE ENERGY PREDICTED BY IDOCK:   -4.31 KCAL/MOL
REMARK 922        TOTAL FREE ENERGY PREDICTED BY IDOCK:   -6.31 KCAL/MOL
REMARK 923 INTER-LIGAND FREE ENERGY PREDICTED BY IDOCK:   -5.85 KCAL/MOL
REMARK 924 INTRA-LIGAND FREE ENERGY PREDICTED BY IDOCK:   -0.47 KCAL/MOL
REMARK 927      BINDING AFFINITY PREDICTED BY RF-SCORE:    0.00 PKD
ROOT
HETATM    1  C   UNL     1     -10.316   8.095  67.158  1.00  0.00    -0.321 C  
HETATM    2  O   UNL     1     -10.111   9.342  66.499  1.00  0.00    -0.247 OA 
ENDROOT
BRANCH   2   3
HETATM    3  C   UNL     1     -10.617  10.456  67.111  1.00  0.00    -0.261 A  
HETATM    4  C   UNL     1     -10.536  11.758  66.624  1.00  0.00    -0.275 A  
HETATM    5  C   UNL     1     -11.077  12.857  67.331  1.00  0.00    -0.307 A  
HETATM    6  C   UNL     1     -11.729  12.600  68.557  1.00  0.00    -0.330 A  
HETATM    7  C   UNL     1     -11.811  11.289  69.043  1.00  0.00    -0.421 A  
HETATM    8  C   UNL     1     -11.257  10.226  68.324  1.00  0.00    -0.295 A  
BRANCH   5   9
HETATM    9  C   UNL     1     -10.959  14.282  66.783  1.00  0.00    -0.304 C  
HETATM   10  O   UNL     1     -12.239  14.935  66.780  1.00  0.00    -0.276 OA 
HETATM   11  H   UNL     1     -12.166  15.819  66.441  1.00  0.00     0.000 HD 
BRANCH   9  12
HETATM   12  C   UNL     1     -10.012  15.194  67.590  1.00  0.00    -0.229 C  
BRANCH  12  13
HETATM   13  N   UNL     1     -10.203  16.613  67.385  1.00  0.00    -0.280 N  
HETATM   14  H   UNL     1     -10.957  17.106  67.862  1.00  0.00     0.000 HD 
HETATM   15  C   UNL     1      -9.354  17.294  66.537  1.00  0.00    -0.264 C  
HETATM   16  O   UNL     1      -8.485  16.740  65.867  1.00  0.00    -0.484 OA 
BRANCH  15  17
HETATM   17  C   UNL     1      -9.556  18.810  66.510  1.00  0.00    -0.348 C  
HETATM   18  N   UNL     1     -10.638  19.187  65.583  1.00  0.00    -0.526 NA 
HETATM   19  H1  UNL     1     -10.772  20.199  65.565  1.00  0.00     0.000 HD 
HETATM   20  H2  UNL     1     -11.505  18.697  65.800  1.00  0.00     0.000 HD 
ENDBRANCH  15  17
ENDBRANCH  12  13
ENDBRANCH   9  12
ENDBRANCH   5   9
BRANCH   6  21
HETATM   21  O   UNL     1     -12.244  13.692  69.206  1.00  0.00    -0.320 OA 
HETATM   22  C   UNL     1     -12.256  13.665  70.630  1.00  0.00    -0.360 C  
ENDBRANCH   6  21
ENDBRANCH   2   3
TORSDOF 6
ENDMDL
MODEL      123
REMARK 921   NORMALIZED FREE ENERGY PREDICTED BY IDOCK:   -4.29 KCAL/MOL
REMARK 922        TOTAL FREE ENERGY PREDICTED BY IDOCK:   -6.29 KCAL/MOL
REMARK 923 INTER-LIGAND FREE ENERGY PREDICTED BY IDOCK:   -5.75 KCAL/MOL
REMARK 924 INTRA-LIGAND FREE ENERGY PREDICTED BY IDOCK:   -0.54 KCAL/MOL
REMARK 927      BINDING AFFINITY PREDICTED BY RF-SCORE:    0.00 PKD
ROOT
HETATM    1  C   UNL     1     -13.305  13.071  72.195  1.00  0.00    -0.524 C  
HETATM    2  O   UNL     1     -12.592  12.698  71.019  1.00  0.00    -0.361 OA 
ENDROOT
BRANCH   2   3
HETATM    3  C   UNL     1     -12.323  11.368  70.854  1.00  0.00    -0.381 A  
HETATM    4  C   UNL     1     -11.323  10.835  70.043  1.00  0.00    -0.397 A  
HETATM    5  C   UNL     1     -11.122   9.440  69.921  1.00  0.00    -0.223 A  
HETATM    6  C   UNL     1     -11.960   8.582  70.665  1.00  0.00    -0.035 A  
HETATM    7  C   UNL     1     -12.963   9.120  71.482  1.00  0.00    -0.409 A  
HETATM    8  C   UNL     1     -13.142  10.504  71.573  1.00  0.00    -0.532 A  
BRANCH   5   9
HETATM    9  C   UNL     1     -10.028   8.879  69.008  1.00  0.00    -0.190 C  
HETATM   10  O   UNL     1      -9.396   7.739  69.612  1.00  0.00    -0.153 OA 
HETATM   11  H   UNL     1      -8.717   7.390  69.046  1.00  0.00     0.000 HD 
BRANCH   9  12
HETATM   12  C   UNL     1     -10.533   8.412  67.628  1.00  0.00    -0.239 C  
BRANCH  12  13
HETATM   13  N   UNL     1     -10.552   6.979  67.433  1.00  0.00    -0.267 N  
HETATM   14  H   UNL     1     -11.181   6.393  67.982  1.00  0.00     0.000 HD 
HETATM   15  C   UNL     1      -9.712   6.411  66.498  1.00  0.00    -0.129 C  
HETATM   16  O   UNL     1      -8.871   7.053  65.872  1.00  0.00    -0.154 OA 
BRANCH  15  17
HETATM   17  C   UNL     1      -9.921   4.913  66.274  1.00  0.00    -0.234 C  
HETATM   18  N   UNL     1     -11.168   4.655  65.530  1.00  0.00    -0.946 NA 
HETATM   19  H1  UNL     1     -11.307   3.655  65.381  1.00  0.00     0.000 HD 
HETATM   20  H2  UNL     1     -11.195   5.173  64.653  1.00  0.00     0.000 HD 
ENDBRANCH  15  17
ENDBRANCH  12  13
ENDBRANCH   9  12
ENDBRANCH   5   9
BRANCH   6  21
HETATM   21  O   UNL     1     -11.727   7.239  70.522  1.00  0.00    -0.285 OA 
HETATM   22  C   UNL     1     -12.021   6.398  71.633  1.00  0.00    -0.291 C  
ENDBRANCH   6  21
ENDBRANCH   2   3
TORSDOF 6
ENDMDL
MODEL      124
REMARK 921   NORMALIZED FREE ENERGY PREDICTED BY IDOCK:   -4.29 KCAL/MOL
REMARK 922        TOTAL FREE ENERGY PREDICTED BY IDOCK:   -6.29 KCAL/MOL
REMARK 923 INTER-LIGAND FREE ENERGY PREDICTED BY IDOCK:   -5.67 KCAL/MOL
REMARK 924 INTRA-LIGAND FREE ENERGY PREDICTED BY IDOCK:   -0.61 KCAL/MOL
REMARK 927      BINDING AFFINITY PREDICTED BY RF-SCORE:    0.00 PKD
ROOT
HETATM    1  C   UNL     1      -9.811  19.885  66.130  1.00  0.00    -0.458 C  
HETATM    2  O   UNL     1      -9.397  18.534  65.946  1.00  0.00    -0.486 OA 
ENDROOT
BRANCH   2   3
HETATM    3  C   UNL     1      -9.754  17.640  66.918  1.00  0.00    -0.292 A  
HETATM    4  C   UNL     1      -9.671  16.253  66.818  1.00  0.00    -0.253 A  
HETATM    5  C   UNL     1     -10.076  15.401  67.871  1.00  0.00    -0.226 A  
HETATM    6  C   UNL     1     -10.561  15.995  69.056  1.00  0.00    -0.257 A  
HETATM    7  C   UNL     1     -10.641  17.390  69.155  1.00  0.00    -0.161 A  
HETATM    8  C   UNL     1     -10.242  18.205  68.092  1.00  0.00    -0.400 A  
BRANCH   5   9
HETATM    9  C   UNL     1      -9.991  13.879  67.728  1.00  0.00    -0.241 C  
HETATM   10  O   UNL     1      -9.409  13.288  68.902  1.00  0.00    -0.394 OA 
HETATM   11  H   UNL     1      -9.357  12.344  68.814  1.00  0.00     0.000 HD 
BRANCH   9  12
HETATM   12  C   UNL     1     -11.354  13.184  67.528  1.00  0.00    -0.298 C  
BRANCH  12  13
HETATM   13  N   UNL     1     -11.982  12.701  68.738  1.00  0.00    -0.289 N  
HETATM   14  H   UNL     1     -12.464  13.347  69.362  1.00  0.00     0.000 HD 
HETATM   15  C   UNL     1     -11.921  11.356  69.041  1.00  0.00    -0.320 C  
HETATM   16  O   UNL     1     -11.280  10.545  68.376  1.00  0.00    -0.264 OA 
BRANCH  15  17
HETATM   17  C   UNL     1     -12.741  10.937  70.263  1.00  0.00    -0.214 C  
HETATM   18  N   UNL     1     -12.377   9.579  70.707  1.00  0.00    -0.465 NA 
HETATM   19  H1  UNL     1     -12.924   9.299  71.522  1.00  0.00     0.000 HD 
HETATM   20  H2  UNL     1     -11.375   9.498  70.881  1.00  0.00     0.000 HD 
ENDBRANCH  15  17
ENDBRANCH  12  13
ENDBRANCH   9  12
ENDBRANCH   5   9
BRANCH   6  21
HETATM   21  O   UNL     1     -10.937  15.133  70.052  1.00  0.00    -0.254 OA 
HETATM   22  C   UNL     1     -11.868  15.611  71.019  1.00  0.00    -0.400 C  
ENDBRANCH   6  21
ENDBRANCH   2   3
TORSDOF 6
ENDMDL
MODEL      125
REMARK 921   NORMALIZED FREE ENERGY PREDICTED BY IDOCK:   -4.28 KCAL/MOL
REMARK 922        TOTAL FREE ENERGY PREDICTED BY IDOCK:   -6.28 KCAL/MOL
REMARK 923 INTER-LIGAND FREE ENERGY PREDICTED BY IDOCK:   -5.64 KCAL/MOL
REMARK 924 INTRA-LIGAND FREE ENERGY PREDICTED BY IDOCK:   -0.64 KCAL/MOL
REMARK 927      BINDING AFFINITY PREDICTED BY RF-SCORE:    0.00 PKD
ROOT
HETATM    1  C   UNL     1     -12.357  12.675  65.012  1.00  0.00    -0.497 C  
HETATM    2  O   UNL     1     -11.199  12.510  65.826  1.00  0.00    -0.296 OA 
ENDROOT
BRANCH   2   3
HETATM    3  C   UNL     1     -11.065  13.357  66.891  1.00  0.00    -0.292 A  
HETATM    4  C   UNL     1     -10.112  14.366  67.013  1.00  0.00    -0.256 A  
HETATM    5  C   UNL     1     -10.036  15.190  68.159  1.00  0.00    -0.222 A  
HETATM    6  C   UNL     1     -10.976  14.978  69.192  1.00  0.00    -0.261 A  
HETATM    7  C   UNL     1     -11.935  13.965  69.065  1.00  0.00    -0.402 A  
HETATM    8  C   UNL     1     -11.977  13.161  67.923  1.00  0.00    -0.347 A  
BRANCH   5   9
HETATM    9  C   UNL     1      -8.967  16.280  68.276  1.00  0.00    -0.192 C  
HETATM   10  O   UNL     1      -8.038  15.972  69.329  1.00  0.00    -0.232 OA 
HETATM   11  H   UNL     1      -7.375  16.647  69.402  1.00  0.00     0.000 HD 
BRANCH   9  12
HETATM   12  C   UNL     1      -8.122  16.478  67.001  1.00  0.00    -0.201 C  
BRANCH  12  13
HETATM   13  N   UNL     1      -8.218  17.789  66.397  1.00  0.00    -0.262 N  
HETATM   14  H   UNL     1      -8.861  17.953  65.623  1.00  0.00     0.000 HD 
HETATM   15  C   UNL     1      -7.433  18.815  66.879  1.00  0.00    -0.221 C  
HETATM   16  O   UNL     1      -6.577  18.657  67.748  1.00  0.00    -0.207 OA 
BRANCH  15  17
HETATM   17  C   UNL     1      -7.723  20.187  66.267  1.00  0.00    -0.261 C  
HETATM   18  N   UNL     1      -7.237  21.272  67.137  1.00  0.00    -0.777 NA 
HETATM   19  H1  UNL     1      -7.431  22.187  66.728  1.00  0.00     0.000 HD 
HETATM   20  H2  UNL     1      -6.247  21.161  67.357  1.00  0.00     0.000 HD 
ENDBRANCH  15  17
ENDBRANCH  12  13
ENDBRANCH   9  12
ENDBRANCH   5   9
BRANCH   6  21
HETATM   21  O   UNL     1     -10.870  15.803  70.281  1.00  0.00    -0.311 OA 
HETATM   22  C   UNL     1     -11.621  15.458  71.442  1.00  0.00    -0.402 C  
ENDBRANCH   6  21
ENDBRANCH   2   3
TORSDOF 6
ENDMDL
MODEL      126
REMARK 921   NORMALIZED FREE ENERGY PREDICTED BY IDOCK:   -4.28 KCAL/MOL
REMARK 922        TOTAL FREE ENERGY PREDICTED BY IDOCK:   -6.28 KCAL/MOL
REMARK 923 INTER-LIGAND FREE ENERGY PREDICTED BY IDOCK:   -5.63 KCAL/MOL
REMARK 924 INTRA-LIGAND FREE ENERGY PREDICTED BY IDOCK:   -0.65 KCAL/MOL
REMARK 927      BINDING AFFINITY PREDICTED BY RF-SCORE:    0.00 PKD
ROOT
HETATM    1  C   UNL     1     -10.739  17.188  67.956  1.00  0.00    -0.372 C  
HETATM    2  O   UNL     1      -9.959  16.357  67.101  1.00  0.00    -0.248 OA 
ENDROOT
BRANCH   2   3
HETATM    3  C   UNL     1      -9.889  15.030  67.424  1.00  0.00    -0.224 A  
HETATM    4  C   UNL     1     -10.948  14.247  67.878  1.00  0.00    -0.278 A  
HETATM    5  C   UNL     1     -10.783  12.880  68.203  1.00  0.00    -0.258 A  
HETATM    6  C   UNL     1      -9.502  12.309  68.039  1.00  0.00    -0.206 A  
HETATM    7  C   UNL     1      -8.440  13.098  67.580  1.00  0.00    -0.198 A  
HETATM    8  C   UNL     1      -8.634  14.449  67.276  1.00  0.00    -0.230 A  
BRANCH   5   9
HETATM    9  C   UNL     1     -11.959  12.046  68.719  1.00  0.00    -0.244 C  
HETATM   10  O   UNL     1     -12.001  10.767  68.066  1.00  0.00    -0.780 OA 
HETATM   11  H   UNL     1     -12.730  10.248  68.386  1.00  0.00     0.000 HD 
BRANCH   9  12
HETATM   12  C   UNL     1     -11.914  11.755  70.233  1.00  0.00    -0.343 C  
BRANCH  12  13
HETATM   13  N   UNL     1     -11.343  10.478  70.597  1.00  0.00    -0.380 N  
HETATM   14  H   UNL     1     -10.367  10.271  70.386  1.00  0.00     0.000 HD 
HETATM   15  C   UNL     1     -12.130   9.541  71.234  1.00  0.00    -0.360 C  
HETATM   16  O   UNL     1     -13.333   9.697  71.434  1.00  0.00    -0.371 OA 
BRANCH  15  17
HETATM   17  C   UNL     1     -11.386   8.289  71.701  1.00  0.00    -0.272 C  
HETATM   18  N   UNL     1     -12.127   7.598  72.773  1.00  0.00    -0.588 NA 
HETATM   19  H1  UNL     1     -11.630   6.763  73.085  1.00  0.00     0.000 HD 
HETATM   20  H2  UNL     1     -13.082   7.383  72.489  1.00  0.00     0.000 HD 
ENDBRANCH  15  17
ENDBRANCH  12  13
ENDBRANCH   9  12
ENDBRANCH   5   9
BRANCH   6  21
HETATM   21  O   UNL     1      -9.388  10.982  68.361  1.00  0.00    -0.164 OA 
HETATM   22  C   UNL     1      -8.182  10.318  67.995  1.00  0.00    -0.113 C  
ENDBRANCH   6  21
ENDBRANCH   2   3
TORSDOF 6
ENDMDL
MODEL      127
REMARK 921   NORMALIZED FREE ENERGY PREDICTED BY IDOCK:   -4.25 KCAL/MOL
REMARK 922        TOTAL FREE ENERGY PREDICTED BY IDOCK:   -6.24 KCAL/MOL
REMARK 923 INTER-LIGAND FREE ENERGY PREDICTED BY IDOCK:   -5.34 KCAL/MOL
REMARK 924 INTRA-LIGAND FREE ENERGY PREDICTED BY IDOCK:   -0.90 KCAL/MOL
REMARK 927      BINDING AFFINITY PREDICTED BY RF-SCORE:    0.00 PKD
ROOT
HETATM    1  C   UNL     1     -10.729   7.361  70.265  1.00  0.00    -0.237 C  
HETATM    2  O   UNL     1     -11.019   8.691  70.687  1.00  0.00    -0.230 OA 
ENDROOT
BRANCH   2   3
HETATM    3  C   UNL     1     -10.942   9.672  69.738  1.00  0.00    -0.240 A  
HETATM    4  C   UNL     1     -10.122   9.652  68.612  1.00  0.00    -0.196 A  
HETATM    5  C   UNL     1     -10.095  10.719  67.685  1.00  0.00    -0.205 A  
HETATM    6  C   UNL     1     -10.946  11.822  67.919  1.00  0.00    -0.221 A  
HETATM    7  C   UNL     1     -11.772  11.838  69.050  1.00  0.00    -0.390 A  
HETATM    8  C   UNL     1     -11.768  10.771  69.953  1.00  0.00    -0.412 A  
BRANCH   5   9
HETATM    9  C   UNL     1      -9.170  10.681  66.465  1.00  0.00    -0.166 C  
HETATM   10  O   UNL     1      -7.964   9.960  66.763  1.00  0.00    -0.114 OA 
HETATM   11  H   UNL     1      -7.390   9.936  66.007  1.00  0.00     0.000 HD 
BRANCH   9  12
HETATM   12  C   UNL     1      -9.785   9.999  65.226  1.00  0.00    -0.306 C  
BRANCH  12  13
HETATM   13  N   UNL     1     -11.010  10.596  64.740  1.00  0.00     0.062 N  
HETATM   14  H   UNL     1     -11.912  10.280  65.093  1.00  0.00     0.000 HD 
HETATM   15  C   UNL     1     -10.945  11.597  63.793  1.00  0.00    -0.422 C  
HETATM   16  O   UNL     1      -9.895  11.956  63.264  1.00  0.00    -0.407 OA 
BRANCH  15  17
HETATM   17  C   UNL     1     -12.286  12.254  63.462  1.00  0.00    -0.565 C  
HETATM   18  N   UNL     1     -13.092  12.461  64.678  1.00  0.00    -0.786 NA 
HETATM   19  H1  UNL     1     -13.987  12.899  64.457  1.00  0.00     0.000 HD 
HETATM   20  H2  UNL     1     -12.579  12.990  65.382  1.00  0.00     0.000 HD 
ENDBRANCH  15  17
ENDBRANCH  12  13
ENDBRANCH   9  12
ENDBRANCH   5   9
BRANCH   6  21
HETATM   21  O   UNL     1     -10.893  12.831  66.993  1.00  0.00    -0.250 OA 
HETATM   22  C   UNL     1     -10.606  14.143  67.467  1.00  0.00    -0.257 C  
ENDBRANCH   6  21
ENDBRANCH   2   3
TORSDOF 6
ENDMDL
MODEL      128
REMARK 921   NORMALIZED FREE ENERGY PREDICTED BY IDOCK:   -4.25 KCAL/MOL
REMARK 922        TOTAL FREE ENERGY PREDICTED BY IDOCK:   -6.24 KCAL/MOL
REMARK 923 INTER-LIGAND FREE ENERGY PREDICTED BY IDOCK:   -5.71 KCAL/MOL
REMARK 924 INTRA-LIGAND FREE ENERGY PREDICTED BY IDOCK:   -0.53 KCAL/MOL
REMARK 927      BINDING AFFINITY PREDICTED BY RF-SCORE:    0.00 PKD
ROOT
HETATM    1  C   UNL     1      -5.895  11.496  68.388  1.00  0.00    -0.045 C  
HETATM    2  O   UNL     1      -6.985  10.776  68.958  1.00  0.00    -0.068 OA 
ENDROOT
BRANCH   2   3
HETATM    3  C   UNL     1      -8.235  11.077  68.494  1.00  0.00    -0.146 A  
HETATM    4  C   UNL     1      -9.432  10.828  69.162  1.00  0.00    -0.151 A  
HETATM    5  C   UNL     1     -10.686  11.161  68.601  1.00  0.00    -0.234 A  
HETATM    6  C   UNL     1     -10.702  11.779  67.331  1.00  0.00    -0.236 A  
HETATM    7  C   UNL     1      -9.497  12.031  66.663  1.00  0.00    -0.222 A  
HETATM    8  C   UNL     1      -8.273  11.680  67.241  1.00  0.00    -0.159 A  
BRANCH   5   9
HETATM    9  C   UNL     1     -11.989  10.859  69.348  1.00  0.00    -0.322 C  
HETATM   10  O   UNL     1     -12.026   9.487  69.774  1.00  0.00    -0.440 OA 
HETATM   11  H   UNL     1     -12.834   9.300  70.237  1.00  0.00     0.000 HD 
BRANCH   9  12
HETATM   12  C   UNL     1     -12.203  11.710  70.617  1.00  0.00    -0.366 C  
BRANCH  12  13
HETATM   13  N   UNL     1     -12.086  13.139  70.425  1.00  0.00    -0.455 N  
HETATM   14  H   UNL     1     -11.507  13.513  69.673  1.00  0.00     0.000 HD 
HETATM   15  C   UNL     1     -12.766  13.993  71.269  1.00  0.00    -0.365 C  
HETATM   16  O   UNL     1     -13.405  13.606  72.245  1.00  0.00    -0.443 OA 
BRANCH  15  17
HETATM   17  C   UNL     1     -12.688  15.471  70.885  1.00  0.00    -0.468 C  
HETATM   18  N   UNL     1     -12.254  16.296  72.026  1.00  0.00    -0.597 NA 
HETATM   19  H1  UNL     1     -12.202  17.283  71.770  1.00  0.00     0.000 HD 
HETATM   20  H2  UNL     1     -11.372  15.963  72.416  1.00  0.00     0.000 HD 
ENDBRANCH  15  17
ENDBRANCH  12  13
ENDBRANCH   9  12
ENDBRANCH   5   9
BRANCH   6  21
HETATM   21  O   UNL     1     -11.938  12.090  66.827  1.00  0.00    -0.616 OA 
HETATM   22  C   UNL     1     -12.168  13.440  66.436  1.00  0.00    -0.376 C  
ENDBRANCH   6  21
ENDBRANCH   2   3
TORSDOF 6
ENDMDL
MODEL      129
REMARK 921   NORMALIZED FREE ENERGY PREDICTED BY IDOCK:   -4.23 KCAL/MOL
REMARK 922        TOTAL FREE ENERGY PREDICTED BY IDOCK:   -6.21 KCAL/MOL
REMARK 923 INTER-LIGAND FREE ENERGY PREDICTED BY IDOCK:   -5.63 KCAL/MOL
REMARK 924 INTRA-LIGAND FREE ENERGY PREDICTED BY IDOCK:   -0.59 KCAL/MOL
REMARK 927      BINDING AFFINITY PREDICTED BY RF-SCORE:    0.00 PKD
ROOT
HETATM    1  C   UNL     1      -9.287  10.057  68.401  1.00  0.00    -0.138 C  
HETATM    2  O   UNL     1      -9.831  11.228  69.003  1.00  0.00    -0.178 OA 
ENDROOT
BRANCH   2   3
HETATM    3  C   UNL     1     -10.264  12.213  68.158  1.00  0.00    -0.203 A  
HETATM    4  C   UNL     1      -9.657  13.454  67.978  1.00  0.00    -0.219 A  
HETATM    5  C   UNL     1     -10.182  14.422  67.091  1.00  0.00    -0.257 A  
HETATM    6  C   UNL     1     -11.347  14.093  66.364  1.00  0.00    -0.338 A  
HETATM    7  C   UNL     1     -11.953  12.843  66.545  1.00  0.00    -0.447 A  
HETATM    8  C   UNL     1     -11.415  11.912  67.437  1.00  0.00    -0.393 A  
BRANCH   5   9
HETATM    9  C   UNL     1      -9.507  15.786  66.925  1.00  0.00    -0.228 C  
HETATM   10  O   UNL     1      -9.319  16.096  65.534  1.00  0.00    -0.405 OA 
HETATM   11  H   UNL     1      -8.901  16.943  65.431  1.00  0.00     0.000 HD 
BRANCH   9  12
HETATM   12  C   UNL     1     -10.302  16.964  67.526  1.00  0.00    -0.318 C  
BRANCH  12  13
HETATM   13  N   UNL     1      -9.497  18.048  68.043  1.00  0.00    -0.276 N  
HETATM   14  H   UNL     1      -9.206  18.053  69.021  1.00  0.00     0.000 HD 
HETATM   15  C   UNL     1      -9.125  19.077  67.202  1.00  0.00    -0.283 C  
HETATM   16  O   UNL     1      -9.519  19.172  66.041  1.00  0.00    -0.437 OA 
BRANCH  15  17
HETATM   17  C   UNL     1      -8.157  20.089  67.816  1.00  0.00    -0.285 C  
HETATM   18  N   UNL     1      -7.605  20.989  66.787  1.00  0.00    -0.589 NA 
HETATM   19  H1  UNL     1      -6.959  21.664  67.197  1.00  0.00     0.000 HD 
HETATM   20  H2  UNL     1      -8.345  21.451  66.257  1.00  0.00     0.000 HD 
ENDBRANCH  15  17
ENDBRANCH  12  13
ENDBRANCH   9  12
ENDBRANCH   5   9
BRANCH   6  21
HETATM   21  O   UNL     1     -11.818  15.057  65.511  1.00  0.00    -0.224 OA 
HETATM   22  C   UNL     1     -12.283  14.635  64.233  1.00  0.00    -0.408 C  
ENDBRANCH   6  21
ENDBRANCH   2   3
TORSDOF 6
ENDMDL
MODEL      130
REMARK 921   NORMALIZED FREE ENERGY PREDICTED BY IDOCK:   -4.22 KCAL/MOL
REMARK 922        TOTAL FREE ENERGY PREDICTED BY IDOCK:   -6.20 KCAL/MOL
REMARK 923 INTER-LIGAND FREE ENERGY PREDICTED BY IDOCK:   -5.62 KCAL/MOL
REMARK 924 INTRA-LIGAND FREE ENERGY PREDICTED BY IDOCK:   -0.58 KCAL/MOL
REMARK 927      BINDING AFFINITY PREDICTED BY RF-SCORE:    0.00 PKD
ROOT
HETATM    1  C   UNL     1     -12.309  16.216  73.511  1.00  0.00    -0.559 C  
HETATM    2  O   UNL     1     -13.102  15.878  72.376  1.00  0.00    -0.459 OA 
ENDROOT
BRANCH   2   3
HETATM    3  C   UNL     1     -12.446  15.351  71.299  1.00  0.00    -0.397 A  
HETATM    4  C   UNL     1     -11.471  15.998  70.543  1.00  0.00    -0.409 A  
HETATM    5  C   UNL     1     -10.852  15.380  69.432  1.00  0.00    -0.263 A  
HETATM    6  C   UNL     1     -11.237  14.062  69.107  1.00  0.00    -0.269 A  
HETATM    7  C   UNL     1     -12.215  13.412  69.870  1.00  0.00    -0.337 A  
HETATM    8  C   UNL     1     -12.816  14.054  70.957  1.00  0.00    -0.410 A  
BRANCH   5   9
HETATM    9  C   UNL     1      -9.796  16.121  68.606  1.00  0.00    -0.226 C  
HETATM   10  O   UNL     1     -10.004  17.541  68.669  1.00  0.00    -0.310 OA 
HETATM   11  H   UNL     1      -9.349  18.001  68.157  1.00  0.00     0.000 HD 
BRANCH   9  12
HETATM   12  C   UNL     1      -8.345  15.877  69.069  1.00  0.00    -0.239 C  
BRANCH  12  13
HETATM   13  N   UNL     1      -8.006  14.495  69.327  1.00  0.00    -0.338 N  
HETATM   14  H   UNL     1      -8.411  14.006  70.125  1.00  0.00     0.000 HD 
HETATM   15  C   UNL     1      -7.129  13.845  68.484  1.00  0.00    -0.104 C  
HETATM   16  O   UNL     1      -6.541  14.406  67.562  1.00  0.00    -0.231 OA 
BRANCH  15  17
HETATM   17  C   UNL     1      -6.958  12.351  68.766  1.00  0.00    -0.094 C  
HETATM   18  N   UNL     1      -6.659  12.108  70.189  1.00  0.00    -0.430 NA 
HETATM   19  H1  UNL     1      -6.545  11.111  70.376  1.00  0.00     0.000 HD 
HETATM   20  H2  UNL     1      -7.364  12.526  70.796  1.00  0.00     0.000 HD 
ENDBRANCH  15  17
ENDBRANCH  12  13
ENDBRANCH   9  12
ENDBRANCH   5   9
BRANCH   6  21
HETATM   21  O   UNL     1     -10.608  13.499  68.026  1.00  0.00    -0.229 OA 
HETATM   22  C   UNL     1     -11.408  12.748  67.118  1.00  0.00    -0.314 C  
ENDBRANCH   6  21
ENDBRANCH   2   3
TORSDOF 6
ENDMDL
MODEL      131
REMARK 921   NORMALIZED FREE ENERGY PREDICTED BY IDOCK:   -4.21 KCAL/MOL
REMARK 922        TOTAL FREE ENERGY PREDICTED BY IDOCK:   -6.19 KCAL/MOL
REMARK 923 INTER-LIGAND FREE ENERGY PREDICTED BY IDOCK:   -5.58 KCAL/MOL
REMARK 924 INTRA-LIGAND FREE ENERGY PREDICTED BY IDOCK:   -0.60 KCAL/MOL
REMARK 927      BINDING AFFINITY PREDICTED BY RF-SCORE:    0.00 PKD
ROOT
HETATM    1  C   UNL     1     -11.528   6.863  71.794  1.00  0.00    -0.275 C  
HETATM    2  O   UNL     1     -11.423   7.617  70.590  1.00  0.00    -0.282 OA 
ENDROOT
BRANCH   2   3
HETATM    3  C   UNL     1     -11.775   8.937  70.654  1.00  0.00    -0.179 A  
HETATM    4  C   UNL     1     -11.398   9.924  69.747  1.00  0.00    -0.241 A  
HETATM    5  C   UNL     1     -11.797  11.272  69.898  1.00  0.00    -0.436 A  
HETATM    6  C   UNL     1     -12.617  11.602  71.000  1.00  0.00    -0.331 A  
HETATM    7  C   UNL     1     -12.998  10.606  71.909  1.00  0.00    -0.542 A  
HETATM    8  C   UNL     1     -12.578   9.284  71.736  1.00  0.00    -0.461 A  
BRANCH   5   9
HETATM    9  C   UNL     1     -11.353  12.343  68.897  1.00  0.00    -0.294 C  
HETATM   10  O   UNL     1     -10.799  13.480  69.579  1.00  0.00    -0.443 OA 
HETATM   11  H   UNL     1     -10.523  14.144  68.958  1.00  0.00     0.000 HD 
BRANCH   9  12
HETATM   12  C   UNL     1     -10.273  11.870  67.902  1.00  0.00    -0.193 C  
BRANCH  12  13
HETATM   13  N   UNL     1      -8.908  12.057  68.341  1.00  0.00    -0.252 N  
HETATM   14  H   UNL     1      -8.525  11.485  69.093  1.00  0.00     0.000 HD 
HETATM   15  C   UNL     1      -8.127  13.018  67.733  1.00  0.00    -0.168 C  
HETATM   16  O   UNL     1      -8.558  13.797  66.885  1.00  0.00    -0.196 OA 
BRANCH  15  17
HETATM   17  C   UNL     1      -6.663  13.028  68.174  1.00  0.00    -0.103 C  
HETATM   18  N   UNL     1      -6.538  12.726  69.611  1.00  0.00    -0.318 NA 
HETATM   19  H1  UNL     1      -5.561  12.733  69.906  1.00  0.00     0.000 HD 
HETATM   20  H2  UNL     1      -6.996  11.846  69.850  1.00  0.00     0.000 HD 
ENDBRANCH  15  17
ENDBRANCH  12  13
ENDBRANCH   9  12
ENDBRANCH   5   9
BRANCH   6  21
HETATM   21  O   UNL     1     -12.985  12.918  71.105  1.00  0.00    -0.279 OA 
HETATM   22  C   UNL     1     -13.698  13.310  72.274  1.00  0.00    -0.589 C  
ENDBRANCH   6  21
ENDBRANCH   2   3
TORSDOF 6
ENDMDL
MODEL      132
REMARK 921   NORMALIZED FREE ENERGY PREDICTED BY IDOCK:   -4.21 KCAL/MOL
REMARK 922        TOTAL FREE ENERGY PREDICTED BY IDOCK:   -6.18 KCAL/MOL
REMARK 923 INTER-LIGAND FREE ENERGY PREDICTED BY IDOCK:   -5.71 KCAL/MOL
REMARK 924 INTRA-LIGAND FREE ENERGY PREDICTED BY IDOCK:   -0.47 KCAL/MOL
REMARK 927      BINDING AFFINITY PREDICTED BY RF-SCORE:    0.00 PKD
ROOT
HETATM    1  C   UNL     1     -14.409  15.440  72.254  1.00  0.00    -0.483 C  
HETATM    2  O   UNL     1     -12.987  15.359  72.232  1.00  0.00    -0.335 OA 
ENDROOT
BRANCH   2   3
HETATM    3  C   UNL     1     -12.426  14.606  71.237  1.00  0.00    -0.339 A  
HETATM    4  C   UNL     1     -12.656  13.250  71.016  1.00  0.00    -0.408 A  
HETATM    5  C   UNL     1     -12.021  12.544  69.969  1.00  0.00    -0.372 A  
HETATM    6  C   UNL     1     -11.145  13.258  69.123  1.00  0.00    -0.209 A  
HETATM    7  C   UNL     1     -10.917  14.622  69.346  1.00  0.00    -0.279 A  
HETATM    8  C   UNL     1     -11.553  15.289  70.397  1.00  0.00    -0.341 A  
BRANCH   5   9
HETATM    9  C   UNL     1     -12.277  11.049  69.758  1.00  0.00    -0.318 C  
HETATM   10  O   UNL     1     -12.197  10.709  68.364  1.00  0.00    -0.822 OA 
HETATM   11  H   UNL     1     -12.355   9.782  68.233  1.00  0.00     0.000 HD 
BRANCH   9  12
HETATM   12  C   UNL     1     -11.277  10.126  70.485  1.00  0.00    -0.336 C  
BRANCH  12  13
HETATM   13  N   UNL     1      -9.888  10.332  70.138  1.00  0.00    -0.405 N  
HETATM   14  H   UNL     1      -9.606  11.154  69.604  1.00  0.00     0.000 HD 
HETATM   15  C   UNL     1      -8.946   9.406  70.538  1.00  0.00    -0.253 C  
HETATM   16  O   UNL     1      -9.236   8.354  71.105  1.00  0.00    -0.150 OA 
BRANCH  15  17
HETATM   17  C   UNL     1      -7.497   9.799  70.245  1.00  0.00    -0.164 C  
HETATM   18  N   UNL     1      -7.333  10.223  68.843  1.00  0.00    -0.083 NA 
HETATM   19  H1  UNL     1      -6.366  10.484  68.648  1.00  0.00     0.000 HD 
HETATM   20  H2  UNL     1      -7.981  10.972  68.600  1.00  0.00     0.000 HD 
ENDBRANCH  15  17
ENDBRANCH  12  13
ENDBRANCH   9  12
ENDBRANCH   5   9
BRANCH   6  21
HETATM   21  O   UNL     1     -10.555  12.536  68.118  1.00  0.00    -0.212 OA 
HETATM   22  C   UNL     1      -9.290  12.985  67.641  1.00  0.00    -0.202 C  
ENDBRANCH   6  21
ENDBRANCH   2   3
TORSDOF 6
ENDMDL
MODEL      133
REMARK 921   NORMALIZED FREE ENERGY PREDICTED BY IDOCK:   -4.19 KCAL/MOL
REMARK 922        TOTAL FREE ENERGY PREDICTED BY IDOCK:   -6.16 KCAL/MOL
REMARK 923 INTER-LIGAND FREE ENERGY PREDICTED BY IDOCK:   -5.72 KCAL/MOL
REMARK 924 INTRA-LIGAND FREE ENERGY PREDICTED BY IDOCK:   -0.44 KCAL/MOL
REMARK 927      BINDING AFFINITY PREDICTED BY RF-SCORE:    0.00 PKD
ROOT
HETATM    1  C   UNL     1      -8.050  18.795  66.903  1.00  0.00    -0.259 C  
HETATM    2  O   UNL     1      -9.451  18.846  67.155  1.00  0.00    -0.295 OA 
ENDROOT
BRANCH   2   3
HETATM    3  C   UNL     1     -10.085  17.654  67.372  1.00  0.00    -0.331 A  
HETATM    4  C   UNL     1     -10.351  16.686  66.405  1.00  0.00    -0.310 A  
HETATM    5  C   UNL     1     -11.025  15.483  66.715  1.00  0.00    -0.257 A  
HETATM    6  C   UNL     1     -11.418  15.269  68.054  1.00  0.00    -0.341 A  
HETATM    7  C   UNL     1     -11.146  16.241  69.025  1.00  0.00    -0.331 A  
HETATM    8  C   UNL     1     -10.486  17.425  68.684  1.00  0.00    -0.355 A  
BRANCH   5   9
HETATM    9  C   UNL     1     -11.322  14.444  65.630  1.00  0.00    -0.330 C  
HETATM   10  O   UNL     1     -11.041  14.976  64.325  1.00  0.00    -0.635 OA 
HETATM   11  H   UNL     1     -11.225  14.332  63.651  1.00  0.00     0.000 HD 
BRANCH   9  12
HETATM   12  C   UNL     1     -10.498  13.146  65.753  1.00  0.00    -0.283 C  
BRANCH  12  13
HETATM   13  N   UNL     1      -9.171  13.311  66.305  1.00  0.00    -0.461 N  
HETATM   14  H   UNL     1      -8.518  13.973  65.888  1.00  0.00     0.000 HD 
HETATM   15  C   UNL     1      -8.797  12.563  67.402  1.00  0.00    -0.187 C  
HETATM   16  O   UNL     1      -9.506  11.686  67.892  1.00  0.00    -0.170 OA 
BRANCH  15  17
HETATM   17  C   UNL     1      -7.431  12.923  67.988  1.00  0.00    -0.125 C  
HETATM   18  N   UNL     1      -6.580  13.588  66.985  1.00  0.00    -0.357 NA 
HETATM   19  H1  UNL     1      -5.668  13.829  67.377  1.00  0.00     0.000 HD 
HETATM   20  H2  UNL     1      -7.042  14.403  66.582  1.00  0.00     0.000 HD 
ENDBRANCH  15  17
ENDBRANCH  12  13
ENDBRANCH   9  12
ENDBRANCH   5   9
BRANCH   6  21
HETATM   21  O   UNL     1     -12.063  14.088  68.312  1.00  0.00    -0.355 OA 
HETATM   22  C   UNL     1     -11.877  13.503  69.597  1.00  0.00    -0.336 C  
ENDBRANCH   6  21
ENDBRANCH   2   3
TORSDOF 6
ENDMDL
MODEL      134
REMARK 921   NORMALIZED FREE ENERGY PREDICTED BY IDOCK:   -4.18 KCAL/MOL
REMARK 922        TOTAL FREE ENERGY PREDICTED BY IDOCK:   -6.15 KCAL/MOL
REMARK 923 INTER-LIGAND FREE ENERGY PREDICTED BY IDOCK:   -5.56 KCAL/MOL
REMARK 924 INTRA-LIGAND FREE ENERGY PREDICTED BY IDOCK:   -0.59 KCAL/MOL
REMARK 927      BINDING AFFINITY PREDICTED BY RF-SCORE:    0.00 PKD
ROOT
HETATM    1  C   UNL     1      -9.556   5.214  66.357  1.00  0.00    -0.161 C  
HETATM    2  O   UNL     1     -10.801   5.595  66.936  1.00  0.00    -0.286 OA 
ENDROOT
BRANCH   2   3
HETATM    3  C   UNL     1     -10.762   6.556  67.908  1.00  0.00    -0.287 A  
HETATM    4  C   UNL     1     -10.531   7.914  67.701  1.00  0.00    -0.303 A  
HETATM    5  C   UNL     1     -10.494   8.839  68.770  1.00  0.00    -0.214 A  
HETATM    6  C   UNL     1     -10.718   8.353  70.076  1.00  0.00    -0.236 A  
HETATM    7  C   UNL     1     -10.954   6.987  70.282  1.00  0.00    -0.304 A  
HETATM    8  C   UNL     1     -10.974   6.097  69.204  1.00  0.00    -0.450 A  
BRANCH   5   9
HETATM    9  C   UNL     1     -10.220  10.324  68.517  1.00  0.00    -0.172 C  
HETATM   10  O   UNL     1      -9.014  10.740  69.180  1.00  0.00    -0.271 OA 
HETATM   11  H   UNL     1      -8.843  11.661  69.023  1.00  0.00     0.000 HD 
BRANCH   9  12
HETATM   12  C   UNL     1     -10.042  10.691  67.029  1.00  0.00    -0.211 C  
BRANCH  12  13
HETATM   13  N   UNL     1     -11.161  11.384  66.429  1.00  0.00    -0.277 N  
HETATM   14  H   UNL     1     -12.017  10.880  66.200  1.00  0.00     0.000 HD 
HETATM   15  C   UNL     1     -11.059  12.735  66.170  1.00  0.00    -0.290 C  
HETATM   16  O   UNL     1     -10.025  13.378  66.340  1.00  0.00    -0.279 OA 
BRANCH  15  17
HETATM   17  C   UNL     1     -12.349  13.391  65.673  1.00  0.00    -0.470 C  
HETATM   18  N   UNL     1     -12.613  13.047  64.264  1.00  0.00    -0.662 NA 
HETATM   19  H1  UNL     1     -13.474  13.485  63.933  1.00  0.00     0.000 HD 
HETATM   20  H2  UNL     1     -12.627  12.037  64.122  1.00  0.00     0.000 HD 
ENDBRANCH  15  17
ENDBRANCH  12  13
ENDBRANCH   9  12
ENDBRANCH   5   9
BRANCH   6  21
HETATM   21  O   UNL     1     -10.680   9.284  71.081  1.00  0.00    -0.278 OA 
HETATM   22  C   UNL     1     -11.924   9.786  71.561  1.00  0.00    -0.407 C  
ENDBRANCH   6  21
ENDBRANCH   2   3
TORSDOF 6
ENDMDL
MODEL      135
REMARK 921   NORMALIZED FREE ENERGY PREDICTED BY IDOCK:   -4.18 KCAL/MOL
REMARK 922        TOTAL FREE ENERGY PREDICTED BY IDOCK:   -6.15 KCAL/MOL
REMARK 923 INTER-LIGAND FREE ENERGY PREDICTED BY IDOCK:   -5.67 KCAL/MOL
REMARK 924 INTRA-LIGAND FREE ENERGY PREDICTED BY IDOCK:   -0.48 KCAL/MOL
REMARK 927      BINDING AFFINITY PREDICTED BY RF-SCORE:    0.00 PKD
ROOT
HETATM    1  C   UNL     1      -8.973  17.300  66.669  1.00  0.00    -0.256 C  
HETATM    2  O   UNL     1     -10.322  17.086  67.073  1.00  0.00    -0.305 OA 
ENDROOT
BRANCH   2   3
HETATM    3  C   UNL     1     -10.709  15.790  67.275  1.00  0.00    -0.313 A  
HETATM    4  C   UNL     1     -11.255  14.945  66.311  1.00  0.00    -0.331 A  
HETATM    5  C   UNL     1     -11.642  13.619  66.611  1.00  0.00    -0.391 A  
HETATM    6  C   UNL     1     -11.444  13.151  67.928  1.00  0.00    -0.308 A  
HETATM    7  C   UNL     1     -10.893  14.002  68.895  1.00  0.00    -0.278 A  
HETATM    8  C   UNL     1     -10.530  15.312  68.569  1.00  0.00    -0.235 A  
BRANCH   5   9
HETATM    9  C   UNL     1     -12.257  12.716  65.537  1.00  0.00    -0.440 C  
HETATM   10  O   UNL     1     -13.282  13.414  64.810  1.00  0.00    -0.590 OA 
HETATM   11  H   UNL     1     -13.663  12.854  64.144  1.00  0.00     0.000 HD 
BRANCH   9  12
HETATM   12  C   UNL     1     -11.251  12.208  64.484  1.00  0.00    -0.331 C  
BRANCH  12  13
HETATM   13  N   UNL     1     -10.349  11.175  64.944  1.00  0.00    -0.296 N  
HETATM   14  H   UNL     1     -10.466  10.764  65.870  1.00  0.00     0.000 HD 
HETATM   15  C   UNL     1      -9.329  10.750  64.117  1.00  0.00    -0.252 C  
HETATM   16  O   UNL     1      -9.084  11.269  63.030  1.00  0.00    -0.274 OA 
BRANCH  15  17
HETATM   17  C   UNL     1      -8.531   9.557  64.645  1.00  0.00    -0.166 C  
HETATM   18  N   UNL     1      -7.161   9.954  65.014  1.00  0.00    -0.124 NA 
HETATM   19  H1  UNL     1      -6.629   9.157  65.366  1.00  0.00     0.000 HD 
HETATM   20  H2  UNL     1      -7.161  10.728  65.678  1.00  0.00     0.000 HD 
ENDBRANCH  15  17
ENDBRANCH  12  13
ENDBRANCH   9  12
ENDBRANCH   5   9
BRANCH   6  21
HETATM   21  O   UNL     1     -11.828  11.859  68.173  1.00  0.00    -0.424 OA 
HETATM   22  C   UNL     1     -11.799  11.409  69.525  1.00  0.00    -0.357 C  
ENDBRANCH   6  21
ENDBRANCH   2   3
TORSDOF 6
ENDMDL
MODEL      136
REMARK 921   NORMALIZED FREE ENERGY PREDICTED BY IDOCK:   -4.18 KCAL/MOL
REMARK 922        TOTAL FREE ENERGY PREDICTED BY IDOCK:   -6.14 KCAL/MOL
REMARK 923 INTER-LIGAND FREE ENERGY PREDICTED BY IDOCK:   -5.90 KCAL/MOL
REMARK 924 INTRA-LIGAND FREE ENERGY PREDICTED BY IDOCK:   -0.24 KCAL/MOL
REMARK 927      BINDING AFFINITY PREDICTED BY RF-SCORE:    0.00 PKD
ROOT
HETATM    1  C   UNL     1      -9.038  17.288  66.675  1.00  0.00    -0.265 C  
HETATM    2  O   UNL     1     -10.414  16.990  66.895  1.00  0.00    -0.313 OA 
ENDROOT
BRANCH   2   3
HETATM    3  C   UNL     1     -10.766  15.669  66.912  1.00  0.00    -0.307 A  
HETATM    4  C   UNL     1     -10.504  14.744  65.903  1.00  0.00    -0.324 A  
HETATM    5  C   UNL     1     -10.917  13.395  65.998  1.00  0.00    -0.281 A  
HETATM    6  C   UNL     1     -11.600  12.991  67.166  1.00  0.00    -0.358 A  
HETATM    7  C   UNL     1     -11.859  13.922  68.180  1.00  0.00    -0.407 A  
HETATM    8  C   UNL     1     -11.446  15.251  68.051  1.00  0.00    -0.351 A  
BRANCH   5   9
HETATM    9  C   UNL     1     -10.634  12.403  64.866  1.00  0.00    -0.294 C  
HETATM   10  O   UNL     1     -10.000  13.062  63.758  1.00  0.00    -0.744 OA 
HETATM   11  H   UNL     1      -9.823  12.447  63.056  1.00  0.00     0.000 HD 
BRANCH   9  12
HETATM   12  C   UNL     1      -9.704  11.238  65.264  1.00  0.00    -0.239 C  
BRANCH  12  13
HETATM   13  N   UNL     1      -8.546  11.614  66.044  1.00  0.00    -0.374 N  
HETATM   14  H   UNL     1      -8.535  12.495  66.558  1.00  0.00     0.000 HD 
HETATM   15  C   UNL     1      -7.455  10.770  66.087  1.00  0.00    -0.129 C  
HETATM   16  O   UNL     1      -7.374   9.741  65.420  1.00  0.00    -0.106 OA 
BRANCH  15  17
HETATM   17  C   UNL     1      -6.352  11.198  67.057  1.00  0.00    -0.097 C  
HETATM   18  N   UNL     1      -5.381  12.090  66.398  1.00  0.00    -0.464 NA 
HETATM   19  H1  UNL     1      -4.644  12.375  67.045  1.00  0.00     0.000 HD 
HETATM   20  H2  UNL     1      -5.840  12.895  65.973  1.00  0.00     0.000 HD 
ENDBRANCH  15  17
ENDBRANCH  12  13
ENDBRANCH   9  12
ENDBRANCH   5   9
BRANCH   6  21
HETATM   21  O   UNL     1     -11.977  11.674  67.219  1.00  0.00    -0.627 OA 
HETATM   22  C   UNL     1     -11.707  10.960  68.421  1.00  0.00    -0.218 C  
ENDBRANCH   6  21
ENDBRANCH   2   3
TORSDOF 6
ENDMDL
MODEL      137
REMARK 921   NORMALIZED FREE ENERGY PREDICTED BY IDOCK:   -4.18 KCAL/MOL
REMARK 922        TOTAL FREE ENERGY PREDICTED BY IDOCK:   -6.14 KCAL/MOL
REMARK 923 INTER-LIGAND FREE ENERGY PREDICTED BY IDOCK:   -5.71 KCAL/MOL
REMARK 924 INTRA-LIGAND FREE ENERGY PREDICTED BY IDOCK:   -0.43 KCAL/MOL
REMARK 927      BINDING AFFINITY PREDICTED BY RF-SCORE:    0.00 PKD
ROOT
HETATM    1  C   UNL     1      -9.770   4.227  66.777  1.00  0.00    -0.219 C  
HETATM    2  O   UNL     1     -10.233   5.469  67.298  1.00  0.00    -0.170 OA 
ENDROOT
BRANCH   2   3
HETATM    3  C   UNL     1     -10.469   5.527  68.644  1.00  0.00    -0.169 A  
HETATM    4  C   UNL     1     -11.389   6.362  69.273  1.00  0.00    -0.405 A  
HETATM    5  C   UNL     1     -11.558   6.366  70.677  1.00  0.00    -0.412 A  
HETATM    6  C   UNL     1     -10.773   5.477  71.443  1.00  0.00    -0.221 A  
HETATM    7  C   UNL     1      -9.851   4.636  70.807  1.00  0.00    -0.284 A  
HETATM    8  C   UNL     1      -9.700   4.663  69.417  1.00  0.00    -0.272 A  
BRANCH   5   9
HETATM    9  C   UNL     1     -12.563   7.308  71.346  1.00  0.00    -0.388 C  
HETATM   10  O   UNL     1     -13.397   6.590  72.271  1.00  0.00    -0.527 OA 
HETATM   11  H   UNL     1     -14.021   7.174  72.686  1.00  0.00     0.000 HD 
BRANCH   9  12
HETATM   12  C   UNL     1     -11.918   8.456  72.150  1.00  0.00    -0.374 C  
BRANCH  12  13
HETATM   13  N   UNL     1     -11.357   9.524  71.353  1.00  0.00    -0.376 N  
HETATM   14  H   UNL     1     -10.346   9.654  71.304  1.00  0.00     0.000 HD 
HETATM   15  C   UNL     1     -12.201  10.367  70.660  1.00  0.00    -0.347 C  
HETATM   16  O   UNL     1     -13.426  10.316  70.752  1.00  0.00    -0.278 OA 
BRANCH  15  17
HETATM   17  C   UNL     1     -11.497  11.364  69.738  1.00  0.00    -0.300 C  
HETATM   18  N   UNL     1     -10.075  11.015  69.564  1.00  0.00    -0.441 NA 
HETATM   19  H1  UNL     1      -9.605  11.681  68.949  1.00  0.00     0.000 HD 
HETATM   20  H2  UNL     1      -9.961  10.056  69.237  1.00  0.00     0.000 HD 
ENDBRANCH  15  17
ENDBRANCH  12  13
ENDBRANCH   9  12
ENDBRANCH   5   9
BRANCH   6  21
HETATM   21  O   UNL     1     -10.974   5.509  72.798  1.00  0.00    -0.241 OA 
HETATM   22  C   UNL     1     -11.025   4.263  73.486  1.00  0.00    -0.287 C  
ENDBRANCH   6  21
ENDBRANCH   2   3
TORSDOF 6
ENDMDL
MODEL      138
REMARK 921   NORMALIZED FREE ENERGY PREDICTED BY IDOCK:   -4.17 KCAL/MOL
REMARK 922        TOTAL FREE ENERGY PREDICTED BY IDOCK:   -6.13 KCAL/MOL
REMARK 923 INTER-LIGAND FREE ENERGY PREDICTED BY IDOCK:   -5.33 KCAL/MOL
REMARK 924 INTRA-LIGAND FREE ENERGY PREDICTED BY IDOCK:   -0.80 KCAL/MOL
REMARK 927      BINDING AFFINITY PREDICTED BY RF-SCORE:    0.00 PKD
ROOT
HETATM    1  C   UNL     1     -10.620  13.557  65.244  1.00  0.00    -0.328 C  
HETATM    2  O   UNL     1     -10.487  12.154  65.457  1.00  0.00    -0.248 OA 
ENDROOT
BRANCH   2   3
HETATM    3  C   UNL     1     -10.626  11.708  66.742  1.00  0.00    -0.244 A  
HETATM    4  C   UNL     1      -9.764  10.830  67.396  1.00  0.00    -0.194 A  
HETATM    5  C   UNL     1      -9.992  10.409  68.727  1.00  0.00    -0.196 A  
HETATM    6  C   UNL     1     -11.125  10.919  69.399  1.00  0.00    -0.260 A  
HETATM    7  C   UNL     1     -11.988  11.803  68.740  1.00  0.00    -0.317 A  
HETATM    8  C   UNL     1     -11.740  12.193  67.421  1.00  0.00    -0.374 A  
BRANCH   5   9
HETATM    9  C   UNL     1      -9.040   9.429  69.417  1.00  0.00    -0.161 C  
HETATM   10  O   UNL     1      -8.787   9.833  70.773  1.00  0.00    -0.347 OA 
HETATM   11  H   UNL     1      -8.196   9.225  71.201  1.00  0.00     0.000 HD 
BRANCH   9  12
HETATM   12  C   UNL     1      -9.565   7.980  69.490  1.00  0.00    -0.164 C  
BRANCH  12  13
HETATM   13  N   UNL     1     -10.217   7.625  70.731  1.00  0.00    -0.200 N  
HETATM   14  H   UNL     1      -9.872   7.991  71.618  1.00  0.00     0.000 HD 
HETATM   15  C   UNL     1     -11.312   6.786  70.705  1.00  0.00    -0.334 C  
HETATM   16  O   UNL     1     -11.719   6.243  69.679  1.00  0.00    -0.382 OA 
BRANCH  15  17
HETATM   17  C   UNL     1     -12.008   6.597  72.053  1.00  0.00    -0.319 C  
HETATM   18  N   UNL     1     -13.435   6.956  71.971  1.00  0.00    -0.539 NA 
HETATM   19  H1  UNL     1     -13.900   6.830  72.871  1.00  0.00     0.000 HD 
HETATM   20  H2  UNL     1     -13.909   6.441  71.229  1.00  0.00     0.000 HD 
ENDBRANCH  15  17
ENDBRANCH  12  13
ENDBRANCH   9  12
ENDBRANCH   5   9
BRANCH   6  21
HETATM   21  O   UNL     1     -11.304  10.490  70.688  1.00  0.00    -0.322 OA 
HETATM   22  C   UNL     1     -12.643  10.303  71.139  1.00  0.00    -0.400 C  
ENDBRANCH   6  21
ENDBRANCH   2   3
TORSDOF 6
ENDMDL
MODEL      139
REMARK 921   NORMALIZED FREE ENERGY PREDICTED BY IDOCK:   -4.14 KCAL/MOL
REMARK 922        TOTAL FREE ENERGY PREDICTED BY IDOCK:   -6.09 KCAL/MOL
REMARK 923 INTER-LIGAND FREE ENERGY PREDICTED BY IDOCK:   -5.43 KCAL/MOL
REMARK 924 INTRA-LIGAND FREE ENERGY PREDICTED BY IDOCK:   -0.66 KCAL/MOL
REMARK 927      BINDING AFFINITY PREDICTED BY RF-SCORE:    0.00 PKD
ROOT
HETATM    1  C   UNL     1      -6.383  11.018  69.605  1.00  0.00    -0.106 C  
HETATM    2  O   UNL     1      -6.731   9.915  70.438  1.00  0.00    -0.108 OA 
ENDROOT
BRANCH   2   3
HETATM    3  C   UNL     1      -8.053   9.572  70.489  1.00  0.00    -0.166 A  
HETATM    4  C   UNL     1      -9.010   9.875  69.523  1.00  0.00    -0.224 A  
HETATM    5  C   UNL     1     -10.364   9.491  69.662  1.00  0.00    -0.236 A  
HETATM    6  C   UNL     1     -10.731   8.764  70.816  1.00  0.00    -0.228 A  
HETATM    7  C   UNL     1      -9.767   8.458  71.784  1.00  0.00    -0.306 A  
HETATM    8  C   UNL     1      -8.438   8.861  71.621  1.00  0.00    -0.137 A  
BRANCH   5   9
HETATM    9  C   UNL     1     -11.400   9.853  68.595  1.00  0.00     0.012 C  
HETATM   10  O   UNL     1     -12.494  10.583  69.173  1.00  0.00    -0.750 OA 
HETATM   11  H   UNL     1     -13.137  10.808  68.511  1.00  0.00     0.000 HD 
BRANCH   9  12
HETATM   12  C   UNL     1     -10.851  10.733  67.452  1.00  0.00    -0.290 C  
BRANCH  12  13
HETATM   13  N   UNL     1     -11.055  12.155  67.620  1.00  0.00    -0.251 N  
HETATM   14  H   UNL     1     -10.651  12.643  68.419  1.00  0.00     0.000 HD 
HETATM   15  C   UNL     1     -11.801  12.846  66.688  1.00  0.00    -0.395 C  
HETATM   16  O   UNL     1     -12.386  12.300  65.755  1.00  0.00    -0.622 OA 
BRANCH  15  17
HETATM   17  C   UNL     1     -11.827  14.363  66.885  1.00  0.00    -0.410 C  
HETATM   18  N   UNL     1     -12.200  14.714  68.267  1.00  0.00    -0.604 NA 
HETATM   19  H1  UNL     1     -12.218  15.726  68.398  1.00  0.00     0.000 HD 
HETATM   20  H2  UNL     1     -11.592  14.258  68.947  1.00  0.00     0.000 HD 
ENDBRANCH  15  17
ENDBRANCH  12  13
ENDBRANCH   9  12
ENDBRANCH   5   9
BRANCH   6  21
HETATM   21  O   UNL     1     -12.051   8.407  70.908  1.00  0.00    -0.253 OA 
HETATM   22  C   UNL     1     -12.368   7.254  71.682  1.00  0.00    -0.352 C  
ENDBRANCH   6  21
ENDBRANCH   2   3
TORSDOF 6
ENDMDL
MODEL      140
REMARK 921   NORMALIZED FREE ENERGY PREDICTED BY IDOCK:   -4.14 KCAL/MOL
REMARK 922        TOTAL FREE ENERGY PREDICTED BY IDOCK:   -6.08 KCAL/MOL
REMARK 923 INTER-LIGAND FREE ENERGY PREDICTED BY IDOCK:   -5.65 KCAL/MOL
REMARK 924 INTRA-LIGAND FREE ENERGY PREDICTED BY IDOCK:   -0.43 KCAL/MOL
REMARK 927      BINDING AFFINITY PREDICTED BY RF-SCORE:    0.00 PKD
ROOT
HETATM    1  C   UNL     1      -8.867   5.949  66.579  1.00  0.00    -0.128 C  
HETATM    2  O   UNL     1     -10.159   6.514  66.785  1.00  0.00    -0.175 OA 
ENDROOT
BRANCH   2   3
HETATM    3  C   UNL     1     -10.446   6.956  68.047  1.00  0.00    -0.211 A  
HETATM    4  C   UNL     1     -10.331   8.270  68.494  1.00  0.00    -0.230 A  
HETATM    5  C   UNL     1     -10.638   8.638  69.824  1.00  0.00    -0.224 A  
HETATM    6  C   UNL     1     -11.088   7.630  70.704  1.00  0.00    -0.257 A  
HETATM    7  C   UNL     1     -11.206   6.310  70.251  1.00  0.00    -0.455 A  
HETATM    8  C   UNL     1     -10.885   5.976  68.932  1.00  0.00    -0.400 A  
BRANCH   5   9
HETATM    9  C   UNL     1     -10.485  10.087  70.296  1.00  0.00    -0.272 C  
HETATM   10  O   UNL     1      -9.278  10.668  69.774  1.00  0.00    -0.406 OA 
HETATM   11  H   UNL     1      -9.183  11.567  70.066  1.00  0.00     0.000 HD 
BRANCH   9  12
HETATM   12  C   UNL     1     -11.635  11.019  69.862  1.00  0.00    -0.337 C  
BRANCH  12  13
HETATM   13  N   UNL     1     -11.221  12.277  69.281  1.00  0.00    -0.375 N  
HETATM   14  H   UNL     1     -10.758  12.982  69.854  1.00  0.00     0.000 HD 
HETATM   15  C   UNL     1     -11.456  12.514  67.942  1.00  0.00    -0.315 C  
HETATM   16  O   UNL     1     -12.087  11.741  67.223  1.00  0.00    -0.595 OA 
BRANCH  15  17
HETATM   17  C   UNL     1     -10.847  13.809  67.403  1.00  0.00    -0.277 C  
HETATM   18  N   UNL     1     -11.745  14.956  67.633  1.00  0.00    -0.384 NA 
HETATM   19  H1  UNL     1     -11.338  15.820  67.274  1.00  0.00     0.000 HD 
HETATM   20  H2  UNL     1     -11.999  15.041  68.617  1.00  0.00     0.000 HD 
ENDBRANCH  15  17
ENDBRANCH  12  13
ENDBRANCH   9  12
ENDBRANCH   5   9
BRANCH   6  21
HETATM   21  O   UNL     1     -11.380   8.031  71.982  1.00  0.00    -0.265 OA 
HETATM   22  C   UNL     1     -10.527   7.572  73.026  1.00  0.00    -0.342 C  
ENDBRANCH   6  21
ENDBRANCH   2   3
TORSDOF 6
ENDMDL
MODEL      141
REMARK 921   NORMALIZED FREE ENERGY PREDICTED BY IDOCK:   -4.13 KCAL/MOL
REMARK 922        TOTAL FREE ENERGY PREDICTED BY IDOCK:   -6.07 KCAL/MOL
REMARK 923 INTER-LIGAND FREE ENERGY PREDICTED BY IDOCK:   -5.48 KCAL/MOL
REMARK 924 INTRA-LIGAND FREE ENERGY PREDICTED BY IDOCK:   -0.60 KCAL/MOL
REMARK 927      BINDING AFFINITY PREDICTED BY RF-SCORE:    0.00 PKD
ROOT
HETATM    1  C   UNL     1      -7.419   7.127  70.476  1.00  0.00    -0.087 C  
HETATM    2  O   UNL     1      -8.720   7.708  70.492  1.00  0.00    -0.136 OA 
ENDROOT
BRANCH   2   3
HETATM    3  C   UNL     1      -9.012   8.597  69.496  1.00  0.00    -0.145 A  
HETATM    4  C   UNL     1      -9.874   9.687  69.605  1.00  0.00    -0.233 A  
HETATM    5  C   UNL     1     -10.130  10.551  68.516  1.00  0.00    -0.187 A  
HETATM    6  C   UNL     1      -9.470  10.293  67.295  1.00  0.00    -0.150 A  
HETATM    7  C   UNL     1      -8.602   9.198  67.188  1.00  0.00    -0.122 A  
HETATM    8  C   UNL     1      -8.377   8.357  68.282  1.00  0.00    -0.131 A  
BRANCH   5   9
HETATM    9  C   UNL     1     -11.096  11.731  68.657  1.00  0.00    -0.238 C  
HETATM   10  O   UNL     1     -12.127  11.668  67.658  1.00  0.00    -0.615 OA 
HETATM   11  H   UNL     1     -12.727  12.399  67.746  1.00  0.00     0.000 HD 
BRANCH   9  12
HETATM   12  C   UNL     1     -11.818  11.799  70.019  1.00  0.00    -0.342 C  
BRANCH  12  13
HETATM   13  N   UNL     1     -12.106  13.134  70.496  1.00  0.00    -0.489 N  
HETATM   14  H   UNL     1     -11.678  13.944  70.048  1.00  0.00     0.000 HD 
HETATM   15  C   UNL     1     -12.965  13.301  71.562  1.00  0.00    -0.337 C  
HETATM   16  O   UNL     1     -13.440  12.361  72.197  1.00  0.00    -0.525 OA 
BRANCH  15  17
HETATM   17  C   UNL     1     -13.310  14.755  71.886  1.00  0.00    -0.359 C  
HETATM   18  N   UNL     1     -13.962  15.415  70.740  1.00  0.00    -0.859 NA 
HETATM   19  H1  UNL     1     -14.192  16.386  70.956  1.00  0.00     0.000 HD 
HETATM   20  H2  UNL     1     -14.781  14.896  70.425  1.00  0.00     0.000 HD 
ENDBRANCH  15  17
ENDBRANCH  12  13
ENDBRANCH   9  12
ENDBRANCH   5   9
BRANCH   6  21
HETATM   21  O   UNL     1      -9.743  11.158  66.268  1.00  0.00    -0.199 OA 
HETATM   22  C   UNL     1     -10.114  10.593  65.013  1.00  0.00    -0.321 C  
ENDBRANCH   6  21
ENDBRANCH   2   3
TORSDOF 6
ENDMDL
MODEL      142
REMARK 921   NORMALIZED FREE ENERGY PREDICTED BY IDOCK:   -4.12 KCAL/MOL
REMARK 922        TOTAL FREE ENERGY PREDICTED BY IDOCK:   -6.06 KCAL/MOL
REMARK 923 INTER-LIGAND FREE ENERGY PREDICTED BY IDOCK:   -5.66 KCAL/MOL
REMARK 924 INTRA-LIGAND FREE ENERGY PREDICTED BY IDOCK:   -0.40 KCAL/MOL
REMARK 927      BINDING AFFINITY PREDICTED BY RF-SCORE:    0.00 PKD
ROOT
HETATM    1  C   UNL     1     -10.941  15.529  69.816  1.00  0.00    -0.294 C  
HETATM    2  O   UNL     1     -12.020  14.761  69.288  1.00  0.00    -0.303 OA 
ENDROOT
BRANCH   2   3
HETATM    3  C   UNL     1     -11.722  13.891  68.277  1.00  0.00    -0.361 A  
HETATM    4  C   UNL     1     -11.013  12.700  68.411  1.00  0.00    -0.284 A  
HETATM    5  C   UNL     1     -10.737  11.864  67.304  1.00  0.00    -0.276 A  
HETATM    6  C   UNL     1     -11.220  12.259  66.038  1.00  0.00    -0.332 A  
HETATM    7  C   UNL     1     -11.935  13.455  65.906  1.00  0.00    -0.452 A  
HETATM    8  C   UNL     1     -12.183  14.265  67.018  1.00  0.00    -0.338 A  
BRANCH   5   9
HETATM    9  C   UNL     1      -9.939  10.568  67.476  1.00  0.00    -0.172 C  
HETATM   10  O   UNL     1      -8.638  10.839  68.024  1.00  0.00    -0.123 OA 
HETATM   11  H   UNL     1      -8.143  10.036  68.131  1.00  0.00     0.000 HD 
BRANCH   9  12
HETATM   12  C   UNL     1     -10.597   9.538  68.417  1.00  0.00    -0.219 C  
BRANCH  12  13
HETATM   13  N   UNL     1     -10.839   8.238  67.831  1.00  0.00    -0.481 N  
HETATM   14  H   UNL     1     -11.311   8.157  66.931  1.00  0.00     0.000 HD 
HETATM   15  C   UNL     1     -10.424   7.106  68.502  1.00  0.00    -0.204 C  
HETATM   16  O   UNL     1      -9.931   7.134  69.628  1.00  0.00    -0.171 OA 
BRANCH  15  17
HETATM   17  C   UNL     1     -10.599   5.800  67.725  1.00  0.00    -0.237 C  
HETATM   18  N   UNL     1     -11.240   6.039  66.420  1.00  0.00    -0.722 NA 
HETATM   19  H1  UNL     1     -11.357   5.167  65.902  1.00  0.00     0.000 HD 
HETATM   20  H2  UNL     1     -10.732   6.735  65.874  1.00  0.00     0.000 HD 
ENDBRANCH  15  17
ENDBRANCH  12  13
ENDBRANCH   9  12
ENDBRANCH   5   9
BRANCH   6  21
HETATM   21  O   UNL     1     -10.935  11.416  64.995  1.00  0.00    -0.275 OA 
HETATM   22  C   UNL     1     -11.436  11.770  63.709  1.00  0.00    -0.420 C  
ENDBRANCH   6  21
ENDBRANCH   2   3
TORSDOF 6
ENDMDL
MODEL      143
REMARK 921   NORMALIZED FREE ENERGY PREDICTED BY IDOCK:   -4.12 KCAL/MOL
REMARK 922        TOTAL FREE ENERGY PREDICTED BY IDOCK:   -6.06 KCAL/MOL
REMARK 923 INTER-LIGAND FREE ENERGY PREDICTED BY IDOCK:   -5.53 KCAL/MOL
REMARK 924 INTRA-LIGAND FREE ENERGY PREDICTED BY IDOCK:   -0.54 KCAL/MOL
REMARK 927      BINDING AFFINITY PREDICTED BY RF-SCORE:    0.00 PKD
ROOT
HETATM    1  C   UNL     1     -10.547  13.389  66.067  1.00  0.00    -0.287 C  
HETATM    2  O   UNL     1     -11.607  12.856  66.856  1.00  0.00    -0.329 OA 
ENDROOT
BRANCH   2   3
HETATM    3  C   UNL     1     -11.317  11.761  67.623  1.00  0.00    -0.302 A  
HETATM    4  C   UNL     1     -10.901  10.521  67.145  1.00  0.00    -0.319 A  
HETATM    5  C   UNL     1     -10.635   9.436  68.011  1.00  0.00    -0.278 A  
HETATM    6  C   UNL     1     -10.785   9.643  69.400  1.00  0.00    -0.228 A  
HETATM    7  C   UNL     1     -11.201  10.892  69.878  1.00  0.00    -0.355 A  
HETATM    8  C   UNL     1     -11.466  11.942  68.994  1.00  0.00    -0.355 A  
BRANCH   5   9
HETATM    9  C   UNL     1     -10.196   8.076  67.459  1.00  0.00    -0.245 C  
HETATM   10  O   UNL     1      -9.023   7.603  68.141  1.00  0.00    -0.128 OA 
HETATM   11  H   UNL     1      -8.751   6.760  67.799  1.00  0.00     0.000 HD 
BRANCH   9  12
HETATM   12  C   UNL     1     -11.255   6.963  67.602  1.00  0.00    -0.077 C  
BRANCH  12  13
HETATM   13  N   UNL     1     -11.259   5.979  66.543  1.00  0.00    -0.750 N  
HETATM   14  H   UNL     1     -11.954   6.027  65.797  1.00  0.00     0.000 HD 
HETATM   15  C   UNL     1     -10.314   4.974  66.549  1.00  0.00    -0.284 C  
HETATM   16  O   UNL     1      -9.510   4.812  67.465  1.00  0.00    -0.131 OA 
BRANCH  15  17
HETATM   17  C   UNL     1     -10.320   4.080  65.307  1.00  0.00    -0.108 C  
HETATM   18  N   UNL     1     -11.526   4.311  64.491  1.00  0.00    -0.842 NA 
HETATM   19  H1  UNL     1     -11.530   3.714  63.663  1.00  0.00     0.000 HD 
HETATM   20  H2  UNL     1     -11.630   5.295  64.246  1.00  0.00     0.000 HD 
ENDBRANCH  15  17
ENDBRANCH  12  13
ENDBRANCH   9  12
ENDBRANCH   5   9
BRANCH   6  21
HETATM   21  O   UNL     1     -10.512   8.566  70.203  1.00  0.00    -0.210 OA 
HETATM   22  C   UNL     1      -9.925   8.827  71.475  1.00  0.00    -0.300 C  
ENDBRANCH   6  21
ENDBRANCH   2   3
TORSDOF 6
ENDMDL
MODEL      144
REMARK 921   NORMALIZED FREE ENERGY PREDICTED BY IDOCK:   -4.12 KCAL/MOL
REMARK 922        TOTAL FREE ENERGY PREDICTED BY IDOCK:   -6.06 KCAL/MOL
REMARK 923 INTER-LIGAND FREE ENERGY PREDICTED BY IDOCK:   -5.40 KCAL/MOL
REMARK 924 INTRA-LIGAND FREE ENERGY PREDICTED BY IDOCK:   -0.66 KCAL/MOL
REMARK 927      BINDING AFFINITY PREDICTED BY RF-SCORE:    0.00 PKD
ROOT
HETATM    1  C   UNL     1     -11.039  15.194  69.728  1.00  0.00    -0.278 C  
HETATM    2  O   UNL     1     -12.156  14.515  69.162  1.00  0.00    -0.308 OA 
ENDROOT
BRANCH   2   3
HETATM    3  C   UNL     1     -11.905  13.682  68.108  1.00  0.00    -0.372 A  
HETATM    4  C   UNL     1     -11.470  12.362  68.200  1.00  0.00    -0.370 A  
HETATM    5  C   UNL     1     -11.220  11.574  67.053  1.00  0.00    -0.365 A  
HETATM    6  C   UNL     1     -11.441  12.157  65.786  1.00  0.00    -0.361 A  
HETATM    7  C   UNL     1     -11.881  13.484  65.696  1.00  0.00    -0.397 A  
HETATM    8  C   UNL     1     -12.109  14.240  66.850  1.00  0.00    -0.440 A  
BRANCH   5   9
HETATM    9  C   UNL     1     -10.724  10.130  67.181  1.00  0.00    -0.221 C  
HETATM   10  O   UNL     1      -9.533   9.929  66.403  1.00  0.00    -0.165 OA 
HETATM   11  H   UNL     1      -9.225   9.034  66.482  1.00  0.00     0.000 HD 
BRANCH   9  12
HETATM   12  C   UNL     1     -10.373   9.707  68.623  1.00  0.00    -0.203 C  
BRANCH  12  13
HETATM   13  N   UNL     1      -8.961   9.693  68.933  1.00  0.00    -0.139 N  
HETATM   14  H   UNL     1      -8.271   9.873  68.203  1.00  0.00     0.000 HD 
HETATM   15  C   UNL     1      -8.554   9.434  70.225  1.00  0.00    -0.221 C  
HETATM   16  O   UNL     1      -9.331   9.122  71.125  1.00  0.00    -0.253 OA 
BRANCH  15  17
HETATM   17  C   UNL     1      -7.052   9.589  70.468  1.00  0.00    -0.127 C  
HETATM   18  N   UNL     1      -6.644  11.004  70.395  1.00  0.00    -0.466 NA 
HETATM   19  H1  UNL     1      -5.642  11.107  70.556  1.00  0.00     0.000 HD 
HETATM   20  H2  UNL     1      -7.189  11.584  71.032  1.00  0.00     0.000 HD 
ENDBRANCH  15  17
ENDBRANCH  12  13
ENDBRANCH   9  12
ENDBRANCH   5   9
BRANCH   6  21
HETATM   21  O   UNL     1     -11.192  11.357  64.702  1.00  0.00    -0.258 OA 
HETATM   22  C   UNL     1     -10.674  11.979  63.530  1.00  0.00    -0.455 C  
ENDBRANCH   6  21
ENDBRANCH   2   3
TORSDOF 6
ENDMDL
MODEL      145
REMARK 921   NORMALIZED FREE ENERGY PREDICTED BY IDOCK:   -4.11 KCAL/MOL
REMARK 922        TOTAL FREE ENERGY PREDICTED BY IDOCK:   -6.05 KCAL/MOL
REMARK 923 INTER-LIGAND FREE ENERGY PREDICTED BY IDOCK:   -5.55 KCAL/MOL
REMARK 924 INTRA-LIGAND FREE ENERGY PREDICTED BY IDOCK:   -0.50 KCAL/MOL
REMARK 927      BINDING AFFINITY PREDICTED BY RF-SCORE:    0.00 PKD
ROOT
HETATM    1  C   UNL     1      -6.991   7.976  74.007  1.00  0.00    -0.133 C  
HETATM    2  O   UNL     1      -8.381   8.131  74.279  1.00  0.00    -0.258 OA 
ENDROOT
BRANCH   2   3
HETATM    3  C   UNL     1      -9.245   7.851  73.257  1.00  0.00    -0.282 A  
HETATM    4  C   UNL     1     -10.496   8.435  73.067  1.00  0.00     0.071 A  
HETATM    5  C   UNL     1     -11.334   8.075  71.986  1.00  0.00    -0.359 A  
HETATM    6  C   UNL     1     -10.862   7.105  71.075  1.00  0.00    -0.240 A  
HETATM    7  C   UNL     1      -9.603   6.522  71.267  1.00  0.00    -0.175 A  
HETATM    8  C   UNL     1      -8.802   6.893  72.351  1.00  0.00    -0.139 A  
BRANCH   5   9
HETATM    9  C   UNL     1     -12.713   8.718  71.810  1.00  0.00    -0.359 C  
HETATM   10  O   UNL     1     -13.418   8.761  73.061  1.00  0.00    -0.873 OA 
HETATM   11  H   UNL     1     -14.273   9.160  72.953  1.00  0.00     0.000 HD 
BRANCH   9  12
HETATM   12  C   UNL     1     -12.673  10.169  71.288  1.00  0.00    -0.407 C  
BRANCH  12  13
HETATM   13  N   UNL     1     -12.162  10.324  69.944  1.00  0.00    -0.497 N  
HETATM   14  H   UNL     1     -11.974   9.505  69.366  1.00  0.00     0.000 HD 
HETATM   15  C   UNL     1     -11.930  11.591  69.450  1.00  0.00    -0.325 C  
HETATM   16  O   UNL     1     -12.051  12.610  70.128  1.00  0.00    -0.341 OA 
BRANCH  15  17
HETATM   17  C   UNL     1     -11.532  11.642  67.974  1.00  0.00    -0.315 C  
HETATM   18  N   UNL     1     -10.638  12.782  67.703  1.00  0.00    -0.217 NA 
HETATM   19  H1  UNL     1     -10.372  12.815  66.718  1.00  0.00     0.000 HD 
HETATM   20  H2  UNL     1      -9.820  12.770  68.312  1.00  0.00     0.000 HD 
ENDBRANCH  15  17
ENDBRANCH  12  13
ENDBRANCH   9  12
ENDBRANCH   5   9
BRANCH   6  21
HETATM   21  O   UNL     1     -11.703   6.790  70.040  1.00  0.00    -0.337 OA 
HETATM   22  C   UNL     1     -11.115   6.282  68.846  1.00  0.00    -0.362 C  
ENDBRANCH   6  21
ENDBRANCH   2   3
TORSDOF 6
ENDMDL
MODEL      146
REMARK 921   NORMALIZED FREE ENERGY PREDICTED BY IDOCK:   -4.11 KCAL/MOL
REMARK 922        TOTAL FREE ENERGY PREDICTED BY IDOCK:   -6.05 KCAL/MOL
REMARK 923 INTER-LIGAND FREE ENERGY PREDICTED BY IDOCK:   -5.37 KCAL/MOL
REMARK 924 INTRA-LIGAND FREE ENERGY PREDICTED BY IDOCK:   -0.68 KCAL/MOL
REMARK 927      BINDING AFFINITY PREDICTED BY RF-SCORE:    0.00 PKD
ROOT
HETATM    1  C   UNL     1      -7.263  15.472  67.239  1.00  0.00    -0.207 C  
HETATM    2  O   UNL     1      -6.814  14.252  67.823  1.00  0.00    -0.147 OA 
ENDROOT
BRANCH   2   3
HETATM    3  C   UNL     1      -7.765  13.307  68.090  1.00  0.00    -0.143 A  
HETATM    4  C   UNL     1      -9.139  13.466  67.921  1.00  0.00    -0.208 A  
HETATM    5  C   UNL     1     -10.056  12.437  68.237  1.00  0.00    -0.227 A  
HETATM    6  C   UNL     1      -9.541  11.215  68.720  1.00  0.00    -0.172 A  
HETATM    7  C   UNL     1      -8.160  11.057  68.886  1.00  0.00    -0.135 A  
HETATM    8  C   UNL     1      -7.279  12.097  68.574  1.00  0.00    -0.102 A  
BRANCH   5   9
HETATM    9  C   UNL     1     -11.563  12.644  68.059  1.00  0.00    -0.343 C  
HETATM   10  O   UNL     1     -12.179  13.004  69.307  1.00  0.00    -0.231 OA 
HETATM   11  H   UNL     1     -13.113  13.133  69.197  1.00  0.00     0.000 HD 
BRANCH   9  12
HETATM   12  C   UNL     1     -11.937  13.756  67.058  1.00  0.00    -0.413 C  
BRANCH  12  13
HETATM   13  N   UNL     1     -12.326  13.294  65.744  1.00  0.00    -0.451 N  
HETATM   14  H   UNL     1     -13.229  12.840  65.604  1.00  0.00     0.000 HD 
HETATM   15  C   UNL     1     -11.466  13.473  64.680  1.00  0.00    -0.358 C  
HETATM   16  O   UNL     1     -10.331  13.931  64.803  1.00  0.00    -0.418 OA 
BRANCH  15  17
HETATM   17  C   UNL     1     -12.040  13.081  63.318  1.00  0.00    -0.422 C  
HETATM   18  N   UNL     1     -12.431  11.661  63.294  1.00  0.00    -0.900 NA 
HETATM   19  H1  UNL     1     -12.814  11.399  62.384  1.00  0.00     0.000 HD 
HETATM   20  H2  UNL     1     -13.077  11.437  64.051  1.00  0.00     0.000 HD 
ENDBRANCH  15  17
ENDBRANCH  12  13
ENDBRANCH   9  12
ENDBRANCH   5   9
BRANCH   6  21
HETATM   21  O   UNL     1     -10.464  10.243  69.008  1.00  0.00    -0.191 OA 
HETATM   22  C   UNL     1     -10.608   9.856  70.371  1.00  0.00    -0.302 C  
ENDBRANCH   6  21
ENDBRANCH   2   3
TORSDOF 6
ENDMDL
MODEL      147
REMARK 921   NORMALIZED FREE ENERGY PREDICTED BY IDOCK:   -4.11 KCAL/MOL
REMARK 922        TOTAL FREE ENERGY PREDICTED BY IDOCK:   -6.04 KCAL/MOL
REMARK 923 INTER-LIGAND FREE ENERGY PREDICTED BY IDOCK:   -5.75 KCAL/MOL
REMARK 924 INTRA-LIGAND FREE ENERGY PREDICTED BY IDOCK:   -0.30 KCAL/MOL
REMARK 927      BINDING AFFINITY PREDICTED BY RF-SCORE:    0.00 PKD
ROOT
HETATM    1  C   UNL     1      -7.952  17.861  67.444  1.00  0.00    -0.213 C  
HETATM    2  O   UNL     1      -9.321  17.692  67.083  1.00  0.00    -0.238 OA 
ENDROOT
BRANCH   2   3
HETATM    3  C   UNL     1      -9.660  16.513  66.480  1.00  0.00    -0.271 A  
HETATM    4  C   UNL     1      -9.172  15.254  66.823  1.00  0.00    -0.274 A  
HETATM    5  C   UNL     1      -9.569  14.085  66.134  1.00  0.00    -0.263 A  
HETATM    6  C   UNL     1     -10.501  14.218  65.082  1.00  0.00    -0.411 A  
HETATM    7  C   UNL     1     -10.992  15.484  64.742  1.00  0.00    -0.416 A  
HETATM    8  C   UNL     1     -10.573  16.623  65.436  1.00  0.00    -0.254 A  
BRANCH   5   9
HETATM    9  C   UNL     1      -9.003  12.714  66.519  1.00  0.00    -0.112 C  
HETATM   10  O   UNL     1      -7.636  12.830  66.949  1.00  0.00    -0.380 OA 
HETATM   11  H   UNL     1      -7.285  11.980  67.188  1.00  0.00     0.000 HD 
BRANCH   9  12
HETATM   12  C   UNL     1      -9.759  12.016  67.667  1.00  0.00    -0.187 C  
BRANCH  12  13
HETATM   13  N   UNL     1     -10.374  12.905  68.628  1.00  0.00    -0.353 N  
HETATM   14  H   UNL     1      -9.836  13.662  69.048  1.00  0.00     0.000 HD 
HETATM   15  C   UNL     1     -11.697  12.719  68.972  1.00  0.00    -0.323 C  
HETATM   16  O   UNL     1     -12.371  11.772  68.569  1.00  0.00    -0.348 OA 
BRANCH  15  17
HETATM   17  C   UNL     1     -12.282  13.802  69.880  1.00  0.00    -0.321 C  
HETATM   18  N   UNL     1     -11.244  14.387  70.747  1.00  0.00    -0.510 NA 
HETATM   19  H1  UNL     1     -11.634  15.110  71.354  1.00  0.00     0.000 HD 
HETATM   20  H2  UNL     1     -10.456  14.739  70.204  1.00  0.00     0.000 HD 
ENDBRANCH  15  17
ENDBRANCH  12  13
ENDBRANCH   9  12
ENDBRANCH   5   9
BRANCH   6  21
HETATM   21  O   UNL     1     -10.862  13.059  64.446  1.00  0.00    -0.344 OA 
HETATM   22  C   UNL     1     -12.053  13.080  63.666  1.00  0.00    -0.531 C  
ENDBRANCH   6  21
ENDBRANCH   2   3
TORSDOF 6
ENDMDL
MODEL      148
REMARK 921   NORMALIZED FREE ENERGY PREDICTED BY IDOCK:   -4.10 KCAL/MOL
REMARK 922        TOTAL FREE ENERGY PREDICTED BY IDOCK:   -6.04 KCAL/MOL
REMARK 923 INTER-LIGAND FREE ENERGY PREDICTED BY IDOCK:   -5.39 KCAL/MOL
REMARK 924 INTRA-LIGAND FREE ENERGY PREDICTED BY IDOCK:   -0.65 KCAL/MOL
REMARK 927      BINDING AFFINITY PREDICTED BY RF-SCORE:    0.00 PKD
ROOT
HETATM    1  C   UNL     1     -14.381  15.141  72.048  1.00  0.00    -0.586 C  
HETATM    2  O   UNL     1     -13.033  14.693  72.164  1.00  0.00    -0.312 OA 
ENDROOT
BRANCH   2   3
HETATM    3  C   UNL     1     -12.276  14.706  71.025  1.00  0.00    -0.332 A  
HETATM    4  C   UNL     1     -12.515  13.947  69.881  1.00  0.00    -0.285 A  
HETATM    5  C   UNL     1     -11.671  14.013  68.749  1.00  0.00    -0.388 A  
HETATM    6  C   UNL     1     -10.567  14.893  68.795  1.00  0.00    -0.247 A  
HETATM    7  C   UNL     1     -10.331  15.656  69.945  1.00  0.00    -0.322 A  
HETATM    8  C   UNL     1     -11.180  15.561  71.052  1.00  0.00    -0.419 A  
BRANCH   5   9
HETATM    9  C   UNL     1     -11.945  13.155  67.511  1.00  0.00    -0.317 C  
HETATM   10  O   UNL     1     -11.481  13.814  66.321  1.00  0.00    -0.317 OA 
HETATM   11  H   UNL     1     -11.651  13.281  65.553  1.00  0.00     0.000 HD 
BRANCH   9  12
HETATM   12  C   UNL     1     -11.258  11.773  67.533  1.00  0.00    -0.291 C  
BRANCH  12  13
HETATM   13  N   UNL     1      -9.839  11.796  67.811  1.00  0.00    -0.178 N  
HETATM   14  H   UNL     1      -9.503  11.898  68.768  1.00  0.00     0.000 HD 
HETATM   15  C   UNL     1      -8.944  11.679  66.768  1.00  0.00    -0.189 C  
HETATM   16  O   UNL     1      -9.286  11.644  65.588  1.00  0.00    -0.225 OA 
BRANCH  15  17
HETATM   17  C   UNL     1      -7.478  11.568  67.191  1.00  0.00    -0.142 C  
HETATM   18  N   UNL     1      -6.763  12.839  66.973  1.00  0.00    -0.440 NA 
HETATM   19  H1  UNL     1      -5.785  12.765  67.255  1.00  0.00     0.000 HD 
HETATM   20  H2  UNL     1      -7.230  13.617  67.438  1.00  0.00     0.000 HD 
ENDBRANCH  15  17
ENDBRANCH  12  13
ENDBRANCH   9  12
ENDBRANCH   5   9
BRANCH   6  21
HETATM   21  O   UNL     1      -9.778  14.929  67.675  1.00  0.00    -0.210 OA 
HETATM   22  C   UNL     1      -8.875  16.023  67.542  1.00  0.00    -0.189 C  
ENDBRANCH   6  21
ENDBRANCH   2   3
TORSDOF 6
ENDMDL
MODEL      149
REMARK 921   NORMALIZED FREE ENERGY PREDICTED BY IDOCK:   -4.10 KCAL/MOL
REMARK 922        TOTAL FREE ENERGY PREDICTED BY IDOCK:   -6.03 KCAL/MOL
REMARK 923 INTER-LIGAND FREE ENERGY PREDICTED BY IDOCK:   -5.44 KCAL/MOL
REMARK 924 INTRA-LIGAND FREE ENERGY PREDICTED BY IDOCK:   -0.59 KCAL/MOL
REMARK 927      BINDING AFFINITY PREDICTED BY RF-SCORE:    0.00 PKD
ROOT
HETATM    1  C   UNL     1      -9.369  10.082  69.360  1.00  0.00    -0.223 C  
HETATM    2  O   UNL     1      -8.669  11.038  68.567  1.00  0.00    -0.146 OA 
ENDROOT
BRANCH   2   3
HETATM    3  C   UNL     1      -9.291  11.473  67.430  1.00  0.00    -0.166 A  
HETATM    4  C   UNL     1      -9.721  12.775  67.185  1.00  0.00    -0.216 A  
HETATM    5  C   UNL     1     -10.370  13.135  65.982  1.00  0.00    -0.292 A  
HETATM    6  C   UNL     1     -10.563  12.133  65.006  1.00  0.00    -0.291 A  
HETATM    7  C   UNL     1     -10.128  10.825  65.254  1.00  0.00    -0.353 A  
HETATM    8  C   UNL     1      -9.498  10.499  66.458  1.00  0.00    -0.200 A  
BRANCH   5   9
HETATM    9  C   UNL     1     -10.850  14.570  65.745  1.00  0.00    -0.315 C  
HETATM   10  O   UNL     1     -12.251  14.593  65.428  1.00  0.00    -0.318 OA 
HETATM   11  H   UNL     1     -12.549  15.483  65.281  1.00  0.00     0.000 HD 
BRANCH   9  12
HETATM   12  C   UNL     1     -10.667  15.508  66.956  1.00  0.00    -0.321 C  
BRANCH  12  13
HETATM   13  N   UNL     1      -9.513  16.378  66.891  1.00  0.00    -0.228 N  
HETATM   14  H   UNL     1      -8.582  15.989  66.743  1.00  0.00     0.000 HD 
HETATM   15  C   UNL     1      -9.684  17.740  67.030  1.00  0.00    -0.290 C  
HETATM   16  O   UNL     1     -10.766  18.258  67.299  1.00  0.00    -0.404 OA 
BRANCH  15  17
HETATM   17  C   UNL     1      -8.422  18.571  66.798  1.00  0.00    -0.282 C  
HETATM   18  N   UNL     1      -7.636  18.042  65.668  1.00  0.00    -0.539 NA 
HETATM   19  H1  UNL     1      -6.793  18.597  65.514  1.00  0.00     0.000 HD 
HETATM   20  H2  UNL     1      -8.199  17.970  64.821  1.00  0.00     0.000 HD 
ENDBRANCH  15  17
ENDBRANCH  12  13
ENDBRANCH   9  12
ENDBRANCH   5   9
BRANCH   6  21
HETATM   21  O   UNL     1     -11.191  12.527  63.853  1.00  0.00    -0.369 OA 
HETATM   22  C   UNL     1     -12.408  11.870  63.510  1.00  0.00    -0.490 C  
ENDBRANCH   6  21
ENDBRANCH   2   3
TORSDOF 6
ENDMDL
MODEL      150
REMARK 921   NORMALIZED FREE ENERGY PREDICTED BY IDOCK:   -4.10 KCAL/MOL
REMARK 922        TOTAL FREE ENERGY PREDICTED BY IDOCK:   -6.03 KCAL/MOL
REMARK 923 INTER-LIGAND FREE ENERGY PREDICTED BY IDOCK:   -5.41 KCAL/MOL
REMARK 924 INTRA-LIGAND FREE ENERGY PREDICTED BY IDOCK:   -0.62 KCAL/MOL
REMARK 927      BINDING AFFINITY PREDICTED BY RF-SCORE:    0.00 PKD
ROOT
HETATM    1  C   UNL     1      -9.211   8.773  67.913  1.00  0.00    -0.139 C  
HETATM    2  O   UNL     1      -9.786   9.717  68.813  1.00  0.00    -0.156 OA 
ENDROOT
BRANCH   2   3
HETATM    3  C   UNL     1     -10.386  10.814  68.259  1.00  0.00    -0.173 A  
HETATM    4  C   UNL     1     -10.885  11.909  68.961  1.00  0.00    -0.235 A  
HETATM    5  C   UNL     1     -11.505  12.998  68.307  1.00  0.00    -0.347 A  
HETATM    6  C   UNL     1     -11.595  12.962  66.898  1.00  0.00    -0.368 A  
HETATM    7  C   UNL     1     -11.090  11.861  66.195  1.00  0.00    -0.374 A  
HETATM    8  C   UNL     1     -10.491  10.795  66.872  1.00  0.00    -0.304 A  
BRANCH   5   9
HETATM    9  C   UNL     1     -12.062  14.182  69.103  1.00  0.00    -0.325 C  
HETATM   10  O   UNL     1     -12.329  13.801  70.463  1.00  0.00    -0.329 OA 
HETATM   11  H   UNL     1     -12.675  14.535  70.957  1.00  0.00     0.000 HD 
BRANCH   9  12
HETATM   12  C   UNL     1     -11.116  15.399  69.174  1.00  0.00    -0.266 C  
BRANCH  12  13
HETATM   13  N   UNL     1     -10.703  15.932  67.895  1.00  0.00    -0.303 N  
HETATM   14  H   UNL     1     -11.392  16.112  67.165  1.00  0.00     0.000 HD 
HETATM   15  C   UNL     1      -9.368  16.194  67.671  1.00  0.00    -0.214 C  
HETATM   16  O   UNL     1      -8.482  15.914  68.477  1.00  0.00    -0.168 OA 
BRANCH  15  17
HETATM   17  C   UNL     1      -9.065  16.890  66.343  1.00  0.00    -0.283 C  
HETATM   18  N   UNL     1     -10.225  17.669  65.874  1.00  0.00    -0.569 NA 
HETATM   19  H1  UNL     1     -10.023  18.133  64.987  1.00  0.00     0.000 HD 
HETATM   20  H2  UNL     1     -10.542  18.332  66.581  1.00  0.00     0.000 HD 
ENDBRANCH  15  17
ENDBRANCH  12  13
ENDBRANCH   9  12
ENDBRANCH   5   9
BRANCH   6  21
HETATM   21  O   UNL     1     -12.198  14.040  66.305  1.00  0.00    -0.433 OA 
HETATM   22  C   UNL     1     -11.935  14.263  64.923  1.00  0.00    -0.425 C  
ENDBRANCH   6  21
ENDBRANCH   2   3
TORSDOF 6
ENDMDL
MODEL      151
REMARK 921   NORMALIZED FREE ENERGY PREDICTED BY IDOCK:   -4.09 KCAL/MOL
REMARK 922        TOTAL FREE ENERGY PREDICTED BY IDOCK:   -6.02 KCAL/MOL
REMARK 923 INTER-LIGAND FREE ENERGY PREDICTED BY IDOCK:   -5.43 KCAL/MOL
REMARK 924 INTRA-LIGAND FREE ENERGY PREDICTED BY IDOCK:   -0.59 KCAL/MOL
REMARK 927      BINDING AFFINITY PREDICTED BY RF-SCORE:    0.00 PKD
ROOT
HETATM    1  C   UNL     1      -9.952  17.718  68.519  1.00  0.00    -0.370 C  
HETATM    2  O   UNL     1     -10.361  16.599  69.302  1.00  0.00    -0.293 OA 
ENDROOT
BRANCH   2   3
HETATM    3  C   UNL     1     -10.749  15.478  68.623  1.00  0.00    -0.252 A  
HETATM    4  C   UNL     1     -10.828  14.192  69.153  1.00  0.00    -0.254 A  
HETATM    5  C   UNL     1     -11.228  13.083  68.372  1.00  0.00    -0.304 A  
HETATM    6  C   UNL     1     -11.569  13.311  67.021  1.00  0.00    -0.359 A  
HETATM    7  C   UNL     1     -11.492  14.606  66.491  1.00  0.00    -0.354 A  
HETATM    8  C   UNL     1     -11.084  15.680  67.287  1.00  0.00    -0.238 A  
BRANCH   5   9
HETATM    9  C   UNL     1     -11.288  11.677  68.975  1.00  0.00    -0.275 C  
HETATM   10  O   UNL     1     -12.470  10.985  68.539  1.00  0.00    -0.713 OA 
HETATM   11  H   UNL     1     -12.508  10.113  68.912  1.00  0.00     0.000 HD 
BRANCH   9  12
HETATM   12  C   UNL     1     -10.096  10.774  68.596  1.00  0.00    -0.183 C  
BRANCH  12  13
HETATM   13  N   UNL     1      -8.861  11.062  69.291  1.00  0.00    -0.383 N  
HETATM   14  H   UNL     1      -8.748  10.801  70.270  1.00  0.00     0.000 HD 
HETATM   15  C   UNL     1      -7.837  11.694  68.617  1.00  0.00    -0.132 C  
HETATM   16  O   UNL     1      -7.946  12.112  67.466  1.00  0.00    -0.142 OA 
BRANCH  15  17
HETATM   17  C   UNL     1      -6.531  11.816  69.404  1.00  0.00    -0.120 C  
HETATM   18  N   UNL     1      -5.417  12.220  68.527  1.00  0.00    -0.053 NA 
HETATM   19  H1  UNL     1      -4.545  12.301  69.052  1.00  0.00     0.000 HD 
HETATM   20  H2  UNL     1      -5.632  13.079  68.021  1.00  0.00     0.000 HD 
ENDBRANCH  15  17
ENDBRANCH  12  13
ENDBRANCH   9  12
ENDBRANCH   5   9
BRANCH   6  21
HETATM   21  O   UNL     1     -11.957  12.210  66.303  1.00  0.00    -0.605 OA 
HETATM   22  C   UNL     1     -12.289  12.404  64.931  1.00  0.00    -0.402 C  
ENDBRANCH   6  21
ENDBRANCH   2   3
TORSDOF 6
ENDMDL
MODEL      152
REMARK 921   NORMALIZED FREE ENERGY PREDICTED BY IDOCK:   -4.08 KCAL/MOL
REMARK 922        TOTAL FREE ENERGY PREDICTED BY IDOCK:   -6.00 KCAL/MOL
REMARK 923 INTER-LIGAND FREE ENERGY PREDICTED BY IDOCK:   -5.72 KCAL/MOL
REMARK 924 INTRA-LIGAND FREE ENERGY PREDICTED BY IDOCK:   -0.28 KCAL/MOL
REMARK 927      BINDING AFFINITY PREDICTED BY RF-SCORE:    0.00 PKD
ROOT
HETATM    1  C   UNL     1      -6.215  11.827  67.118  1.00  0.00    -0.147 C  
HETATM    2  O   UNL     1      -7.417  11.092  66.905  1.00  0.00    -0.119 OA 
ENDROOT
BRANCH   2   3
HETATM    3  C   UNL     1      -8.588  11.795  66.952  1.00  0.00    -0.177 A  
HETATM    4  C   UNL     1      -8.851  12.882  67.784  1.00  0.00    -0.188 A  
HETATM    5  C   UNL     1     -10.100  13.544  67.777  1.00  0.00    -0.236 A  
HETATM    6  C   UNL     1     -11.090  13.085  66.881  1.00  0.00    -0.277 A  
HETATM    7  C   UNL     1     -10.822  11.995  66.044  1.00  0.00    -0.329 A  
HETATM    8  C   UNL     1      -9.580  11.355  66.082  1.00  0.00    -0.242 A  
BRANCH   5   9
HETATM    9  C   UNL     1     -10.371  14.725  68.715  1.00  0.00    -0.248 C  
HETATM   10  O   UNL     1     -10.733  15.897  67.967  1.00  0.00    -0.280 OA 
HETATM   11  H   UNL     1     -10.901  16.629  68.549  1.00  0.00     0.000 HD 
BRANCH   9  12
HETATM   12  C   UNL     1     -11.515  14.485  69.722  1.00  0.00    -0.279 C  
BRANCH  12  13
HETATM   13  N   UNL     1     -11.301  15.042  71.039  1.00  0.00    -0.464 N  
HETATM   14  H   UNL     1     -10.399  15.449  71.287  1.00  0.00     0.000 HD 
HETATM   15  C   UNL     1     -12.330  15.020  71.958  1.00  0.00    -0.347 C  
HETATM   16  O   UNL     1     -13.407  14.465  71.749  1.00  0.00    -0.325 OA 
BRANCH  15  17
HETATM   17  C   UNL     1     -12.041  15.766  73.262  1.00  0.00    -0.495 C  
HETATM   18  N   UNL     1     -13.209  15.740  74.160  1.00  0.00    -0.754 NA 
HETATM   19  H1  UNL     1     -13.016  16.238  75.030  1.00  0.00     0.000 HD 
HETATM   20  H2  UNL     1     -13.526  14.787  74.335  1.00  0.00     0.000 HD 
ENDBRANCH  15  17
ENDBRANCH  12  13
ENDBRANCH   9  12
ENDBRANCH   5   9
BRANCH   6  21
HETATM   21  O   UNL     1     -12.283  13.760  66.904  1.00  0.00    -0.410 OA 
HETATM   22  C   UNL     1     -12.876  14.090  65.651  1.00  0.00    -0.406 C  
ENDBRANCH   6  21
ENDBRANCH   2   3
TORSDOF 6
ENDMDL
MODEL      153
REMARK 921   NORMALIZED FREE ENERGY PREDICTED BY IDOCK:   -4.06 KCAL/MOL
REMARK 922        TOTAL FREE ENERGY PREDICTED BY IDOCK:   -5.98 KCAL/MOL
REMARK 923 INTER-LIGAND FREE ENERGY PREDICTED BY IDOCK:   -5.47 KCAL/MOL
REMARK 924 INTRA-LIGAND FREE ENERGY PREDICTED BY IDOCK:   -0.50 KCAL/MOL
REMARK 927      BINDING AFFINITY PREDICTED BY RF-SCORE:    0.00 PKD
ROOT
HETATM    1  C   UNL     1      -9.870   7.876  66.762  1.00  0.00    -0.248 C  
HETATM    2  O   UNL     1     -10.753   8.987  66.893  1.00  0.00    -0.215 OA 
ENDROOT
BRANCH   2   3
HETATM    3  C   UNL     1     -10.178  10.215  67.071  1.00  0.00    -0.234 A  
HETATM    4  C   UNL     1     -10.543  11.387  66.411  1.00  0.00    -0.311 A  
HETATM    5  C   UNL     1      -9.884  12.615  66.647  1.00  0.00    -0.245 A  
HETATM    6  C   UNL     1      -8.838  12.635  67.595  1.00  0.00    -0.184 A  
HETATM    7  C   UNL     1      -8.475  11.457  68.259  1.00  0.00    -0.154 A  
HETATM    8  C   UNL     1      -9.141  10.256  67.997  1.00  0.00    -0.132 A  
BRANCH   5   9
HETATM    9  C   UNL     1     -10.292  13.885  65.895  1.00  0.00    -0.311 C  
HETATM   10  O   UNL     1     -10.231  13.678  64.474  1.00  0.00    -0.561 OA 
HETATM   11  H   UNL     1     -10.484  14.466  64.007  1.00  0.00     0.000 HD 
BRANCH   9  12
HETATM   12  C   UNL     1     -11.725  14.368  66.199  1.00  0.00    -0.378 C  
BRANCH  12  13
HETATM   13  N   UNL     1     -12.048  14.491  67.603  1.00  0.00    -0.588 N  
HETATM   14  H   UNL     1     -12.662  13.812  68.052  1.00  0.00     0.000 HD 
HETATM   15  C   UNL     1     -11.517  15.535  68.331  1.00  0.00    -0.363 C  
HETATM   16  O   UNL     1     -10.844  16.433  67.827  1.00  0.00    -0.332 OA 
BRANCH  15  17
HETATM   17  C   UNL     1     -11.805  15.483  69.832  1.00  0.00    -0.362 C  
HETATM   18  N   UNL     1     -13.183  15.915  70.126  1.00  0.00    -0.602 NA 
HETATM   19  H1  UNL     1     -13.375  15.880  71.127  1.00  0.00     0.000 HD 
HETATM   20  H2  UNL     1     -13.866  15.377  69.593  1.00  0.00     0.000 HD 
ENDBRANCH  15  17
ENDBRANCH  12  13
ENDBRANCH   9  12
ENDBRANCH   5   9
BRANCH   6  21
HETATM   21  O   UNL     1      -8.230  13.847  67.797  1.00  0.00    -0.145 OA 
HETATM   22  C   UNL     1      -7.245  13.926  68.822  1.00  0.00    -0.106 C  
ENDBRANCH   6  21
ENDBRANCH   2   3
TORSDOF 6
ENDMDL
MODEL      154
REMARK 921   NORMALIZED FREE ENERGY PREDICTED BY IDOCK:   -4.05 KCAL/MOL
REMARK 922        TOTAL FREE ENERGY PREDICTED BY IDOCK:   -5.97 KCAL/MOL
REMARK 923 INTER-LIGAND FREE ENERGY PREDICTED BY IDOCK:   -5.23 KCAL/MOL
REMARK 924 INTRA-LIGAND FREE ENERGY PREDICTED BY IDOCK:   -0.75 KCAL/MOL
REMARK 927      BINDING AFFINITY PREDICTED BY RF-SCORE:    0.00 PKD
ROOT
HETATM    1  C   UNL     1     -10.520  16.909  65.688  1.00  0.00    -0.238 C  
HETATM    2  O   UNL     1     -10.867  15.554  65.417  1.00  0.00    -0.353 OA 
ENDROOT
BRANCH   2   3
HETATM    3  C   UNL     1     -10.988  14.719  66.493  1.00  0.00    -0.325 A  
HETATM    4  C   UNL     1     -10.819  13.337  66.473  1.00  0.00    -0.288 A  
HETATM    5  C   UNL     1     -10.977  12.546  67.634  1.00  0.00    -0.279 A  
HETATM    6  C   UNL     1     -11.300  13.200  68.843  1.00  0.00    -0.289 A  
HETATM    7  C   UNL     1     -11.467  14.590  68.861  1.00  0.00    -0.327 A  
HETATM    8  C   UNL     1     -11.313  15.343  67.694  1.00  0.00    -0.292 A  
BRANCH   5   9
HETATM    9  C   UNL     1     -10.804  11.025  67.581  1.00  0.00    -0.256 C  
HETATM   10  O   UNL     1     -11.956  10.362  68.128  1.00  0.00    -0.756 OA 
HETATM   11  H   UNL     1     -11.848   9.418  68.095  1.00  0.00     0.000 HD 
BRANCH   9  12
HETATM   12  C   UNL     1     -10.614  10.459  66.159  1.00  0.00    -0.090 C  
BRANCH  12  13
HETATM   13  N   UNL     1      -9.572   9.464  66.028  1.00  0.00    -0.241 N  
HETATM   14  H   UNL     1      -8.689   9.699  65.577  1.00  0.00     0.000 HD 
HETATM   15  C   UNL     1      -9.785   8.192  66.520  1.00  0.00    -0.239 C  
HETATM   16  O   UNL     1     -10.859   7.825  66.992  1.00  0.00    -0.316 OA 
BRANCH  15  17
HETATM   17  C   UNL     1      -8.567   7.269  66.459  1.00  0.00    -0.133 C  
HETATM   18  N   UNL     1      -8.699   6.284  65.370  1.00  0.00    -0.312 NA 
HETATM   19  H1  UNL     1      -7.886   5.668  65.330  1.00  0.00     0.000 HD 
HETATM   20  H2  UNL     1      -8.871   6.738  64.473  1.00  0.00     0.000 HD 
ENDBRANCH  15  17
ENDBRANCH  12  13
ENDBRANCH   9  12
ENDBRANCH   5   9
BRANCH   6  21
HETATM   21  O   UNL     1     -11.438  12.396  69.945  1.00  0.00    -0.215 OA 
HETATM   22  C   UNL     1     -12.512  12.682  70.836  1.00  0.00    -0.278 C  
ENDBRANCH   6  21
ENDBRANCH   2   3
TORSDOF 6
ENDMDL
MODEL      155
REMARK 921   NORMALIZED FREE ENERGY PREDICTED BY IDOCK:   -4.05 KCAL/MOL
REMARK 922        TOTAL FREE ENERGY PREDICTED BY IDOCK:   -5.97 KCAL/MOL
REMARK 923 INTER-LIGAND FREE ENERGY PREDICTED BY IDOCK:   -5.33 KCAL/MOL
REMARK 924 INTRA-LIGAND FREE ENERGY PREDICTED BY IDOCK:   -0.64 KCAL/MOL
REMARK 927      BINDING AFFINITY PREDICTED BY RF-SCORE:    0.00 PKD
ROOT
HETATM    1  C   UNL     1     -11.899  13.811  68.371  1.00  0.00    -0.376 C  
HETATM    2  O   UNL     1     -10.499  14.009  68.194  1.00  0.00    -0.232 OA 
ENDROOT
BRANCH   2   3
HETATM    3  C   UNL     1     -10.103  15.218  67.693  1.00  0.00    -0.235 A  
HETATM    4  C   UNL     1      -9.027  15.975  68.151  1.00  0.00    -0.183 A  
HETATM    5  C   UNL     1      -8.696  17.226  67.582  1.00  0.00    -0.219 A  
HETATM    6  C   UNL     1      -9.482  17.695  66.507  1.00  0.00    -0.283 A  
HETATM    7  C   UNL     1     -10.562  16.931  66.047  1.00  0.00    -0.221 A  
HETATM    8  C   UNL     1     -10.870  15.702  66.638  1.00  0.00    -0.266 A  
BRANCH   5   9
HETATM    9  C   UNL     1      -7.519  18.047  68.116  1.00  0.00    -0.249 C  
HETATM   10  O   UNL     1      -6.683  18.501  67.038  1.00  0.00    -0.189 OA 
HETATM   11  H   UNL     1      -5.953  19.010  67.369  1.00  0.00     0.000 HD 
BRANCH   9  12
HETATM   12  C   UNL     1      -7.931  19.309  68.901  1.00  0.00    -0.318 C  
BRANCH  12  13
HETATM   13  N   UNL     1      -7.157  19.572  70.094  1.00  0.00     0.096 N  
HETATM   14  H   UNL     1      -7.468  19.219  70.999  1.00  0.00     0.000 HD 
HETATM   15  C   UNL     1      -5.991  20.304  69.997  1.00  0.00    -0.354 C  
HETATM   16  O   UNL     1      -5.613  20.830  68.952  1.00  0.00    -0.304 OA 
BRANCH  15  17
HETATM   17  C   UNL     1      -5.181  20.394  71.291  1.00  0.00    -0.275 C  
HETATM   18  N   UNL     1      -5.160  19.100  71.997  1.00  0.00    -0.765 NA 
HETATM   19  H1  UNL     1      -4.619  19.160  72.860  1.00  0.00     0.000 HD 
HETATM   20  H2  UNL     1      -4.822  18.350  71.394  1.00  0.00     0.000 HD 
ENDBRANCH  15  17
ENDBRANCH  12  13
ENDBRANCH   9  12
ENDBRANCH   5   9
BRANCH   6  21
HETATM   21  O   UNL     1      -9.123  18.909  65.982  1.00  0.00    -0.470 OA 
HETATM   22  C   UNL     1     -10.107  19.939  65.973  1.00  0.00    -0.487 C  
ENDBRANCH   6  21
ENDBRANCH   2   3
TORSDOF 6
ENDMDL
MODEL      156
REMARK 921   NORMALIZED FREE ENERGY PREDICTED BY IDOCK:   -4.05 KCAL/MOL
REMARK 922        TOTAL FREE ENERGY PREDICTED BY IDOCK:   -5.97 KCAL/MOL
REMARK 923 INTER-LIGAND FREE ENERGY PREDICTED BY IDOCK:   -5.52 KCAL/MOL
REMARK 924 INTRA-LIGAND FREE ENERGY PREDICTED BY IDOCK:   -0.44 KCAL/MOL
REMARK 927      BINDING AFFINITY PREDICTED BY RF-SCORE:    0.00 PKD
ROOT
HETATM    1  C   UNL     1      -9.535  16.486  67.274  1.00  0.00    -0.235 C  
HETATM    2  O   UNL     1     -10.922  16.473  67.603  1.00  0.00    -0.301 OA 
ENDROOT
BRANCH   2   3
HETATM    3  C   UNL     1     -11.341  15.507  68.475  1.00  0.00    -0.351 A  
HETATM    4  C   UNL     1     -11.418  14.143  68.201  1.00  0.00    -0.340 A  
HETATM    5  C   UNL     1     -11.878  13.211  69.160  1.00  0.00    -0.364 A  
HETATM    6  C   UNL     1     -12.251  13.698  70.432  1.00  0.00    -0.363 A  
HETATM    7  C   UNL     1     -12.170  15.069  70.705  1.00  0.00    -0.386 A  
HETATM    8  C   UNL     1     -11.720  15.966  69.732  1.00  0.00    -0.323 A  
BRANCH   5   9
HETATM    9  C   UNL     1     -11.970  11.719  68.829  1.00  0.00    -0.257 C  
HETATM   10  O   UNL     1     -11.975  11.512  67.406  1.00  0.00    -0.623 OA 
HETATM   11  H   UNL     1     -12.032  10.587  67.200  1.00  0.00     0.000 HD 
BRANCH   9  12
HETATM   12  C   UNL     1     -10.804  10.874  69.383  1.00  0.00    -0.240 C  
BRANCH  12  13
HETATM   13  N   UNL     1      -9.485  11.417  69.146  1.00  0.00    -0.412 N  
HETATM   14  H   UNL     1      -9.173  12.249  69.646  1.00  0.00     0.000 HD 
HETATM   15  C   UNL     1      -8.651  10.798  68.238  1.00  0.00    -0.135 C  
HETATM   16  O   UNL     1      -9.003   9.848  67.540  1.00  0.00    -0.134 OA 
BRANCH  15  17
HETATM   17  C   UNL     1      -7.233  11.368  68.177  1.00  0.00    -0.082 C  
HETATM   18  N   UNL     1      -6.347  10.695  69.142  1.00  0.00    -0.049 NA 
HETATM   19  H1  UNL     1      -5.400  11.075  69.101  1.00  0.00     0.000 HD 
HETATM   20  H2  UNL     1      -6.350   9.683  69.012  1.00  0.00     0.000 HD 
ENDBRANCH  15  17
ENDBRANCH  12  13
ENDBRANCH   9  12
ENDBRANCH   5   9
BRANCH   6  21
HETATM   21  O   UNL     1     -12.685  12.761  71.333  1.00  0.00    -0.351 OA 
HETATM   22  C   UNL     1     -13.629  13.180  72.314  1.00  0.00    -0.581 C  
ENDBRANCH   6  21
ENDBRANCH   2   3
TORSDOF 6
ENDMDL
MODEL      157
REMARK 921   NORMALIZED FREE ENERGY PREDICTED BY IDOCK:   -4.05 KCAL/MOL
REMARK 922        TOTAL FREE ENERGY PREDICTED BY IDOCK:   -5.96 KCAL/MOL
REMARK 923 INTER-LIGAND FREE ENERGY PREDICTED BY IDOCK:   -5.59 KCAL/MOL
REMARK 924 INTRA-LIGAND FREE ENERGY PREDICTED BY IDOCK:   -0.37 KCAL/MOL
REMARK 927      BINDING AFFINITY PREDICTED BY RF-SCORE:    0.00 PKD
ROOT
HETATM    1  C   UNL     1     -10.844  10.471  67.577  1.00  0.00    -0.301 C  
HETATM    2  O   UNL     1     -11.826  11.504  67.590  1.00  0.00    -0.595 OA 
ENDROOT
BRANCH   2   3
HETATM    3  C   UNL     1     -11.620  12.542  68.456  1.00  0.00    -0.321 A  
HETATM    4  C   UNL     1     -10.760  13.618  68.247  1.00  0.00    -0.266 A  
HETATM    5  C   UNL     1     -10.597  14.644  69.205  1.00  0.00    -0.236 A  
HETATM    6  C   UNL     1     -11.352  14.566  70.396  1.00  0.00    -0.144 A  
HETATM    7  C   UNL     1     -12.218  13.485  70.603  1.00  0.00    -0.434 A  
HETATM    8  C   UNL     1     -12.349  12.480  69.639  1.00  0.00    -0.035 A  
BRANCH   5   9
HETATM    9  C   UNL     1      -9.631  15.806  68.959  1.00  0.00    -0.243 C  
HETATM   10  O   UNL     1      -8.517  15.381  68.157  1.00  0.00    -0.144 OA 
HETATM   11  H   UNL     1      -7.917  16.102  68.004  1.00  0.00     0.000 HD 
BRANCH   9  12
HETATM   12  C   UNL     1     -10.259  17.007  68.222  1.00  0.00    -0.326 C  
BRANCH  12  13
HETATM   13  N   UNL     1      -9.423  18.185  68.141  1.00  0.00    -0.284 N  
HETATM   14  H   UNL     1      -8.498  18.190  68.570  1.00  0.00     0.000 HD 
HETATM   15  C   UNL     1      -9.888  19.301  67.477  1.00  0.00    -0.340 C  
HETATM   16  O   UNL     1     -11.026  19.385  67.018  1.00  0.00    -0.467 OA 
BRANCH  15  17
HETATM   17  C   UNL     1      -8.867  20.430  67.327  1.00  0.00    -0.338 C  
HETATM   18  N   UNL     1      -7.569  20.056  67.918  1.00  0.00    -0.295 NA 
HETATM   19  H1  UNL     1      -6.888  20.809  67.818  1.00  0.00     0.000 HD 
HETATM   20  H2  UNL     1      -7.220  19.180  67.530  1.00  0.00     0.000 HD 
ENDBRANCH  15  17
ENDBRANCH  12  13
ENDBRANCH   9  12
ENDBRANCH   5   9
BRANCH   6  21
HETATM   21  O   UNL     1     -11.168  15.584  71.295  1.00  0.00    -0.352 OA 
HETATM   22  C   UNL     1     -12.310  16.039  72.015  1.00  0.00    -0.469 C  
ENDBRANCH   6  21
ENDBRANCH   2   3
TORSDOF 6
ENDMDL
MODEL      158
REMARK 921   NORMALIZED FREE ENERGY PREDICTED BY IDOCK:   -4.04 KCAL/MOL
REMARK 922        TOTAL FREE ENERGY PREDICTED BY IDOCK:   -5.95 KCAL/MOL
REMARK 923 INTER-LIGAND FREE ENERGY PREDICTED BY IDOCK:   -5.42 KCAL/MOL
REMARK 924 INTRA-LIGAND FREE ENERGY PREDICTED BY IDOCK:   -0.53 KCAL/MOL
REMARK 927      BINDING AFFINITY PREDICTED BY RF-SCORE:    0.00 PKD
ROOT
HETATM    1  C   UNL     1      -8.189   9.505  64.468  1.00  0.00    -0.152 C  
HETATM    2  O   UNL     1      -9.420  10.222  64.511  1.00  0.00    -0.249 OA 
ENDROOT
BRANCH   2   3
HETATM    3  C   UNL     1      -9.925  10.509  65.749  1.00  0.00    -0.258 A  
HETATM    4  C   UNL     1     -10.139  11.785  66.265  1.00  0.00    -0.248 A  
HETATM    5  C   UNL     1     -10.655  11.990  67.565  1.00  0.00    -0.250 A  
HETATM    6  C   UNL     1     -10.973  10.853  68.340  1.00  0.00    -0.237 A  
HETATM    7  C   UNL     1     -10.760   9.571  67.817  1.00  0.00    -0.302 A  
HETATM    8  C   UNL     1     -10.239   9.402  66.531  1.00  0.00    -0.308 A  
BRANCH   5   9
HETATM    9  C   UNL     1     -10.862  13.404  68.116  1.00  0.00    -0.255 C  
HETATM   10  O   UNL     1      -9.802  13.760  69.019  1.00  0.00    -0.419 OA 
HETATM   11  H   UNL     1      -9.930  14.637  69.361  1.00  0.00     0.000 HD 
BRANCH   9  12
HETATM   12  C   UNL     1     -10.898  14.506  67.037  1.00  0.00    -0.297 C  
BRANCH  12  13
HETATM   13  N   UNL     1     -11.008  15.857  67.541  1.00  0.00    -0.310 N  
HETATM   14  H   UNL     1     -11.581  16.055  68.361  1.00  0.00     0.000 HD 
HETATM   15  C   UNL     1     -10.329  16.874  66.904  1.00  0.00    -0.304 C  
HETATM   16  O   UNL     1      -9.696  16.712  65.862  1.00  0.00    -0.424 OA 
BRANCH  15  17
HETATM   17  C   UNL     1     -10.399  18.231  67.607  1.00  0.00    -0.396 C  
HETATM   18  N   UNL     1     -10.467  19.334  66.632  1.00  0.00    -0.419 NA 
HETATM   19  H1  UNL     1     -10.514  20.239  67.101  1.00  0.00     0.000 HD 
HETATM   20  H2  UNL     1     -11.241  19.209  65.979  1.00  0.00     0.000 HD 
ENDBRANCH  15  17
ENDBRANCH  12  13
ENDBRANCH   9  12
ENDBRANCH   5   9
BRANCH   6  21
HETATM   21  O   UNL     1     -11.476  11.098  69.591  1.00  0.00    -0.257 OA 
HETATM   22  C   UNL     1     -11.365  10.058  70.559  1.00  0.00    -0.335 C  
ENDBRANCH   6  21
ENDBRANCH   2   3
TORSDOF 6
ENDMDL
MODEL      159
REMARK 921   NORMALIZED FREE ENERGY PREDICTED BY IDOCK:   -4.04 KCAL/MOL
REMARK 922        TOTAL FREE ENERGY PREDICTED BY IDOCK:   -5.95 KCAL/MOL
REMARK 923 INTER-LIGAND FREE ENERGY PREDICTED BY IDOCK:   -5.50 KCAL/MOL
REMARK 924 INTRA-LIGAND FREE ENERGY PREDICTED BY IDOCK:   -0.45 KCAL/MOL
REMARK 927      BINDING AFFINITY PREDICTED BY RF-SCORE:    0.00 PKD
ROOT
HETATM    1  C   UNL     1      -6.181  11.825  67.094  1.00  0.00    -0.147 C  
HETATM    2  O   UNL     1      -7.353  11.065  66.812  1.00  0.00    -0.124 OA 
ENDROOT
BRANCH   2   3
HETATM    3  C   UNL     1      -8.546  11.732  66.848  1.00  0.00    -0.177 A  
HETATM    4  C   UNL     1      -8.876  12.761  67.727  1.00  0.00    -0.187 A  
HETATM    5  C   UNL     1     -10.143  13.389  67.703  1.00  0.00    -0.229 A  
HETATM    6  C   UNL     1     -11.081  12.955  66.740  1.00  0.00    -0.281 A  
HETATM    7  C   UNL     1     -10.745  11.922  65.856  1.00  0.00    -0.326 A  
HETATM    8  C   UNL     1      -9.487  11.315  65.911  1.00  0.00    -0.247 A  
BRANCH   5   9
HETATM    9  C   UNL     1     -10.488  14.506  68.693  1.00  0.00    -0.247 C  
HETATM   10  O   UNL     1     -11.003  15.657  68.004  1.00  0.00    -0.296 OA 
HETATM   11  H   UNL     1     -11.217  16.349  68.618  1.00  0.00     0.000 HD 
BRANCH   9  12
HETATM   12  C   UNL     1     -11.553  14.118  69.740  1.00  0.00    -0.290 C  
BRANCH  12  13
HETATM   13  N   UNL     1     -11.743  12.696  69.926  1.00  0.00    -0.480 N  
HETATM   14  H   UNL     1     -11.295  12.030  69.297  1.00  0.00     0.000 HD 
HETATM   15  C   UNL     1     -12.535  12.249  70.963  1.00  0.00    -0.263 C  
HETATM   16  O   UNL     1     -13.171  13.003  71.697  1.00  0.00    -0.386 OA 
BRANCH  15  17
HETATM   17  C   UNL     1     -12.546  10.731  71.153  1.00  0.00    -0.428 C  
HETATM   18  N   UNL     1     -13.367  10.347  72.316  1.00  0.00    -0.586 NA 
HETATM   19  H1  UNL     1     -13.373   9.334  72.443  1.00  0.00     0.000 HD 
HETATM   20  H2  UNL     1     -14.312  10.723  72.248  1.00  0.00     0.000 HD 
ENDBRANCH  15  17
ENDBRANCH  12  13
ENDBRANCH   9  12
ENDBRANCH   5   9
BRANCH   6  21
HETATM   21  O   UNL     1     -12.293  13.594  66.749  1.00  0.00    -0.387 OA 
HETATM   22  C   UNL     1     -12.839  13.986  65.493  1.00  0.00    -0.419 C  
ENDBRANCH   6  21
ENDBRANCH   2   3
TORSDOF 6
ENDMDL
MODEL      160
REMARK 921   NORMALIZED FREE ENERGY PREDICTED BY IDOCK:   -4.04 KCAL/MOL
REMARK 922        TOTAL FREE ENERGY PREDICTED BY IDOCK:   -5.95 KCAL/MOL
REMARK 923 INTER-LIGAND FREE ENERGY PREDICTED BY IDOCK:   -5.54 KCAL/MOL
REMARK 924 INTRA-LIGAND FREE ENERGY PREDICTED BY IDOCK:   -0.40 KCAL/MOL
REMARK 927      BINDING AFFINITY PREDICTED BY RF-SCORE:    0.00 PKD
ROOT
HETATM    1  C   UNL     1      -9.787   6.443  74.109  1.00  0.00    -0.279 C  
HETATM    2  O   UNL     1     -10.871   7.223  73.610  1.00  0.00    -0.356 OA 
ENDROOT
BRANCH   2   3
HETATM    3  C   UNL     1     -10.813   7.594  72.296  1.00  0.00    -0.267 A  
HETATM    4  C   UNL     1     -10.773   8.903  71.821  1.00  0.00    -0.432 A  
HETATM    5  C   UNL     1     -10.727   9.197  70.439  1.00  0.00    -0.282 A  
HETATM    6  C   UNL     1     -10.705   8.116  69.531  1.00  0.00    -0.175 A  
HETATM    7  C   UNL     1     -10.742   6.801  70.011  1.00  0.00    -0.287 A  
HETATM    8  C   UNL     1     -10.796   6.543  71.384  1.00  0.00    -0.289 A  
BRANCH   5   9
HETATM    9  C   UNL     1     -10.704  10.646  69.942  1.00  0.00    -0.204 C  
HETATM   10  O   UNL     1      -9.612  10.854  69.031  1.00  0.00    -0.247 OA 
HETATM   11  H   UNL     1      -9.597  11.753  68.723  1.00  0.00     0.000 HD 
BRANCH   9  12
HETATM   12  C   UNL     1     -11.980  11.079  69.192  1.00  0.00    -0.324 C  
BRANCH  12  13
HETATM   13  N   UNL     1     -12.023  12.472  68.804  1.00  0.00    -0.291 N  
HETATM   14  H   UNL     1     -12.114  13.201  69.512  1.00  0.00     0.000 HD 
HETATM   15  C   UNL     1     -11.938  12.806  67.469  1.00  0.00    -0.281 C  
HETATM   16  O   UNL     1     -11.918  11.970  66.566  1.00  0.00    -0.616 OA 
BRANCH  15  17
HETATM   17  C   UNL     1     -11.845  14.306  67.187  1.00  0.00    -0.425 C  
HETATM   18  N   UNL     1     -10.953  14.974  68.152  1.00  0.00    -0.269 NA 
HETATM   19  H1  UNL     1     -10.891  15.976  67.964  1.00  0.00     0.000 HD 
HETATM   20  H2  UNL     1     -10.031  14.538  68.174  1.00  0.00     0.000 HD 
ENDBRANCH  15  17
ENDBRANCH  12  13
ENDBRANCH   9  12
ENDBRANCH   5   9
BRANCH   6  21
HETATM   21  O   UNL     1     -10.655   8.446  68.201  1.00  0.00    -0.197 OA 
HETATM   22  C   UNL     1     -10.587   7.379  67.261  1.00  0.00    -0.323 C  
ENDBRANCH   6  21
ENDBRANCH   2   3
TORSDOF 6
ENDMDL
MODEL      161
REMARK 921   NORMALIZED FREE ENERGY PREDICTED BY IDOCK:   -3.99 KCAL/MOL
REMARK 922        TOTAL FREE ENERGY PREDICTED BY IDOCK:   -5.89 KCAL/MOL
REMARK 923 INTER-LIGAND FREE ENERGY PREDICTED BY IDOCK:   -5.25 KCAL/MOL
REMARK 924 INTRA-LIGAND FREE ENERGY PREDICTED BY IDOCK:   -0.64 KCAL/MOL
REMARK 927      BINDING AFFINITY PREDICTED BY RF-SCORE:    0.00 PKD
ROOT
HETATM    1  C   UNL     1      -7.926   5.598  66.288  1.00  0.00    -0.102 C  
HETATM    2  O   UNL     1      -9.300   5.969  66.341  1.00  0.00    -0.151 OA 
ENDROOT
BRANCH   2   3
HETATM    3  C   UNL     1      -9.647   6.929  67.250  1.00  0.00    -0.142 A  
HETATM    4  C   UNL     1     -10.188   8.177  66.949  1.00  0.00    -0.387 A  
HETATM    5  C   UNL     1     -10.506   9.118  67.955  1.00  0.00    -0.293 A  
HETATM    6  C   UNL     1     -10.275   8.756  69.300  1.00  0.00    -0.210 A  
HETATM    7  C   UNL     1      -9.734   7.499  69.600  1.00  0.00    -0.167 A  
HETATM    8  C   UNL     1      -9.421   6.594  68.582  1.00  0.00    -0.128 A  
BRANCH   5   9
HETATM    9  C   UNL     1     -11.082  10.491  67.596  1.00  0.00    -0.309 C  
HETATM   10  O   UNL     1     -12.224  10.794  68.413  1.00  0.00    -0.832 OA 
HETATM   11  H   UNL     1     -12.581  11.646  68.191  1.00  0.00     0.000 HD 
BRANCH   9  12
HETATM   12  C   UNL     1     -10.095  11.662  67.783  1.00  0.00    -0.187 C  
BRANCH  12  13
HETATM   13  N   UNL     1     -10.428  12.583  68.847  1.00  0.00    -0.406 N  
HETATM   14  H   UNL     1     -10.330  12.301  69.823  1.00  0.00     0.000 HD 
HETATM   15  C   UNL     1     -10.880  13.847  68.531  1.00  0.00    -0.259 C  
HETATM   16  O   UNL     1     -11.104  14.213  67.379  1.00  0.00    -0.291 OA 
BRANCH  15  17
HETATM   17  C   UNL     1     -11.062  14.781  69.729  1.00  0.00    -0.258 C  
HETATM   18  N   UNL     1     -11.692  14.079  70.861  1.00  0.00    -0.516 NA 
HETATM   19  H1  UNL     1     -11.813  14.703  71.660  1.00  0.00     0.000 HD 
HETATM   20  H2  UNL     1     -11.174  13.239  71.116  1.00  0.00     0.000 HD 
ENDBRANCH  15  17
ENDBRANCH  12  13
ENDBRANCH   9  12
ENDBRANCH   5   9
BRANCH   6  21
HETATM   21  O   UNL     1     -10.602   9.695  70.242  1.00  0.00    -0.236 OA 
HETATM   22  C   UNL     1     -11.096   9.227  71.494  1.00  0.00    -0.373 C  
ENDBRANCH   6  21
ENDBRANCH   2   3
TORSDOF 6
ENDMDL
MODEL      162
REMARK 921   NORMALIZED FREE ENERGY PREDICTED BY IDOCK:   -3.98 KCAL/MOL
REMARK 922        TOTAL FREE ENERGY PREDICTED BY IDOCK:   -5.87 KCAL/MOL
REMARK 923 INTER-LIGAND FREE ENERGY PREDICTED BY IDOCK:   -5.54 KCAL/MOL
REMARK 924 INTRA-LIGAND FREE ENERGY PREDICTED BY IDOCK:   -0.32 KCAL/MOL
REMARK 927      BINDING AFFINITY PREDICTED BY RF-SCORE:    0.00 PKD
ROOT
HETATM    1  C   UNL     1     -12.398  12.331  63.857  1.00  0.00    -0.509 C  
HETATM    2  O   UNL     1     -12.567  12.454  65.266  1.00  0.00    -0.636 OA 
ENDROOT
BRANCH   2   3
HETATM    3  C   UNL     1     -11.432  12.454  66.028  1.00  0.00    -0.382 A  
HETATM    4  C   UNL     1     -10.620  13.558  66.278  1.00  0.00    -0.288 A  
HETATM    5  C   UNL     1      -9.452  13.464  67.069  1.00  0.00    -0.247 A  
HETATM    6  C   UNL     1      -9.126  12.207  67.626  1.00  0.00    -0.181 A  
HETATM    7  C   UNL     1      -9.946  11.100  67.374  1.00  0.00    -0.204 A  
HETATM    8  C   UNL     1     -11.089  11.223  66.580  1.00  0.00    -0.280 A  
BRANCH   5   9
HETATM    9  C   UNL     1      -8.566  14.689  67.314  1.00  0.00    -0.214 C  
HETATM   10  O   UNL     1      -8.549  15.545  66.160  1.00  0.00    -0.399 OA 
HETATM   11  H   UNL     1      -8.000  16.305  66.312  1.00  0.00     0.000 HD 
BRANCH   9  12
HETATM   12  C   UNL     1      -9.017  15.570  68.498  1.00  0.00    -0.191 C  
BRANCH  12  13
HETATM   13  N   UNL     1      -9.726  16.776  68.131  1.00  0.00    -0.240 N  
HETATM   14  H   UNL     1     -10.722  16.742  67.913  1.00  0.00     0.000 HD 
HETATM   15  C   UNL     1      -9.044  17.973  68.078  1.00  0.00    -0.272 C  
HETATM   16  O   UNL     1      -7.828  18.062  68.242  1.00  0.00    -0.268 OA 
BRANCH  15  17
HETATM   17  C   UNL     1      -9.920  19.201  67.824  1.00  0.00    -0.357 C  
HETATM   18  N   UNL     1     -10.314  19.845  69.091  1.00  0.00    -0.600 NA 
HETATM   19  H1  UNL     1     -10.899  20.664  68.921  1.00  0.00     0.000 HD 
HETATM   20  H2  UNL     1      -9.501  20.076  69.662  1.00  0.00     0.000 HD 
ENDBRANCH  15  17
ENDBRANCH  12  13
ENDBRANCH   9  12
ENDBRANCH   5   9
BRANCH   6  21
HETATM   21  O   UNL     1      -7.989  12.163  68.390  1.00  0.00    -0.147 OA 
HETATM   22  C   UNL     1      -7.720  10.956  69.097  1.00  0.00    -0.127 C  
ENDBRANCH   6  21
ENDBRANCH   2   3
TORSDOF 6
ENDMDL
MODEL      163
REMARK 921   NORMALIZED FREE ENERGY PREDICTED BY IDOCK:   -3.95 KCAL/MOL
REMARK 922        TOTAL FREE ENERGY PREDICTED BY IDOCK:   -5.83 KCAL/MOL
REMARK 923 INTER-LIGAND FREE ENERGY PREDICTED BY IDOCK:   -5.56 KCAL/MOL
REMARK 924 INTRA-LIGAND FREE ENERGY PREDICTED BY IDOCK:   -0.27 KCAL/MOL
REMARK 927      BINDING AFFINITY PREDICTED BY RF-SCORE:    0.00 PKD
ROOT
HETATM    1  C   UNL     1     -12.472  12.194  63.220  1.00  0.00    -0.411 C  
HETATM    2  O   UNL     1     -12.933  12.639  64.493  1.00  0.00    -0.744 OA 
ENDROOT
BRANCH   2   3
HETATM    3  C   UNL     1     -12.005  12.721  65.493  1.00  0.00    -0.449 A  
HETATM    4  C   UNL     1     -12.011  11.978  66.672  1.00  0.00    -0.082 A  
HETATM    5  C   UNL     1     -11.015  12.137  67.662  1.00  0.00    -0.289 A  
HETATM    6  C   UNL     1      -9.983  13.070  67.422  1.00  0.00    -0.228 A  
HETATM    7  C   UNL     1      -9.977  13.813  66.235  1.00  0.00    -0.312 A  
HETATM    8  C   UNL     1     -10.982  13.640  65.279  1.00  0.00    -0.314 A  
BRANCH   5   9
HETATM    9  C   UNL     1     -11.056  11.322  68.958  1.00  0.00    -0.244 C  
HETATM   10  O   UNL     1     -12.296  10.604  69.071  1.00  0.00    -0.770 OA 
HETATM   11  H   UNL     1     -12.321  10.098  69.874  1.00  0.00     0.000 HD 
BRANCH   9  12
HETATM   12  C   UNL     1      -9.936  10.267  69.079  1.00  0.00    -0.213 C  
BRANCH  12  13
HETATM   13  N   UNL     1     -10.225   8.991  68.464  1.00  0.00    -0.195 N  
HETATM   14  H   UNL     1     -10.112   8.866  67.458  1.00  0.00     0.000 HD 
HETATM   15  C   UNL     1     -10.655   7.942  69.251  1.00  0.00    -0.188 C  
HETATM   16  O   UNL     1     -10.896   8.057  70.451  1.00  0.00    -0.240 OA 
BRANCH  15  17
HETATM   17  C   UNL     1     -10.789   6.605  68.521  1.00  0.00    -0.258 C  
HETATM   18  N   UNL     1     -10.640   5.473  69.453  1.00  0.00    -0.292 NA 
HETATM   19  H1  UNL     1     -10.729   4.580  68.965  1.00  0.00     0.000 HD 
HETATM   20  H2  UNL     1     -11.293   5.541  70.233  1.00  0.00     0.000 HD 
ENDBRANCH  15  17
ENDBRANCH  12  13
ENDBRANCH   9  12
ENDBRANCH   5   9
BRANCH   6  21
HETATM   21  O   UNL     1      -9.036  13.188  68.405  1.00  0.00    -0.187 OA 
HETATM   22  C   UNL     1      -7.668  13.129  68.011  1.00  0.00    -0.146 C  
ENDBRANCH   6  21
ENDBRANCH   2   3
TORSDOF 6
ENDMDL
MODEL      164
REMARK 921   NORMALIZED FREE ENERGY PREDICTED BY IDOCK:   -3.94 KCAL/MOL
REMARK 922        TOTAL FREE ENERGY PREDICTED BY IDOCK:   -5.81 KCAL/MOL
REMARK 923 INTER-LIGAND FREE ENERGY PREDICTED BY IDOCK:   -5.25 KCAL/MOL
REMARK 924 INTRA-LIGAND FREE ENERGY PREDICTED BY IDOCK:   -0.56 KCAL/MOL
REMARK 927      BINDING AFFINITY PREDICTED BY RF-SCORE:    0.00 PKD
ROOT
HETATM    1  C   UNL     1      -8.604  18.638  66.351  1.00  0.00    -0.271 C  
HETATM    2  O   UNL     1      -9.818  17.944  66.624  1.00  0.00    -0.309 OA 
ENDROOT
BRANCH   2   3
HETATM    3  C   UNL     1      -9.870  16.625  66.268  1.00  0.00    -0.310 A  
HETATM    4  C   UNL     1      -9.193  15.585  66.901  1.00  0.00    -0.257 A  
HETATM    5  C   UNL     1      -9.294  14.247  66.456  1.00  0.00    -0.292 A  
HETATM    6  C   UNL     1     -10.123  13.977  65.346  1.00  0.00    -0.319 A  
HETATM    7  C   UNL     1     -10.805  15.024  64.713  1.00  0.00    -0.375 A  
HETATM    8  C   UNL     1     -10.677  16.338  65.171  1.00  0.00    -0.350 A  
BRANCH   5   9
HETATM    9  C   UNL     1      -8.524  13.124  67.158  1.00  0.00    -0.169 C  
HETATM   10  O   UNL     1      -7.477  13.661  67.982  1.00  0.00    -0.103 OA 
HETATM   11  H   UNL     1      -7.000  12.965  68.418  1.00  0.00     0.000 HD 
BRANCH   9  12
HETATM   12  C   UNL     1      -9.391  12.244  68.082  1.00  0.00    -0.205 C  
BRANCH  12  13
HETATM   13  N   UNL     1      -9.484  10.853  67.696  1.00  0.00    -0.158 N  
HETATM   14  H   UNL     1      -8.645  10.277  67.636  1.00  0.00     0.000 HD 
HETATM   15  C   UNL     1     -10.720  10.312  67.410  1.00  0.00    -0.281 C  
HETATM   16  O   UNL     1     -11.755  10.976  67.377  1.00  0.00    -0.539 OA 
BRANCH  15  17
HETATM   17  C   UNL     1     -10.717   8.803  67.157  1.00  0.00    -0.134 C  
HETATM   18  N   UNL     1      -9.885   8.460  65.990  1.00  0.00    -0.474 NA 
HETATM   19  H1  UNL     1      -9.883   7.454  65.822  1.00  0.00     0.000 HD 
HETATM   20  H2  UNL     1      -8.938   8.827  66.084  1.00  0.00     0.000 HD 
ENDBRANCH  15  17
ENDBRANCH  12  13
ENDBRANCH   9  12
ENDBRANCH   5   9
BRANCH   6  21
HETATM   21  O   UNL     1     -10.196  12.666  64.952  1.00  0.00    -0.290 OA 
HETATM   22  C   UNL     1     -11.067  12.352  63.870  1.00  0.00    -0.415 C  
ENDBRANCH   6  21
ENDBRANCH   2   3
TORSDOF 6
ENDMDL
MODEL      165
REMARK 921   NORMALIZED FREE ENERGY PREDICTED BY IDOCK:   -3.93 KCAL/MOL
REMARK 922        TOTAL FREE ENERGY PREDICTED BY IDOCK:   -5.80 KCAL/MOL
REMARK 923 INTER-LIGAND FREE ENERGY PREDICTED BY IDOCK:   -5.31 KCAL/MOL
REMARK 924 INTRA-LIGAND FREE ENERGY PREDICTED BY IDOCK:   -0.49 KCAL/MOL
REMARK 927      BINDING AFFINITY PREDICTED BY RF-SCORE:    0.00 PKD
ROOT
HETATM    1  C   UNL     1      -6.578  16.920  69.035  1.00  0.00    -0.209 C  
HETATM    2  O   UNL     1      -6.615  15.515  69.266  1.00  0.00    -0.127 OA 
ENDROOT
BRANCH   2   3
HETATM    3  C   UNL     1      -7.806  14.882  69.039  1.00  0.00    -0.165 A  
HETATM    4  C   UNL     1      -9.061  15.351  69.418  1.00  0.00    -0.258 A  
HETATM    5  C   UNL     1     -10.244  14.623  69.154  1.00  0.00    -0.199 A  
HETATM    6  C   UNL     1     -10.128  13.393  68.470  1.00  0.00    -0.207 A  
HETATM    7  C   UNL     1      -8.864  12.925  68.088  1.00  0.00    -0.194 A  
HETATM    8  C   UNL     1      -7.712  13.664  68.372  1.00  0.00    -0.138 A  
BRANCH   5   9
HETATM    9  C   UNL     1     -11.611  15.152  69.598  1.00  0.00    -0.311 C  
HETATM   10  O   UNL     1     -12.608  14.894  68.596  1.00  0.00    -0.466 OA 
HETATM   11  H   UNL     1     -13.456  15.222  68.871  1.00  0.00     0.000 HD 
BRANCH   9  12
HETATM   12  C   UNL     1     -12.140  14.524  70.904  1.00  0.00    -0.336 C  
BRANCH  12  13
HETATM   13  N   UNL     1     -12.358  13.095  70.855  1.00  0.00    -0.398 N  
HETATM   14  H   UNL     1     -11.881  12.525  70.156  1.00  0.00     0.000 HD 
HETATM   15  C   UNL     1     -13.216  12.510  71.763  1.00  0.00    -0.344 C  
HETATM   16  O   UNL     1     -13.886  13.154  72.568  1.00  0.00    -0.654 OA 
BRANCH  15  17
HETATM   17  C   UNL     1     -13.257  10.982  71.713  1.00  0.00    -0.400 C  
HETATM   18  N   UNL     1     -11.972  10.430  71.247  1.00  0.00    -0.354 NA 
HETATM   19  H1  UNL     1     -11.999   9.410  71.214  1.00  0.00     0.000 HD 
HETATM   20  H2  UNL     1     -11.192  10.766  71.813  1.00  0.00     0.000 HD 
ENDBRANCH  15  17
ENDBRANCH  12  13
ENDBRANCH   9  12
ENDBRANCH   5   9
BRANCH   6  21
HETATM   21  O   UNL     1     -11.299  12.723  68.230  1.00  0.00    -0.255 OA 
HETATM   22  C   UNL     1     -11.213  11.329  67.949  1.00  0.00    -0.290 C  
ENDBRANCH   6  21
ENDBRANCH   2   3
TORSDOF 6
ENDMDL
MODEL      166
REMARK 921   NORMALIZED FREE ENERGY PREDICTED BY IDOCK:   -3.92 KCAL/MOL
REMARK 922        TOTAL FREE ENERGY PREDICTED BY IDOCK:   -5.79 KCAL/MOL
REMARK 923 INTER-LIGAND FREE ENERGY PREDICTED BY IDOCK:   -5.01 KCAL/MOL
REMARK 924 INTRA-LIGAND FREE ENERGY PREDICTED BY IDOCK:   -0.78 KCAL/MOL
REMARK 927      BINDING AFFINITY PREDICTED BY RF-SCORE:    0.00 PKD
ROOT
HETATM    1  C   UNL     1      -7.759   8.744  63.764  1.00  0.00    -0.133 C  
HETATM    2  O   UNL     1      -9.013   9.331  64.101  1.00  0.00    -0.191 OA 
ENDROOT
BRANCH   2   3
HETATM    3  C   UNL     1      -9.178   9.738  65.396  1.00  0.00    -0.227 A  
HETATM    4  C   UNL     1      -8.738  10.947  65.930  1.00  0.00    -0.190 A  
HETATM    5  C   UNL     1      -8.939  11.282  67.289  1.00  0.00    -0.149 A  
HETATM    6  C   UNL     1      -9.623  10.357  68.107  1.00  0.00    -0.144 A  
HETATM    7  C   UNL     1     -10.067   9.143  67.566  1.00  0.00    -0.284 A  
HETATM    8  C   UNL     1      -9.844   8.837  66.221  1.00  0.00    -0.342 A  
BRANCH   5   9
HETATM    9  C   UNL     1      -8.429  12.610  67.856  1.00  0.00    -0.173 C  
HETATM   10  O   UNL     1      -7.340  13.117  67.067  1.00  0.00    -0.370 OA 
HETATM   11  H   UNL     1      -7.024  13.941  67.418  1.00  0.00     0.000 HD 
BRANCH   9  12
HETATM   12  C   UNL     1      -9.489  13.730  67.898  1.00  0.00    -0.214 C  
BRANCH  12  13
HETATM   13  N   UNL     1     -10.194  13.863  69.154  1.00  0.00    -0.433 N  
HETATM   14  H   UNL     1      -9.678  14.005  70.022  1.00  0.00     0.000 HD 
HETATM   15  C   UNL     1     -11.572  13.795  69.167  1.00  0.00    -0.317 C  
HETATM   16  O   UNL     1     -12.242  13.537  68.169  1.00  0.00    -0.302 OA 
BRANCH  15  17
HETATM   17  C   UNL     1     -12.216  14.094  70.522  1.00  0.00    -0.361 C  
HETATM   18  N   UNL     1     -13.273  15.113  70.396  1.00  0.00    -0.679 NA 
HETATM   19  H1  UNL     1     -13.702  15.312  71.300  1.00  0.00     0.000 HD 
HETATM   20  H2  UNL     1     -13.969  14.846  69.700  1.00  0.00     0.000 HD 
ENDBRANCH  15  17
ENDBRANCH  12  13
ENDBRANCH   9  12
ENDBRANCH   5   9
BRANCH   6  21
HETATM   21  O   UNL     1      -9.801  10.725  69.415  1.00  0.00    -0.186 OA 
HETATM   22  C   UNL     1     -10.941  10.207  70.094  1.00  0.00    -0.316 C  
ENDBRANCH   6  21
ENDBRANCH   2   3
TORSDOF 6
ENDMDL
MODEL      167
REMARK 921   NORMALIZED FREE ENERGY PREDICTED BY IDOCK:   -3.91 KCAL/MOL
REMARK 922        TOTAL FREE ENERGY PREDICTED BY IDOCK:   -5.78 KCAL/MOL
REMARK 923 INTER-LIGAND FREE ENERGY PREDICTED BY IDOCK:   -4.90 KCAL/MOL
REMARK 924 INTRA-LIGAND FREE ENERGY PREDICTED BY IDOCK:   -0.88 KCAL/MOL
REMARK 927      BINDING AFFINITY PREDICTED BY RF-SCORE:    0.00 PKD
ROOT
HETATM    1  C   UNL     1      -8.629  10.620  66.256  1.00  0.00    -0.153 C  
HETATM    2  O   UNL     1      -9.872  10.373  66.908  1.00  0.00    -0.178 OA 
ENDROOT
BRANCH   2   3
HETATM    3  C   UNL     1      -9.818  10.012  68.226  1.00  0.00    -0.146 A  
HETATM    4  C   UNL     1     -10.875  10.077  69.131  1.00  0.00    -0.253 A  
HETATM    5  C   UNL     1     -10.727   9.695  70.484  1.00  0.00    -0.374 A  
HETATM    6  C   UNL     1      -9.466   9.220  70.905  1.00  0.00    -0.261 A  
HETATM    7  C   UNL     1      -8.405   9.153  69.993  1.00  0.00    -0.156 A  
HETATM    8  C   UNL     1      -8.582   9.548  68.663  1.00  0.00    -0.119 A  
BRANCH   5   9
HETATM    9  C   UNL     1     -11.900   9.793  71.463  1.00  0.00    -0.399 C  
HETATM   10  O   UNL     1     -12.800  10.845  71.077  1.00  0.00    -0.368 OA 
HETATM   11  H   UNL     1     -13.528  10.906  71.684  1.00  0.00     0.000 HD 
BRANCH   9  12
HETATM   12  C   UNL     1     -12.753   8.511  71.561  1.00  0.00    -0.313 C  
BRANCH  12  13
HETATM   13  N   UNL     1     -12.247   7.504  72.467  1.00  0.00    -0.539 N  
HETATM   14  H   UNL     1     -12.297   7.646  73.476  1.00  0.00     0.000 HD 
HETATM   15  C   UNL     1     -11.695   6.349  71.954  1.00  0.00    -0.328 C  
HETATM   16  O   UNL     1     -11.525   6.161  70.751  1.00  0.00    -0.324 OA 
BRANCH  15  17
HETATM   17  C   UNL     1     -11.328   5.294  73.000  1.00  0.00    -0.309 C  
HETATM   18  N   UNL     1      -9.879   5.021  72.995  1.00  0.00    -0.149 NA 
HETATM   19  H1  UNL     1      -9.635   4.318  73.693  1.00  0.00     0.000 HD 
HETATM   20  H2  UNL     1      -9.337   5.876  73.118  1.00  0.00     0.000 HD 
ENDBRANCH  15  17
ENDBRANCH  12  13
ENDBRANCH   9  12
ENDBRANCH   5   9
BRANCH   6  21
HETATM   21  O   UNL     1      -9.368   8.856  72.223  1.00  0.00    -0.360 OA 
HETATM   22  C   UNL     1      -8.179   8.187  72.633  1.00  0.00    -0.170 C  
ENDBRANCH   6  21
ENDBRANCH   2   3
TORSDOF 6
ENDMDL
MODEL      168
REMARK 921   NORMALIZED FREE ENERGY PREDICTED BY IDOCK:   -3.91 KCAL/MOL
REMARK 922        TOTAL FREE ENERGY PREDICTED BY IDOCK:   -5.78 KCAL/MOL
REMARK 923 INTER-LIGAND FREE ENERGY PREDICTED BY IDOCK:   -6.15 KCAL/MOL
REMARK 924 INTRA-LIGAND FREE ENERGY PREDICTED BY IDOCK:    0.37 KCAL/MOL
REMARK 927      BINDING AFFINITY PREDICTED BY RF-SCORE:    0.00 PKD
ROOT
HETATM    1  C   UNL     1      -8.739  15.991  69.222  1.00  0.00    -0.224 C  
HETATM    2  O   UNL     1     -10.158  15.865  69.256  1.00  0.00    -0.216 OA 
ENDROOT
BRANCH   2   3
HETATM    3  C   UNL     1     -10.717  14.939  68.419  1.00  0.00    -0.245 A  
HETATM    4  C   UNL     1     -10.949  13.600  68.727  1.00  0.00    -0.292 A  
HETATM    5  C   UNL     1     -11.521  12.706  67.793  1.00  0.00    -0.375 A  
HETATM    6  C   UNL     1     -11.876  13.209  66.523  1.00  0.00    -0.400 A  
HETATM    7  C   UNL     1     -11.644  14.556  66.217  1.00  0.00    -0.364 A  
HETATM    8  C   UNL     1     -11.067  15.413  67.159  1.00  0.00    -0.291 A  
BRANCH   5   9
HETATM    9  C   UNL     1     -11.749  11.234  68.150  1.00  0.00    -0.253 C  
HETATM   10  O   UNL     1     -10.602  10.442  67.803  1.00  0.00    -0.212 OA 
HETATM   11  H   UNL     1     -10.742   9.529  68.024  1.00  0.00     0.000 HD 
BRANCH   9  12
HETATM   12  C   UNL     1     -12.011  10.978  69.649  1.00  0.00    -0.353 C  
BRANCH  12  13
HETATM   13  N   UNL     1     -12.361  12.151  70.420  1.00  0.00    -0.276 N  
HETATM   14  H   UNL     1     -12.111  13.081  70.085  1.00  0.00     0.000 HD 
HETATM   15  C   UNL     1     -13.035  11.999  71.614  1.00  0.00    -0.334 C  
HETATM   16  O   UNL     1     -13.282  10.903  72.113  1.00  0.00    -0.474 OA 
BRANCH  15  17
HETATM   17  C   UNL     1     -13.481  13.308  72.269  1.00  0.00    -0.582 C  
HETATM   18  N   UNL     1     -12.605  14.426  71.876  1.00  0.00    -0.341 NA 
HETATM   19  H1  UNL     1     -12.902  15.299  72.313  1.00  0.00     0.000 HD 
HETATM   20  H2  UNL     1     -12.544  14.515  70.861  1.00  0.00     0.000 HD 
ENDBRANCH  15  17
ENDBRANCH  12  13
ENDBRANCH   9  12
ENDBRANCH   5   9
BRANCH   6  21
HETATM   21  O   UNL     1     -12.432  12.310  65.651  1.00  0.00    -0.591 OA 
HETATM   22  C   UNL     1     -12.653  12.742  64.312  1.00  0.00    -0.324 C  
ENDBRANCH   6  21
ENDBRANCH   2   3
TORSDOF 6
ENDMDL
MODEL      169
REMARK 921   NORMALIZED FREE ENERGY PREDICTED BY IDOCK:   -3.91 KCAL/MOL
REMARK 922        TOTAL FREE ENERGY PREDICTED BY IDOCK:   -5.78 KCAL/MOL
REMARK 923 INTER-LIGAND FREE ENERGY PREDICTED BY IDOCK:   -5.13 KCAL/MOL
REMARK 924 INTRA-LIGAND FREE ENERGY PREDICTED BY IDOCK:   -0.64 KCAL/MOL
REMARK 927      BINDING AFFINITY PREDICTED BY RF-SCORE:    0.00 PKD
ROOT
HETATM    1  C   UNL     1      -8.113   4.912  65.373  1.00  0.00    -0.114 C  
HETATM    2  O   UNL     1      -7.979   6.330  65.378  1.00  0.00    -0.104 OA 
ENDROOT
BRANCH   2   3
HETATM    3  C   UNL     1      -8.685   7.015  66.327  1.00  0.00    -0.146 A  
HETATM    4  C   UNL     1      -8.977   6.559  67.611  1.00  0.00    -0.114 A  
HETATM    5  C   UNL     1      -9.727   7.330  68.527  1.00  0.00    -0.149 A  
HETATM    6  C   UNL     1     -10.170   8.606  68.115  1.00  0.00    -0.205 A  
HETATM    7  C   UNL     1      -9.872   9.064  66.825  1.00  0.00    -0.300 A  
HETATM    8  C   UNL     1      -9.136   8.273  65.938  1.00  0.00    -0.203 A  
BRANCH   5   9
HETATM    9  C   UNL     1     -10.051   6.797  69.926  1.00  0.00    -0.180 C  
HETATM   10  O   UNL     1      -9.817   7.805  70.923  1.00  0.00    -0.176 OA 
HETATM   11  H   UNL     1     -10.018   7.475  71.790  1.00  0.00     0.000 HD 
BRANCH   9  12
HETATM   12  C   UNL     1     -11.514   6.343  70.108  1.00  0.00    -0.417 C  
BRANCH  12  13
HETATM   13  N   UNL     1     -12.437   7.386  70.497  1.00  0.00    -0.557 N  
HETATM   14  H   UNL     1     -12.510   8.242  69.947  1.00  0.00     0.000 HD 
HETATM   15  C   UNL     1     -13.220   7.213  71.620  1.00  0.00    -0.346 C  
HETATM   16  O   UNL     1     -13.114   6.246  72.371  1.00  0.00     0.036 OA 
BRANCH  15  17
HETATM   17  C   UNL     1     -14.260   8.310  71.852  1.00  0.00    -0.454 C  
HETATM   18  N   UNL     1     -14.127   8.894  73.199  1.00  0.00    -1.225 NA 
HETATM   19  H1  UNL     1     -14.821   9.626  73.354  1.00  0.00     0.000 HD 
HETATM   20  H2  UNL     1     -13.180   9.232  73.369  1.00  0.00     0.000 HD 
ENDBRANCH  15  17
ENDBRANCH  12  13
ENDBRANCH   9  12
ENDBRANCH   5   9
BRANCH   6  21
HETATM   21  O   UNL     1     -10.889   9.322  69.036  1.00  0.00    -0.200 OA 
HETATM   22  C   UNL     1     -11.192  10.678  68.723  1.00  0.00    -0.279 C  
ENDBRANCH   6  21
ENDBRANCH   2   3
TORSDOF 6
ENDMDL
MODEL      170
REMARK 921   NORMALIZED FREE ENERGY PREDICTED BY IDOCK:   -3.88 KCAL/MOL
REMARK 922        TOTAL FREE ENERGY PREDICTED BY IDOCK:   -5.73 KCAL/MOL
REMARK 923 INTER-LIGAND FREE ENERGY PREDICTED BY IDOCK:   -5.35 KCAL/MOL
REMARK 924 INTRA-LIGAND FREE ENERGY PREDICTED BY IDOCK:   -0.38 KCAL/MOL
REMARK 927      BINDING AFFINITY PREDICTED BY RF-SCORE:    0.00 PKD
ROOT
HETATM    1  C   UNL     1      -8.888   9.703  69.763  1.00  0.00    -0.210 C  
HETATM    2  O   UNL     1      -8.395  10.590  68.762  1.00  0.00    -0.119 OA 
ENDROOT
BRANCH   2   3
HETATM    3  C   UNL     1      -9.304  11.077  67.865  1.00  0.00    -0.158 A  
HETATM    4  C   UNL     1     -10.181  12.136  68.088  1.00  0.00    -0.203 A  
HETATM    5  C   UNL     1     -11.101  12.567  67.105  1.00  0.00    -0.321 A  
HETATM    6  C   UNL     1     -11.102  11.901  65.860  1.00  0.00    -0.316 A  
HETATM    7  C   UNL     1     -10.217  10.838  65.637  1.00  0.00    -0.320 A  
HETATM    8  C   UNL     1      -9.326  10.429  66.633  1.00  0.00    -0.185 A  
BRANCH   5   9
HETATM    9  C   UNL     1     -12.067  13.722  67.383  1.00  0.00    -0.343 C  
HETATM   10  O   UNL     1     -12.169  13.973  68.794  1.00  0.00    -0.479 OA 
HETATM   11  H   UNL     1     -12.768  14.690  68.967  1.00  0.00     0.000 HD 
BRANCH   9  12
HETATM   12  C   UNL     1     -11.657  15.061  66.735  1.00  0.00    -0.204 C  
BRANCH  12  13
HETATM   13  N   UNL     1     -10.603  15.777  67.419  1.00  0.00    -0.308 N  
HETATM   14  H   UNL     1     -10.295  15.480  68.345  1.00  0.00     0.000 HD 
HETATM   15  C   UNL     1     -10.017  16.866  66.808  1.00  0.00    -0.289 C  
HETATM   16  O   UNL     1     -10.405  17.324  65.735  1.00  0.00    -0.531 OA 
BRANCH  15  17
HETATM   17  C   UNL     1      -8.819  17.453  67.555  1.00  0.00    -0.224 C  
HETATM   18  N   UNL     1      -8.553  16.712  68.801  1.00  0.00    -0.256 NA 
HETATM   19  H1  UNL     1      -7.753  17.104  69.300  1.00  0.00     0.000 HD 
HETATM   20  H2  UNL     1      -8.433  15.714  68.625  1.00  0.00     0.000 HD 
ENDBRANCH  15  17
ENDBRANCH  12  13
ENDBRANCH   9  12
ENDBRANCH   5   9
BRANCH   6  21
HETATM   21  O   UNL     1     -12.005  12.354  64.935  1.00  0.00    -0.382 OA 
HETATM   22  C   UNL     1     -11.574  12.434  63.579  1.00  0.00    -0.497 C  
ENDBRANCH   6  21
ENDBRANCH   2   3
TORSDOF 6
ENDMDL
MODEL      171
REMARK 921   NORMALIZED FREE ENERGY PREDICTED BY IDOCK:   -3.87 KCAL/MOL
REMARK 922        TOTAL FREE ENERGY PREDICTED BY IDOCK:   -5.72 KCAL/MOL
REMARK 923 INTER-LIGAND FREE ENERGY PREDICTED BY IDOCK:   -4.98 KCAL/MOL
REMARK 924 INTRA-LIGAND FREE ENERGY PREDICTED BY IDOCK:   -0.74 KCAL/MOL
REMARK 927      BINDING AFFINITY PREDICTED BY RF-SCORE:    0.00 PKD
ROOT
HETATM    1  C   UNL     1      -6.244   9.936  65.327  1.00  0.00    -0.093 C  
HETATM    2  O   UNL     1      -6.985  10.442  66.435  1.00  0.00    -0.099 OA 
ENDROOT
BRANCH   2   3
HETATM    3  C   UNL     1      -8.235  10.928  66.172  1.00  0.00    -0.168 A  
HETATM    4  C   UNL     1      -8.705  12.194  66.518  1.00  0.00    -0.114 A  
HETATM    5  C   UNL     1     -10.022  12.611  66.218  1.00  0.00    -0.266 A  
HETATM    6  C   UNL     1     -10.864  11.708  65.532  1.00  0.00    -0.279 A  
HETATM    7  C   UNL     1     -10.389  10.438  65.184  1.00  0.00    -0.260 A  
HETATM    8  C   UNL     1      -9.084  10.052  65.503  1.00  0.00    -0.227 A  
BRANCH   5   9
HETATM    9  C   UNL     1     -10.520  14.000  66.625  1.00  0.00    -0.272 C  
HETATM   10  O   UNL     1     -11.443  13.910  67.724  1.00  0.00    -0.289 OA 
HETATM   11  H   UNL     1     -11.751  14.772  67.977  1.00  0.00     0.000 HD 
BRANCH   9  12
HETATM   12  C   UNL     1      -9.405  14.966  67.078  1.00  0.00    -0.227 C  
BRANCH  12  13
HETATM   13  N   UNL     1      -9.463  16.288  66.495  1.00  0.00    -0.246 N  
HETATM   14  H   UNL     1      -8.852  16.535  65.716  1.00  0.00     0.000 HD 
HETATM   15  C   UNL     1     -10.353  17.213  67.001  1.00  0.00    -0.308 C  
HETATM   16  O   UNL     1     -11.049  17.003  67.993  1.00  0.00    -0.324 OA 
BRANCH  15  17
HETATM   17  C   UNL     1     -10.431  18.523  66.217  1.00  0.00    -0.406 C  
HETATM   18  N   UNL     1     -10.643  19.671  67.117  1.00  0.00    -0.482 NA 
HETATM   19  H1  UNL     1     -10.696  20.545  66.593  1.00  0.00     0.000 HD 
HETATM   20  H2  UNL     1      -9.931  19.712  67.846  1.00  0.00     0.000 HD 
ENDBRANCH  15  17
ENDBRANCH  12  13
ENDBRANCH   9  12
ENDBRANCH   5   9
BRANCH   6  21
HETATM   21  O   UNL     1     -12.130  12.155  65.257  1.00  0.00    -0.435 OA 
HETATM   22  C   UNL     1     -12.488  12.316  63.888  1.00  0.00    -0.485 C  
ENDBRANCH   6  21
ENDBRANCH   2   3
TORSDOF 6
ENDMDL
MODEL      172
REMARK 921   NORMALIZED FREE ENERGY PREDICTED BY IDOCK:   -3.86 KCAL/MOL
REMARK 922        TOTAL FREE ENERGY PREDICTED BY IDOCK:   -5.71 KCAL/MOL
REMARK 923 INTER-LIGAND FREE ENERGY PREDICTED BY IDOCK:   -5.31 KCAL/MOL
REMARK 924 INTRA-LIGAND FREE ENERGY PREDICTED BY IDOCK:   -0.40 KCAL/MOL
REMARK 927      BINDING AFFINITY PREDICTED BY RF-SCORE:    0.00 PKD
ROOT
HETATM    1  C   UNL     1      -9.524   3.662  65.876  1.00  0.00    -0.160 C  
HETATM    2  O   UNL     1      -9.153   2.682  66.841  1.00  0.00    -0.152 OA 
ENDROOT
BRANCH   2   3
HETATM    3  C   UNL     1      -9.313   3.019  68.157  1.00  0.00    -0.198 A  
HETATM    4  C   UNL     1      -9.658   4.280  68.637  1.00  0.00    -0.210 A  
HETATM    5  C   UNL     1      -9.789   4.545  70.020  1.00  0.00    -0.296 A  
HETATM    6  C   UNL     1      -9.575   3.480  70.923  1.00  0.00    -0.172 A  
HETATM    7  C   UNL     1      -9.231   2.213  70.437  1.00  0.00    -0.186 A  
HETATM    8  C   UNL     1      -9.100   1.985  69.064  1.00  0.00    -0.179 A  
BRANCH   5   9
HETATM    9  C   UNL     1     -10.150   5.945  70.523  1.00  0.00    -0.197 C  
HETATM   10  O   UNL     1      -9.101   6.881  70.226  1.00  0.00    -0.152 OA 
HETATM   11  H   UNL     1      -9.325   7.750  70.538  1.00  0.00     0.000 HD 
BRANCH   9  12
HETATM   12  C   UNL     1     -11.436   6.529  69.902  1.00  0.00    -0.403 C  
BRANCH  12  13
HETATM   13  N   UNL     1     -11.904   7.760  70.500  1.00  0.00    -0.479 N  
HETATM   14  H   UNL     1     -11.555   8.659  70.168  1.00  0.00     0.000 HD 
HETATM   15  C   UNL     1     -12.827   7.708  71.524  1.00  0.00    -0.344 C  
HETATM   16  O   UNL     1     -13.216   6.655  72.026  1.00  0.00    -0.214 OA 
BRANCH  15  17
HETATM   17  C   UNL     1     -13.358   9.069  71.978  1.00  0.00    -0.438 C  
HETATM   18  N   UNL     1     -14.159   8.943  73.209  1.00  0.00    -1.248 NA 
HETATM   19  H1  UNL     1     -14.514   9.851  73.512  1.00  0.00     0.000 HD 
HETATM   20  H2  UNL     1     -13.637   8.478  73.950  1.00  0.00     0.000 HD 
ENDBRANCH  15  17
ENDBRANCH  12  13
ENDBRANCH   9  12
ENDBRANCH   5   9
BRANCH   6  21
HETATM   21  O   UNL     1      -9.717   3.780  72.252  1.00  0.00    -0.139 OA 
HETATM   22  C   UNL     1     -10.660   3.017  73.000  1.00  0.00    -0.146 C  
ENDBRANCH   6  21
ENDBRANCH   2   3
TORSDOF 6
ENDMDL
MODEL      173
REMARK 921   NORMALIZED FREE ENERGY PREDICTED BY IDOCK:   -3.85 KCAL/MOL
REMARK 922        TOTAL FREE ENERGY PREDICTED BY IDOCK:   -5.70 KCAL/MOL
REMARK 923 INTER-LIGAND FREE ENERGY PREDICTED BY IDOCK:   -5.00 KCAL/MOL
REMARK 924 INTRA-LIGAND FREE ENERGY PREDICTED BY IDOCK:   -0.70 KCAL/MOL
REMARK 927      BINDING AFFINITY PREDICTED BY RF-SCORE:    0.00 PKD
ROOT
HETATM    1  C   UNL     1     -11.996  14.065  69.981  1.00  0.00    -0.339 C  
HETATM    2  O   UNL     1     -12.360  12.687  69.961  1.00  0.00    -0.208 OA 
ENDROOT
BRANCH   2   3
HETATM    3  C   UNL     1     -11.786  11.910  68.994  1.00  0.00    -0.331 A  
HETATM    4  C   UNL     1     -11.337  10.602  69.161  1.00  0.00    -0.338 A  
HETATM    5  C   UNL     1     -10.741   9.874  68.106  1.00  0.00    -0.279 A  
HETATM    6  C   UNL     1     -10.622  10.505  66.849  1.00  0.00    -0.243 A  
HETATM    7  C   UNL     1     -11.077  11.819  66.682  1.00  0.00    -0.364 A  
HETATM    8  C   UNL     1     -11.653  12.515  67.748  1.00  0.00    -0.401 A  
BRANCH   5   9
HETATM    9  C   UNL     1     -10.238   8.443  68.322  1.00  0.00    -0.205 C  
HETATM   10  O   UNL     1      -8.802   8.402  68.321  1.00  0.00    -0.138 OA 
HETATM   11  H   UNL     1      -8.489   7.515  68.455  1.00  0.00     0.000 HD 
BRANCH   9  12
HETATM   12  C   UNL     1     -10.686   7.809  69.655  1.00  0.00    -0.223 C  
BRANCH  12  13
HETATM   13  N   UNL     1      -9.666   7.744  70.678  1.00  0.00    -0.177 N  
HETATM   14  H   UNL     1      -8.708   7.493  70.435  1.00  0.00     0.000 HD 
HETATM   15  C   UNL     1     -10.001   8.024  71.987  1.00  0.00    -0.213 C  
HETATM   16  O   UNL     1     -11.154   8.244  72.354  1.00  0.00    -0.334 OA 
BRANCH  15  17
HETATM   17  C   UNL     1      -8.818   8.069  72.956  1.00  0.00    -0.239 C  
HETATM   18  N   UNL     1      -7.712   8.876  72.410  1.00  0.00    -0.355 NA 
HETATM   19  H1  UNL     1      -6.923   8.905  73.057  1.00  0.00     0.000 HD 
HETATM   20  H2  UNL     1      -8.023   9.813  72.154  1.00  0.00     0.000 HD 
ENDBRANCH  15  17
ENDBRANCH  12  13
ENDBRANCH   9  12
ENDBRANCH   5   9
BRANCH   6  21
HETATM   21  O   UNL     1     -10.044   9.761  65.853  1.00  0.00    -0.282 OA 
HETATM   22  C   UNL     1      -9.934  10.359  64.565  1.00  0.00    -0.331 C  
ENDBRANCH   6  21
ENDBRANCH   2   3
TORSDOF 6
ENDMDL
MODEL      174
REMARK 921   NORMALIZED FREE ENERGY PREDICTED BY IDOCK:   -3.85 KCAL/MOL
REMARK 922        TOTAL FREE ENERGY PREDICTED BY IDOCK:   -5.70 KCAL/MOL
REMARK 923 INTER-LIGAND FREE ENERGY PREDICTED BY IDOCK:   -5.01 KCAL/MOL
REMARK 924 INTRA-LIGAND FREE ENERGY PREDICTED BY IDOCK:   -0.69 KCAL/MOL
REMARK 927      BINDING AFFINITY PREDICTED BY RF-SCORE:    0.00 PKD
ROOT
HETATM    1  C   UNL     1      -7.233  15.130  68.578  1.00  0.00    -0.118 C  
HETATM    2  O   UNL     1      -6.795  13.851  68.128  1.00  0.00    -0.093 OA 
ENDROOT
BRANCH   2   3
HETATM    3  C   UNL     1      -7.584  12.780  68.444  1.00  0.00    -0.133 A  
HETATM    4  C   UNL     1      -8.959  12.693  68.236  1.00  0.00    -0.176 A  
HETATM    5  C   UNL     1      -9.701  11.549  68.608  1.00  0.00    -0.172 A  
HETATM    6  C   UNL     1      -9.006  10.467  69.190  1.00  0.00    -0.179 A  
HETATM    7  C   UNL     1      -7.623  10.556  69.395  1.00  0.00    -0.145 A  
HETATM    8  C   UNL     1      -6.919  11.706  69.026  1.00  0.00    -0.111 A  
BRANCH   5   9
HETATM    9  C   UNL     1     -11.215  11.486  68.385  1.00  0.00    -0.255 C  
HETATM   10  O   UNL     1     -11.596  10.218  67.825  1.00  0.00    -0.651 OA 
HETATM   11  H   UNL     1     -12.535  10.179  67.688  1.00  0.00     0.000 HD 
BRANCH   9  12
HETATM   12  C   UNL     1     -12.052  11.658  69.670  1.00  0.00    -0.280 C  
BRANCH  12  13
HETATM   13  N   UNL     1     -12.569  10.432  70.236  1.00  0.00    -0.502 N  
HETATM   14  H   UNL     1     -12.501   9.557  69.717  1.00  0.00     0.000 HD 
HETATM   15  C   UNL     1     -13.154  10.457  71.485  1.00  0.00    -0.431 C  
HETATM   16  O   UNL     1     -13.344  11.494  72.118  1.00  0.00    -0.477 OA 
BRANCH  15  17
HETATM   17  C   UNL     1     -13.530   9.084  72.044  1.00  0.00    -0.442 C  
HETATM   18  N   UNL     1     -13.358   8.030  71.029  1.00  0.00    -0.529 NA 
HETATM   19  H1  UNL     1     -13.609   7.114  71.402  1.00  0.00     0.000 HD 
HETATM   20  H2  UNL     1     -12.413   8.032  70.643  1.00  0.00     0.000 HD 
ENDBRANCH  15  17
ENDBRANCH  12  13
ENDBRANCH   9  12
ENDBRANCH   5   9
BRANCH   6  21
HETATM   21  O   UNL     1      -9.763   9.376  69.529  1.00  0.00    -0.167 OA 
HETATM   22  C   UNL     1      -9.095   8.123  69.648  1.00  0.00    -0.151 C  
ENDBRANCH   6  21
ENDBRANCH   2   3
TORSDOF 6
ENDMDL
MODEL      175
REMARK 921   NORMALIZED FREE ENERGY PREDICTED BY IDOCK:   -3.84 KCAL/MOL
REMARK 922        TOTAL FREE ENERGY PREDICTED BY IDOCK:   -5.69 KCAL/MOL
REMARK 923 INTER-LIGAND FREE ENERGY PREDICTED BY IDOCK:   -5.38 KCAL/MOL
REMARK 924 INTRA-LIGAND FREE ENERGY PREDICTED BY IDOCK:   -0.31 KCAL/MOL
REMARK 927      BINDING AFFINITY PREDICTED BY RF-SCORE:    0.00 PKD
ROOT
HETATM    1  C   UNL     1      -8.970   9.213  67.707  1.00  0.00    -0.127 C  
HETATM    2  O   UNL     1      -9.871  10.310  67.594  1.00  0.00    -0.164 OA 
ENDROOT
BRANCH   2   3
HETATM    3  C   UNL     1     -10.685  10.556  68.665  1.00  0.00    -0.215 A  
HETATM    4  C   UNL     1     -11.231   9.592  69.509  1.00  0.00    -0.144 A  
HETATM    5  C   UNL     1     -12.076   9.935  70.589  1.00  0.00    -0.343 A  
HETATM    6  C   UNL     1     -12.349  11.303  70.810  1.00  0.00    -0.398 A  
HETATM    7  C   UNL     1     -11.796  12.270  69.962  1.00  0.00    -0.372 A  
HETATM    8  C   UNL     1     -10.971  11.898  68.896  1.00  0.00    -0.285 A  
BRANCH   5   9
HETATM    9  C   UNL     1     -12.679   8.855  71.492  1.00  0.00    -0.335 C  
HETATM   10  O   UNL     1     -13.233   7.786  70.707  1.00  0.00    -0.509 OA 
HETATM   11  H   UNL     1     -13.607   7.115  71.266  1.00  0.00     0.000 HD 
BRANCH   9  12
HETATM   12  C   UNL     1     -11.670   8.201  72.459  1.00  0.00    -0.394 C  
BRANCH  12  13
HETATM   13  N   UNL     1     -10.305   8.659  72.323  1.00  0.00    -0.328 N  
HETATM   14  H   UNL     1     -10.094   9.656  72.315  1.00  0.00     0.000 HD 
HETATM   15  C   UNL     1      -9.289   7.732  72.206  1.00  0.00    -0.158 C  
HETATM   16  O   UNL     1      -9.489   6.522  72.120  1.00  0.00    -0.150 OA 
BRANCH  15  17
HETATM   17  C   UNL     1      -7.878   8.323  72.217  1.00  0.00    -0.130 C  
HETATM   18  N   UNL     1      -7.708   9.315  71.140  1.00  0.00    -0.327 NA 
HETATM   19  H1  UNL     1      -6.766   9.708  71.148  1.00  0.00     0.000 HD 
HETATM   20  H2  UNL     1      -8.420  10.043  71.185  1.00  0.00     0.000 HD 
ENDBRANCH  15  17
ENDBRANCH  12  13
ENDBRANCH   9  12
ENDBRANCH   5   9
BRANCH   6  21
HETATM   21  O   UNL     1     -13.168  11.591  71.871  1.00  0.00    -0.485 OA 
HETATM   22  C   UNL     1     -13.408  12.964  72.162  1.00  0.00    -0.515 C  
ENDBRANCH   6  21
ENDBRANCH   2   3
TORSDOF 6
ENDMDL
MODEL      176
REMARK 921   NORMALIZED FREE ENERGY PREDICTED BY IDOCK:   -3.83 KCAL/MOL
REMARK 922        TOTAL FREE ENERGY PREDICTED BY IDOCK:   -5.67 KCAL/MOL
REMARK 923 INTER-LIGAND FREE ENERGY PREDICTED BY IDOCK:   -5.21 KCAL/MOL
REMARK 924 INTRA-LIGAND FREE ENERGY PREDICTED BY IDOCK:   -0.46 KCAL/MOL
REMARK 927      BINDING AFFINITY PREDICTED BY RF-SCORE:    0.00 PKD
ROOT
HETATM    1  C   UNL     1     -12.293  11.946  70.655  1.00  0.00    -0.313 C  
HETATM    2  O   UNL     1     -11.220  11.319  69.958  1.00  0.00    -0.238 OA 
ENDROOT
BRANCH   2   3
HETATM    3  C   UNL     1     -10.912  11.814  68.722  1.00  0.00    -0.234 A  
HETATM    4  C   UNL     1      -9.997  12.832  68.459  1.00  0.00    -0.168 A  
HETATM    5  C   UNL     1      -9.749  13.294  67.146  1.00  0.00    -0.236 A  
HETATM    6  C   UNL     1     -10.448  12.681  66.083  1.00  0.00    -0.258 A  
HETATM    7  C   UNL     1     -11.365  11.657  66.350  1.00  0.00    -0.312 A  
HETATM    8  C   UNL     1     -11.595  11.229  67.661  1.00  0.00    -0.290 A  
BRANCH   5   9
HETATM    9  C   UNL     1      -8.751  14.427  66.885  1.00  0.00    -0.193 C  
HETATM   10  O   UNL     1      -9.236  15.305  65.856  1.00  0.00    -0.391 OA 
HETATM   11  H   UNL     1      -8.617  16.008  65.694  1.00  0.00     0.000 HD 
BRANCH   9  12
HETATM   12  C   UNL     1      -8.468  15.316  68.113  1.00  0.00    -0.151 C  
BRANCH  12  13
HETATM   13  N   UNL     1      -8.772  16.719  67.939  1.00  0.00    -0.200 N  
HETATM   14  H   UNL     1      -8.098  17.341  67.493  1.00  0.00     0.000 HD 
HETATM   15  C   UNL     1      -9.984  17.209  68.382  1.00  0.00    -0.310 C  
HETATM   16  O   UNL     1     -10.797  16.529  69.005  1.00  0.00    -0.302 OA 
BRANCH  15  17
HETATM   17  C   UNL     1     -10.258  18.668  68.015  1.00  0.00    -0.385 C  
HETATM   18  N   UNL     1     -10.290  19.522  69.216  1.00  0.00    -0.558 NA 
HETATM   19  H1  UNL     1     -10.473  20.496  68.971  1.00  0.00     0.000 HD 
HETATM   20  H2  UNL     1      -9.436  19.427  69.766  1.00  0.00     0.000 HD 
ENDBRANCH  15  17
ENDBRANCH  12  13
ENDBRANCH   9  12
ENDBRANCH   5   9
BRANCH   6  21
HETATM   21  O   UNL     1     -10.173  13.156  64.827  1.00  0.00    -0.334 OA 
HETATM   22  C   UNL     1     -11.225  13.126  63.868  1.00  0.00    -0.336 C  
ENDBRANCH   6  21
ENDBRANCH   2   3
TORSDOF 6
ENDMDL
MODEL      177
REMARK 921   NORMALIZED FREE ENERGY PREDICTED BY IDOCK:   -3.82 KCAL/MOL
REMARK 922        TOTAL FREE ENERGY PREDICTED BY IDOCK:   -5.65 KCAL/MOL
REMARK 923 INTER-LIGAND FREE ENERGY PREDICTED BY IDOCK:   -4.91 KCAL/MOL
REMARK 924 INTRA-LIGAND FREE ENERGY PREDICTED BY IDOCK:   -0.75 KCAL/MOL
REMARK 927      BINDING AFFINITY PREDICTED BY RF-SCORE:    0.00 PKD
ROOT
HETATM    1  C   UNL     1     -12.361  14.071  70.626  1.00  0.00    -0.375 C  
HETATM    2  O   UNL     1     -12.202  14.615  69.318  1.00  0.00    -0.288 OA 
ENDROOT
BRANCH   2   3
HETATM    3  C   UNL     1     -11.871  13.740  68.321  1.00  0.00    -0.378 A  
HETATM    4  C   UNL     1     -11.304  12.480  68.499  1.00  0.00    -0.337 A  
HETATM    5  C   UNL     1     -10.980  11.644  67.407  1.00  0.00    -0.313 A  
HETATM    6  C   UNL     1     -11.262  12.113  66.105  1.00  0.00    -0.338 A  
HETATM    7  C   UNL     1     -11.834  13.379  65.929  1.00  0.00    -0.414 A  
HETATM    8  C   UNL     1     -12.134  14.186  67.030  1.00  0.00    -0.449 A  
BRANCH   5   9
HETATM    9  C   UNL     1     -10.340  10.270  67.629  1.00  0.00    -0.220 C  
HETATM   10  O   UNL     1     -11.108   9.240  66.984  1.00  0.00    -0.208 OA 
HETATM   11  H   UNL     1     -10.711   8.388  67.122  1.00  0.00     0.000 HD 
BRANCH   9  12
HETATM   12  C   UNL     1      -8.904  10.144  67.081  1.00  0.00    -0.132 C  
BRANCH  12  13
HETATM   13  N   UNL     1      -8.732   9.173  66.023  1.00  0.00    -0.144 N  
HETATM   14  H   UNL     1      -9.290   8.319  66.013  1.00  0.00     0.000 HD 
HETATM   15  C   UNL     1      -7.807   9.412  65.028  1.00  0.00    -0.115 C  
HETATM   16  O   UNL     1      -7.045  10.377  65.036  1.00  0.00    -0.128 OA 
BRANCH  15  17
HETATM   17  C   UNL     1      -7.815   8.393  63.887  1.00  0.00    -0.151 C  
HETATM   18  N   UNL     1      -8.617   7.207  64.238  1.00  0.00    -0.297 NA 
HETATM   19  H1  UNL     1      -8.621   6.527  63.477  1.00  0.00     0.000 HD 
HETATM   20  H2  UNL     1      -9.563   7.463  64.519  1.00  0.00     0.000 HD 
ENDBRANCH  15  17
ENDBRANCH  12  13
ENDBRANCH   9  12
ENDBRANCH   5   9
BRANCH   6  21
HETATM   21  O   UNL     1     -10.936  11.268  65.076  1.00  0.00    -0.248 OA 
HETATM   22  C   UNL     1     -10.283  11.833  63.943  1.00  0.00    -0.373 C  
ENDBRANCH   6  21
ENDBRANCH   2   3
TORSDOF 6
ENDMDL
MODEL      178
REMARK 921   NORMALIZED FREE ENERGY PREDICTED BY IDOCK:   -3.82 KCAL/MOL
REMARK 922        TOTAL FREE ENERGY PREDICTED BY IDOCK:   -5.65 KCAL/MOL
REMARK 923 INTER-LIGAND FREE ENERGY PREDICTED BY IDOCK:   -5.29 KCAL/MOL
REMARK 924 INTRA-LIGAND FREE ENERGY PREDICTED BY IDOCK:   -0.37 KCAL/MOL
REMARK 927      BINDING AFFINITY PREDICTED BY RF-SCORE:    0.00 PKD
ROOT
HETATM    1  C   UNL     1     -10.641   8.670  68.467  1.00  0.00    -0.119 C  
HETATM    2  O   UNL     1     -10.811   9.025  69.837  1.00  0.00    -0.228 OA 
ENDROOT
BRANCH   2   3
HETATM    3  C   UNL     1     -11.367  10.248  70.095  1.00  0.00    -0.316 A  
HETATM    4  C   UNL     1     -11.077  11.431  69.420  1.00  0.00    -0.301 A  
HETATM    5  C   UNL     1     -11.691  12.658  69.762  1.00  0.00    -0.354 A  
HETATM    6  C   UNL     1     -12.634  12.658  70.813  1.00  0.00    -0.217 A  
HETATM    7  C   UNL     1     -12.926  11.466  71.488  1.00  0.00    -0.505 A  
HETATM    8  C   UNL     1     -12.294  10.271  71.131  1.00  0.00    -0.501 A  
BRANCH   5   9
HETATM    9  C   UNL     1     -11.341  13.949  69.016  1.00  0.00    -0.283 C  
HETATM   10  O   UNL     1     -12.527  14.705  68.721  1.00  0.00    -0.579 OA 
HETATM   11  H   UNL     1     -12.311  15.506  68.259  1.00  0.00     0.000 HD 
BRANCH   9  12
HETATM   12  C   UNL     1     -10.408  14.899  69.796  1.00  0.00    -0.091 C  
BRANCH  12  13
HETATM   13  N   UNL     1      -9.511  15.686  68.980  1.00  0.00    -0.225 N  
HETATM   14  H   UNL     1      -9.768  16.631  68.695  1.00  0.00     0.000 HD 
HETATM   15  C   UNL     1      -8.302  15.147  68.590  1.00  0.00    -0.160 C  
HETATM   16  O   UNL     1      -7.976  13.986  68.826  1.00  0.00    -0.136 OA 
BRANCH  15  17
HETATM   17  C   UNL     1      -7.374  16.118  67.857  1.00  0.00    -0.129 C  
HETATM   18  N   UNL     1      -6.101  15.467  67.497  1.00  0.00    -0.272 NA 
HETATM   19  H1  UNL     1      -5.482  16.115  67.008  1.00  0.00     0.000 HD 
HETATM   20  H2  UNL     1      -6.255  14.615  66.958  1.00  0.00     0.000 HD 
ENDBRANCH  15  17
ENDBRANCH  12  13
ENDBRANCH   9  12
ENDBRANCH   5   9
BRANCH   6  21
HETATM   21  O   UNL     1     -13.209  13.867  71.108  1.00  0.00    -0.307 OA 
HETATM   22  C   UNL     1     -14.004  13.946  72.287  1.00  0.00    -0.565 C  
ENDBRANCH   6  21
ENDBRANCH   2   3
TORSDOF 6
ENDMDL
MODEL      179
REMARK 921   NORMALIZED FREE ENERGY PREDICTED BY IDOCK:   -3.81 KCAL/MOL
REMARK 922        TOTAL FREE ENERGY PREDICTED BY IDOCK:   -5.64 KCAL/MOL
REMARK 923 INTER-LIGAND FREE ENERGY PREDICTED BY IDOCK:   -5.09 KCAL/MOL
REMARK 924 INTRA-LIGAND FREE ENERGY PREDICTED BY IDOCK:   -0.55 KCAL/MOL
REMARK 927      BINDING AFFINITY PREDICTED BY RF-SCORE:    0.00 PKD
ROOT
HETATM    1  C   UNL     1      -5.371  12.081  67.302  1.00  0.00    -0.119 C  
HETATM    2  O   UNL     1      -6.547  11.503  67.863  1.00  0.00    -0.060 OA 
ENDROOT
BRANCH   2   3
HETATM    3  C   UNL     1      -7.673  12.278  67.871  1.00  0.00    -0.133 A  
HETATM    4  C   UNL     1      -7.744  13.614  67.483  1.00  0.00    -0.183 A  
HETATM    5  C   UNL     1      -8.953  14.346  67.536  1.00  0.00    -0.192 A  
HETATM    6  C   UNL     1     -10.114  13.679  67.984  1.00  0.00    -0.250 A  
HETATM    7  C   UNL     1     -10.040  12.335  68.371  1.00  0.00    -0.215 A  
HETATM    8  C   UNL     1      -8.828  11.641  68.316  1.00  0.00    -0.167 A  
BRANCH   5   9
HETATM    9  C   UNL     1      -9.000  15.820  67.122  1.00  0.00    -0.214 C  
HETATM   10  O   UNL     1      -7.682  16.394  67.129  1.00  0.00    -0.151 OA 
HETATM   11  H   UNL     1      -7.711  17.307  66.871  1.00  0.00     0.000 HD 
BRANCH   9  12
HETATM   12  C   UNL     1      -9.568  16.062  65.708  1.00  0.00    -0.276 C  
BRANCH  12  13
HETATM   13  N   UNL     1     -10.494  15.056  65.237  1.00  0.00    -0.376 N  
HETATM   14  H   UNL     1     -10.380  14.081  65.513  1.00  0.00     0.000 HD 
HETATM   15  C   UNL     1     -11.535  15.427  64.411  1.00  0.00    -0.255 C  
HETATM   16  O   UNL     1     -11.672  16.568  63.974  1.00  0.00    -1.111 OA 
BRANCH  15  17
HETATM   17  C   UNL     1     -12.533  14.312  64.096  1.00  0.00    -0.218 C  
HETATM   18  N   UNL     1     -12.598  13.330  65.193  1.00  0.00    -0.595 NA 
HETATM   19  H1  UNL     1     -13.264  12.586  64.982  1.00  0.00     0.000 HD 
HETATM   20  H2  UNL     1     -12.806  13.779  66.085  1.00  0.00     0.000 HD 
ENDBRANCH  15  17
ENDBRANCH  12  13
ENDBRANCH   9  12
ENDBRANCH   5   9
BRANCH   6  21
HETATM   21  O   UNL     1     -11.263  14.424  68.015  1.00  0.00    -0.259 OA 
HETATM   22  C   UNL     1     -11.809  14.739  69.292  1.00  0.00    -0.318 C  
ENDBRANCH   6  21
ENDBRANCH   2   3
TORSDOF 6
ENDMDL
MODEL      180
REMARK 921   NORMALIZED FREE ENERGY PREDICTED BY IDOCK:   -3.78 KCAL/MOL
REMARK 922        TOTAL FREE ENERGY PREDICTED BY IDOCK:   -5.61 KCAL/MOL
REMARK 923 INTER-LIGAND FREE ENERGY PREDICTED BY IDOCK:   -4.87 KCAL/MOL
REMARK 924 INTRA-LIGAND FREE ENERGY PREDICTED BY IDOCK:   -0.73 KCAL/MOL
REMARK 927      BINDING AFFINITY PREDICTED BY RF-SCORE:    0.00 PKD
ROOT
HETATM    1  C   UNL     1     -12.018  14.853  65.018  1.00  0.00    -0.258 C  
HETATM    2  O   UNL     1     -12.336  13.539  64.569  1.00  0.00    -0.489 OA 
ENDROOT
BRANCH   2   3
HETATM    3  C   UNL     1     -11.326  12.618  64.587  1.00  0.00    -0.318 A  
HETATM    4  C   UNL     1     -10.336  12.516  65.562  1.00  0.00    -0.303 A  
HETATM    5  C   UNL     1      -9.318  11.538  65.495  1.00  0.00    -0.203 A  
HETATM    6  C   UNL     1      -9.333  10.636  64.408  1.00  0.00    -0.251 A  
HETATM    7  C   UNL     1     -10.332  10.739  63.431  1.00  0.00    -0.196 A  
HETATM    8  C   UNL     1     -11.320  11.724  63.521  1.00  0.00    -0.496 A  
BRANCH   5   9
HETATM    9  C   UNL     1      -8.229  11.459  66.570  1.00  0.00    -0.152 C  
HETATM   10  O   UNL     1      -7.898  12.769  67.057  1.00  0.00    -0.343 OA 
HETATM   11  H   UNL     1      -7.224  12.721  67.724  1.00  0.00     0.000 HD 
BRANCH   9  12
HETATM   12  C   UNL     1      -8.620  10.625  67.807  1.00  0.00    -0.123 C  
BRANCH  12  13
HETATM   13  N   UNL     1      -8.792   9.209  67.565  1.00  0.00    -0.119 N  
HETATM   14  H   UNL     1      -7.984   8.616  67.378  1.00  0.00     0.000 HD 
HETATM   15  C   UNL     1     -10.061   8.668  67.588  1.00  0.00    -0.213 C  
HETATM   16  O   UNL     1     -11.079   9.345  67.718  1.00  0.00    -0.148 OA 
BRANCH  15  17
HETATM   17  C   UNL     1     -10.111   7.144  67.466  1.00  0.00    -0.188 C  
HETATM   18  N   UNL     1     -11.303   6.709  66.717  1.00  0.00    -0.795 NA 
HETATM   19  H1  UNL     1     -11.336   5.692  66.635  1.00  0.00     0.000 HD 
HETATM   20  H2  UNL     1     -11.357   7.160  65.804  1.00  0.00     0.000 HD 
ENDBRANCH  15  17
ENDBRANCH  12  13
ENDBRANCH   9  12
ENDBRANCH   5   9
BRANCH   6  21
HETATM   21  O   UNL     1      -8.332   9.701  64.386  1.00  0.00    -0.145 OA 
HETATM   22  C   UNL     1      -7.867   9.266  63.111  1.00  0.00    -0.135 C  
ENDBRANCH   6  21
ENDBRANCH   2   3
TORSDOF 6
ENDMDL
MODEL      181
REMARK 921   NORMALIZED FREE ENERGY PREDICTED BY IDOCK:   -3.77 KCAL/MOL
REMARK 922        TOTAL FREE ENERGY PREDICTED BY IDOCK:   -5.59 KCAL/MOL
REMARK 923 INTER-LIGAND FREE ENERGY PREDICTED BY IDOCK:   -5.14 KCAL/MOL
REMARK 924 INTRA-LIGAND FREE ENERGY PREDICTED BY IDOCK:   -0.45 KCAL/MOL
REMARK 927      BINDING AFFINITY PREDICTED BY RF-SCORE:    0.00 PKD
ROOT
HETATM    1  C   UNL     1      -8.918  11.972  68.316  1.00  0.00    -0.186 C  
HETATM    2  O   UNL     1     -10.330  11.792  68.251  1.00  0.00    -0.192 OA 
ENDROOT
BRANCH   2   3
HETATM    3  C   UNL     1     -10.916  11.116  69.286  1.00  0.00    -0.247 A  
HETATM    4  C   UNL     1     -10.437   9.943  69.865  1.00  0.00    -0.309 A  
HETATM    5  C   UNL     1     -11.116   9.301  70.927  1.00  0.00    -0.374 A  
HETATM    6  C   UNL     1     -12.303   9.894  71.410  1.00  0.00    -0.404 A  
HETATM    7  C   UNL     1     -12.780  11.075  70.827  1.00  0.00    -0.414 A  
HETATM    8  C   UNL     1     -12.091  11.680  69.772  1.00  0.00    -0.357 A  
BRANCH   5   9
HETATM    9  C   UNL     1     -10.579   8.002  71.534  1.00  0.00    -0.226 C  
HETATM   10  O   UNL     1     -10.587   8.068  72.969  1.00  0.00    -0.353 OA 
HETATM   11  H   UNL     1     -10.255   7.262  73.346  1.00  0.00     0.000 HD 
BRANCH   9  12
HETATM   12  C   UNL     1     -11.388   6.744  71.156  1.00  0.00    -0.296 C  
BRANCH  12  13
HETATM   13  N   UNL     1     -10.682   5.491  71.308  1.00  0.00    -0.242 N  
HETATM   14  H   UNL     1     -10.576   5.068  72.230  1.00  0.00     0.000 HD 
HETATM   15  C   UNL     1     -10.154   4.871  70.195  1.00  0.00    -0.261 C  
HETATM   16  O   UNL     1     -10.172   5.375  69.073  1.00  0.00    -0.199 OA 
BRANCH  15  17
HETATM   17  C   UNL     1      -9.561   3.485  70.453  1.00  0.00    -0.171 C  
HETATM   18  N   UNL     1      -8.866   3.437  71.751  1.00  0.00    -0.088 NA 
HETATM   19  H1  UNL     1      -8.470   2.512  71.923  1.00  0.00     0.000 HD 
HETATM   20  H2  UNL     1      -9.475   3.732  72.514  1.00  0.00     0.000 HD 
ENDBRANCH  15  17
ENDBRANCH  12  13
ENDBRANCH   9  12
ENDBRANCH   5   9
BRANCH   6  21
HETATM   21  O   UNL     1     -12.925   9.242  72.442  1.00  0.00    -0.403 OA 
HETATM   22  C   UNL     1     -14.243   8.752  72.212  1.00  0.00    -0.420 C  
ENDBRANCH   6  21
ENDBRANCH   2   3
TORSDOF 6
ENDMDL
MODEL      182
REMARK 921   NORMALIZED FREE ENERGY PREDICTED BY IDOCK:   -3.77 KCAL/MOL
REMARK 922        TOTAL FREE ENERGY PREDICTED BY IDOCK:   -5.59 KCAL/MOL
REMARK 923 INTER-LIGAND FREE ENERGY PREDICTED BY IDOCK:   -5.19 KCAL/MOL
REMARK 924 INTRA-LIGAND FREE ENERGY PREDICTED BY IDOCK:   -0.40 KCAL/MOL
REMARK 927      BINDING AFFINITY PREDICTED BY RF-SCORE:    0.00 PKD
ROOT
HETATM    1  C   UNL     1      -5.801  16.222  69.077  1.00  0.00    -0.130 C  
HETATM    2  O   UNL     1      -6.332  15.357  68.077  1.00  0.00    -0.114 OA 
ENDROOT
BRANCH   2   3
HETATM    3  C   UNL     1      -7.585  14.856  68.295  1.00  0.00    -0.113 A  
HETATM    4  C   UNL     1      -8.087  13.666  67.773  1.00  0.00    -0.173 A  
HETATM    5  C   UNL     1      -9.405  13.228  68.040  1.00  0.00    -0.218 A  
HETATM    6  C   UNL     1     -10.214  14.029  68.876  1.00  0.00    -0.152 A  
HETATM    7  C   UNL     1      -9.705  15.223  69.402  1.00  0.00    -0.248 A  
HETATM    8  C   UNL     1      -8.401  15.633  69.111  1.00  0.00    -0.251 A  
BRANCH   5   9
HETATM    9  C   UNL     1      -9.939  11.925  67.439  1.00  0.00    -0.190 C  
HETATM   10  O   UNL     1     -10.375  11.027  68.473  1.00  0.00    -0.174 OA 
HETATM   11  H   UNL     1     -10.707  10.219  68.100  1.00  0.00     0.000 HD 
BRANCH   9  12
HETATM   12  C   UNL     1     -11.144  12.111  66.493  1.00  0.00    -0.307 C  
BRANCH  12  13
HETATM   13  N   UNL     1     -11.202  13.387  65.814  1.00  0.00    -0.289 N  
HETATM   14  H   UNL     1     -10.505  14.106  66.009  1.00  0.00     0.000 HD 
HETATM   15  C   UNL     1     -12.208  13.622  64.901  1.00  0.00    -0.414 C  
HETATM   16  O   UNL     1     -13.125  12.831  64.691  1.00  0.00    -0.760 OA 
BRANCH  15  17
HETATM   17  C   UNL     1     -12.086  14.943  64.139  1.00  0.00    -0.267 C  
HETATM   18  N   UNL     1     -10.843  15.650  64.495  1.00  0.00    -0.768 NA 
HETATM   19  H1  UNL     1     -10.762  16.532  63.987  1.00  0.00     0.000 HD 
HETATM   20  H2  UNL     1     -10.023  15.060  64.357  1.00  0.00     0.000 HD 
ENDBRANCH  15  17
ENDBRANCH  12  13
ENDBRANCH   9  12
ENDBRANCH   5   9
BRANCH   6  21
HETATM   21  O   UNL     1     -11.481  13.565  69.113  1.00  0.00    -0.261 OA 
HETATM   22  C   UNL     1     -12.273  14.271  70.063  1.00  0.00    -0.359 C  
ENDBRANCH   6  21
ENDBRANCH   2   3
TORSDOF 6
ENDMDL
MODEL      183
REMARK 921   NORMALIZED FREE ENERGY PREDICTED BY IDOCK:   -3.77 KCAL/MOL
REMARK 922        TOTAL FREE ENERGY PREDICTED BY IDOCK:   -5.59 KCAL/MOL
REMARK 923 INTER-LIGAND FREE ENERGY PREDICTED BY IDOCK:   -5.11 KCAL/MOL
REMARK 924 INTRA-LIGAND FREE ENERGY PREDICTED BY IDOCK:   -0.47 KCAL/MOL
REMARK 927      BINDING AFFINITY PREDICTED BY RF-SCORE:    0.00 PKD
ROOT
HETATM    1  C   UNL     1      -7.110   7.067  70.226  1.00  0.00    -0.067 C  
HETATM    2  O   UNL     1      -7.315   8.278  70.948  1.00  0.00    -0.052 OA 
ENDROOT
BRANCH   2   3
HETATM    3  C   UNL     1      -8.455   8.980  70.668  1.00  0.00    -0.196 A  
HETATM    4  C   UNL     1      -8.604   9.915  69.647  1.00  0.00    -0.207 A  
HETATM    5  C   UNL     1      -9.818  10.607  69.436  1.00  0.00    -0.164 A  
HETATM    6  C   UNL     1     -10.906  10.313  70.288  1.00  0.00    -0.286 A  
HETATM    7  C   UNL     1     -10.754   9.370  71.312  1.00  0.00    -0.421 A  
HETATM    8  C   UNL     1      -9.536   8.710  71.501  1.00  0.00    -0.327 A  
BRANCH   5   9
HETATM    9  C   UNL     1      -9.950  11.645  68.317  1.00  0.00    -0.201 C  
HETATM   10  O   UNL     1      -9.695  12.968  68.817  1.00  0.00    -0.404 OA 
HETATM   11  H   UNL     1      -9.776  13.611  68.123  1.00  0.00     0.000 HD 
BRANCH   9  12
HETATM   12  C   UNL     1      -8.977  11.433  67.139  1.00  0.00    -0.162 C  
BRANCH  12  13
HETATM   13  N   UNL     1      -9.408  11.995  65.878  1.00  0.00    -0.361 N  
HETATM   14  H   UNL     1      -9.397  13.004  65.733  1.00  0.00     0.000 HD 
HETATM   15  C   UNL     1      -9.833  11.153  64.872  1.00  0.00    -0.266 C  
HETATM   16  O   UNL     1      -9.953   9.938  65.017  1.00  0.00    -0.316 OA 
BRANCH  15  17
HETATM   17  C   UNL     1     -10.124  11.843  63.538  1.00  0.00    -0.441 C  
HETATM   18  N   UNL     1     -11.481  11.525  63.058  1.00  0.00    -0.844 NA 
HETATM   19  H1  UNL     1     -11.674  11.985  62.168  1.00  0.00     0.000 HD 
HETATM   20  H2  UNL     1     -12.188  11.748  63.759  1.00  0.00     0.000 HD 
ENDBRANCH  15  17
ENDBRANCH  12  13
ENDBRANCH   9  12
ENDBRANCH   5   9
BRANCH   6  21
HETATM   21  O   UNL     1     -12.065  11.002  70.045  1.00  0.00    -0.309 OA 
HETATM   22  C   UNL     1     -13.257  10.521  70.659  1.00  0.00    -0.088 C  
ENDBRANCH   6  21
ENDBRANCH   2   3
TORSDOF 6
ENDMDL
MODEL      184
REMARK 921   NORMALIZED FREE ENERGY PREDICTED BY IDOCK:   -3.77 KCAL/MOL
REMARK 922        TOTAL FREE ENERGY PREDICTED BY IDOCK:   -5.58 KCAL/MOL
REMARK 923 INTER-LIGAND FREE ENERGY PREDICTED BY IDOCK:   -4.99 KCAL/MOL
REMARK 924 INTRA-LIGAND FREE ENERGY PREDICTED BY IDOCK:   -0.60 KCAL/MOL
REMARK 927      BINDING AFFINITY PREDICTED BY RF-SCORE:    0.00 PKD
ROOT
HETATM    1  C   UNL     1      -5.798  11.896  69.111  1.00  0.00    -0.067 C  
HETATM    2  O   UNL     1      -6.169  10.885  70.044  1.00  0.00    -0.101 OA 
ENDROOT
BRANCH   2   3
HETATM    3  C   UNL     1      -7.356  10.244  69.823  1.00  0.00    -0.165 A  
HETATM    4  C   UNL     1      -8.272  10.552  68.819  1.00  0.00    -0.134 A  
HETATM    5  C   UNL     1      -9.486   9.843  68.671  1.00  0.00    -0.153 A  
HETATM    6  C   UNL     1      -9.751   8.785  69.567  1.00  0.00    -0.172 A  
HETATM    7  C   UNL     1      -8.827   8.476  70.574  1.00  0.00    -0.168 A  
HETATM    8  C   UNL     1      -7.640   9.202  70.700  1.00  0.00    -0.143 A  
BRANCH   5   9
HETATM    9  C   UNL     1     -10.485  10.214  67.571  1.00  0.00    -0.253 C  
HETATM   10  O   UNL     1     -11.805  10.379  68.115  1.00  0.00    -0.761 OA 
HETATM   11  H   UNL     1     -12.425  10.609  67.433  1.00  0.00     0.000 HD 
BRANCH   9  12
HETATM   12  C   UNL     1     -10.156  11.528  66.833  1.00  0.00    -0.212 C  
BRANCH  12  13
HETATM   13  N   UNL     1     -11.173  11.988  65.914  1.00  0.00    -0.329 N  
HETATM   14  H   UNL     1     -11.991  12.491  66.259  1.00  0.00     0.000 HD 
HETATM   15  C   UNL     1     -11.028  11.742  64.564  1.00  0.00    -0.324 C  
HETATM   16  O   UNL     1     -10.112  11.065  64.099  1.00  0.00    -0.287 OA 
BRANCH  15  17
HETATM   17  C   UNL     1     -12.084  12.399  63.675  1.00  0.00    -0.556 C  
HETATM   18  N   UNL     1     -12.728  11.409  62.792  1.00  0.00    -0.722 NA 
HETATM   19  H1  UNL     1     -13.432  11.848  62.198  1.00  0.00     0.000 HD 
HETATM   20  H2  UNL     1     -13.116  10.630  63.323  1.00  0.00     0.000 HD 
ENDBRANCH  15  17
ENDBRANCH  12  13
ENDBRANCH   9  12
ENDBRANCH   5   9
BRANCH   6  21
HETATM   21  O   UNL     1     -10.936   8.122  69.384  1.00  0.00    -0.146 OA 
HETATM   22  C   UNL     1     -10.977   6.740  69.728  1.00  0.00    -0.297 C  
ENDBRANCH   6  21
ENDBRANCH   2   3
TORSDOF 6
ENDMDL
MODEL      185
REMARK 921   NORMALIZED FREE ENERGY PREDICTED BY IDOCK:   -3.77 KCAL/MOL
REMARK 922        TOTAL FREE ENERGY PREDICTED BY IDOCK:   -5.58 KCAL/MOL
REMARK 923 INTER-LIGAND FREE ENERGY PREDICTED BY IDOCK:   -5.09 KCAL/MOL
REMARK 924 INTRA-LIGAND FREE ENERGY PREDICTED BY IDOCK:   -0.49 KCAL/MOL
REMARK 927      BINDING AFFINITY PREDICTED BY RF-SCORE:    0.00 PKD
ROOT
HETATM    1  C   UNL     1      -9.183   8.656  71.458  1.00  0.00    -0.246 C  
HETATM    2  O   UNL     1      -8.630   9.671  70.625  1.00  0.00    -0.196 OA 
ENDROOT
BRANCH   2   3
HETATM    3  C   UNL     1      -8.606   9.423  69.281  1.00  0.00    -0.143 A  
HETATM    4  C   UNL     1      -8.704  10.381  68.274  1.00  0.00    -0.128 A  
HETATM    5  C   UNL     1      -8.684  10.033  66.904  1.00  0.00    -0.135 A  
HETATM    6  C   UNL     1      -8.543   8.669  66.568  1.00  0.00    -0.116 A  
HETATM    7  C   UNL     1      -8.443   7.708  67.582  1.00  0.00    -0.117 A  
HETATM    8  C   UNL     1      -8.475   8.083  68.928  1.00  0.00    -0.131 A  
BRANCH   5   9
HETATM    9  C   UNL     1      -8.812  11.105  65.817  1.00  0.00    -0.174 C  
HETATM   10  O   UNL     1      -7.803  10.931  64.809  1.00  0.00    -0.351 OA 
HETATM   11  H   UNL     1      -7.882  11.595  64.135  1.00  0.00     0.000 HD 
BRANCH   9  12
HETATM   12  C   UNL     1     -10.166  11.099  65.078  1.00  0.00    -0.296 C  
BRANCH  12  13
HETATM   13  N   UNL     1     -10.767  12.400  64.887  1.00  0.00    -0.283 N  
HETATM   14  H   UNL     1     -10.448  13.009  64.134  1.00  0.00     0.000 HD 
HETATM   15  C   UNL     1     -11.777  12.810  65.732  1.00  0.00    -0.402 C  
HETATM   16  O   UNL     1     -12.142  12.159  66.709  1.00  0.00    -0.609 OA 
BRANCH  15  17
HETATM   17  C   UNL     1     -12.437  14.135  65.347  1.00  0.00    -0.472 C  
HETATM   18  N   UNL     1     -12.390  14.350  63.890  1.00  0.00    -1.023 NA 
HETATM   19  H1  UNL     1     -12.830  15.235  63.633  1.00  0.00     0.000 HD 
HETATM   20  H2  UNL     1     -12.798  13.566  63.382  1.00  0.00     0.000 HD 
ENDBRANCH  15  17
ENDBRANCH  12  13
ENDBRANCH   9  12
ENDBRANCH   5   9
BRANCH   6  21
HETATM   21  O   UNL     1      -8.523   8.377  65.229  1.00  0.00    -0.165 OA 
HETATM   22  C   UNL     1      -7.605   7.381  64.787  1.00  0.00    -0.103 C  
ENDBRANCH   6  21
ENDBRANCH   2   3
TORSDOF 6
ENDMDL
MODEL      186
REMARK 921   NORMALIZED FREE ENERGY PREDICTED BY IDOCK:   -3.76 KCAL/MOL
REMARK 922        TOTAL FREE ENERGY PREDICTED BY IDOCK:   -5.58 KCAL/MOL
REMARK 923 INTER-LIGAND FREE ENERGY PREDICTED BY IDOCK:   -5.09 KCAL/MOL
REMARK 924 INTRA-LIGAND FREE ENERGY PREDICTED BY IDOCK:   -0.49 KCAL/MOL
REMARK 927      BINDING AFFINITY PREDICTED BY RF-SCORE:    0.00 PKD
ROOT
HETATM    1  C   UNL     1      -7.165   9.150  69.952  1.00  0.00    -0.062 C  
HETATM    2  O   UNL     1      -7.524   9.534  71.277  1.00  0.00    -0.332 OA 
ENDROOT
BRANCH   2   3
HETATM    3  C   UNL     1      -8.405   8.724  71.939  1.00  0.00    -0.062 A  
HETATM    4  C   UNL     1      -9.779   8.664  71.718  1.00  0.00    -0.361 A  
HETATM    5  C   UNL     1     -10.619   7.803  72.460  1.00  0.00    -0.352 A  
HETATM    6  C   UNL     1     -10.025   6.977  73.439  1.00  0.00    -0.259 A  
HETATM    7  C   UNL     1      -8.643   7.037  73.657  1.00  0.00    -0.164 A  
HETATM    8  C   UNL     1      -7.840   7.906  72.912  1.00  0.00    -0.169 A  
BRANCH   5   9
HETATM    9  C   UNL     1     -12.130   7.770  72.211  1.00  0.00    -0.287 C  
HETATM   10  O   UNL     1     -12.604   9.056  71.780  1.00  0.00    -0.322 OA 
HETATM   11  H   UNL     1     -13.541   9.035  71.625  1.00  0.00     0.000 HD 
BRANCH   9  12
HETATM   12  C   UNL     1     -12.571   6.763  71.128  1.00  0.00    -0.250 C  
BRANCH  12  13
HETATM   13  N   UNL     1     -12.097   7.050  69.792  1.00  0.00    -0.419 N  
HETATM   14  H   UNL     1     -12.478   7.838  69.268  1.00  0.00     0.000 HD 
HETATM   15  C   UNL     1     -11.123   6.249  69.233  1.00  0.00    -0.393 C  
HETATM   16  O   UNL     1     -10.692   5.235  69.778  1.00  0.00    -0.286 OA 
BRANCH  15  17
HETATM   17  C   UNL     1     -10.594   6.731  67.881  1.00  0.00    -0.242 C  
HETATM   18  N   UNL     1     -11.518   6.373  66.789  1.00  0.00    -0.746 NA 
HETATM   19  H1  UNL     1     -11.165   6.694  65.887  1.00  0.00     0.000 HD 
HETATM   20  H2  UNL     1     -12.461   6.718  66.968  1.00  0.00     0.000 HD 
ENDBRANCH  15  17
ENDBRANCH  12  13
ENDBRANCH   9  12
ENDBRANCH   5   9
BRANCH   6  21
HETATM   21  O   UNL     1     -10.876   6.154  74.131  1.00  0.00    -0.076 OA 
HETATM   22  C   UNL     1     -10.854   4.766  73.811  1.00  0.00    -0.310 C  
ENDBRANCH   6  21
ENDBRANCH   2   3
TORSDOF 6
ENDMDL
MODEL      187
REMARK 921   NORMALIZED FREE ENERGY PREDICTED BY IDOCK:   -3.76 KCAL/MOL
REMARK 922        TOTAL FREE ENERGY PREDICTED BY IDOCK:   -5.58 KCAL/MOL
REMARK 923 INTER-LIGAND FREE ENERGY PREDICTED BY IDOCK:   -4.92 KCAL/MOL
REMARK 924 INTRA-LIGAND FREE ENERGY PREDICTED BY IDOCK:   -0.66 KCAL/MOL
REMARK 927      BINDING AFFINITY PREDICTED BY RF-SCORE:    0.00 PKD
ROOT
HETATM    1  C   UNL     1     -12.146   7.702  72.366  1.00  0.00    -0.214 C  
HETATM    2  O   UNL     1     -10.809   8.088  72.057  1.00  0.00    -0.239 OA 
ENDROOT
BRANCH   2   3
HETATM    3  C   UNL     1     -10.548   8.423  70.757  1.00  0.00    -0.207 A  
HETATM    4  C   UNL     1     -10.218   9.695  70.296  1.00  0.00    -0.333 A  
HETATM    5  C   UNL     1      -9.975   9.956  68.928  1.00  0.00    -0.188 A  
HETATM    6  C   UNL     1     -10.059   8.877  68.021  1.00  0.00    -0.195 A  
HETATM    7  C   UNL     1     -10.388   7.598  68.488  1.00  0.00    -0.225 A  
HETATM    8  C   UNL     1     -10.632   7.375  69.846  1.00  0.00    -0.245 A  
BRANCH   5   9
HETATM    9  C   UNL     1      -9.632  11.368  68.444  1.00  0.00    -0.197 C  
HETATM   10  O   UNL     1      -8.431  11.360  67.655  1.00  0.00    -0.124 OA 
HETATM   11  H   UNL     1      -8.218  12.235  67.355  1.00  0.00     0.000 HD 
BRANCH   9  12
HETATM   12  C   UNL     1     -10.721  12.018  67.564  1.00  0.00    -0.226 C  
BRANCH  12  13
HETATM   13  N   UNL     1     -10.530  11.866  66.139  1.00  0.00    -0.230 N  
HETATM   14  H   UNL     1      -9.630  11.561  65.769  1.00  0.00     0.000 HD 
HETATM   15  C   UNL     1     -11.578  12.138  65.283  1.00  0.00    -0.322 C  
HETATM   16  O   UNL     1     -12.655  12.594  65.662  1.00  0.00    -0.611 OA 
BRANCH  15  17
HETATM   17  C   UNL     1     -11.310  11.803  63.815  1.00  0.00    -0.438 C  
HETATM   18  N   UNL     1     -10.136  12.537  63.307  1.00  0.00    -0.558 NA 
HETATM   19  H1  UNL     1      -9.958  12.313  62.327  1.00  0.00     0.000 HD 
HETATM   20  H2  UNL     1      -9.313  12.372  63.886  1.00  0.00     0.000 HD 
ENDBRANCH  15  17
ENDBRANCH  12  13
ENDBRANCH   9  12
ENDBRANCH   5   9
BRANCH   6  21
HETATM   21  O   UNL     1      -9.811   9.173  66.706  1.00  0.00    -0.187 OA 
HETATM   22  C   UNL     1      -8.949   8.298  65.986  1.00  0.00    -0.181 C  
ENDBRANCH   6  21
ENDBRANCH   2   3
TORSDOF 6
ENDMDL
MODEL      188
REMARK 921   NORMALIZED FREE ENERGY PREDICTED BY IDOCK:   -3.76 KCAL/MOL
REMARK 922        TOTAL FREE ENERGY PREDICTED BY IDOCK:   -5.57 KCAL/MOL
REMARK 923 INTER-LIGAND FREE ENERGY PREDICTED BY IDOCK:   -4.88 KCAL/MOL
REMARK 924 INTRA-LIGAND FREE ENERGY PREDICTED BY IDOCK:   -0.69 KCAL/MOL
REMARK 927      BINDING AFFINITY PREDICTED BY RF-SCORE:    0.00 PKD
ROOT
HETATM    1  C   UNL     1     -10.302   8.331  72.075  1.00  0.00    -0.279 C  
HETATM    2  O   UNL     1     -11.190   9.443  71.996  1.00  0.00    -0.287 OA 
ENDROOT
BRANCH   2   3
HETATM    3  C   UNL     1     -11.367  10.007  70.763  1.00  0.00    -0.360 A  
HETATM    4  C   UNL     1     -10.849   9.521  69.564  1.00  0.00    -0.243 A  
HETATM    5  C   UNL     1     -11.072  10.177  68.332  1.00  0.00    -0.273 A  
HETATM    6  C   UNL     1     -11.859  11.349  68.337  1.00  0.00    -0.274 A  
HETATM    7  C   UNL     1     -12.381  11.834  69.543  1.00  0.00    -0.120 A  
HETATM    8  C   UNL     1     -12.135  11.167  70.746  1.00  0.00    -0.458 A  
BRANCH   5   9
HETATM    9  C   UNL     1     -10.475   9.633  67.031  1.00  0.00    -0.232 C  
HETATM   10  O   UNL     1      -9.564  10.581  66.451  1.00  0.00    -0.167 OA 
HETATM   11  H   UNL     1      -9.194  10.243  65.644  1.00  0.00     0.000 HD 
BRANCH   9  12
HETATM   12  C   UNL     1      -9.682   8.320  67.198  1.00  0.00    -0.195 C  
BRANCH  12  13
HETATM   13  N   UNL     1      -9.482   7.563  65.982  1.00  0.00    -0.409 N  
HETATM   14  H   UNL     1     -10.273   7.123  65.513  1.00  0.00     0.000 HD 
HETATM   15  C   UNL     1      -8.210   7.443  65.461  1.00  0.00    -0.135 C  
HETATM   16  O   UNL     1      -7.208   7.874  66.028  1.00  0.00    -0.070 OA 
BRANCH  15  17
HETATM   17  C   UNL     1      -8.138   6.749  64.100  1.00  0.00    -0.029 C  
HETATM   18  N   UNL     1      -8.309   7.715  63.000  1.00  0.00    -0.372 NA 
HETATM   19  H1  UNL     1      -8.261   7.252  62.092  1.00  0.00     0.000 HD 
HETATM   20  H2  UNL     1      -7.640   8.481  63.067  1.00  0.00     0.000 HD 
ENDBRANCH  15  17
ENDBRANCH  12  13
ENDBRANCH   9  12
ENDBRANCH   5   9
BRANCH   6  21
HETATM   21  O   UNL     1     -12.054  11.950  67.120  1.00  0.00    -0.590 OA 
HETATM   22  C   UNL     1     -11.764  13.341  67.020  1.00  0.00    -0.389 C  
ENDBRANCH   6  21
ENDBRANCH   2   3
TORSDOF 6
ENDMDL
MODEL      189
REMARK 921   NORMALIZED FREE ENERGY PREDICTED BY IDOCK:   -3.76 KCAL/MOL
REMARK 922        TOTAL FREE ENERGY PREDICTED BY IDOCK:   -5.57 KCAL/MOL
REMARK 923 INTER-LIGAND FREE ENERGY PREDICTED BY IDOCK:   -5.18 KCAL/MOL
REMARK 924 INTRA-LIGAND FREE ENERGY PREDICTED BY IDOCK:   -0.39 KCAL/MOL
REMARK 927      BINDING AFFINITY PREDICTED BY RF-SCORE:    0.00 PKD
ROOT
HETATM    1  C   UNL     1      -6.791   8.352  72.380  1.00  0.00    -0.092 C  
HETATM    2  O   UNL     1      -8.158   8.752  72.333  1.00  0.00    -0.368 OA 
ENDROOT
BRANCH   2   3
HETATM    3  C   UNL     1      -8.799   8.623  71.132  1.00  0.00    -0.199 A  
HETATM    4  C   UNL     1      -9.759   9.495  70.625  1.00  0.00    -0.311 A  
HETATM    5  C   UNL     1     -10.383   9.277  69.375  1.00  0.00    -0.223 A  
HETATM    6  C   UNL     1      -9.995   8.144  68.628  1.00  0.00    -0.190 A  
HETATM    7  C   UNL     1      -9.027   7.270  69.139  1.00  0.00    -0.135 A  
HETATM    8  C   UNL     1      -8.435   7.508  70.383  1.00  0.00    -0.141 A  
BRANCH   5   9
HETATM    9  C   UNL     1     -11.450  10.242  68.848  1.00  0.00    -0.127 C  
HETATM   10  O   UNL     1     -12.569  10.305  69.747  1.00  0.00    -0.555 OA 
HETATM   11  H   UNL     1     -13.230  10.904  69.421  1.00  0.00     0.000 HD 
BRANCH   9  12
HETATM   12  C   UNL     1     -10.958  11.694  68.670  1.00  0.00    -0.220 C  
BRANCH  12  13
HETATM   13  N   UNL     1     -11.820  12.541  67.875  1.00  0.00    -0.354 N  
HETATM   14  H   UNL     1     -12.551  13.095  68.321  1.00  0.00     0.000 HD 
HETATM   15  C   UNL     1     -11.643  12.593  66.508  1.00  0.00    -0.381 C  
HETATM   16  O   UNL     1     -10.841  11.882  65.905  1.00  0.00    -0.277 OA 
BRANCH  15  17
HETATM   17  C   UNL     1     -12.509  13.629  65.789  1.00  0.00    -0.477 C  
HETATM   18  N   UNL     1     -12.805  13.209  64.407  1.00  0.00    -0.687 NA 
HETATM   19  H1  UNL     1     -13.383  13.900  63.928  1.00  0.00     0.000 HD 
HETATM   20  H2  UNL     1     -13.229  12.281  64.380  1.00  0.00     0.000 HD 
ENDBRANCH  15  17
ENDBRANCH  12  13
ENDBRANCH   9  12
ENDBRANCH   5   9
BRANCH   6  21
HETATM   21  O   UNL     1     -10.621   7.974  67.420  1.00  0.00    -0.282 OA 
HETATM   22  C   UNL     1      -9.882   8.296  66.246  1.00  0.00    -0.157 C  
ENDBRANCH   6  21
ENDBRANCH   2   3
TORSDOF 6
ENDMDL
MODEL      190
REMARK 921   NORMALIZED FREE ENERGY PREDICTED BY IDOCK:   -3.74 KCAL/MOL
REMARK 922        TOTAL FREE ENERGY PREDICTED BY IDOCK:   -5.54 KCAL/MOL
REMARK 923 INTER-LIGAND FREE ENERGY PREDICTED BY IDOCK:   -4.98 KCAL/MOL
REMARK 924 INTRA-LIGAND FREE ENERGY PREDICTED BY IDOCK:   -0.56 KCAL/MOL
REMARK 927      BINDING AFFINITY PREDICTED BY RF-SCORE:    0.00 PKD
ROOT
HETATM    1  C   UNL     1     -11.337   6.254  71.618  1.00  0.00    -0.294 C  
HETATM    2  O   UNL     1     -11.022   7.578  72.042  1.00  0.00    -0.228 OA 
ENDROOT
BRANCH   2   3
HETATM    3  C   UNL     1     -10.476   8.413  71.108  1.00  0.00    -0.212 A  
HETATM    4  C   UNL     1     -11.055   9.586  70.629  1.00  0.00    -0.364 A  
HETATM    5  C   UNL     1     -10.424  10.387  69.649  1.00  0.00    -0.279 A  
HETATM    6  C   UNL     1      -9.162   9.974  69.167  1.00  0.00    -0.190 A  
HETATM    7  C   UNL     1      -8.581   8.796  69.652  1.00  0.00    -0.130 A  
HETATM    8  C   UNL     1      -9.236   8.021  70.615  1.00  0.00    -0.156 A  
BRANCH   5   9
HETATM    9  C   UNL     1     -11.090  11.662  69.125  1.00  0.00    -0.245 C  
HETATM   10  O   UNL     1     -10.146  12.744  69.068  1.00  0.00    -0.426 OA 
HETATM   11  H   UNL     1     -10.558  13.535  68.743  1.00  0.00     0.000 HD 
BRANCH   9  12
HETATM   12  C   UNL     1     -11.682  11.531  67.707  1.00  0.00    -0.227 C  
BRANCH  12  13
HETATM   13  N   UNL     1     -10.913  12.167  66.659  1.00  0.00    -0.268 N  
HETATM   14  H   UNL     1     -10.113  11.689  66.245  1.00  0.00     0.000 HD 
HETATM   15  C   UNL     1     -11.273  13.425  66.224  1.00  0.00    -0.305 C  
HETATM   16  O   UNL     1     -12.170  14.086  66.744  1.00  0.00    -0.439 OA 
BRANCH  15  17
HETATM   17  C   UNL     1     -10.484  13.936  65.017  1.00  0.00    -0.410 C  
HETATM   18  N   UNL     1     -10.085  12.826  64.133  1.00  0.00    -0.599 NA 
HETATM   19  H1  UNL     1      -9.559  13.168  63.328  1.00  0.00     0.000 HD 
HETATM   20  H2  UNL     1     -10.889  12.267  63.847  1.00  0.00     0.000 HD 
ENDBRANCH  15  17
ENDBRANCH  12  13
ENDBRANCH   9  12
ENDBRANCH   5   9
BRANCH   6  21
HETATM   21  O   UNL     1      -8.584  10.782  68.223  1.00  0.00    -0.124 OA 
HETATM   22  C   UNL     1      -7.162  10.865  68.210  1.00  0.00    -0.084 C  
ENDBRANCH   6  21
ENDBRANCH   2   3
TORSDOF 6
ENDMDL
MODEL      191
REMARK 921   NORMALIZED FREE ENERGY PREDICTED BY IDOCK:   -3.73 KCAL/MOL
REMARK 922        TOTAL FREE ENERGY PREDICTED BY IDOCK:   -5.54 KCAL/MOL
REMARK 923 INTER-LIGAND FREE ENERGY PREDICTED BY IDOCK:   -5.03 KCAL/MOL
REMARK 924 INTRA-LIGAND FREE ENERGY PREDICTED BY IDOCK:   -0.51 KCAL/MOL
REMARK 927      BINDING AFFINITY PREDICTED BY RF-SCORE:    0.00 PKD
ROOT
HETATM    1  C   UNL     1     -12.891  14.181  65.385  1.00  0.00    -0.368 C  
HETATM    2  O   UNL     1     -12.930  12.921  64.720  1.00  0.00    -0.743 OA 
ENDROOT
BRANCH   2   3
HETATM    3  C   UNL     1     -11.770  12.198  64.697  1.00  0.00    -0.332 A  
HETATM    4  C   UNL     1     -11.041  11.794  65.814  1.00  0.00    -0.351 A  
HETATM    5  C   UNL     1      -9.840  11.057  65.698  1.00  0.00    -0.287 A  
HETATM    6  C   UNL     1      -9.393  10.717  64.403  1.00  0.00    -0.251 A  
HETATM    7  C   UNL     1     -10.129  11.121  63.282  1.00  0.00    -0.426 A  
HETATM    8  C   UNL     1     -11.308  11.858  63.430  1.00  0.00    -0.465 A  
BRANCH   5   9
HETATM    9  C   UNL     1      -9.048  10.642  66.941  1.00  0.00    -0.155 C  
HETATM   10  O   UNL     1      -8.702   9.249  66.883  1.00  0.00    -0.125 OA 
HETATM   11  H   UNL     1      -8.210   8.991  67.654  1.00  0.00     0.000 HD 
BRANCH   9  12
HETATM   12  C   UNL     1      -7.722  11.408  67.133  1.00  0.00    -0.152 C  
BRANCH  12  13
HETATM   13  N   UNL     1      -7.857  12.838  67.303  1.00  0.00    -0.274 N  
HETATM   14  H   UNL     1      -8.780  13.273  67.290  1.00  0.00     0.000 HD 
HETATM   15  C   UNL     1      -6.727  13.608  67.482  1.00  0.00    -0.124 C  
HETATM   16  O   UNL     1      -5.586  13.154  67.417  1.00  0.00    -0.320 OA 
BRANCH  15  17
HETATM   17  C   UNL     1      -6.998  15.080  67.797  1.00  0.00    -0.174 C  
HETATM   18  N   UNL     1      -8.235  15.237  68.583  1.00  0.00    -0.149 NA 
HETATM   19  H1  UNL     1      -8.415  16.220  68.793  1.00  0.00     0.000 HD 
HETATM   20  H2  UNL     1      -8.215  14.669  69.430  1.00  0.00     0.000 HD 
ENDBRANCH  15  17
ENDBRANCH  12  13
ENDBRANCH   9  12
ENDBRANCH   5   9
BRANCH   6  21
HETATM   21  O   UNL     1      -8.228   9.998  64.337  1.00  0.00    -0.150 OA 
HETATM   22  C   UNL     1      -8.182   8.903  63.427  1.00  0.00    -0.181 C  
ENDBRANCH   6  21
ENDBRANCH   2   3
TORSDOF 6
ENDMDL
MODEL      192
REMARK 921   NORMALIZED FREE ENERGY PREDICTED BY IDOCK:   -3.73 KCAL/MOL
REMARK 922        TOTAL FREE ENERGY PREDICTED BY IDOCK:   -5.53 KCAL/MOL
REMARK 923 INTER-LIGAND FREE ENERGY PREDICTED BY IDOCK:   -5.21 KCAL/MOL
REMARK 924 INTRA-LIGAND FREE ENERGY PREDICTED BY IDOCK:   -0.33 KCAL/MOL
REMARK 927      BINDING AFFINITY PREDICTED BY RF-SCORE:    0.00 PKD
ROOT
HETATM    1  C   UNL     1      -8.450  15.783  69.436  1.00  0.00    -0.218 C  
HETATM    2  O   UNL     1      -7.476  14.760  69.248  1.00  0.00    -0.154 OA 
ENDROOT
BRANCH   2   3
HETATM    3  C   UNL     1      -7.866  13.657  68.540  1.00  0.00    -0.131 A  
HETATM    4  C   UNL     1      -9.174  13.194  68.411  1.00  0.00    -0.141 A  
HETATM    5  C   UNL     1      -9.487  12.033  67.668  1.00  0.00    -0.185 A  
HETATM    6  C   UNL     1      -8.430  11.347  67.031  1.00  0.00    -0.159 A  
HETATM    7  C   UNL     1      -7.116  11.816  67.160  1.00  0.00    -0.146 A  
HETATM    8  C   UNL     1      -6.838  12.963  67.910  1.00  0.00    -0.120 A  
BRANCH   5   9
HETATM    9  C   UNL     1     -10.931  11.534  67.557  1.00  0.00    -0.255 C  
HETATM   10  O   UNL     1     -11.669  11.840  68.752  1.00  0.00    -0.283 OA 
HETATM   11  H   UNL     1     -12.564  11.531  68.684  1.00  0.00     0.000 HD 
BRANCH   9  12
HETATM   12  C   UNL     1     -11.727  12.151  66.389  1.00  0.00    -0.324 C  
BRANCH  12  13
HETATM   13  N   UNL     1     -11.648  13.591  66.285  1.00  0.00    -0.331 N  
HETATM   14  H   UNL     1     -11.615  14.168  67.126  1.00  0.00     0.000 HD 
HETATM   15  C   UNL     1     -11.619  14.179  65.038  1.00  0.00    -0.362 C  
HETATM   16  O   UNL     1     -11.747  13.545  63.992  1.00  0.00    -0.409 OA 
BRANCH  15  17
HETATM   17  C   UNL     1     -11.388  15.692  65.047  1.00  0.00    -0.253 C  
HETATM   18  N   UNL     1     -11.634  16.276  63.716  1.00  0.00    -1.482 NA 
HETATM   19  H1  UNL     1     -11.479  17.284  63.722  1.00  0.00     0.000 HD 
HETATM   20  H2  UNL     1     -12.564  16.040  63.369  1.00  0.00     0.000 HD 
ENDBRANCH  15  17
ENDBRANCH  12  13
ENDBRANCH   9  12
ENDBRANCH   5   9
BRANCH   6  21
HETATM   21  O   UNL     1      -8.778  10.230  66.317  1.00  0.00    -0.141 OA 
HETATM   22  C   UNL     1      -8.325   8.970  66.804  1.00  0.00    -0.115 C  
ENDBRANCH   6  21
ENDBRANCH   2   3
TORSDOF 6
ENDMDL
MODEL      193
REMARK 921   NORMALIZED FREE ENERGY PREDICTED BY IDOCK:   -3.71 KCAL/MOL
REMARK 922        TOTAL FREE ENERGY PREDICTED BY IDOCK:   -5.51 KCAL/MOL
REMARK 923 INTER-LIGAND FREE ENERGY PREDICTED BY IDOCK:   -4.99 KCAL/MOL
REMARK 924 INTRA-LIGAND FREE ENERGY PREDICTED BY IDOCK:   -0.52 KCAL/MOL
REMARK 927      BINDING AFFINITY PREDICTED BY RF-SCORE:    0.00 PKD
ROOT
HETATM    1  C   UNL     1     -10.027  19.934  67.886  1.00  0.00    -0.422 C  
HETATM    2  O   UNL     1     -10.164  18.800  68.739  1.00  0.00    -0.374 OA 
ENDROOT
BRANCH   2   3
HETATM    3  C   UNL     1      -9.636  17.622  68.289  1.00  0.00    -0.306 A  
HETATM    4  C   UNL     1     -10.344  16.603  67.655  1.00  0.00    -0.305 A  
HETATM    5  C   UNL     1      -9.720  15.407  67.234  1.00  0.00    -0.212 A  
HETATM    6  C   UNL     1      -8.332  15.268  67.458  1.00  0.00    -0.175 A  
HETATM    7  C   UNL     1      -7.622  16.295  68.093  1.00  0.00    -0.151 A  
HETATM    8  C   UNL     1      -8.271  17.462  68.507  1.00  0.00    -0.268 A  
BRANCH   5   9
HETATM    9  C   UNL     1     -10.524  14.294  66.556  1.00  0.00    -0.287 C  
HETATM   10  O   UNL     1      -9.852  13.826  65.375  1.00  0.00    -0.496 OA 
HETATM   11  H   UNL     1     -10.351  13.136  64.954  1.00  0.00     0.000 HD 
BRANCH   9  12
HETATM   12  C   UNL     1     -10.758  13.052  67.440  1.00  0.00    -0.245 C  
BRANCH  12  13
HETATM   13  N   UNL     1     -11.212  13.331  68.784  1.00  0.00    -0.262 N  
HETATM   14  H   UNL     1     -10.858  14.143  69.289  1.00  0.00     0.000 HD 
HETATM   15  C   UNL     1     -12.129  12.488  69.378  1.00  0.00    -0.180 C  
HETATM   16  O   UNL     1     -12.522  11.448  68.855  1.00  0.00    -0.386 OA 
BRANCH  15  17
HETATM   17  C   UNL     1     -12.646  12.960  70.738  1.00  0.00    -0.232 C  
HETATM   18  N   UNL     1     -11.860  14.100  71.241  1.00  0.00    -0.461 NA 
HETATM   19  H1  UNL     1     -12.205  14.415  72.149  1.00  0.00     0.000 HD 
HETATM   20  H2  UNL     1     -11.832  14.863  70.565  1.00  0.00     0.000 HD 
ENDBRANCH  15  17
ENDBRANCH  12  13
ENDBRANCH   9  12
ENDBRANCH   5   9
BRANCH   6  21
HETATM   21  O   UNL     1      -7.767  14.096  67.029  1.00  0.00    -0.076 OA 
HETATM   22  C   UNL     1      -6.751  13.519  67.844  1.00  0.00    -0.150 C  
ENDBRANCH   6  21
ENDBRANCH   2   3
TORSDOF 6
ENDMDL
MODEL      194
REMARK 921   NORMALIZED FREE ENERGY PREDICTED BY IDOCK:   -3.70 KCAL/MOL
REMARK 922        TOTAL FREE ENERGY PREDICTED BY IDOCK:   -5.50 KCAL/MOL
REMARK 923 INTER-LIGAND FREE ENERGY PREDICTED BY IDOCK:   -4.89 KCAL/MOL
REMARK 924 INTRA-LIGAND FREE ENERGY PREDICTED BY IDOCK:   -0.61 KCAL/MOL
REMARK 927      BINDING AFFINITY PREDICTED BY RF-SCORE:    0.00 PKD
ROOT
HETATM    1  C   UNL     1      -7.142   7.040  70.206  1.00  0.00    -0.067 C  
HETATM    2  O   UNL     1      -7.455   8.079  71.129  1.00  0.00    -0.063 OA 
ENDROOT
BRANCH   2   3
HETATM    3  C   UNL     1      -8.761   8.479  71.190  1.00  0.00    -0.174 A  
HETATM    4  C   UNL     1      -9.342   9.482  70.418  1.00  0.00    -0.311 A  
HETATM    5  C   UNL     1     -10.702   9.842  70.557  1.00  0.00    -0.382 A  
HETATM    6  C   UNL     1     -11.481   9.139  71.502  1.00  0.00    -0.367 A  
HETATM    7  C   UNL     1     -10.896   8.129  72.275  1.00  0.00    -0.388 A  
HETATM    8  C   UNL     1      -9.545   7.804  72.121  1.00  0.00    -0.230 A  
BRANCH   5   9
HETATM    9  C   UNL     1     -11.312  10.962  69.708  1.00  0.00    -0.301 C  
HETATM   10  O   UNL     1     -11.614  12.109  70.518  1.00  0.00    -0.487 OA 
HETATM   11  H   UNL     1     -11.991  12.804  69.992  1.00  0.00     0.000 HD 
BRANCH   9  12
HETATM   12  C   UNL     1     -10.398  11.464  68.572  1.00  0.00    -0.205 C  
BRANCH  12  13
HETATM   13  N   UNL     1     -10.525  10.752  67.319  1.00  0.00    -0.223 N  
HETATM   14  H   UNL     1     -11.425  10.705  66.843  1.00  0.00     0.000 HD 
HETATM   15  C   UNL     1      -9.417  10.137  66.775  1.00  0.00    -0.168 C  
HETATM   16  O   UNL     1      -8.329  10.083  67.345  1.00  0.00    -0.118 OA 
BRANCH  15  17
HETATM   17  C   UNL     1      -9.633   9.542  65.382  1.00  0.00    -0.272 C  
HETATM   18  N   UNL     1      -9.237   8.123  65.343  1.00  0.00    -0.399 NA 
HETATM   19  H1  UNL     1      -9.381   7.726  64.413  1.00  0.00     0.000 HD 
HETATM   20  H2  UNL     1      -9.715   7.580  66.061  1.00  0.00     0.000 HD 
ENDBRANCH  15  17
ENDBRANCH  12  13
ENDBRANCH   9  12
ENDBRANCH   5   9
BRANCH   6  21
HETATM   21  O   UNL     1     -12.795   9.516  71.600  1.00  0.00    -0.339 OA 
HETATM   22  C   UNL     1     -13.682   8.637  72.285  1.00  0.00    -0.395 C  
ENDBRANCH   6  21
ENDBRANCH   2   3
TORSDOF 6
ENDMDL
MODEL      195
REMARK 921   NORMALIZED FREE ENERGY PREDICTED BY IDOCK:   -3.70 KCAL/MOL
REMARK 922        TOTAL FREE ENERGY PREDICTED BY IDOCK:   -5.50 KCAL/MOL
REMARK 923 INTER-LIGAND FREE ENERGY PREDICTED BY IDOCK:   -5.42 KCAL/MOL
REMARK 924 INTRA-LIGAND FREE ENERGY PREDICTED BY IDOCK:   -0.08 KCAL/MOL
REMARK 927      BINDING AFFINITY PREDICTED BY RF-SCORE:    0.00 PKD
ROOT
HETATM    1  C   UNL     1     -12.266  15.089  64.134  1.00  0.00    -0.211 C  
HETATM    2  O   UNL     1     -12.754  13.751  64.196  1.00  0.00    -0.664 OA 
ENDROOT
BRANCH   2   3
HETATM    3  C   UNL     1     -11.893  12.801  64.672  1.00  0.00    -0.374 A  
HETATM    4  C   UNL     1     -11.940  12.221  65.937  1.00  0.00    -0.358 A  
HETATM    5  C   UNL     1     -10.998  11.252  66.353  1.00  0.00    -0.285 A  
HETATM    6  C   UNL     1      -9.999  10.862  65.435  1.00  0.00    -0.263 A  
HETATM    7  C   UNL     1      -9.955  11.444  64.162  1.00  0.00    -0.335 A  
HETATM    8  C   UNL     1     -10.895  12.408  63.785  1.00  0.00    -0.500 A  
BRANCH   5   9
HETATM    9  C   UNL     1     -11.061  10.643  67.757  1.00  0.00    -0.321 C  
HETATM   10  O   UNL     1     -12.277  11.022  68.423  1.00  0.00    -0.770 OA 
HETATM   11  H   UNL     1     -12.316  10.645  69.294  1.00  0.00     0.000 HD 
BRANCH   9  12
HETATM   12  C   UNL     1     -11.019   9.101  67.781  1.00  0.00     0.037 C  
BRANCH  12  13
HETATM   13  N   UNL     1      -9.896   8.528  68.489  1.00  0.00    -0.168 N  
HETATM   14  H   UNL     1      -9.235   7.922  68.003  1.00  0.00     0.000 HD 
HETATM   15  C   UNL     1      -9.725   8.809  69.829  1.00  0.00    -0.177 C  
HETATM   16  O   UNL     1     -10.535   9.458  70.489  1.00  0.00    -0.232 OA 
BRANCH  15  17
HETATM   17  C   UNL     1      -8.429   8.272  70.437  1.00  0.00    -0.129 C  
HETATM   18  N   UNL     1      -8.081   8.995  71.673  1.00  0.00    -0.347 NA 
HETATM   19  H1  UNL     1      -7.215   8.636  72.079  1.00  0.00     0.000 HD 
HETATM   20  H2  UNL     1      -8.847   8.977  72.346  1.00  0.00     0.000 HD 
ENDBRANCH  15  17
ENDBRANCH  12  13
ENDBRANCH   9  12
ENDBRANCH   5   9
BRANCH   6  21
HETATM   21  O   UNL     1      -9.110   9.916  65.876  1.00  0.00    -0.148 OA 
HETATM   22  C   UNL     1      -8.442   9.131  64.893  1.00  0.00    -0.175 C  
ENDBRANCH   6  21
ENDBRANCH   2   3
TORSDOF 6
ENDMDL
MODEL      196
REMARK 921   NORMALIZED FREE ENERGY PREDICTED BY IDOCK:   -3.70 KCAL/MOL
REMARK 922        TOTAL FREE ENERGY PREDICTED BY IDOCK:   -5.50 KCAL/MOL
REMARK 923 INTER-LIGAND FREE ENERGY PREDICTED BY IDOCK:   -5.03 KCAL/MOL
REMARK 924 INTRA-LIGAND FREE ENERGY PREDICTED BY IDOCK:   -0.47 KCAL/MOL
REMARK 927      BINDING AFFINITY PREDICTED BY RF-SCORE:    0.00 PKD
ROOT
HETATM    1  C   UNL     1      -5.636  16.286  67.273  1.00  0.00    -0.092 C  
HETATM    2  O   UNL     1      -5.788  14.877  67.429  1.00  0.00    -0.341 OA 
ENDROOT
BRANCH   2   3
HETATM    3  C   UNL     1      -7.058  14.409  67.619  1.00  0.00    -0.183 A  
HETATM    4  C   UNL     1      -8.155  15.171  68.014  1.00  0.00    -0.138 A  
HETATM    5  C   UNL     1      -9.435  14.601  68.200  1.00  0.00    -0.212 A  
HETATM    6  C   UNL     1      -9.587  13.218  67.957  1.00  0.00    -0.220 A  
HETATM    7  C   UNL     1      -8.483  12.454  67.558  1.00  0.00    -0.175 A  
HETATM    8  C   UNL     1      -7.228  13.047  67.392  1.00  0.00    -0.123 A  
BRANCH   5   9
HETATM    9  C   UNL     1     -10.621  15.457  68.653  1.00  0.00    -0.239 C  
HETATM   10  O   UNL     1     -10.297  16.186  69.848  1.00  0.00    -0.268 OA 
HETATM   11  H   UNL     1     -11.033  16.717  70.129  1.00  0.00     0.000 HD 
BRANCH   9  12
HETATM   12  C   UNL     1     -11.076  16.507  67.618  1.00  0.00    -0.127 C  
BRANCH  12  13
HETATM   13  N   UNL     1     -10.727  17.874  67.936  1.00  0.00    -0.372 N  
HETATM   14  H   UNL     1     -10.773  18.207  68.899  1.00  0.00     0.000 HD 
HETATM   15  C   UNL     1     -10.331  18.725  66.924  1.00  0.00    -0.404 C  
HETATM   16  O   UNL     1     -10.342  18.408  65.736  1.00  0.00    -0.588 OA 
BRANCH  15  17
HETATM   17  C   UNL     1      -9.847  20.098  67.394  1.00  0.00    -0.434 C  
HETATM   18  N   UNL     1      -8.647  20.522  66.651  1.00  0.00    -0.549 NA 
HETATM   19  H1  UNL     1      -8.324  21.438  66.964  1.00  0.00     0.000 HD 
HETATM   20  H2  UNL     1      -8.804  20.503  65.643  1.00  0.00     0.000 HD 
ENDBRANCH  15  17
ENDBRANCH  12  13
ENDBRANCH   9  12
ENDBRANCH   5   9
BRANCH   6  21
HETATM   21  O   UNL     1     -10.845  12.707  68.144  1.00  0.00    -0.211 OA 
HETATM   22  C   UNL     1     -11.555  12.268  66.990  1.00  0.00    -0.349 C  
ENDBRANCH   6  21
ENDBRANCH   2   3
TORSDOF 6
ENDMDL
MODEL      197
REMARK 921   NORMALIZED FREE ENERGY PREDICTED BY IDOCK:   -3.69 KCAL/MOL
REMARK 922        TOTAL FREE ENERGY PREDICTED BY IDOCK:   -5.48 KCAL/MOL
REMARK 923 INTER-LIGAND FREE ENERGY PREDICTED BY IDOCK:   -4.70 KCAL/MOL
REMARK 924 INTRA-LIGAND FREE ENERGY PREDICTED BY IDOCK:   -0.78 KCAL/MOL
REMARK 927      BINDING AFFINITY PREDICTED BY RF-SCORE:    0.00 PKD
ROOT
HETATM    1  C   UNL     1      -8.129  17.967  68.179  1.00  0.00    -0.267 C  
HETATM    2  O   UNL     1      -7.745  16.599  68.284  1.00  0.00    -0.170 OA 
ENDROOT
BRANCH   2   3
HETATM    3  C   UNL     1      -8.744  15.690  68.497  1.00  0.00    -0.182 A  
HETATM    4  C   UNL     1      -8.799  14.402  67.969  1.00  0.00    -0.178 A  
HETATM    5  C   UNL     1      -9.881  13.530  68.231  1.00  0.00    -0.233 A  
HETATM    6  C   UNL     1     -10.918  13.994  69.070  1.00  0.00    -0.259 A  
HETATM    7  C   UNL     1     -10.859  15.288  69.602  1.00  0.00    -0.294 A  
HETATM    8  C   UNL     1      -9.780  16.129  69.315  1.00  0.00    -0.242 A  
BRANCH   5   9
HETATM    9  C   UNL     1      -9.926  12.126  67.623  1.00  0.00    -0.197 C  
HETATM   10  O   UNL     1      -9.374  12.127  66.296  1.00  0.00    -0.230 OA 
HETATM   11  H   UNL     1      -9.401  11.256  65.918  1.00  0.00     0.000 HD 
BRANCH   9  12
HETATM   12  C   UNL     1      -9.135  11.066  68.417  1.00  0.00    -0.161 C  
BRANCH  12  13
HETATM   13  N   UNL     1      -9.723  10.681  69.682  1.00  0.00    -0.433 N  
HETATM   14  H   UNL     1      -9.497  11.196  70.532  1.00  0.00     0.000 HD 
HETATM   15  C   UNL     1     -10.592   9.611  69.727  1.00  0.00    -0.242 C  
HETATM   16  O   UNL     1     -10.832   8.898  68.754  1.00  0.00    -0.135 OA 
BRANCH  15  17
HETATM   17  C   UNL     1     -11.264   9.387  71.082  1.00  0.00    -0.357 C  
HETATM   18  N   UNL     1     -12.727   9.283  70.941  1.00  0.00    -0.508 NA 
HETATM   19  H1  UNL     1     -13.175   9.134  71.845  1.00  0.00     0.000 HD 
HETATM   20  H2  UNL     1     -12.988   8.562  70.268  1.00  0.00     0.000 HD 
ENDBRANCH  15  17
ENDBRANCH  12  13
ENDBRANCH   9  12
ENDBRANCH   5   9
BRANCH   6  21
HETATM   21  O   UNL     1     -11.943  13.115  69.302  1.00  0.00    -0.311 OA 
HETATM   22  C   UNL     1     -12.387  12.963  70.647  1.00  0.00    -0.302 C  
ENDBRANCH   6  21
ENDBRANCH   2   3
TORSDOF 6
ENDMDL
MODEL      198
REMARK 921   NORMALIZED FREE ENERGY PREDICTED BY IDOCK:   -3.68 KCAL/MOL
REMARK 922        TOTAL FREE ENERGY PREDICTED BY IDOCK:   -5.47 KCAL/MOL
REMARK 923 INTER-LIGAND FREE ENERGY PREDICTED BY IDOCK:   -4.71 KCAL/MOL
REMARK 924 INTRA-LIGAND FREE ENERGY PREDICTED BY IDOCK:   -0.76 KCAL/MOL
REMARK 927      BINDING AFFINITY PREDICTED BY RF-SCORE:    0.00 PKD
ROOT
HETATM    1  C   UNL     1      -6.964   9.656  65.664  1.00  0.00    -0.096 C  
HETATM    2  O   UNL     1      -7.738   8.528  66.060  1.00  0.00    -0.090 OA 
ENDROOT
BRANCH   2   3
HETATM    3  C   UNL     1      -8.388   8.613  67.260  1.00  0.00    -0.108 A  
HETATM    4  C   UNL     1      -9.049   9.739  67.748  1.00  0.00    -0.138 A  
HETATM    5  C   UNL     1      -9.685   9.744  69.011  1.00  0.00    -0.177 A  
HETATM    6  C   UNL     1      -9.651   8.558  69.776  1.00  0.00    -0.170 A  
HETATM    7  C   UNL     1      -8.989   7.427  69.281  1.00  0.00    -0.136 A  
HETATM    8  C   UNL     1      -8.361   7.457  68.033  1.00  0.00    -0.124 A  
BRANCH   5   9
HETATM    9  C   UNL     1     -10.388  11.000  69.533  1.00  0.00    -0.040 C  
HETATM   10  O   UNL     1      -9.876  12.177  68.888  1.00  0.00    -0.405 OA 
HETATM   11  H   UNL     1     -10.312  12.956  69.211  1.00  0.00     0.000 HD 
BRANCH   9  12
HETATM   12  C   UNL     1     -11.914  11.013  69.305  1.00  0.00    -0.339 C  
BRANCH  12  13
HETATM   13  N   UNL     1     -12.649   9.984  70.006  1.00  0.00    -0.503 N  
HETATM   14  H   UNL     1     -12.793   9.070  69.577  1.00  0.00     0.000 HD 
HETATM   15  C   UNL     1     -13.154  10.249  71.262  1.00  0.00    -0.398 C  
HETATM   16  O   UNL     1     -13.091  11.357  71.792  1.00  0.00    -0.480 OA 
BRANCH  15  17
HETATM   17  C   UNL     1     -13.784   9.047  71.968  1.00  0.00    -0.461 C  
HETATM   18  N   UNL     1     -13.415   7.785  71.301  1.00  0.00    -0.556 NA 
HETATM   19  H1  UNL     1     -13.835   6.983  71.772  1.00  0.00     0.000 HD 
HETATM   20  H2  UNL     1     -12.403   7.686  71.220  1.00  0.00     0.000 HD 
ENDBRANCH  15  17
ENDBRANCH  12  13
ENDBRANCH   9  12
ENDBRANCH   5   9
BRANCH   6  21
HETATM   21  O   UNL     1     -10.285   8.605  70.990  1.00  0.00    -0.196 OA 
HETATM   22  C   UNL     1      -9.487   8.420  72.156  1.00  0.00    -0.290 C  
ENDBRANCH   6  21
ENDBRANCH   2   3
TORSDOF 6
ENDMDL
MODEL      199
REMARK 921   NORMALIZED FREE ENERGY PREDICTED BY IDOCK:   -3.66 KCAL/MOL
REMARK 922        TOTAL FREE ENERGY PREDICTED BY IDOCK:   -5.44 KCAL/MOL
REMARK 923 INTER-LIGAND FREE ENERGY PREDICTED BY IDOCK:   -4.96 KCAL/MOL
REMARK 924 INTRA-LIGAND FREE ENERGY PREDICTED BY IDOCK:   -0.48 KCAL/MOL
REMARK 927      BINDING AFFINITY PREDICTED BY RF-SCORE:    0.00 PKD
ROOT
HETATM    1  C   UNL     1      -9.438   5.716  67.409  1.00  0.00    -0.114 C  
HETATM    2  O   UNL     1      -9.579   6.752  66.440  1.00  0.00    -0.163 OA 
ENDROOT
BRANCH   2   3
HETATM    3  C   UNL     1      -9.922   7.991  66.905  1.00  0.00    -0.268 A  
HETATM    4  C   UNL     1     -10.094   9.133  66.127  1.00  0.00    -0.278 A  
HETATM    5  C   UNL     1     -10.436  10.382  66.694  1.00  0.00    -0.279 A  
HETATM    6  C   UNL     1     -10.621  10.447  68.092  1.00  0.00    -0.211 A  
HETATM    7  C   UNL     1     -10.450   9.297  68.873  1.00  0.00    -0.235 A  
HETATM    8  C   UNL     1     -10.101   8.078  68.282  1.00  0.00    -0.227 A  
BRANCH   5   9
HETATM    9  C   UNL     1     -10.601  11.627  65.818  1.00  0.00    -0.271 C  
HETATM   10  O   UNL     1     -11.848  12.285  66.096  1.00  0.00    -0.507 OA 
HETATM   11  H   UNL     1     -11.951  13.057  65.553  1.00  0.00     0.000 HD 
BRANCH   9  12
HETATM   12  C   UNL     1      -9.500  12.690  66.013  1.00  0.00    -0.135 C  
BRANCH  12  13
HETATM   13  N   UNL     1      -9.904  14.051  65.739  1.00  0.00    -0.452 N  
HETATM   14  H   UNL     1     -10.155  14.333  64.792  1.00  0.00     0.000 HD 
HETATM   15  C   UNL     1      -9.948  14.965  66.771  1.00  0.00    -0.246 C  
HETATM   16  O   UNL     1      -9.572  14.708  67.914  1.00  0.00    -0.206 OA 
BRANCH  15  17
HETATM   17  C   UNL     1     -10.528  16.329  66.396  1.00  0.00    -0.294 C  
HETATM   18  N   UNL     1      -9.550  17.134  65.642  1.00  0.00    -0.525 NA 
HETATM   19  H1  UNL     1      -9.937  18.045  65.392  1.00  0.00     0.000 HD 
HETATM   20  H2  UNL     1      -9.205  16.635  64.823  1.00  0.00     0.000 HD 
ENDBRANCH  15  17
ENDBRANCH  12  13
ENDBRANCH   9  12
ENDBRANCH   5   9
BRANCH   6  21
HETATM   21  O   UNL     1     -10.957  11.675  68.600  1.00  0.00    -0.194 OA 
HETATM   22  C   UNL     1     -11.728  11.703  69.797  1.00  0.00    -0.352 C  
ENDBRANCH   6  21
ENDBRANCH   2   3
TORSDOF 6
ENDMDL
MODEL      200
REMARK 921   NORMALIZED FREE ENERGY PREDICTED BY IDOCK:   -3.65 KCAL/MOL
REMARK 922        TOTAL FREE ENERGY PREDICTED BY IDOCK:   -5.42 KCAL/MOL
REMARK 923 INTER-LIGAND FREE ENERGY PREDICTED BY IDOCK:   -5.30 KCAL/MOL
REMARK 924 INTRA-LIGAND FREE ENERGY PREDICTED BY IDOCK:   -0.12 KCAL/MOL
REMARK 927      BINDING AFFINITY PREDICTED BY RF-SCORE:    0.00 PKD
ROOT
HETATM    1  C   UNL     1     -12.710  16.037  73.483  1.00  0.00    -0.589 C  
HETATM    2  O   UNL     1     -13.435  15.894  72.264  1.00  0.00    -0.451 OA 
ENDROOT
BRANCH   2   3
HETATM    3  C   UNL     1     -12.768  15.332  71.211  1.00  0.00    -0.401 A  
HETATM    4  C   UNL     1     -11.952  16.011  70.309  1.00  0.00    -0.226 A  
HETATM    5  C   UNL     1     -11.309  15.351  69.237  1.00  0.00    -0.323 A  
HETATM    6  C   UNL     1     -11.502  13.958  69.104  1.00  0.00    -0.299 A  
HETATM    7  C   UNL     1     -12.321  13.277  70.013  1.00  0.00    -0.269 A  
HETATM    8  C   UNL     1     -12.950  13.961  71.058  1.00  0.00    -0.357 A  
BRANCH   5   9
HETATM    9  C   UNL     1     -10.432  16.124  68.248  1.00  0.00    -0.276 C  
HETATM   10  O   UNL     1     -11.161  16.424  67.046  1.00  0.00    -0.119 OA 
HETATM   11  H   UNL     1     -10.617  16.904  66.433  1.00  0.00     0.000 HD 
BRANCH   9  12
HETATM   12  C   UNL     1      -9.911  17.473  68.785  1.00  0.00    -0.326 C  
BRANCH  12  13
HETATM   13  N   UNL     1      -8.501  17.717  68.569  1.00  0.00    -0.297 N  
HETATM   14  H   UNL     1      -8.191  18.577  68.117  1.00  0.00     0.000 HD 
HETATM   15  C   UNL     1      -7.581  16.777  68.982  1.00  0.00    -0.218 C  
HETATM   16  O   UNL     1      -7.898  15.685  69.450  1.00  0.00    -0.219 OA 
BRANCH  15  17
HETATM   17  C   UNL     1      -6.119  17.203  68.837  1.00  0.00    -0.169 C  
HETATM   18  N   UNL     1      -5.953  18.172  67.738  1.00  0.00    -0.157 NA 
HETATM   19  H1  UNL     1      -4.978  18.456  67.642  1.00  0.00     0.000 HD 
HETATM   20  H2  UNL     1      -6.570  18.976  67.852  1.00  0.00     0.000 HD 
ENDBRANCH  15  17
ENDBRANCH  12  13
ENDBRANCH   9  12
ENDBRANCH   5   9
BRANCH   6  21
HETATM   21  O   UNL     1     -10.856  13.358  68.054  1.00  0.00    -0.236 OA 
HETATM   22  C   UNL     1     -11.635  12.541  67.185  1.00  0.00    -0.368 C  
ENDBRANCH   6  21
ENDBRANCH   2   3
TORSDOF 6
ENDMDL
MODEL      201
REMARK 921   NORMALIZED FREE ENERGY PREDICTED BY IDOCK:   -3.64 KCAL/MOL
REMARK 922        TOTAL FREE ENERGY PREDICTED BY IDOCK:   -5.41 KCAL/MOL
REMARK 923 INTER-LIGAND FREE ENERGY PREDICTED BY IDOCK:   -5.42 KCAL/MOL
REMARK 924 INTRA-LIGAND FREE ENERGY PREDICTED BY IDOCK:    0.00 KCAL/MOL
REMARK 927      BINDING AFFINITY PREDICTED BY RF-SCORE:    0.00 PKD
ROOT
HETATM    1  C   UNL     1      -9.049   4.868  68.352  1.00  0.00    -0.114 C  
HETATM    2  O   UNL     1     -10.187   5.675  68.058  1.00  0.00    -0.159 OA 
ENDROOT
BRANCH   2   3
HETATM    3  C   UNL     1      -9.966   6.815  67.336  1.00  0.00    -0.148 A  
HETATM    4  C   UNL     1     -10.600   8.039  67.536  1.00  0.00    -0.302 A  
HETATM    5  C   UNL     1     -10.320   9.167  66.731  1.00  0.00    -0.308 A  
HETATM    6  C   UNL     1      -9.355   9.031  65.710  1.00  0.00    -0.236 A  
HETATM    7  C   UNL     1      -8.717   7.800  65.513  1.00  0.00    -0.102 A  
HETATM    8  C   UNL     1      -9.023   6.700  66.320  1.00  0.00    -0.168 A  
BRANCH   5   9
HETATM    9  C   UNL     1     -11.044  10.497  66.960  1.00  0.00    -0.110 C  
HETATM   10  O   UNL     1     -11.929  10.408  68.089  1.00  0.00    -0.756 OA 
HETATM   11  H   UNL     1     -12.378  11.233  68.231  1.00  0.00     0.000 HD 
BRANCH   9  12
HETATM   12  C   UNL     1     -10.106  11.689  67.241  1.00  0.00    -0.199 C  
BRANCH  12  13
HETATM   13  N   UNL     1     -10.069  12.700  66.207  1.00  0.00    -0.248 N  
HETATM   14  H   UNL     1      -9.177  13.062  65.872  1.00  0.00     0.000 HD 
HETATM   15  C   UNL     1     -11.253  13.169  65.676  1.00  0.00    -0.283 C  
HETATM   16  O   UNL     1     -12.359  12.837  66.100  1.00  0.00    -0.542 OA 
BRANCH  15  17
HETATM   17  C   UNL     1     -11.092  14.123  64.492  1.00  0.00    -0.330 C  
HETATM   18  N   UNL     1     -12.378  14.345  63.808  1.00  0.00    -1.079 NA 
HETATM   19  H1  UNL     1     -12.270  14.981  63.017  1.00  0.00     0.000 HD 
HETATM   20  H2  UNL     1     -13.096  14.669  64.455  1.00  0.00     0.000 HD 
ENDBRANCH  15  17
ENDBRANCH  12  13
ENDBRANCH   9  12
ENDBRANCH   5   9
BRANCH   6  21
HETATM   21  O   UNL     1      -9.111  10.151  64.958  1.00  0.00    -0.172 OA 
HETATM   22  C   UNL     1      -8.164  10.038  63.899  1.00  0.00    -0.159 C  
ENDBRANCH   6  21
ENDBRANCH   2   3
TORSDOF 6
ENDMDL
MODEL      202
REMARK 921   NORMALIZED FREE ENERGY PREDICTED BY IDOCK:   -3.63 KCAL/MOL
REMARK 922        TOTAL FREE ENERGY PREDICTED BY IDOCK:   -5.40 KCAL/MOL
REMARK 923 INTER-LIGAND FREE ENERGY PREDICTED BY IDOCK:   -4.73 KCAL/MOL
REMARK 924 INTRA-LIGAND FREE ENERGY PREDICTED BY IDOCK:   -0.67 KCAL/MOL
REMARK 927      BINDING AFFINITY PREDICTED BY RF-SCORE:    0.00 PKD
ROOT
HETATM    1  C   UNL     1     -12.017  13.331  68.164  1.00  0.00    -0.304 C  
HETATM    2  O   UNL     1     -12.145  11.925  67.967  1.00  0.00    -0.541 OA 
ENDROOT
BRANCH   2   3
HETATM    3  C   UNL     1     -11.372  11.366  66.988  1.00  0.00    -0.236 A  
HETATM    4  C   UNL     1     -10.665  10.170  67.094  1.00  0.00    -0.286 A  
HETATM    5  C   UNL     1      -9.877   9.669  66.032  1.00  0.00    -0.345 A  
HETATM    6  C   UNL     1      -9.831  10.412  64.832  1.00  0.00    -0.334 A  
HETATM    7  C   UNL     1     -10.544  11.613  64.727  1.00  0.00    -0.358 A  
HETATM    8  C   UNL     1     -11.308  12.085  65.799  1.00  0.00    -0.384 A  
BRANCH   5   9
HETATM    9  C   UNL     1      -9.095   8.361  66.181  1.00  0.00    -0.189 C  
HETATM   10  O   UNL     1      -7.688   8.621  66.321  1.00  0.00    -0.095 OA 
HETATM   11  H   UNL     1      -7.203   7.809  66.414  1.00  0.00     0.000 HD 
BRANCH   9  12
HETATM   12  C   UNL     1      -9.501   7.515  67.405  1.00  0.00    -0.142 C  
BRANCH  12  13
HETATM   13  N   UNL     1      -9.924   6.165  67.107  1.00  0.00    -0.141 N  
HETATM   14  H   UNL     1     -10.898   5.968  66.878  1.00  0.00     0.000 HD 
HETATM   15  C   UNL     1      -8.996   5.144  67.134  1.00  0.00    -0.112 C  
HETATM   16  O   UNL     1      -7.830   5.304  67.489  1.00  0.00    -0.095 OA 
BRANCH  15  17
HETATM   17  C   UNL     1      -9.521   3.788  66.660  1.00  0.00    -0.192 C  
HETATM   18  N   UNL     1     -10.315   3.926  65.426  1.00  0.00    -0.449 NA 
HETATM   19  H1  UNL     1     -10.665   3.020  65.110  1.00  0.00     0.000 HD 
HETATM   20  H2  UNL     1      -9.788   4.401  64.693  1.00  0.00     0.000 HD 
ENDBRANCH  15  17
ENDBRANCH  12  13
ENDBRANCH   9  12
ENDBRANCH   5   9
BRANCH   6  21
HETATM   21  O   UNL     1      -9.059   9.888  63.828  1.00  0.00    -0.236 OA 
HETATM   22  C   UNL     1      -9.386  10.252  62.490  1.00  0.00    -0.296 C  
ENDBRANCH   6  21
ENDBRANCH   2   3
TORSDOF 6
ENDMDL
MODEL      203
REMARK 921   NORMALIZED FREE ENERGY PREDICTED BY IDOCK:   -3.63 KCAL/MOL
REMARK 922        TOTAL FREE ENERGY PREDICTED BY IDOCK:   -5.40 KCAL/MOL
REMARK 923 INTER-LIGAND FREE ENERGY PREDICTED BY IDOCK:   -4.86 KCAL/MOL
REMARK 924 INTRA-LIGAND FREE ENERGY PREDICTED BY IDOCK:   -0.53 KCAL/MOL
REMARK 927      BINDING AFFINITY PREDICTED BY RF-SCORE:    0.00 PKD
ROOT
HETATM    1  C   UNL     1      -8.069  15.219  67.102  1.00  0.00    -0.216 C  
HETATM    2  O   UNL     1      -9.483  15.320  67.247  1.00  0.00    -0.203 OA 
ENDROOT
BRANCH   2   3
HETATM    3  C   UNL     1     -10.106  14.322  67.943  1.00  0.00    -0.233 A  
HETATM    4  C   UNL     1      -9.625  13.026  68.114  1.00  0.00    -0.227 A  
HETATM    5  C   UNL     1     -10.344  12.050  68.841  1.00  0.00    -0.117 A  
HETATM    6  C   UNL     1     -11.577  12.426  69.417  1.00  0.00    -0.307 A  
HETATM    7  C   UNL     1     -12.058  13.731  69.246  1.00  0.00    -0.374 A  
HETATM    8  C   UNL     1     -11.327  14.670  68.513  1.00  0.00    -0.305 A  
BRANCH   5   9
HETATM    9  C   UNL     1      -9.802  10.626  68.998  1.00  0.00    -0.205 C  
HETATM   10  O   UNL     1      -9.841  10.215  70.374  1.00  0.00    -0.393 OA 
HETATM   11  H   UNL     1      -9.505   9.332  70.472  1.00  0.00     0.000 HD 
BRANCH   9  12
HETATM   12  C   UNL     1     -10.585   9.559  68.207  1.00  0.00    -0.216 C  
BRANCH  12  13
HETATM   13  N   UNL     1     -11.070   8.444  68.991  1.00  0.00    -0.415 N  
HETATM   14  H   UNL     1     -11.848   8.569  69.638  1.00  0.00     0.000 HD 
HETATM   15  C   UNL     1     -10.469   7.210  68.856  1.00  0.00    -0.207 C  
HETATM   16  O   UNL     1      -9.473   7.019  68.161  1.00  0.00    -0.126 OA 
BRANCH  15  17
HETATM   17  C   UNL     1     -11.154   6.076  69.621  1.00  0.00    -0.404 C  
HETATM   18  N   UNL     1     -10.164   5.193  70.264  1.00  0.00    -0.265 NA 
HETATM   19  H1  UNL     1     -10.622   4.437  70.774  1.00  0.00     0.000 HD 
HETATM   20  H2  UNL     1      -9.527   5.718  70.862  1.00  0.00     0.000 HD 
ENDBRANCH  15  17
ENDBRANCH  12  13
ENDBRANCH   9  12
ENDBRANCH   5   9
BRANCH   6  21
HETATM   21  O   UNL     1     -12.238  11.451  70.117  1.00  0.00    -0.317 OA 
HETATM   22  C   UNL     1     -12.804  11.813  71.373  1.00  0.00    -0.335 C  
ENDBRANCH   6  21
ENDBRANCH   2   3
TORSDOF 6
ENDMDL
MODEL      204
REMARK 921   NORMALIZED FREE ENERGY PREDICTED BY IDOCK:   -3.62 KCAL/MOL
REMARK 922        TOTAL FREE ENERGY PREDICTED BY IDOCK:   -5.39 KCAL/MOL
REMARK 923 INTER-LIGAND FREE ENERGY PREDICTED BY IDOCK:   -4.98 KCAL/MOL
REMARK 924 INTRA-LIGAND FREE ENERGY PREDICTED BY IDOCK:   -0.42 KCAL/MOL
REMARK 927      BINDING AFFINITY PREDICTED BY RF-SCORE:    0.00 PKD
ROOT
HETATM    1  C   UNL     1     -11.108  11.740  63.348  1.00  0.00    -0.365 C  
HETATM    2  O   UNL     1     -10.828  10.996  64.530  1.00  0.00    -0.313 OA 
ENDROOT
BRANCH   2   3
HETATM    3  C   UNL     1     -10.026  11.594  65.462  1.00  0.00    -0.242 A  
HETATM    4  C   UNL     1     -10.266  12.821  66.075  1.00  0.00    -0.290 A  
HETATM    5  C   UNL     1      -9.372  13.373  67.021  1.00  0.00    -0.243 A  
HETATM    6  C   UNL     1      -8.216  12.634  67.352  1.00  0.00    -0.184 A  
HETATM    7  C   UNL     1      -7.978  11.399  66.736  1.00  0.00    -0.160 A  
HETATM    8  C   UNL     1      -8.876  10.884  65.797  1.00  0.00    -0.202 A  
BRANCH   5   9
HETATM    9  C   UNL     1      -9.651  14.734  67.667  1.00  0.00    -0.208 C  
HETATM   10  O   UNL     1      -9.296  14.719  69.059  1.00  0.00    -0.246 OA 
HETATM   11  H   UNL     1      -9.468  15.563  69.460  1.00  0.00     0.000 HD 
BRANCH   9  12
HETATM   12  C   UNL     1      -8.872  15.906  67.035  1.00  0.00    -0.215 C  
BRANCH  12  13
HETATM   13  N   UNL     1      -9.450  17.215  67.250  1.00  0.00    -0.241 N  
HETATM   14  H   UNL     1      -9.275  17.719  68.119  1.00  0.00     0.000 HD 
HETATM   15  C   UNL     1     -10.241  17.774  66.268  1.00  0.00    -0.364 C  
HETATM   16  O   UNL     1     -10.560  17.179  65.241  1.00  0.00    -0.662 OA 
BRANCH  15  17
HETATM   17  C   UNL     1     -10.676  19.215  66.539  1.00  0.00    -0.366 C  
HETATM   18  N   UNL     1     -10.507  19.564  67.961  1.00  0.00    -0.425 NA 
HETATM   19  H1  UNL     1     -10.797  20.526  68.142  1.00  0.00     0.000 HD 
HETATM   20  H2  UNL     1      -9.552  19.395  68.277  1.00  0.00     0.000 HD 
ENDBRANCH  15  17
ENDBRANCH  12  13
ENDBRANCH   9  12
ENDBRANCH   5   9
BRANCH   6  21
HETATM   21  O   UNL     1      -7.380  13.204  68.277  1.00  0.00    -0.097 OA 
HETATM   22  C   UNL     1      -6.079  13.586  67.841  1.00  0.00    -0.151 C  
ENDBRANCH   6  21
ENDBRANCH   2   3
TORSDOF 6
ENDMDL
MODEL      205
REMARK 921   NORMALIZED FREE ENERGY PREDICTED BY IDOCK:   -3.62 KCAL/MOL
REMARK 922        TOTAL FREE ENERGY PREDICTED BY IDOCK:   -5.38 KCAL/MOL
REMARK 923 INTER-LIGAND FREE ENERGY PREDICTED BY IDOCK:   -4.71 KCAL/MOL
REMARK 924 INTRA-LIGAND FREE ENERGY PREDICTED BY IDOCK:   -0.67 KCAL/MOL
REMARK 927      BINDING AFFINITY PREDICTED BY RF-SCORE:    0.00 PKD
ROOT
HETATM    1  C   UNL     1     -13.599  15.034  70.921  1.00  0.00    -0.307 C  
HETATM    2  O   UNL     1     -12.539  15.965  70.721  1.00  0.00    -0.411 OA 
ENDROOT
BRANCH   2   3
HETATM    3  C   UNL     1     -11.654  15.689  69.717  1.00  0.00    -0.352 A  
HETATM    4  C   UNL     1     -11.932  15.736  68.352  1.00  0.00    -0.039 A  
HETATM    5  C   UNL     1     -10.956  15.420  67.378  1.00  0.00    -0.312 A  
HETATM    6  C   UNL     1      -9.664  15.065  67.824  1.00  0.00    -0.215 A  
HETATM    7  C   UNL     1      -9.387  15.022  69.196  1.00  0.00    -0.189 A  
HETATM    8  C   UNL     1     -10.376  15.330  70.134  1.00  0.00    -0.210 A  
BRANCH   5   9
HETATM    9  C   UNL     1     -11.293  15.461  65.885  1.00  0.00    -0.104 C  
HETATM   10  O   UNL     1     -10.139  15.832  65.112  1.00  0.00    -0.418 OA 
HETATM   11  H   UNL     1     -10.347  15.857  64.186  1.00  0.00     0.000 HD 
BRANCH   9  12
HETATM   12  C   UNL     1     -11.783  14.117  65.309  1.00  0.00    -0.353 C  
BRANCH  12  13
HETATM   13  N   UNL     1     -10.812  13.046  65.336  1.00  0.00    -0.280 N  
HETATM   14  H   UNL     1     -10.049  13.025  64.659  1.00  0.00     0.000 HD 
HETATM   15  C   UNL     1     -10.927  12.052  66.285  1.00  0.00    -0.299 C  
HETATM   16  O   UNL     1     -11.873  11.975  67.067  1.00  0.00    -0.573 OA 
BRANCH  15  17
HETATM   17  C   UNL     1      -9.767  11.055  66.314  1.00  0.00    -0.207 C  
HETATM   18  N   UNL     1      -9.185  10.955  67.665  1.00  0.00    -0.151 NA 
HETATM   19  H1  UNL     1      -8.411  10.290  67.684  1.00  0.00     0.000 HD 
HETATM   20  H2  UNL     1      -9.893  10.726  68.362  1.00  0.00     0.000 HD 
ENDBRANCH  15  17
ENDBRANCH  12  13
ENDBRANCH   9  12
ENDBRANCH   5   9
BRANCH   6  21
HETATM   21  O   UNL     1      -8.749  14.773  66.847  1.00  0.00    -0.224 OA 
HETATM   22  C   UNL     1      -7.603  14.016  67.225  1.00  0.00    -0.070 C  
ENDBRANCH   6  21
ENDBRANCH   2   3
TORSDOF 6
ENDMDL
MODEL      206
REMARK 921   NORMALIZED FREE ENERGY PREDICTED BY IDOCK:   -3.62 KCAL/MOL
REMARK 922        TOTAL FREE ENERGY PREDICTED BY IDOCK:   -5.38 KCAL/MOL
REMARK 923 INTER-LIGAND FREE ENERGY PREDICTED BY IDOCK:   -5.03 KCAL/MOL
REMARK 924 INTRA-LIGAND FREE ENERGY PREDICTED BY IDOCK:   -0.35 KCAL/MOL
REMARK 927      BINDING AFFINITY PREDICTED BY RF-SCORE:    0.00 PKD
ROOT
HETATM    1  C   UNL     1     -11.604  15.098  68.088  1.00  0.00    -0.341 C  
HETATM    2  O   UNL     1     -11.939  14.613  69.385  1.00  0.00    -0.302 OA 
ENDROOT
BRANCH   2   3
HETATM    3  C   UNL     1     -11.795  13.270  69.600  1.00  0.00    -0.327 A  
HETATM    4  C   UNL     1     -11.022  12.402  68.832  1.00  0.00    -0.268 A  
HETATM    5  C   UNL     1     -10.940  11.020  69.118  1.00  0.00    -0.289 A  
HETATM    6  C   UNL     1     -11.659  10.529  70.230  1.00  0.00    -0.332 A  
HETATM    7  C   UNL     1     -12.433  11.404  71.002  1.00  0.00    -0.486 A  
HETATM    8  C   UNL     1     -12.500  12.765  70.687  1.00  0.00    -0.328 A  
BRANCH   5   9
HETATM    9  C   UNL     1     -10.098  10.083  68.246  1.00  0.00    -0.158 C  
HETATM   10  O   UNL     1      -9.447   9.087  69.051  1.00  0.00    -0.153 OA 
HETATM   11  H   UNL     1      -8.925   8.505  68.510  1.00  0.00     0.000 HD 
BRANCH   9  12
HETATM   12  C   UNL     1     -10.905   9.316  67.178  1.00  0.00    -0.043 C  
BRANCH  12  13
HETATM   13  N   UNL     1     -10.155   8.328  66.434  1.00  0.00    -0.452 N  
HETATM   14  H   UNL     1      -9.573   8.610  65.645  1.00  0.00     0.000 HD 
HETATM   15  C   UNL     1     -10.234   7.001  66.800  1.00  0.00    -0.211 C  
HETATM   16  O   UNL     1     -10.986   6.590  67.682  1.00  0.00    -0.304 OA 
BRANCH  15  17
HETATM   17  C   UNL     1      -9.289   6.068  66.040  1.00  0.00    -0.076 C  
HETATM   18  N   UNL     1      -8.540   6.800  65.003  1.00  0.00    -0.349 NA 
HETATM   19  H1  UNL     1      -7.910   6.177  64.496  1.00  0.00     0.000 HD 
HETATM   20  H2  UNL     1      -8.044   7.600  65.393  1.00  0.00     0.000 HD 
ENDBRANCH  15  17
ENDBRANCH  12  13
ENDBRANCH   9  12
ENDBRANCH   5   9
BRANCH   6  21
HETATM   21  O   UNL     1     -11.547   9.185  70.474  1.00  0.00    -0.263 OA 
HETATM   22  C   UNL     1     -11.637   8.753  71.828  1.00  0.00    -0.346 C  
ENDBRANCH   6  21
ENDBRANCH   2   3
TORSDOF 6
ENDMDL
MODEL      207
REMARK 921   NORMALIZED FREE ENERGY PREDICTED BY IDOCK:   -3.60 KCAL/MOL
REMARK 922        TOTAL FREE ENERGY PREDICTED BY IDOCK:   -5.35 KCAL/MOL
REMARK 923 INTER-LIGAND FREE ENERGY PREDICTED BY IDOCK:   -4.76 KCAL/MOL
REMARK 924 INTRA-LIGAND FREE ENERGY PREDICTED BY IDOCK:   -0.59 KCAL/MOL
REMARK 927      BINDING AFFINITY PREDICTED BY RF-SCORE:    0.00 PKD
ROOT
HETATM    1  C   UNL     1      -5.629  15.649  68.777  1.00  0.00    -0.096 C  
HETATM    2  O   UNL     1      -6.573  14.589  68.901  1.00  0.00    -0.086 OA 
ENDROOT
BRANCH   2   3
HETATM    3  C   UNL     1      -7.786  14.767  68.296  1.00  0.00    -0.125 A  
HETATM    4  C   UNL     1      -8.598  15.893  68.417  1.00  0.00    -0.178 A  
HETATM    5  C   UNL     1      -9.848  15.988  67.764  1.00  0.00    -0.231 A  
HETATM    6  C   UNL     1     -10.260  14.904  66.957  1.00  0.00    -0.256 A  
HETATM    7  C   UNL     1      -9.441  13.775  66.836  1.00  0.00    -0.265 A  
HETATM    8  C   UNL     1      -8.214  13.707  67.502  1.00  0.00    -0.189 A  
BRANCH   5   9
HETATM    9  C   UNL     1     -10.730  17.229  67.928  1.00  0.00    -0.351 C  
HETATM   10  O   UNL     1     -10.524  17.835  69.215  1.00  0.00    -0.426 OA 
HETATM   11  H   UNL     1     -11.070  18.605  69.317  1.00  0.00     0.000 HD 
BRANCH   9  12
HETATM   12  C   UNL     1     -10.468  18.334  66.884  1.00  0.00    -0.373 C  
BRANCH  12  13
HETATM   13  N   UNL     1      -9.082  18.515  66.515  1.00  0.00    -0.296 N  
HETATM   14  H   UNL     1      -8.664  17.937  65.786  1.00  0.00     0.000 HD 
HETATM   15  C   UNL     1      -8.330  19.476  67.157  1.00  0.00    -0.290 C  
HETATM   16  O   UNL     1      -8.752  20.140  68.103  1.00  0.00    -0.223 OA 
BRANCH  15  17
HETATM   17  C   UNL     1      -6.925  19.679  66.587  1.00  0.00    -0.204 C  
HETATM   18  N   UNL     1      -6.844  19.207  65.193  1.00  0.00    -0.467 NA 
HETATM   19  H1  UNL     1      -5.906  19.342  64.812  1.00  0.00     0.000 HD 
HETATM   20  H2  UNL     1      -7.554  19.645  64.606  1.00  0.00     0.000 HD 
ENDBRANCH  15  17
ENDBRANCH  12  13
ENDBRANCH   9  12
ENDBRANCH   5   9
BRANCH   6  21
HETATM   21  O   UNL     1     -11.475  15.040  66.339  1.00  0.00    -0.321 OA 
HETATM   22  C   UNL     1     -11.614  14.488  65.034  1.00  0.00    -0.382 C  
ENDBRANCH   6  21
ENDBRANCH   2   3
TORSDOF 6
ENDMDL
MODEL      208
REMARK 921   NORMALIZED FREE ENERGY PREDICTED BY IDOCK:   -3.59 KCAL/MOL
REMARK 922        TOTAL FREE ENERGY PREDICTED BY IDOCK:   -5.35 KCAL/MOL
REMARK 923 INTER-LIGAND FREE ENERGY PREDICTED BY IDOCK:   -5.57 KCAL/MOL
REMARK 924 INTRA-LIGAND FREE ENERGY PREDICTED BY IDOCK:    0.22 KCAL/MOL
REMARK 927      BINDING AFFINITY PREDICTED BY RF-SCORE:    0.00 PKD
ROOT
HETATM    1  C   UNL     1     -12.791  14.211  65.613  1.00  0.00    -0.371 C  
HETATM    2  O   UNL     1     -12.798  13.000  64.862  1.00  0.00    -0.706 OA 
ENDROOT
BRANCH   2   3
HETATM    3  C   UNL     1     -11.629  12.291  64.821  1.00  0.00    -0.337 A  
HETATM    4  C   UNL     1     -10.702  12.191  65.856  1.00  0.00    -0.302 A  
HETATM    5  C   UNL     1      -9.509  11.445  65.723  1.00  0.00    -0.256 A  
HETATM    6  C   UNL     1      -9.278  10.776  64.501  1.00  0.00    -0.220 A  
HETATM    7  C   UNL     1     -10.213  10.876  63.463  1.00  0.00    -0.379 A  
HETATM    8  C   UNL     1     -11.379  11.629  63.623  1.00  0.00    -0.485 A  
BRANCH   5   9
HETATM    9  C   UNL     1      -8.497  11.366  66.869  1.00  0.00    -0.157 C  
HETATM   10  O   UNL     1      -7.175  11.691  66.407  1.00  0.00    -0.357 OA 
HETATM   11  H   UNL     1      -6.548  11.643  67.118  1.00  0.00     0.000 HD 
BRANCH   9  12
HETATM   12  C   UNL     1      -8.791  12.326  68.041  1.00  0.00    -0.182 C  
BRANCH  12  13
HETATM   13  N   UNL     1     -10.093  12.171  68.650  1.00  0.00    -0.346 N  
HETATM   14  H   UNL     1     -10.453  11.242  68.867  1.00  0.00     0.000 HD 
HETATM   15  C   UNL     1     -10.845  13.292  68.936  1.00  0.00    -0.210 C  
HETATM   16  O   UNL     1     -10.504  14.429  68.617  1.00  0.00    -0.234 OA 
BRANCH  15  17
HETATM   17  C   UNL     1     -12.135  13.018  69.710  1.00  0.00    -0.258 C  
HETATM   18  N   UNL     1     -11.987  11.851  70.598  1.00  0.00    -0.478 NA 
HETATM   19  H1  UNL     1     -12.848  11.669  71.114  1.00  0.00     0.000 HD 
HETATM   20  H2  UNL     1     -11.188  11.955  71.224  1.00  0.00     0.000 HD 
ENDBRANCH  15  17
ENDBRANCH  12  13
ENDBRANCH   9  12
ENDBRANCH   5   9
BRANCH   6  21
HETATM   21  O   UNL     1      -8.112  10.060  64.417  1.00  0.00    -0.145 OA 
HETATM   22  C   UNL     1      -8.139   8.704  64.854  1.00  0.00    -0.146 C  
ENDBRANCH   6  21
ENDBRANCH   2   3
TORSDOF 6
ENDMDL
MODEL      209
REMARK 921   NORMALIZED FREE ENERGY PREDICTED BY IDOCK:   -3.59 KCAL/MOL
REMARK 922        TOTAL FREE ENERGY PREDICTED BY IDOCK:   -5.34 KCAL/MOL
REMARK 923 INTER-LIGAND FREE ENERGY PREDICTED BY IDOCK:   -4.76 KCAL/MOL
REMARK 924 INTRA-LIGAND FREE ENERGY PREDICTED BY IDOCK:   -0.58 KCAL/MOL
REMARK 927      BINDING AFFINITY PREDICTED BY RF-SCORE:    0.00 PKD
ROOT
HETATM    1  C   UNL     1      -6.342  12.025  69.382  1.00  0.00    -0.116 C  
HETATM    2  O   UNL     1      -6.926  10.861  69.960  1.00  0.00    -0.144 OA 
ENDROOT
BRANCH   2   3
HETATM    3  C   UNL     1      -7.800  10.155  69.180  1.00  0.00    -0.120 A  
HETATM    4  C   UNL     1      -9.008  10.631  68.677  1.00  0.00    -0.170 A  
HETATM    5  C   UNL     1      -9.860   9.826  67.887  1.00  0.00    -0.176 A  
HETATM    6  C   UNL     1      -9.446   8.507  67.598  1.00  0.00    -0.145 A  
HETATM    7  C   UNL     1      -8.230   8.031  68.103  1.00  0.00    -0.126 A  
HETATM    8  C   UNL     1      -7.414   8.850  68.889  1.00  0.00    -0.082 A  
BRANCH   5   9
HETATM    9  C   UNL     1     -11.193  10.368  67.362  1.00  0.00    -0.129 C  
HETATM   10  O   UNL     1     -12.046  10.764  68.448  1.00  0.00    -0.805 OA 
HETATM   11  H   UNL     1     -12.872  11.101  68.122  1.00  0.00     0.000 HD 
BRANCH   9  12
HETATM   12  C   UNL     1     -11.058  11.603  66.447  1.00  0.00    -0.291 C  
BRANCH  12  13
HETATM   13  N   UNL     1     -11.679  12.809  66.947  1.00  0.00    -0.365 N  
HETATM   14  H   UNL     1     -12.695  12.889  66.980  1.00  0.00     0.000 HD 
HETATM   15  C   UNL     1     -10.885  13.850  67.379  1.00  0.00    -0.285 C  
HETATM   16  O   UNL     1      -9.659  13.847  67.281  1.00  0.00    -0.230 OA 
BRANCH  15  17
HETATM   17  C   UNL     1     -11.644  15.012  68.022  1.00  0.00    -0.338 C  
HETATM   18  N   UNL     1     -12.471  14.549  69.151  1.00  0.00    -0.575 NA 
HETATM   19  H1  UNL     1     -12.978  15.324  69.579  1.00  0.00     0.000 HD 
HETATM   20  H2  UNL     1     -11.915  14.038  69.837  1.00  0.00     0.000 HD 
ENDBRANCH  15  17
ENDBRANCH  12  13
ENDBRANCH   9  12
ENDBRANCH   5   9
BRANCH   6  21
HETATM   21  O   UNL     1     -10.299   7.763  66.825  1.00  0.00    -0.301 OA 
HETATM   22  C   UNL     1     -10.940   6.649  67.438  1.00  0.00    -0.360 C  
ENDBRANCH   6  21
ENDBRANCH   2   3
TORSDOF 6
ENDMDL
MODEL      210
REMARK 921   NORMALIZED FREE ENERGY PREDICTED BY IDOCK:   -3.59 KCAL/MOL
REMARK 922        TOTAL FREE ENERGY PREDICTED BY IDOCK:   -5.34 KCAL/MOL
REMARK 923 INTER-LIGAND FREE ENERGY PREDICTED BY IDOCK:   -4.83 KCAL/MOL
REMARK 924 INTRA-LIGAND FREE ENERGY PREDICTED BY IDOCK:   -0.51 KCAL/MOL
REMARK 927      BINDING AFFINITY PREDICTED BY RF-SCORE:    0.00 PKD
ROOT
HETATM    1  C   UNL     1     -11.588  10.872  69.109  1.00  0.00    -0.319 C  
HETATM    2  O   UNL     1     -12.020  10.427  70.392  1.00  0.00    -0.275 OA 
ENDROOT
BRANCH   2   3
HETATM    3  C   UNL     1     -11.577   9.200  70.802  1.00  0.00    -0.276 A  
HETATM    4  C   UNL     1     -10.906   8.271  70.010  1.00  0.00    -0.232 A  
HETATM    5  C   UNL     1     -10.494   7.016  70.513  1.00  0.00    -0.227 A  
HETATM    6  C   UNL     1     -10.768   6.722  71.867  1.00  0.00    -0.223 A  
HETATM    7  C   UNL     1     -11.440   7.659  72.662  1.00  0.00    -0.403 A  
HETATM    8  C   UNL     1     -11.843   8.888  72.131  1.00  0.00    -0.417 A  
BRANCH   5   9
HETATM    9  C   UNL     1      -9.774   6.005  69.616  1.00  0.00    -0.152 C  
HETATM   10  O   UNL     1     -10.319   4.687  69.794  1.00  0.00    -0.182 OA 
HETATM   11  H   UNL     1      -9.873   4.060  69.237  1.00  0.00     0.000 HD 
BRANCH   9  12
HETATM   12  C   UNL     1      -9.874   6.313  68.108  1.00  0.00    -0.129 C  
BRANCH  12  13
HETATM   13  N   UNL     1     -10.054   5.158  67.255  1.00  0.00    -0.189 N  
HETATM   14  H   UNL     1     -10.620   4.370  67.568  1.00  0.00     0.000 HD 
HETATM   15  C   UNL     1      -9.450   5.132  66.015  1.00  0.00    -0.160 C  
HETATM   16  O   UNL     1      -8.685   6.010  65.621  1.00  0.00    -0.153 OA 
BRANCH  15  17
HETATM   17  C   UNL     1      -9.827   3.933  65.144  1.00  0.00    -0.184 C  
HETATM   18  N   UNL     1     -11.162   4.108  64.544  1.00  0.00    -0.819 NA 
HETATM   19  H1  UNL     1     -11.413   3.308  63.963  1.00  0.00     0.000 HD 
HETATM   20  H2  UNL     1     -11.227   4.984  64.025  1.00  0.00     0.000 HD 
ENDBRANCH  15  17
ENDBRANCH  12  13
ENDBRANCH   9  12
ENDBRANCH   5   9
BRANCH   6  21
HETATM   21  O   UNL     1     -10.347   5.497  72.315  1.00  0.00    -0.196 OA 
HETATM   22  C   UNL     1     -10.767   5.092  73.614  1.00  0.00    -0.293 C  
ENDBRANCH   6  21
ENDBRANCH   2   3
TORSDOF 6
ENDMDL
MODEL      211
REMARK 921   NORMALIZED FREE ENERGY PREDICTED BY IDOCK:   -3.59 KCAL/MOL
REMARK 922        TOTAL FREE ENERGY PREDICTED BY IDOCK:   -5.34 KCAL/MOL
REMARK 923 INTER-LIGAND FREE ENERGY PREDICTED BY IDOCK:   -4.74 KCAL/MOL
REMARK 924 INTRA-LIGAND FREE ENERGY PREDICTED BY IDOCK:   -0.60 KCAL/MOL
REMARK 927      BINDING AFFINITY PREDICTED BY RF-SCORE:    0.00 PKD
ROOT
HETATM    1  C   UNL     1      -7.473  18.264  67.648  1.00  0.00    -0.216 C  
HETATM    2  O   UNL     1      -6.384  17.349  67.566  1.00  0.00    -0.139 OA 
ENDROOT
BRANCH   2   3
HETATM    3  C   UNL     1      -6.645  16.046  67.884  1.00  0.00    -0.144 A  
HETATM    4  C   UNL     1      -7.868  15.398  67.720  1.00  0.00    -0.158 A  
HETATM    5  C   UNL     1      -8.054  14.046  68.091  1.00  0.00    -0.151 A  
HETATM    6  C   UNL     1      -6.951  13.346  68.626  1.00  0.00    -0.101 A  
HETATM    7  C   UNL     1      -5.723  13.999  68.788  1.00  0.00    -0.085 A  
HETATM    8  C   UNL     1      -5.573  15.340  68.420  1.00  0.00    -0.108 A  
BRANCH   5   9
HETATM    9  C   UNL     1      -9.414  13.362  67.917  1.00  0.00    -0.216 C  
HETATM   10  O   UNL     1     -10.086  13.235  69.181  1.00  0.00    -0.424 OA 
HETATM   11  H   UNL     1     -10.929  12.812  69.073  1.00  0.00     0.000 HD 
BRANCH   9  12
HETATM   12  C   UNL     1     -10.386  14.114  66.985  1.00  0.00    -0.267 C  
BRANCH  12  13
HETATM   13  N   UNL     1     -10.501  13.571  65.649  1.00  0.00    -0.286 N  
HETATM   14  H   UNL     1      -9.936  13.950  64.889  1.00  0.00     0.000 HD 
HETATM   15  C   UNL     1     -11.381  12.536  65.413  1.00  0.00    -0.325 C  
HETATM   16  O   UNL     1     -12.151  12.099  66.266  1.00  0.00    -0.626 OA 
BRANCH  15  17
HETATM   17  C   UNL     1     -11.313  11.946  64.003  1.00  0.00    -0.397 C  
HETATM   18  N   UNL     1     -12.565  12.184  63.264  1.00  0.00    -0.845 NA 
HETATM   19  H1  UNL     1     -12.519  11.790  62.324  1.00  0.00     0.000 HD 
HETATM   20  H2  UNL     1     -12.806  13.175  63.245  1.00  0.00     0.000 HD 
ENDBRANCH  15  17
ENDBRANCH  12  13
ENDBRANCH   9  12
ENDBRANCH   5   9
BRANCH   6  21
HETATM   21  O   UNL     1      -7.175  12.038  68.966  1.00  0.00    -0.108 OA 
HETATM   22  C   UNL     1      -6.285  11.442  69.906  1.00  0.00    -0.143 C  
ENDBRANCH   6  21
ENDBRANCH   2   3
TORSDOF 6
ENDMDL
MODEL      212
REMARK 921   NORMALIZED FREE ENERGY PREDICTED BY IDOCK:   -3.58 KCAL/MOL
REMARK 922        TOTAL FREE ENERGY PREDICTED BY IDOCK:   -5.33 KCAL/MOL
REMARK 923 INTER-LIGAND FREE ENERGY PREDICTED BY IDOCK:   -4.81 KCAL/MOL
REMARK 924 INTRA-LIGAND FREE ENERGY PREDICTED BY IDOCK:   -0.52 KCAL/MOL
REMARK 927      BINDING AFFINITY PREDICTED BY RF-SCORE:    0.00 PKD
ROOT
HETATM    1  C   UNL     1      -8.326   4.860  66.008  1.00  0.00    -0.113 C  
HETATM    2  O   UNL     1      -9.554   5.526  66.287  1.00  0.00    -0.154 OA 
ENDROOT
BRANCH   2   3
HETATM    3  C   UNL     1      -9.483   6.667  67.036  1.00  0.00    -0.144 A  
HETATM    4  C   UNL     1     -10.353   7.752  66.950  1.00  0.00    -0.396 A  
HETATM    5  C   UNL     1     -10.197   8.902  67.757  1.00  0.00    -0.283 A  
HETATM    6  C   UNL     1      -9.131   8.924  68.683  1.00  0.00    -0.137 A  
HETATM    7  C   UNL     1      -8.259   7.831  68.769  1.00  0.00    -0.128 A  
HETATM    8  C   UNL     1      -8.435   6.712  67.950  1.00  0.00    -0.119 A  
BRANCH   5   9
HETATM    9  C   UNL     1     -11.156  10.089  67.631  1.00  0.00    -0.153 C  
HETATM   10  O   UNL     1     -11.667  10.472  68.918  1.00  0.00    -0.452 OA 
HETATM   11  H   UNL     1     -12.261  11.209  68.840  1.00  0.00     0.000 HD 
BRANCH   9  12
HETATM   12  C   UNL     1     -10.519  11.357  67.025  1.00  0.00    -0.236 C  
BRANCH  12  13
HETATM   13  N   UNL     1     -10.772  11.559  65.615  1.00  0.00    -0.273 N  
HETATM   14  H   UNL     1     -10.174  11.118  64.917  1.00  0.00     0.000 HD 
HETATM   15  C   UNL     1     -11.829  12.353  65.224  1.00  0.00    -0.399 C  
HETATM   16  O   UNL     1     -12.528  12.982  66.017  1.00  0.00    -0.463 OA 
BRANCH  15  17
HETATM   17  C   UNL     1     -12.090  12.377  63.717  1.00  0.00    -0.529 C  
HETATM   18  N   UNL     1     -10.834  12.526  62.961  1.00  0.00    -0.559 NA 
HETATM   19  H1  UNL     1     -11.009  12.542  61.956  1.00  0.00     0.000 HD 
HETATM   20  H2  UNL     1     -10.157  11.806  63.214  1.00  0.00     0.000 HD 
ENDBRANCH  15  17
ENDBRANCH  12  13
ENDBRANCH   9  12
ENDBRANCH   5   9
BRANCH   6  21
HETATM   21  O   UNL     1      -9.020  10.056  69.448  1.00  0.00    -0.169 OA 
HETATM   22  C   UNL     1      -7.751  10.701  69.488  1.00  0.00    -0.106 C  
ENDBRANCH   6  21
ENDBRANCH   2   3
TORSDOF 6
ENDMDL
MODEL      213
REMARK 921   NORMALIZED FREE ENERGY PREDICTED BY IDOCK:   -3.55 KCAL/MOL
REMARK 922        TOTAL FREE ENERGY PREDICTED BY IDOCK:   -5.30 KCAL/MOL
REMARK 923 INTER-LIGAND FREE ENERGY PREDICTED BY IDOCK:   -4.45 KCAL/MOL
REMARK 924 INTRA-LIGAND FREE ENERGY PREDICTED BY IDOCK:   -0.84 KCAL/MOL
REMARK 927      BINDING AFFINITY PREDICTED BY RF-SCORE:    0.00 PKD
ROOT
HETATM    1  C   UNL     1     -12.019   7.269  72.027  1.00  0.00    -0.296 C  
HETATM    2  O   UNL     1     -11.395   8.493  72.407  1.00  0.00    -0.366 OA 
ENDROOT
BRANCH   2   3
HETATM    3  C   UNL     1     -10.664   9.138  71.449  1.00  0.00    -0.343 A  
HETATM    4  C   UNL     1     -11.162  10.057  70.528  1.00  0.00    -0.408 A  
HETATM    5  C   UNL     1     -10.334  10.669  69.559  1.00  0.00    -0.214 A  
HETATM    6  C   UNL     1      -8.962  10.336  69.553  1.00  0.00    -0.157 A  
HETATM    7  C   UNL     1      -8.464   9.414  70.482  1.00  0.00    -0.251 A  
HETATM    8  C   UNL     1      -9.310   8.819  71.422  1.00  0.00    -0.328 A  
BRANCH   5   9
HETATM    9  C   UNL     1     -10.910  11.662  68.545  1.00  0.00    -0.219 C  
HETATM   10  O   UNL     1      -9.991  12.742  68.311  1.00  0.00    -0.223 OA 
HETATM   11  H   UNL     1     -10.348  13.358  67.682  1.00  0.00     0.000 HD 
BRANCH   9  12
HETATM   12  C   UNL     1     -11.216  11.050  67.162  1.00  0.00    -0.217 C  
BRANCH  12  13
HETATM   13  N   UNL     1     -10.066  10.853  66.308  1.00  0.00    -0.226 N  
HETATM   14  H   UNL     1      -9.585  11.654  65.899  1.00  0.00     0.000 HD 
HETATM   15  C   UNL     1      -9.624   9.572  66.053  1.00  0.00    -0.251 C  
HETATM   16  O   UNL     1     -10.214   8.566  66.443  1.00  0.00    -0.273 OA 
BRANCH  15  17
HETATM   17  C   UNL     1      -8.318   9.490  65.261  1.00  0.00    -0.139 C  
HETATM   18  N   UNL     1      -7.476  10.677  65.498  1.00  0.00    -0.299 NA 
HETATM   19  H1  UNL     1      -6.605  10.622  64.969  1.00  0.00     0.000 HD 
HETATM   20  H2  UNL     1      -7.304  10.821  66.493  1.00  0.00     0.000 HD 
ENDBRANCH  15  17
ENDBRANCH  12  13
ENDBRANCH   9  12
ENDBRANCH   5   9
BRANCH   6  21
HETATM   21  O   UNL     1      -8.195  10.956  68.601  1.00  0.00    -0.130 OA 
HETATM   22  C   UNL     1      -6.930  11.469  69.007  1.00  0.00    -0.112 C  
ENDBRANCH   6  21
ENDBRANCH   2   3
TORSDOF 6
ENDMDL
MODEL      214
REMARK 921   NORMALIZED FREE ENERGY PREDICTED BY IDOCK:   -3.54 KCAL/MOL
REMARK 922        TOTAL FREE ENERGY PREDICTED BY IDOCK:   -5.28 KCAL/MOL
REMARK 923 INTER-LIGAND FREE ENERGY PREDICTED BY IDOCK:   -4.75 KCAL/MOL
REMARK 924 INTRA-LIGAND FREE ENERGY PREDICTED BY IDOCK:   -0.53 KCAL/MOL
REMARK 927      BINDING AFFINITY PREDICTED BY RF-SCORE:    0.00 PKD
ROOT
HETATM    1  C   UNL     1     -12.721  14.671  71.751  1.00  0.00    -0.336 C  
HETATM    2  O   UNL     1     -12.865  14.746  70.335  1.00  0.00    -0.337 OA 
ENDROOT
BRANCH   2   3
HETATM    3  C   UNL     1     -11.730  14.981  69.610  1.00  0.00    -0.321 A  
HETATM    4  C   UNL     1     -11.018  14.030  68.882  1.00  0.00    -0.283 A  
HETATM    5  C   UNL     1      -9.842  14.359  68.170  1.00  0.00    -0.223 A  
HETATM    6  C   UNL     1      -9.403  15.701  68.196  1.00  0.00    -0.194 A  
HETATM    7  C   UNL     1     -10.123  16.656  68.926  1.00  0.00    -0.274 A  
HETATM    8  C   UNL     1     -11.277  16.297  69.628  1.00  0.00    -0.311 A  
BRANCH   5   9
HETATM    9  C   UNL     1      -9.067  13.291  67.393  1.00  0.00    -0.216 C  
HETATM   10  O   UNL     1      -8.417  12.377  68.292  1.00  0.00    -0.171 OA 
HETATM   11  H   UNL     1      -7.937  11.714  67.811  1.00  0.00     0.000 HD 
BRANCH   9  12
HETATM   12  C   UNL     1      -9.941  12.428  66.459  1.00  0.00    -0.230 C  
BRANCH  12  13
HETATM   13  N   UNL     1      -9.829  11.000  66.658  1.00  0.00    -0.195 N  
HETATM   14  H   UNL     1      -9.003  10.497  66.335  1.00  0.00     0.000 HD 
HETATM   15  C   UNL     1     -10.852  10.323  67.290  1.00  0.00    -0.250 C  
HETATM   16  O   UNL     1     -11.909  10.858  67.621  1.00  0.00    -0.572 OA 
BRANCH  15  17
HETATM   17  C   UNL     1     -10.564   8.849  67.578  1.00  0.00    -0.237 C  
HETATM   18  N   UNL     1      -9.863   8.684  68.864  1.00  0.00    -0.174 NA 
HETATM   19  H1  UNL     1      -9.671   7.700  69.056  1.00  0.00     0.000 HD 
HETATM   20  H2  UNL     1     -10.376   9.123  69.629  1.00  0.00     0.000 HD 
ENDBRANCH  15  17
ENDBRANCH  12  13
ENDBRANCH   9  12
ENDBRANCH   5   9
BRANCH   6  21
HETATM   21  O   UNL     1      -8.263  15.976  67.487  1.00  0.00    -0.143 OA 
HETATM   22  C   UNL     1      -8.340  16.983  66.482  1.00  0.00    -0.278 C  
ENDBRANCH   6  21
ENDBRANCH   2   3
TORSDOF 6
ENDMDL
MODEL      215
REMARK 921   NORMALIZED FREE ENERGY PREDICTED BY IDOCK:   -3.52 KCAL/MOL
REMARK 922        TOTAL FREE ENERGY PREDICTED BY IDOCK:   -5.25 KCAL/MOL
REMARK 923 INTER-LIGAND FREE ENERGY PREDICTED BY IDOCK:   -4.78 KCAL/MOL
REMARK 924 INTRA-LIGAND FREE ENERGY PREDICTED BY IDOCK:   -0.47 KCAL/MOL
REMARK 927      BINDING AFFINITY PREDICTED BY RF-SCORE:    0.00 PKD
ROOT
HETATM    1  C   UNL     1      -5.996  10.145  70.758  1.00  0.00    -0.093 C  
HETATM    2  O   UNL     1      -6.815   9.518  71.741  1.00  0.00    -0.305 OA 
ENDROOT
BRANCH   2   3
HETATM    3  C   UNL     1      -7.737   8.613  71.293  1.00  0.00    -0.118 A  
HETATM    4  C   UNL     1      -8.958   8.328  71.899  1.00  0.00    -0.249 A  
HETATM    5  C   UNL     1      -9.848   7.364  71.373  1.00  0.00    -0.194 A  
HETATM    6  C   UNL     1      -9.475   6.693  70.188  1.00  0.00    -0.158 A  
HETATM    7  C   UNL     1      -8.247   6.983  69.579  1.00  0.00    -0.132 A  
HETATM    8  C   UNL     1      -7.385   7.935  70.130  1.00  0.00    -0.070 A  
BRANCH   5   9
HETATM    9  C   UNL     1     -11.177   7.056  72.069  1.00  0.00    -0.253 C  
HETATM   10  O   UNL     1     -11.169   7.540  73.422  1.00  0.00    -0.574 OA 
HETATM   11  H   UNL     1     -11.993   7.350  73.853  1.00  0.00     0.000 HD 
BRANCH   9  12
HETATM   12  C   UNL     1     -12.409   7.692  71.391  1.00  0.00    -0.333 C  
BRANCH  12  13
HETATM   13  N   UNL     1     -12.287   9.102  71.092  1.00  0.00    -0.379 N  
HETATM   14  H   UNL     1     -11.601   9.426  70.410  1.00  0.00     0.000 HD 
HETATM   15  C   UNL     1     -13.106  10.004  71.738  1.00  0.00    -0.457 C  
HETATM   16  O   UNL     1     -13.887   9.684  72.632  1.00  0.00    -0.310 OA 
BRANCH  15  17
HETATM   17  C   UNL     1     -12.992  11.446  71.238  1.00  0.00    -0.316 C  
HETATM   18  N   UNL     1     -11.833  11.608  70.341  1.00  0.00    -0.474 NA 
HETATM   19  H1  UNL     1     -11.756  12.570  70.008  1.00  0.00     0.000 HD 
HETATM   20  H2  UNL     1     -11.861  10.943  69.568  1.00  0.00     0.000 HD 
ENDBRANCH  15  17
ENDBRANCH  12  13
ENDBRANCH   9  12
ENDBRANCH   5   9
BRANCH   6  21
HETATM   21  O   UNL     1     -10.369   5.770  69.710  1.00  0.00    -0.213 OA 
HETATM   22  C   UNL     1      -9.979   4.401  69.739  1.00  0.00    -0.154 C  
ENDBRANCH   6  21
ENDBRANCH   2   3
TORSDOF 6
ENDMDL
MODEL      216
REMARK 921   NORMALIZED FREE ENERGY PREDICTED BY IDOCK:   -3.51 KCAL/MOL
REMARK 922        TOTAL FREE ENERGY PREDICTED BY IDOCK:   -5.23 KCAL/MOL
REMARK 923 INTER-LIGAND FREE ENERGY PREDICTED BY IDOCK:   -4.65 KCAL/MOL
REMARK 924 INTRA-LIGAND FREE ENERGY PREDICTED BY IDOCK:   -0.58 KCAL/MOL
REMARK 927      BINDING AFFINITY PREDICTED BY RF-SCORE:    0.00 PKD
ROOT
HETATM    1  C   UNL     1      -9.389   4.061  64.237  1.00  0.00    -0.158 C  
HETATM    2  O   UNL     1     -10.400   4.449  65.164  1.00  0.00    -0.225 OA 
ENDROOT
BRANCH   2   3
HETATM    3  C   UNL     1      -9.985   4.804  66.418  1.00  0.00    -0.241 A  
HETATM    4  C   UNL     1     -10.783   5.376  67.406  1.00  0.00    -0.161 A  
HETATM    5  C   UNL     1     -10.267   5.725  68.675  1.00  0.00    -0.254 A  
HETATM    6  C   UNL     1      -8.904   5.462  68.933  1.00  0.00    -0.100 A  
HETATM    7  C   UNL     1      -8.105   4.884  67.939  1.00  0.00    -0.093 A  
HETATM    8  C   UNL     1      -8.643   4.559  66.690  1.00  0.00    -0.111 A  
BRANCH   5   9
HETATM    9  C   UNL     1     -11.161   6.371  69.738  1.00  0.00    -0.396 C  
HETATM   10  O   UNL     1     -11.026   5.693  70.998  1.00  0.00    -0.248 OA 
HETATM   11  H   UNL     1     -11.580   6.094  71.658  1.00  0.00     0.000 HD 
BRANCH   9  12
HETATM   12  C   UNL     1     -10.847   7.857  70.012  1.00  0.00    -0.238 C  
BRANCH  12  13
HETATM   13  N   UNL     1     -11.975   8.654  70.442  1.00  0.00    -0.472 N  
HETATM   14  H   UNL     1     -12.586   9.095  69.755  1.00  0.00     0.000 HD 
HETATM   15  C   UNL     1     -12.217   8.811  71.791  1.00  0.00    -0.349 C  
HETATM   16  O   UNL     1     -11.467   8.380  72.665  1.00  0.00    -0.380 OA 
BRANCH  15  17
HETATM   17  C   UNL     1     -13.515   9.548  72.128  1.00  0.00    -0.456 C  
HETATM   18  N   UNL     1     -13.319  11.009  72.108  1.00  0.00    -0.585 NA 
HETATM   19  H1  UNL     1     -14.185  11.500  72.332  1.00  0.00     0.000 HD 
HETATM   20  H2  UNL     1     -12.929  11.322  71.219  1.00  0.00     0.000 HD 
ENDBRANCH  15  17
ENDBRANCH  12  13
ENDBRANCH   9  12
ENDBRANCH   5   9
BRANCH   6  21
HETATM   21  O   UNL     1      -8.448   5.811  70.177  1.00  0.00    -0.117 OA 
HETATM   22  C   UNL     1      -7.342   5.081  70.701  1.00  0.00    -0.065 C  
ENDBRANCH   6  21
ENDBRANCH   2   3
TORSDOF 6
ENDMDL
MODEL      217
REMARK 921   NORMALIZED FREE ENERGY PREDICTED BY IDOCK:   -3.51 KCAL/MOL
REMARK 922        TOTAL FREE ENERGY PREDICTED BY IDOCK:   -5.23 KCAL/MOL
REMARK 923 INTER-LIGAND FREE ENERGY PREDICTED BY IDOCK:   -4.54 KCAL/MOL
REMARK 924 INTRA-LIGAND FREE ENERGY PREDICTED BY IDOCK:   -0.69 KCAL/MOL
REMARK 927      BINDING AFFINITY PREDICTED BY RF-SCORE:    0.00 PKD
ROOT
HETATM    1  C   UNL     1     -10.786  17.386  68.534  1.00  0.00    -0.279 C  
HETATM    2  O   UNL     1      -9.733  17.031  67.642  1.00  0.00    -0.249 OA 
ENDROOT
BRANCH   2   3
HETATM    3  C   UNL     1      -9.523  15.696  67.431  1.00  0.00    -0.215 A  
HETATM    4  C   UNL     1     -10.515  14.739  67.229  1.00  0.00    -0.264 A  
HETATM    5  C   UNL     1     -10.209  13.373  67.032  1.00  0.00    -0.249 A  
HETATM    6  C   UNL     1      -8.849  12.992  67.027  1.00  0.00    -0.212 A  
HETATM    7  C   UNL     1      -7.854  13.957  67.228  1.00  0.00    -0.134 A  
HETATM    8  C   UNL     1      -8.190  15.299  67.430  1.00  0.00    -0.207 A  
BRANCH   5   9
HETATM    9  C   UNL     1     -11.319  12.338  66.831  1.00  0.00    -0.333 C  
HETATM   10  O   UNL     1     -11.149  11.643  65.585  1.00  0.00    -0.300 OA 
HETATM   11  H   UNL     1     -11.837  11.001  65.460  1.00  0.00     0.000 HD 
BRANCH   9  12
HETATM   12  C   UNL     1     -11.379  11.252  67.925  1.00  0.00    -0.299 C  
BRANCH  12  13
HETATM   13  N   UNL     1     -11.048   9.915  67.483  1.00  0.00    -0.401 N  
HETATM   14  H   UNL     1     -11.301   9.605  66.545  1.00  0.00     0.000 HD 
HETATM   15  C   UNL     1     -10.386   9.063  68.341  1.00  0.00    -0.205 C  
HETATM   16  O   UNL     1     -10.134   9.347  69.511  1.00  0.00    -0.186 OA 
BRANCH  15  17
HETATM   17  C   UNL     1      -9.958   7.732  67.720  1.00  0.00    -0.174 C  
HETATM   18  N   UNL     1     -11.084   6.781  67.672  1.00  0.00    -0.547 NA 
HETATM   19  H1  UNL     1     -10.798   5.893  67.257  1.00  0.00     0.000 HD 
HETATM   20  H2  UNL     1     -11.890   7.179  67.189  1.00  0.00     0.000 HD 
ENDBRANCH  15  17
ENDBRANCH  12  13
ENDBRANCH   9  12
ENDBRANCH   5   9
BRANCH   6  21
HETATM   21  O   UNL     1      -8.597  11.660  66.827  1.00  0.00    -0.171 OA 
HETATM   22  C   UNL     1      -7.320  11.167  67.219  1.00  0.00    -0.118 C  
ENDBRANCH   6  21
ENDBRANCH   2   3
TORSDOF 6
ENDMDL
MODEL      218
REMARK 921   NORMALIZED FREE ENERGY PREDICTED BY IDOCK:   -3.49 KCAL/MOL
REMARK 922        TOTAL FREE ENERGY PREDICTED BY IDOCK:   -5.21 KCAL/MOL
REMARK 923 INTER-LIGAND FREE ENERGY PREDICTED BY IDOCK:   -4.57 KCAL/MOL
REMARK 924 INTRA-LIGAND FREE ENERGY PREDICTED BY IDOCK:   -0.64 KCAL/MOL
REMARK 927      BINDING AFFINITY PREDICTED BY RF-SCORE:    0.00 PKD
ROOT
HETATM    1  C   UNL     1     -10.106   8.479  71.557  1.00  0.00    -0.245 C  
HETATM    2  O   UNL     1     -10.694   9.711  71.149  1.00  0.00    -0.329 OA 
ENDROOT
BRANCH   2   3
HETATM    3  C   UNL     1     -10.782   9.938  69.803  1.00  0.00    -0.267 A  
HETATM    4  C   UNL     1     -10.500   9.011  68.802  1.00  0.00    -0.230 A  
HETATM    5  C   UNL     1     -10.605   9.336  67.430  1.00  0.00    -0.324 A  
HETATM    6  C   UNL     1     -11.026  10.640  67.087  1.00  0.00    -0.247 A  
HETATM    7  C   UNL     1     -11.311  11.569  68.096  1.00  0.00    -0.367 A  
HETATM    8  C   UNL     1     -11.188  11.219  69.444  1.00  0.00    -0.345 A  
BRANCH   5   9
HETATM    9  C   UNL     1     -10.271   8.305  66.348  1.00  0.00    -0.072 C  
HETATM   10  O   UNL     1      -9.365   8.857  65.379  1.00  0.00    -0.388 OA 
HETATM   11  H   UNL     1      -9.158   8.217  64.708  1.00  0.00     0.000 HD 
BRANCH   9  12
HETATM   12  C   UNL     1      -9.602   7.022  66.882  1.00  0.00    -0.168 C  
BRANCH  12  13
HETATM   13  N   UNL     1      -9.920   5.814  66.153  1.00  0.00    -0.356 N  
HETATM   14  H   UNL     1     -10.869   5.440  66.165  1.00  0.00     0.000 HD 
HETATM   15  C   UNL     1      -8.929   5.171  65.442  1.00  0.00    -0.156 C  
HETATM   16  O   UNL     1      -7.750   5.521  65.464  1.00  0.00    -0.084 OA 
BRANCH  15  17
HETATM   17  C   UNL     1      -9.409   3.992  64.594  1.00  0.00    -0.161 C  
HETATM   18  N   UNL     1     -10.635   4.334  63.852  1.00  0.00    -0.458 NA 
HETATM   19  H1  UNL     1     -10.956   3.548  63.286  1.00  0.00     0.000 HD 
HETATM   20  H2  UNL     1     -10.510   5.175  63.289  1.00  0.00     0.000 HD 
ENDBRANCH  15  17
ENDBRANCH  12  13
ENDBRANCH   9  12
ENDBRANCH   5   9
BRANCH   6  21
HETATM   21  O   UNL     1     -11.119  10.910  65.747  1.00  0.00    -0.057 OA 
HETATM   22  C   UNL     1     -11.144  12.279  65.352  1.00  0.00    -0.311 C  
ENDBRANCH   6  21
ENDBRANCH   2   3
TORSDOF 6
ENDMDL
MODEL      219
REMARK 921   NORMALIZED FREE ENERGY PREDICTED BY IDOCK:   -3.48 KCAL/MOL
REMARK 922        TOTAL FREE ENERGY PREDICTED BY IDOCK:   -5.19 KCAL/MOL
REMARK 923 INTER-LIGAND FREE ENERGY PREDICTED BY IDOCK:   -4.51 KCAL/MOL
REMARK 924 INTRA-LIGAND FREE ENERGY PREDICTED BY IDOCK:   -0.69 KCAL/MOL
REMARK 927      BINDING AFFINITY PREDICTED BY RF-SCORE:    0.00 PKD
ROOT
HETATM    1  C   UNL     1      -7.892   9.994  69.895  1.00  0.00    -0.174 C  
HETATM    2  O   UNL     1      -8.853   9.158  69.254  1.00  0.00    -0.137 OA 
ENDROOT
BRANCH   2   3
HETATM    3  C   UNL     1      -9.182   9.470  67.965  1.00  0.00    -0.129 A  
HETATM    4  C   UNL     1      -8.663   8.862  66.823  1.00  0.00    -0.130 A  
HETATM    5  C   UNL     1      -9.051   9.258  65.522  1.00  0.00    -0.275 A  
HETATM    6  C   UNL     1     -10.006  10.291  65.400  1.00  0.00    -0.302 A  
HETATM    7  C   UNL     1     -10.528  10.898  66.549  1.00  0.00    -0.308 A  
HETATM    8  C   UNL     1     -10.117  10.490  67.821  1.00  0.00    -0.205 A  
BRANCH   5   9
HETATM    9  C   UNL     1      -8.452   8.586  64.283  1.00  0.00    -0.051 C  
HETATM   10  O   UNL     1      -7.395   9.388  63.730  1.00  0.00    -0.103 OA 
HETATM   11  H   UNL     1      -7.023   8.971  62.962  1.00  0.00     0.000 HD 
BRANCH   9  12
HETATM   12  C   UNL     1      -7.843   7.194  64.550  1.00  0.00    -0.121 C  
BRANCH  12  13
HETATM   13  N   UNL     1      -8.706   6.076  64.240  1.00  0.00    -0.340 N  
HETATM   14  H   UNL     1      -9.034   5.927  63.286  1.00  0.00     0.000 HD 
HETATM   15  C   UNL     1      -9.082   5.212  65.247  1.00  0.00    -0.120 C  
HETATM   16  O   UNL     1      -8.793   5.389  66.429  1.00  0.00    -0.118 OA 
BRANCH  15  17
HETATM   17  C   UNL     1      -9.872   3.988  64.780  1.00  0.00    -0.198 C  
HETATM   18  N   UNL     1     -11.319   4.266  64.754  1.00  0.00    -1.022 NA 
HETATM   19  H1  UNL     1     -11.846   3.449  64.442  1.00  0.00     0.000 HD 
HETATM   20  H2  UNL     1     -11.532   5.088  64.189  1.00  0.00     0.000 HD 
ENDBRANCH  15  17
ENDBRANCH  12  13
ENDBRANCH   9  12
ENDBRANCH   5   9
BRANCH   6  21
HETATM   21  O   UNL     1     -10.357  10.639  64.122  1.00  0.00    -0.351 OA 
HETATM   22  C   UNL     1     -10.231  12.009  63.755  1.00  0.00    -0.422 C  
ENDBRANCH   6  21
ENDBRANCH   2   3
TORSDOF 6
ENDMDL
MODEL      220
REMARK 921   NORMALIZED FREE ENERGY PREDICTED BY IDOCK:   -3.47 KCAL/MOL
REMARK 922        TOTAL FREE ENERGY PREDICTED BY IDOCK:   -5.19 KCAL/MOL
REMARK 923 INTER-LIGAND FREE ENERGY PREDICTED BY IDOCK:   -4.77 KCAL/MOL
REMARK 924 INTRA-LIGAND FREE ENERGY PREDICTED BY IDOCK:   -0.41 KCAL/MOL
REMARK 927      BINDING AFFINITY PREDICTED BY RF-SCORE:    0.00 PKD
ROOT
HETATM    1  C   UNL     1     -12.279  12.138  70.719  1.00  0.00    -0.271 C  
HETATM    2  O   UNL     1     -12.064  12.864  69.511  1.00  0.00    -0.285 OA 
ENDROOT
BRANCH   2   3
HETATM    3  C   UNL     1     -11.594  12.157  68.439  1.00  0.00    -0.327 A  
HETATM    4  C   UNL     1     -10.914  10.943  68.501  1.00  0.00    -0.278 A  
HETATM    5  C   UNL     1     -10.450  10.284  67.339  1.00  0.00    -0.303 A  
HETATM    6  C   UNL     1     -10.710  10.884  66.088  1.00  0.00    -0.159 A  
HETATM    7  C   UNL     1     -11.397  12.103  66.028  1.00  0.00    -0.410 A  
HETATM    8  C   UNL     1     -11.834  12.735  67.197  1.00  0.00    -0.415 A  
BRANCH   5   9
HETATM    9  C   UNL     1      -9.688   8.959  67.436  1.00  0.00    -0.176 C  
HETATM   10  O   UNL     1      -8.926   8.897  68.653  1.00  0.00    -0.137 OA 
HETATM   11  H   UNL     1      -8.454   8.075  68.713  1.00  0.00     0.000 HD 
BRANCH   9  12
HETATM   12  C   UNL     1     -10.590   7.708  67.427  1.00  0.00    -0.286 C  
BRANCH  12  13
HETATM   13  N   UNL     1     -10.078   6.576  68.169  1.00  0.00    -0.145 N  
HETATM   14  H   UNL     1      -9.202   6.133  67.893  1.00  0.00     0.000 HD 
HETATM   15  C   UNL     1     -10.786   6.101  69.253  1.00  0.00    -0.351 C  
HETATM   16  O   UNL     1     -11.890   6.534  69.578  1.00  0.00    -0.266 OA 
BRANCH  15  17
HETATM   17  C   UNL     1     -10.080   5.000  70.047  1.00  0.00    -0.272 C  
HETATM   18  N   UNL     1      -9.632   5.496  71.361  1.00  0.00    -0.152 NA 
HETATM   19  H1  UNL     1      -9.161   4.762  71.890  1.00  0.00     0.000 HD 
HETATM   20  H2  UNL     1     -10.401   5.906  71.889  1.00  0.00     0.000 HD 
ENDBRANCH  15  17
ENDBRANCH  12  13
ENDBRANCH   9  12
ENDBRANCH   5   9
BRANCH   6  21
HETATM   21  O   UNL     1     -10.248  10.210  64.988  1.00  0.00    -0.309 OA 
HETATM   22  C   UNL     1      -9.368  10.906  64.111  1.00  0.00    -0.234 C  
ENDBRANCH   6  21
ENDBRANCH   2   3
TORSDOF 6
ENDMDL
MODEL      221
REMARK 921   NORMALIZED FREE ENERGY PREDICTED BY IDOCK:   -3.46 KCAL/MOL
REMARK 922        TOTAL FREE ENERGY PREDICTED BY IDOCK:   -5.17 KCAL/MOL
REMARK 923 INTER-LIGAND FREE ENERGY PREDICTED BY IDOCK:   -4.88 KCAL/MOL
REMARK 924 INTRA-LIGAND FREE ENERGY PREDICTED BY IDOCK:   -0.29 KCAL/MOL
REMARK 927      BINDING AFFINITY PREDICTED BY RF-SCORE:    0.00 PKD
ROOT
HETATM    1  C   UNL     1     -11.013  10.639  67.809  1.00  0.00    -0.306 C  
HETATM    2  O   UNL     1     -12.142  11.202  68.472  1.00  0.00    -0.586 OA 
ENDROOT
BRANCH   2   3
HETATM    3  C   UNL     1     -11.983  12.448  69.014  1.00  0.00    -0.241 A  
HETATM    4  C   UNL     1     -11.505  13.571  68.343  1.00  0.00    -0.346 A  
HETATM    5  C   UNL     1     -11.360  14.822  68.987  1.00  0.00    -0.295 A  
HETATM    6  C   UNL     1     -11.732  14.916  70.345  1.00  0.00    -0.297 A  
HETATM    7  C   UNL     1     -12.215  13.786  71.017  1.00  0.00    -0.401 A  
HETATM    8  C   UNL     1     -12.338  12.560  70.355  1.00  0.00    -0.311 A  
BRANCH   5   9
HETATM    9  C   UNL     1     -10.814  16.037  68.232  1.00  0.00    -0.319 C  
HETATM   10  O   UNL     1     -11.471  17.241  68.661  1.00  0.00    -0.012 OA 
HETATM   11  H   UNL     1     -11.133  17.995  68.193  1.00  0.00     0.000 HD 
BRANCH   9  12
HETATM   12  C   UNL     1      -9.303  16.278  68.426  1.00  0.00    -0.210 C  
BRANCH  12  13
HETATM   13  N   UNL     1      -8.567  15.158  68.970  1.00  0.00    -0.206 N  
HETATM   14  H   UNL     1      -9.015  14.515  69.623  1.00  0.00     0.000 HD 
HETATM   15  C   UNL     1      -7.253  14.966  68.596  1.00  0.00    -0.117 C  
HETATM   16  O   UNL     1      -6.634  15.755  67.885  1.00  0.00    -0.123 OA 
BRANCH  15  17
HETATM   17  C   UNL     1      -6.621  13.673  69.115  1.00  0.00    -0.109 C  
HETATM   18  N   UNL     1      -6.015  12.899  68.017  1.00  0.00    -0.093 NA 
HETATM   19  H1  UNL     1      -5.593  12.037  68.363  1.00  0.00     0.000 HD 
HETATM   20  H2  UNL     1      -5.345  13.459  67.489  1.00  0.00     0.000 HD 
ENDBRANCH  15  17
ENDBRANCH  12  13
ENDBRANCH   9  12
ENDBRANCH   5   9
BRANCH   6  21
HETATM   21  O   UNL     1     -11.580  16.147  70.928  1.00  0.00    -0.400 OA 
HETATM   22  C   UNL     1     -11.815  16.245  72.330  1.00  0.00    -0.511 C  
ENDBRANCH   6  21
ENDBRANCH   2   3
TORSDOF 6
ENDMDL
MODEL      222
REMARK 921   NORMALIZED FREE ENERGY PREDICTED BY IDOCK:   -3.46 KCAL/MOL
REMARK 922        TOTAL FREE ENERGY PREDICTED BY IDOCK:   -5.16 KCAL/MOL
REMARK 923 INTER-LIGAND FREE ENERGY PREDICTED BY IDOCK:   -5.07 KCAL/MOL
REMARK 924 INTRA-LIGAND FREE ENERGY PREDICTED BY IDOCK:   -0.09 KCAL/MOL
REMARK 927      BINDING AFFINITY PREDICTED BY RF-SCORE:    0.00 PKD
ROOT
HETATM    1  C   UNL     1      -8.660  18.652  66.359  1.00  0.00    -0.271 C  
HETATM    2  O   UNL     1      -9.912  18.023  66.618  1.00  0.00    -0.325 OA 
ENDROOT
BRANCH   2   3
HETATM    3  C   UNL     1     -10.027  16.706  66.268  1.00  0.00    -0.320 A  
HETATM    4  C   UNL     1      -9.403  15.637  66.908  1.00  0.00    -0.252 A  
HETATM    5  C   UNL     1      -9.567  14.303  66.469  1.00  0.00    -0.313 A  
HETATM    6  C   UNL     1     -10.405  14.068  65.358  1.00  0.00    -0.359 A  
HETATM    7  C   UNL     1     -11.033  15.144  64.718  1.00  0.00    -0.394 A  
HETATM    8  C   UNL     1     -10.843  16.453  65.171  1.00  0.00    -0.289 A  
BRANCH   5   9
HETATM    9  C   UNL     1      -8.855  13.147  67.179  1.00  0.00    -0.222 C  
HETATM   10  O   UNL     1      -8.760  12.001  66.318  1.00  0.00    -0.351 OA 
HETATM   11  H   UNL     1      -8.318  11.284  66.757  1.00  0.00     0.000 HD 
BRANCH   9  12
HETATM   12  C   UNL     1      -7.414  13.470  67.626  1.00  0.00    -0.181 C  
BRANCH  12  13
HETATM   13  N   UNL     1      -7.163  13.326  69.043  1.00  0.00    -0.257 N  
HETATM   14  H   UNL     1      -7.757  12.723  69.613  1.00  0.00     0.000 HD 
HETATM   15  C   UNL     1      -6.113  14.011  69.618  1.00  0.00    -0.122 C  
HETATM   16  O   UNL     1      -5.420  14.819  69.003  1.00  0.00    -0.091 OA 
BRANCH  15  17
HETATM   17  C   UNL     1      -5.852  13.670  71.086  1.00  0.00    -0.139 C  
HETATM   18  N   UNL     1      -5.773  12.212  71.289  1.00  0.00    -0.458 NA 
HETATM   19  H1  UNL     1      -5.599  11.985  72.268  1.00  0.00     0.000 HD 
HETATM   20  H2  UNL     1      -5.078  11.786  70.675  1.00  0.00     0.000 HD 
ENDBRANCH  15  17
ENDBRANCH  12  13
ENDBRANCH   9  12
ENDBRANCH   5   9
BRANCH   6  21
HETATM   21  O   UNL     1     -10.540  12.761  64.970  1.00  0.00    -0.290 OA 
HETATM   22  C   UNL     1     -11.417  12.485  63.882  1.00  0.00    -0.437 C  
ENDBRANCH   6  21
ENDBRANCH   2   3
TORSDOF 6
ENDMDL
MODEL      223
REMARK 921   NORMALIZED FREE ENERGY PREDICTED BY IDOCK:   -3.44 KCAL/MOL
REMARK 922        TOTAL FREE ENERGY PREDICTED BY IDOCK:   -5.14 KCAL/MOL
REMARK 923 INTER-LIGAND FREE ENERGY PREDICTED BY IDOCK:   -4.61 KCAL/MOL
REMARK 924 INTRA-LIGAND FREE ENERGY PREDICTED BY IDOCK:   -0.53 KCAL/MOL
REMARK 927      BINDING AFFINITY PREDICTED BY RF-SCORE:    0.00 PKD
ROOT
HETATM    1  C   UNL     1      -5.315  11.703  69.860  1.00  0.00    -0.083 C  
HETATM    2  O   UNL     1      -6.674  11.347  70.099  1.00  0.00    -0.136 OA 
ENDROOT
BRANCH   2   3
HETATM    3  C   UNL     1      -7.480  11.210  69.002  1.00  0.00    -0.124 A  
HETATM    4  C   UNL     1      -8.855  10.987  69.026  1.00  0.00    -0.068 A  
HETATM    5  C   UNL     1      -9.610  10.844  67.839  1.00  0.00    -0.175 A  
HETATM    6  C   UNL     1      -8.934  10.951  66.604  1.00  0.00    -0.164 A  
HETATM    7  C   UNL     1      -7.552  11.178  66.584  1.00  0.00    -0.147 A  
HETATM    8  C   UNL     1      -6.831  11.305  67.775  1.00  0.00    -0.074 A  
BRANCH   5   9
HETATM    9  C   UNL     1     -11.118  10.581  67.892  1.00  0.00    -0.304 C  
HETATM   10  O   UNL     1     -11.391   9.170  67.859  1.00  0.00    -0.370 OA 
HETATM   11  H   UNL     1     -12.326   9.006  67.892  1.00  0.00     0.000 HD 
BRANCH   9  12
HETATM   12  C   UNL     1     -11.811  11.123  69.159  1.00  0.00    -0.350 C  
BRANCH  12  13
HETATM   13  N   UNL     1     -12.344  10.115  70.048  1.00  0.00    -0.515 N  
HETATM   14  H   UNL     1     -12.308   9.129  69.790  1.00  0.00     0.000 HD 
HETATM   15  C   UNL     1     -12.901  10.498  71.251  1.00  0.00    -0.431 C  
HETATM   16  O   UNL     1     -13.054  11.674  71.577  1.00  0.00    -0.412 OA 
BRANCH  15  17
HETATM   17  C   UNL     1     -13.297   9.343  72.171  1.00  0.00    -0.468 C  
HETATM   18  N   UNL     1     -12.687   8.076  71.729  1.00  0.00    -0.321 NA 
HETATM   19  H1  UNL     1     -12.952   7.305  72.343  1.00  0.00     0.000 HD 
HETATM   20  H2  UNL     1     -11.674   8.158  71.643  1.00  0.00     0.000 HD 
ENDBRANCH  15  17
ENDBRANCH  12  13
ENDBRANCH   9  12
ENDBRANCH   5   9
BRANCH   6  21
HETATM   21  O   UNL     1      -9.705  10.811  65.480  1.00  0.00    -0.211 OA 
HETATM   22  C   UNL     1      -9.231   9.934  64.462  1.00  0.00    -0.261 C  
ENDBRANCH   6  21
ENDBRANCH   2   3
TORSDOF 6
ENDMDL
MODEL      224
REMARK 921   NORMALIZED FREE ENERGY PREDICTED BY IDOCK:   -3.43 KCAL/MOL
REMARK 922        TOTAL FREE ENERGY PREDICTED BY IDOCK:   -5.12 KCAL/MOL
REMARK 923 INTER-LIGAND FREE ENERGY PREDICTED BY IDOCK:   -4.34 KCAL/MOL
REMARK 924 INTRA-LIGAND FREE ENERGY PREDICTED BY IDOCK:   -0.78 KCAL/MOL
REMARK 927      BINDING AFFINITY PREDICTED BY RF-SCORE:    0.00 PKD
ROOT
HETATM    1  C   UNL     1     -13.045  15.350  70.674  1.00  0.00    -0.354 C  
HETATM    2  O   UNL     1     -12.060  14.418  70.234  1.00  0.00    -0.289 OA 
ENDROOT
BRANCH   2   3
HETATM    3  C   UNL     1     -11.029  14.914  69.487  1.00  0.00    -0.273 A  
HETATM    4  C   UNL     1     -11.133  15.431  68.198  1.00  0.00    -0.309 A  
HETATM    5  C   UNL     1     -10.008  15.913  67.490  1.00  0.00    -0.238 A  
HETATM    6  C   UNL     1      -8.753  15.874  68.135  1.00  0.00    -0.171 A  
HETATM    7  C   UNL     1      -8.650  15.356  69.432  1.00  0.00    -0.249 A  
HETATM    8  C   UNL     1      -9.781  14.879  70.102  1.00  0.00     0.377 A  
BRANCH   5   9
HETATM    9  C   UNL     1     -10.147  16.459  66.066  1.00  0.00    -0.353 C  
HETATM   10  O   UNL     1     -11.266  15.856  65.396  1.00  0.00    -0.224 OA 
HETATM   11  H   UNL     1     -11.353  16.195  64.513  1.00  0.00     0.000 HD 
BRANCH   9  12
HETATM   12  C   UNL     1     -10.371  17.984  65.992  1.00  0.00    -0.331 C  
BRANCH  12  13
HETATM   13  N   UNL     1      -9.260  18.790  66.447  1.00  0.00    -0.322 N  
HETATM   14  H   UNL     1      -8.386  18.807  65.922  1.00  0.00     0.000 HD 
HETATM   15  C   UNL     1      -9.393  19.538  67.598  1.00  0.00    -0.316 C  
HETATM   16  O   UNL     1     -10.387  19.489  68.321  1.00  0.00    -0.423 OA 
BRANCH  15  17
HETATM   17  C   UNL     1      -8.213  20.462  67.903  1.00  0.00    -0.104 C  
HETATM   18  N   UNL     1      -7.742  21.144  66.684  1.00  0.00    -0.493 NA 
HETATM   19  H1  UNL     1      -6.955  21.760  66.888  1.00  0.00     0.000 HD 
HETATM   20  H2  UNL     1      -8.499  21.643  66.217  1.00  0.00     0.000 HD 
ENDBRANCH  15  17
ENDBRANCH  12  13
ENDBRANCH   9  12
ENDBRANCH   5   9
BRANCH   6  21
HETATM   21  O   UNL     1      -7.690  16.355  67.416  1.00  0.00    -0.137 OA 
HETATM   22  C   UNL     1      -6.489  16.641  68.127  1.00  0.00    -0.136 C  
ENDBRANCH   6  21
ENDBRANCH   2   3
TORSDOF 6
ENDMDL
MODEL      225
REMARK 921   NORMALIZED FREE ENERGY PREDICTED BY IDOCK:   -3.42 KCAL/MOL
REMARK 922        TOTAL FREE ENERGY PREDICTED BY IDOCK:   -5.12 KCAL/MOL
REMARK 923 INTER-LIGAND FREE ENERGY PREDICTED BY IDOCK:   -4.67 KCAL/MOL
REMARK 924 INTRA-LIGAND FREE ENERGY PREDICTED BY IDOCK:   -0.44 KCAL/MOL
REMARK 927      BINDING AFFINITY PREDICTED BY RF-SCORE:    0.00 PKD
ROOT
HETATM    1  C   UNL     1     -10.685   6.464  69.411  1.00  0.00    -0.289 C  
HETATM    2  O   UNL     1     -10.883   7.864  69.587  1.00  0.00    -0.242 OA 
ENDROOT
BRANCH   2   3
HETATM    3  C   UNL     1     -10.651   8.662  68.501  1.00  0.00    -0.119 A  
HETATM    4  C   UNL     1     -10.962  10.017  68.407  1.00  0.00    -0.266 A  
HETATM    5  C   UNL     1     -10.699  10.766  67.237  1.00  0.00    -0.325 A  
HETATM    6  C   UNL     1     -10.088  10.105  66.150  1.00  0.00    -0.246 A  
HETATM    7  C   UNL     1      -9.774   8.744  66.248  1.00  0.00    -0.342 A  
HETATM    8  C   UNL     1     -10.056   8.029  67.416  1.00  0.00    -0.294 A  
BRANCH   5   9
HETATM    9  C   UNL     1     -11.068  12.250  67.152  1.00  0.00    -0.278 C  
HETATM   10  O   UNL     1     -12.285  12.515  67.869  1.00  0.00    -0.352 OA 
HETATM   11  H   UNL     1     -12.513  13.435  67.817  1.00  0.00     0.000 HD 
BRANCH   9  12
HETATM   12  C   UNL     1     -10.005  13.201  67.741  1.00  0.00    -0.227 C  
BRANCH  12  13
HETATM   13  N   UNL     1      -9.061  12.584  68.646  1.00  0.00    -0.390 N  
HETATM   14  H   UNL     1      -9.334  12.364  69.604  1.00  0.00     0.000 HD 
HETATM   15  C   UNL     1      -7.788  12.293  68.202  1.00  0.00    -0.148 C  
HETATM   16  O   UNL     1      -7.374  12.614  67.089  1.00  0.00    -0.127 OA 
BRANCH  15  17
HETATM   17  C   UNL     1      -6.926  11.511  69.193  1.00  0.00    -0.113 C  
HETATM   18  N   UNL     1      -7.748  10.602  70.012  1.00  0.00    -0.398 NA 
HETATM   19  H1  UNL     1      -7.172  10.080  70.674  1.00  0.00     0.000 HD 
HETATM   20  H2  UNL     1      -8.310   9.980  69.432  1.00  0.00     0.000 HD 
ENDBRANCH  15  17
ENDBRANCH  12  13
ENDBRANCH   9  12
ENDBRANCH   5   9
BRANCH   6  21
HETATM   21  O   UNL     1      -9.846  10.869  65.038  1.00  0.00    -0.239 OA 
HETATM   22  C   UNL     1      -9.418  10.197  63.858  1.00  0.00    -0.275 C  
ENDBRANCH   6  21
ENDBRANCH   2   3
TORSDOF 6
ENDMDL
MODEL      226
REMARK 921   NORMALIZED FREE ENERGY PREDICTED BY IDOCK:   -3.41 KCAL/MOL
REMARK 922        TOTAL FREE ENERGY PREDICTED BY IDOCK:   -5.11 KCAL/MOL
REMARK 923 INTER-LIGAND FREE ENERGY PREDICTED BY IDOCK:   -4.57 KCAL/MOL
REMARK 924 INTRA-LIGAND FREE ENERGY PREDICTED BY IDOCK:   -0.53 KCAL/MOL
REMARK 927      BINDING AFFINITY PREDICTED BY RF-SCORE:    0.00 PKD
ROOT
HETATM    1  C   UNL     1      -7.084  14.619  68.426  1.00  0.00    -0.116 C  
HETATM    2  O   UNL     1      -6.747  13.235  68.448  1.00  0.00    -0.079 OA 
ENDROOT
BRANCH   2   3
HETATM    3  C   UNL     1      -7.687  12.362  67.975  1.00  0.00    -0.135 A  
HETATM    4  C   UNL     1      -8.473  12.549  66.840  1.00  0.00    -0.130 A  
HETATM    5  C   UNL     1      -9.434  11.597  66.429  1.00  0.00    -0.232 A  
HETATM    6  C   UNL     1      -9.574  10.421  67.198  1.00  0.00    -0.164 A  
HETATM    7  C   UNL     1      -8.781  10.234  68.338  1.00  0.00    -0.129 A  
HETATM    8  C   UNL     1      -7.846  11.199  68.723  1.00  0.00    -0.142 A  
BRANCH   5   9
HETATM    9  C   UNL     1     -10.298  11.835  65.187  1.00  0.00    -0.279 C  
HETATM   10  O   UNL     1     -10.463  10.618  64.440  1.00  0.00    -0.350 OA 
HETATM   11  H   UNL     1     -11.000  10.766  63.670  1.00  0.00     0.000 HD 
BRANCH   9  12
HETATM   12  C   UNL     1     -11.720  12.349  65.494  1.00  0.00    -0.407 C  
BRANCH  12  13
HETATM   13  N   UNL     1     -12.020  12.524  66.898  1.00  0.00    -0.320 N  
HETATM   14  H   UNL     1     -12.281  11.724  67.473  1.00  0.00     0.000 HD 
HETATM   15  C   UNL     1     -11.951  13.786  67.452  1.00  0.00    -0.388 C  
HETATM   16  O   UNL     1     -11.732  14.799  66.792  1.00  0.00    -0.366 OA 
BRANCH  15  17
HETATM   17  C   UNL     1     -12.144  13.831  68.969  1.00  0.00    -0.322 C  
HETATM   18  N   UNL     1     -10.915  13.426  69.674  1.00  0.00    -0.460 NA 
HETATM   19  H1  UNL     1     -11.044  13.457  70.686  1.00  0.00     0.000 HD 
HETATM   20  H2  UNL     1     -10.114  13.985  69.381  1.00  0.00     0.000 HD 
ENDBRANCH  15  17
ENDBRANCH  12  13
ENDBRANCH   9  12
ENDBRANCH   5   9
BRANCH   6  21
HETATM   21  O   UNL     1     -10.512   9.523  66.762  1.00  0.00    -0.239 OA 
HETATM   22  C   UNL     1     -10.198   8.138  66.870  1.00  0.00    -0.316 C  
ENDBRANCH   6  21
ENDBRANCH   2   3
TORSDOF 6
ENDMDL
MODEL      227
REMARK 921   NORMALIZED FREE ENERGY PREDICTED BY IDOCK:   -3.41 KCAL/MOL
REMARK 922        TOTAL FREE ENERGY PREDICTED BY IDOCK:   -5.10 KCAL/MOL
REMARK 923 INTER-LIGAND FREE ENERGY PREDICTED BY IDOCK:   -4.58 KCAL/MOL
REMARK 924 INTRA-LIGAND FREE ENERGY PREDICTED BY IDOCK:   -0.52 KCAL/MOL
REMARK 927      BINDING AFFINITY PREDICTED BY RF-SCORE:    0.00 PKD
ROOT
HETATM    1  C   UNL     1      -7.088  10.334  67.101  1.00  0.00    -0.089 C  
HETATM    2  O   UNL     1      -7.256  10.196  68.509  1.00  0.00    -0.077 OA 
ENDROOT
BRANCH   2   3
HETATM    3  C   UNL     1      -8.258   9.369  68.935  1.00  0.00    -0.111 A  
HETATM    4  C   UNL     1      -8.788   8.298  68.218  1.00  0.00    -0.140 A  
HETATM    5  C   UNL     1      -9.837   7.500  68.730  1.00  0.00    -0.166 A  
HETATM    6  C   UNL     1     -10.337   7.806  70.014  1.00  0.00    -0.221 A  
HETATM    7  C   UNL     1      -9.801   8.881  70.734  1.00  0.00    -0.278 A  
HETATM    8  C   UNL     1      -8.770   9.657  70.196  1.00  0.00    -0.263 A  
BRANCH   5   9
HETATM    9  C   UNL     1     -10.414   6.339  67.914  1.00  0.00    -0.230 C  
HETATM   10  O   UNL     1     -11.608   6.745  67.225  1.00  0.00    -0.726 OA 
HETATM   11  H   UNL     1     -11.966   6.025  66.718  1.00  0.00     0.000 HD 
BRANCH   9  12
HETATM   12  C   UNL     1      -9.460   5.788  66.835  1.00  0.00    -0.133 C  
BRANCH  12  13
HETATM   13  N   UNL     1     -10.105   5.284  65.643  1.00  0.00    -0.397 N  
HETATM   14  H   UNL     1     -10.707   5.892  65.087  1.00  0.00     0.000 HD 
HETATM   15  C   UNL     1      -9.900   3.974  65.264  1.00  0.00    -0.197 C  
HETATM   16  O   UNL     1      -9.261   3.170  65.940  1.00  0.00    -0.152 OA 
BRANCH  15  17
HETATM   17  C   UNL     1     -10.511   3.594  63.914  1.00  0.00    -0.270 C  
HETATM   18  N   UNL     1     -11.088   2.238  63.953  1.00  0.00    -0.543 NA 
HETATM   19  H1  UNL     1     -11.495   1.985  63.052  1.00  0.00     0.000 HD 
HETATM   20  H2  UNL     1     -11.763   2.140  64.712  1.00  0.00     0.000 HD 
ENDBRANCH  15  17
ENDBRANCH  12  13
ENDBRANCH   9  12
ENDBRANCH   5   9
BRANCH   6  21
HETATM   21  O   UNL     1     -11.349   7.004  70.474  1.00  0.00    -0.282 OA 
HETATM   22  C   UNL     1     -12.362   7.614  71.269  1.00  0.00    -0.309 C  
ENDBRANCH   6  21
ENDBRANCH   2   3
TORSDOF 6
ENDMDL
MODEL      228
REMARK 921   NORMALIZED FREE ENERGY PREDICTED BY IDOCK:   -3.41 KCAL/MOL
REMARK 922        TOTAL FREE ENERGY PREDICTED BY IDOCK:   -5.10 KCAL/MOL
REMARK 923 INTER-LIGAND FREE ENERGY PREDICTED BY IDOCK:   -4.37 KCAL/MOL
REMARK 924 INTRA-LIGAND FREE ENERGY PREDICTED BY IDOCK:   -0.73 KCAL/MOL
REMARK 927      BINDING AFFINITY PREDICTED BY RF-SCORE:    0.00 PKD
ROOT
HETATM    1  C   UNL     1      -6.273  15.913  69.357  1.00  0.00    -0.153 C  
HETATM    2  O   UNL     1      -7.252  16.239  68.375  1.00  0.00    -0.142 OA 
ENDROOT
BRANCH   2   3
HETATM    3  C   UNL     1      -8.558  15.993  68.697  1.00  0.00    -0.206 A  
HETATM    4  C   UNL     1      -9.206  14.766  68.585  1.00  0.00    -0.194 A  
HETATM    5  C   UNL     1     -10.568  14.603  68.930  1.00  0.00    -0.253 A  
HETATM    6  C   UNL     1     -11.268  15.729  69.415  1.00  0.00    -0.324 A  
HETATM    7  C   UNL     1     -10.613  16.962  69.530  1.00  0.00    -0.239 A  
HETATM    8  C   UNL     1      -9.268  17.092  69.172  1.00  0.00    -0.073 A  
BRANCH   5   9
HETATM    9  C   UNL     1     -11.262  13.247  68.779  1.00  0.00    -0.276 C  
HETATM   10  O   UNL     1     -12.269  13.300  67.756  1.00  0.00    -0.287 OA 
HETATM   11  H   UNL     1     -12.700  12.459  67.662  1.00  0.00     0.000 HD 
BRANCH   9  12
HETATM   12  C   UNL     1     -10.317  12.090  68.394  1.00  0.00    -0.214 C  
BRANCH  12  13
HETATM   13  N   UNL     1     -10.604  11.459  67.125  1.00  0.00    -0.230 N  
HETATM   14  H   UNL     1     -11.541  11.112  66.922  1.00  0.00     0.000 HD 
HETATM   15  C   UNL     1      -9.597  11.328  66.190  1.00  0.00    -0.214 C  
HETATM   16  O   UNL     1      -8.430  11.644  66.411  1.00  0.00    -0.176 OA 
BRANCH  15  17
HETATM   17  C   UNL     1     -10.048  10.781  64.835  1.00  0.00    -0.322 C  
HETATM   18  N   UNL     1     -11.155  11.580  64.280  1.00  0.00    -0.337 NA 
HETATM   19  H1  UNL     1     -11.456  11.215  63.375  1.00  0.00     0.000 HD 
HETATM   20  H2  UNL     1     -10.912  12.569  64.223  1.00  0.00     0.000 HD 
ENDBRANCH  15  17
ENDBRANCH  12  13
ENDBRANCH   9  12
ENDBRANCH   5   9
BRANCH   6  21
HETATM   21  O   UNL     1     -12.583  15.526  69.743  1.00  0.00    -0.251 OA 
HETATM   22  C   UNL     1     -12.938  15.605  71.120  1.00  0.00    -0.478 C  
ENDBRANCH   6  21
ENDBRANCH   2   3
TORSDOF 6
ENDMDL
MODEL      229
REMARK 921   NORMALIZED FREE ENERGY PREDICTED BY IDOCK:   -3.40 KCAL/MOL
REMARK 922        TOTAL FREE ENERGY PREDICTED BY IDOCK:   -5.09 KCAL/MOL
REMARK 923 INTER-LIGAND FREE ENERGY PREDICTED BY IDOCK:   -4.65 KCAL/MOL
REMARK 924 INTRA-LIGAND FREE ENERGY PREDICTED BY IDOCK:   -0.44 KCAL/MOL
REMARK 927      BINDING AFFINITY PREDICTED BY RF-SCORE:    0.00 PKD
ROOT
HETATM    1  C   UNL     1     -10.785   3.475  63.356  1.00  0.00    -0.234 C  
HETATM    2  O   UNL     1     -11.290   4.004  64.579  1.00  0.00    -0.295 OA 
ENDROOT
BRANCH   2   3
HETATM    3  C   UNL     1     -10.385   4.590  65.420  1.00  0.00    -0.199 A  
HETATM    4  C   UNL     1     -10.695   5.356  66.542  1.00  0.00    -0.309 A  
HETATM    5  C   UNL     1      -9.692   5.938  67.351  1.00  0.00    -0.126 A  
HETATM    6  C   UNL     1      -8.343   5.709  67.004  1.00  0.00    -0.107 A  
HETATM    7  C   UNL     1      -8.034   4.936  65.877  1.00  0.00    -0.107 A  
HETATM    8  C   UNL     1      -9.049   4.383  65.091  1.00  0.00    -0.148 A  
BRANCH   5   9
HETATM    9  C   UNL     1     -10.059   6.792  68.568  1.00  0.00    -0.162 C  
HETATM   10  O   UNL     1     -10.540   8.083  68.159  1.00  0.00    -0.335 OA 
HETATM   11  H   UNL     1     -10.768   8.612  68.914  1.00  0.00     0.000 HD 
BRANCH   9  12
HETATM   12  C   UNL     1     -11.162   6.183  69.459  1.00  0.00    -0.411 C  
BRANCH  12  13
HETATM   13  N   UNL     1     -12.044   7.143  70.087  1.00  0.00    -0.589 N  
HETATM   14  H   UNL     1     -12.702   7.682  69.525  1.00  0.00     0.000 HD 
HETATM   15  C   UNL     1     -11.986   7.321  71.454  1.00  0.00    -0.320 C  
HETATM   16  O   UNL     1     -11.155   6.767  72.170  1.00  0.00    -0.234 OA 
BRANCH  15  17
HETATM   17  C   UNL     1     -13.060   8.249  72.025  1.00  0.00    -0.327 C  
HETATM   18  N   UNL     1     -14.287   7.502  72.356  1.00  0.00    -0.605 NA 
HETATM   19  H1  UNL     1     -15.004   8.121  72.737  1.00  0.00     0.000 HD 
HETATM   20  H2  UNL     1     -14.093   6.721  72.984  1.00  0.00     0.000 HD 
ENDBRANCH  15  17
ENDBRANCH  12  13
ENDBRANCH   9  12
ENDBRANCH   5   9
BRANCH   6  21
HETATM   21  O   UNL     1      -7.404   6.287  67.818  1.00  0.00    -0.081 OA 
HETATM   22  C   UNL     1      -6.437   7.136  67.207  1.00  0.00    -0.057 C  
ENDBRANCH   6  21
ENDBRANCH   2   3
TORSDOF 6
ENDMDL
MODEL      230
REMARK 921   NORMALIZED FREE ENERGY PREDICTED BY IDOCK:   -3.39 KCAL/MOL
REMARK 922        TOTAL FREE ENERGY PREDICTED BY IDOCK:   -5.08 KCAL/MOL
REMARK 923 INTER-LIGAND FREE ENERGY PREDICTED BY IDOCK:   -4.52 KCAL/MOL
REMARK 924 INTRA-LIGAND FREE ENERGY PREDICTED BY IDOCK:   -0.56 KCAL/MOL
REMARK 927      BINDING AFFINITY PREDICTED BY RF-SCORE:    0.00 PKD
ROOT
HETATM    1  C   UNL     1      -5.962   8.705  72.743  1.00  0.00    -0.080 C  
HETATM    2  O   UNL     1      -7.304   8.642  72.266  1.00  0.00    -0.241 OA 
ENDROOT
BRANCH   2   3
HETATM    3  C   UNL     1      -7.554   9.208  71.047  1.00  0.00    -0.096 A  
HETATM    4  C   UNL     1      -8.718   9.045  70.299  1.00  0.00    -0.202 A  
HETATM    5  C   UNL     1      -8.888   9.659  69.037  1.00  0.00    -0.147 A  
HETATM    6  C   UNL     1      -7.842  10.470  68.546  1.00  0.00    -0.111 A  
HETATM    7  C   UNL     1      -6.674  10.633  69.302  1.00  0.00    -0.075 A  
HETATM    8  C   UNL     1      -6.532  10.005  70.543  1.00  0.00    -0.121 A  
BRANCH   5   9
HETATM    9  C   UNL     1     -10.170   9.449  68.226  1.00  0.00    -0.196 C  
HETATM   10  O   UNL     1     -10.934   8.352  68.753  1.00  0.00    -0.432 OA 
HETATM   11  H   UNL     1     -11.729   8.222  68.251  1.00  0.00     0.000 HD 
BRANCH   9  12
HETATM   12  C   UNL     1     -11.118  10.666  68.212  1.00  0.00    -0.279 C  
BRANCH  12  13
HETATM   13  N   UNL     1     -11.164  11.396  66.964  1.00  0.00    -0.303 N  
HETATM   14  H   UNL     1     -10.788  10.982  66.111  1.00  0.00     0.000 HD 
HETATM   15  C   UNL     1     -11.722  12.657  66.938  1.00  0.00    -0.383 C  
HETATM   16  O   UNL     1     -12.109  13.243  67.947  1.00  0.00    -0.331 OA 
BRANCH  15  17
HETATM   17  C   UNL     1     -11.851  13.272  65.543  1.00  0.00    -0.370 C  
HETATM   18  N   UNL     1     -12.945  12.642  64.782  1.00  0.00    -0.867 NA 
HETATM   19  H1  UNL     1     -13.030  13.053  63.852  1.00  0.00     0.000 HD 
HETATM   20  H2  UNL     1     -13.827  12.682  65.292  1.00  0.00     0.000 HD 
ENDBRANCH  15  17
ENDBRANCH  12  13
ENDBRANCH   9  12
ENDBRANCH   5   9
BRANCH   6  21
HETATM   21  O   UNL     1      -8.051  11.049  67.322  1.00  0.00    -0.119 OA 
HETATM   22  C   UNL     1      -7.836  12.453  67.214  1.00  0.00    -0.166 C  
ENDBRANCH   6  21
ENDBRANCH   2   3
TORSDOF 6
ENDMDL
MODEL      231
REMARK 921   NORMALIZED FREE ENERGY PREDICTED BY IDOCK:   -3.37 KCAL/MOL
REMARK 922        TOTAL FREE ENERGY PREDICTED BY IDOCK:   -5.05 KCAL/MOL
REMARK 923 INTER-LIGAND FREE ENERGY PREDICTED BY IDOCK:   -4.46 KCAL/MOL
REMARK 924 INTRA-LIGAND FREE ENERGY PREDICTED BY IDOCK:   -0.58 KCAL/MOL
REMARK 927      BINDING AFFINITY PREDICTED BY RF-SCORE:    0.00 PKD
ROOT
HETATM    1  C   UNL     1      -6.562   8.562  74.563  1.00  0.00    -0.145 C  
HETATM    2  O   UNL     1      -7.899   8.770  74.114  1.00  0.00    -0.405 OA 
ENDROOT
BRANCH   2   3
HETATM    3  C   UNL     1      -8.589   7.668  73.693  1.00  0.00    -0.213 A  
HETATM    4  C   UNL     1      -9.717   7.678  72.875  1.00  0.00    -0.282 A  
HETATM    5  C   UNL     1     -10.379   6.487  72.498  1.00  0.00    -0.216 A  
HETATM    6  C   UNL     1      -9.855   5.261  72.962  1.00  0.00    -0.154 A  
HETATM    7  C   UNL     1      -8.720   5.254  73.783  1.00  0.00    -0.115 A  
HETATM    8  C   UNL     1      -8.093   6.449  74.146  1.00  0.00    -0.114 A  
BRANCH   5   9
HETATM    9  C   UNL     1     -11.628   6.527  71.612  1.00  0.00    -0.308 C  
HETATM   10  O   UNL     1     -12.797   6.826  72.393  1.00  0.00    -0.518 OA 
HETATM   11  H   UNL     1     -13.571   6.852  71.844  1.00  0.00     0.000 HD 
BRANCH   9  12
HETATM   12  C   UNL     1     -11.576   7.584  70.490  1.00  0.00    -0.200 C  
BRANCH  12  13
HETATM   13  N   UNL     1     -11.382   7.057  69.158  1.00  0.00    -0.510 N  
HETATM   14  H   UNL     1     -12.181   6.751  68.603  1.00  0.00     0.000 HD 
HETATM   15  C   UNL     1     -10.105   6.973  68.643  1.00  0.00    -0.166 C  
HETATM   16  O   UNL     1      -9.097   7.241  69.294  1.00  0.00    -0.139 OA 
BRANCH  15  17
HETATM   17  C   UNL     1     -10.032   6.541  67.177  1.00  0.00    -0.157 C  
HETATM   18  N   UNL     1     -11.141   5.633  66.834  1.00  0.00    -0.463 NA 
HETATM   19  H1  UNL     1     -11.092   5.345  65.856  1.00  0.00     0.000 HD 
HETATM   20  H2  UNL     1     -12.046   6.046  67.059  1.00  0.00     0.000 HD 
ENDBRANCH  15  17
ENDBRANCH  12  13
ENDBRANCH   9  12
ENDBRANCH   5   9
BRANCH   6  21
HETATM   21  O   UNL     1     -10.524   4.132  72.569  1.00  0.00    -0.178 OA 
HETATM   22  C   UNL     1     -11.204   3.386  73.574  1.00  0.00    -0.180 C  
ENDBRANCH   6  21
ENDBRANCH   2   3
TORSDOF 6
ENDMDL
MODEL      232
REMARK 921   NORMALIZED FREE ENERGY PREDICTED BY IDOCK:   -3.37 KCAL/MOL
REMARK 922        TOTAL FREE ENERGY PREDICTED BY IDOCK:   -5.04 KCAL/MOL
REMARK 923 INTER-LIGAND FREE ENERGY PREDICTED BY IDOCK:   -4.59 KCAL/MOL
REMARK 924 INTRA-LIGAND FREE ENERGY PREDICTED BY IDOCK:   -0.45 KCAL/MOL
REMARK 927      BINDING AFFINITY PREDICTED BY RF-SCORE:    0.00 PKD
ROOT
HETATM    1  C   UNL     1      -7.267   7.949  72.789  1.00  0.00    -0.093 C  
HETATM    2  O   UNL     1      -8.546   8.539  72.568  1.00  0.00    -0.284 OA 
ENDROOT
BRANCH   2   3
HETATM    3  C   UNL     1      -9.039   8.486  71.294  1.00  0.00    -0.196 A  
HETATM    4  C   UNL     1      -9.685   9.526  70.628  1.00  0.00    -0.311 A  
HETATM    5  C   UNL     1     -10.177   9.380  69.311  1.00  0.00    -0.209 A  
HETATM    6  C   UNL     1      -9.983   8.140  68.663  1.00  0.00    -0.190 A  
HETATM    7  C   UNL     1      -9.331   7.097  69.334  1.00  0.00    -0.147 A  
HETATM    8  C   UNL     1      -8.864   7.270  70.640  1.00  0.00    -0.148 A  
BRANCH   5   9
HETATM    9  C   UNL     1     -10.900  10.532  68.608  1.00  0.00    -0.237 C  
HETATM   10  O   UNL     1     -12.222  10.708  69.145  1.00  0.00    -0.657 OA 
HETATM   11  H   UNL     1     -12.670  11.424  68.710  1.00  0.00     0.000 HD 
BRANCH   9  12
HETATM   12  C   UNL     1     -10.195  11.898  68.742  1.00  0.00    -0.143 C  
BRANCH  12  13
HETATM   13  N   UNL     1     -10.833  12.834  69.642  1.00  0.00    -0.384 N  
HETATM   14  H   UNL     1     -11.029  12.569  70.607  1.00  0.00     0.000 HD 
HETATM   15  C   UNL     1     -11.175  14.089  69.182  1.00  0.00    -0.269 C  
HETATM   16  O   UNL     1     -11.046  14.434  68.009  1.00  0.00    -0.257 OA 
BRANCH  15  17
HETATM   17  C   UNL     1     -11.707  15.041  70.254  1.00  0.00    -0.294 C  
HETATM   18  N   UNL     1     -12.872  14.464  70.949  1.00  0.00    -0.340 NA 
HETATM   19  H1  UNL     1     -13.226  15.100  71.664  1.00  0.00     0.000 HD 
HETATM   20  H2  UNL     1     -12.660  13.544  71.335  1.00  0.00     0.000 HD 
ENDBRANCH  15  17
ENDBRANCH  12  13
ENDBRANCH   9  12
ENDBRANCH   5   9
BRANCH   6  21
HETATM   21  O   UNL     1     -10.471   8.044  67.386  1.00  0.00    -0.258 OA 
HETATM   22  C   UNL     1      -9.525   8.020  66.321  1.00  0.00    -0.172 C  
ENDBRANCH   6  21
ENDBRANCH   2   3
TORSDOF 6
ENDMDL
MODEL      233
REMARK 921   NORMALIZED FREE ENERGY PREDICTED BY IDOCK:   -3.36 KCAL/MOL
REMARK 922        TOTAL FREE ENERGY PREDICTED BY IDOCK:   -5.03 KCAL/MOL
REMARK 923 INTER-LIGAND FREE ENERGY PREDICTED BY IDOCK:   -4.64 KCAL/MOL
REMARK 924 INTRA-LIGAND FREE ENERGY PREDICTED BY IDOCK:   -0.39 KCAL/MOL
REMARK 927      BINDING AFFINITY PREDICTED BY RF-SCORE:    0.00 PKD
ROOT
HETATM    1  C   UNL     1      -9.769  13.677  66.428  1.00  0.00    -0.292 C  
HETATM    2  O   UNL     1     -11.058  13.330  66.926  1.00  0.00    -0.279 OA 
ENDROOT
BRANCH   2   3
HETATM    3  C   UNL     1     -11.105  12.395  67.923  1.00  0.00    -0.239 A  
HETATM    4  C   UNL     1     -10.457  11.162  67.912  1.00  0.00    -0.220 A  
HETATM    5  C   UNL     1     -10.572  10.246  68.983  1.00  0.00    -0.247 A  
HETATM    6  C   UNL     1     -11.359  10.620  70.094  1.00  0.00    -0.323 A  
HETATM    7  C   UNL     1     -12.008  11.861  70.103  1.00  0.00    -0.413 A  
HETATM    8  C   UNL     1     -11.882  12.741  69.024  1.00  0.00    -0.344 A  
BRANCH   5   9
HETATM    9  C   UNL     1      -9.864   8.889  68.939  1.00  0.00    -0.177 C  
HETATM   10  O   UNL     1      -9.348   8.540  70.234  1.00  0.00    -0.156 OA 
HETATM   11  H   UNL     1      -8.910   7.698  70.207  1.00  0.00     0.000 HD 
BRANCH   9  12
HETATM   12  C   UNL     1     -10.768   7.717  68.505  1.00  0.00    -0.051 C  
BRANCH  12  13
HETATM   13  N   UNL     1     -10.230   6.399  68.759  1.00  0.00    -0.164 N  
HETATM   14  H   UNL     1      -9.585   5.969  68.095  1.00  0.00     0.000 HD 
HETATM   15  C   UNL     1     -10.596   5.727  69.906  1.00  0.00    -0.318 C  
HETATM   16  O   UNL     1     -11.436   6.154  70.696  1.00  0.00    -0.338 OA 
BRANCH  15  17
HETATM   17  C   UNL     1      -9.855   4.410  70.143  1.00  0.00    -0.217 C  
HETATM   18  N   UNL     1      -9.557   3.730  68.870  1.00  0.00    -0.155 NA 
HETATM   19  H1  UNL     1      -9.063   2.851  69.028  1.00  0.00     0.000 HD 
HETATM   20  H2  UNL     1      -9.046   4.339  68.231  1.00  0.00     0.000 HD 
ENDBRANCH  15  17
ENDBRANCH  12  13
ENDBRANCH   9  12
ENDBRANCH   5   9
BRANCH   6  21
HETATM   21  O   UNL     1     -11.439   9.705  71.112  1.00  0.00    -0.323 OA 
HETATM   22  C   UNL     1     -12.719   9.480  71.694  1.00  0.00    -0.388 C  
ENDBRANCH   6  21
ENDBRANCH   2   3
TORSDOF 6
ENDMDL
MODEL      234
REMARK 921   NORMALIZED FREE ENERGY PREDICTED BY IDOCK:   -3.35 KCAL/MOL
REMARK 922        TOTAL FREE ENERGY PREDICTED BY IDOCK:   -5.02 KCAL/MOL
REMARK 923 INTER-LIGAND FREE ENERGY PREDICTED BY IDOCK:   -4.57 KCAL/MOL
REMARK 924 INTRA-LIGAND FREE ENERGY PREDICTED BY IDOCK:   -0.45 KCAL/MOL
REMARK 927      BINDING AFFINITY PREDICTED BY RF-SCORE:    0.00 PKD
ROOT
HETATM    1  C   UNL     1     -10.020   6.060  69.156  1.00  0.00    -0.162 C  
HETATM    2  O   UNL     1     -10.715   7.001  68.342  1.00  0.00    -0.208 OA 
ENDROOT
BRANCH   2   3
HETATM    3  C   UNL     1     -10.006   8.087  67.909  1.00  0.00    -0.180 A  
HETATM    4  C   UNL     1     -10.397   8.963  66.899  1.00  0.00    -0.332 A  
HETATM    5  C   UNL     1      -9.593  10.057  66.504  1.00  0.00    -0.237 A  
HETATM    6  C   UNL     1      -8.368  10.258  67.178  1.00  0.00    -0.122 A  
HETATM    7  C   UNL     1      -7.979   9.377  68.195  1.00  0.00    -0.091 A  
HETATM    8  C   UNL     1      -8.792   8.298  68.555  1.00  0.00    -0.137 A  
BRANCH   5   9
HETATM    9  C   UNL     1     -10.037  10.995  65.378  1.00  0.00    -0.269 C  
HETATM   10  O   UNL     1     -10.430  10.247  64.216  1.00  0.00    -0.372 OA 
HETATM   11  H   UNL     1     -10.706  10.828  63.518  1.00  0.00     0.000 HD 
BRANCH   9  12
HETATM   12  C   UNL     1     -11.238  11.893  65.739  1.00  0.00    -0.312 C  
BRANCH  12  13
HETATM   13  N   UNL     1     -11.081  13.293  65.409  1.00  0.00    -0.281 N  
HETATM   14  H   UNL     1     -11.130  13.602  64.439  1.00  0.00     0.000 HD 
HETATM   15  C   UNL     1     -10.862  14.206  66.420  1.00  0.00    -0.304 C  
HETATM   16  O   UNL     1     -10.703  13.883  67.595  1.00  0.00    -0.247 OA 
BRANCH  15  17
HETATM   17  C   UNL     1     -10.857  15.668  65.972  1.00  0.00    -0.275 C  
HETATM   18  N   UNL     1     -10.717  15.777  64.509  1.00  0.00    -0.776 NA 
HETATM   19  H1  UNL     1     -10.713  16.753  64.211  1.00  0.00     0.000 HD 
HETATM   20  H2  UNL     1     -11.433  15.238  64.023  1.00  0.00     0.000 HD 
ENDBRANCH  15  17
ENDBRANCH  12  13
ENDBRANCH   9  12
ENDBRANCH   5   9
BRANCH   6  21
HETATM   21  O   UNL     1      -7.623  11.332  66.767  1.00  0.00    -0.141 OA 
HETATM   22  C   UNL     1      -6.209  11.246  66.914  1.00  0.00    -0.123 C  
ENDBRANCH   6  21
ENDBRANCH   2   3
TORSDOF 6
ENDMDL
MODEL      235
REMARK 921   NORMALIZED FREE ENERGY PREDICTED BY IDOCK:   -3.34 KCAL/MOL
REMARK 922        TOTAL FREE ENERGY PREDICTED BY IDOCK:   -5.01 KCAL/MOL
REMARK 923 INTER-LIGAND FREE ENERGY PREDICTED BY IDOCK:   -4.77 KCAL/MOL
REMARK 924 INTRA-LIGAND FREE ENERGY PREDICTED BY IDOCK:   -0.25 KCAL/MOL
REMARK 927      BINDING AFFINITY PREDICTED BY RF-SCORE:    0.00 PKD
ROOT
HETATM    1  C   UNL     1      -9.617  10.281  64.499  1.00  0.00    -0.316 C  
HETATM    2  O   UNL     1      -9.860   9.953  65.865  1.00  0.00    -0.237 OA 
ENDROOT
BRANCH   2   3
HETATM    3  C   UNL     1     -10.205  10.982  66.696  1.00  0.00    -0.235 A  
HETATM    4  C   UNL     1     -10.680  10.851  67.999  1.00  0.00    -0.263 A  
HETATM    5  C   UNL     1     -11.026  11.973  68.786  1.00  0.00    -0.282 A  
HETATM    6  C   UNL     1     -10.862  13.257  68.221  1.00  0.00    -0.256 A  
HETATM    7  C   UNL     1     -10.381  13.386  66.912  1.00  0.00    -0.257 A  
HETATM    8  C   UNL     1     -10.057  12.256  66.156  1.00  0.00    -0.265 A  
BRANCH   5   9
HETATM    9  C   UNL     1     -11.564  11.801  70.210  1.00  0.00    -0.119 C  
HETATM   10  O   UNL     1     -12.461  12.871  70.549  1.00  0.00    -0.298 OA 
HETATM   11  H   UNL     1     -12.795  12.765  71.432  1.00  0.00     0.000 HD 
BRANCH   9  12
HETATM   12  C   UNL     1     -12.350  10.493  70.436  1.00  0.00    -0.324 C  
BRANCH  12  13
HETATM   13  N   UNL     1     -11.587   9.410  71.017  1.00  0.00    -0.305 N  
HETATM   14  H   UNL     1     -10.842   8.961  70.484  1.00  0.00     0.000 HD 
HETATM   15  C   UNL     1     -11.876   8.990  72.298  1.00  0.00    -0.236 C  
HETATM   16  O   UNL     1     -12.818   9.430  72.955  1.00  0.00    -0.112 OA 
BRANCH  15  17
HETATM   17  C   UNL     1     -10.913   7.943  72.862  1.00  0.00    -0.388 C  
HETATM   18  N   UNL     1      -9.517   8.259  72.511  1.00  0.00    -0.265 NA 
HETATM   19  H1  UNL     1      -8.875   7.560  72.887  1.00  0.00     0.000 HD 
HETATM   20  H2  UNL     1      -9.261   9.201  72.805  1.00  0.00     0.000 HD 
ENDBRANCH  15  17
ENDBRANCH  12  13
ENDBRANCH   9  12
ENDBRANCH   5   9
BRANCH   6  21
HETATM   21  O   UNL     1     -11.204  14.316  69.021  1.00  0.00    -0.243 OA 
HETATM   22  C   UNL     1     -11.457  15.565  68.385  1.00  0.00    -0.363 C  
ENDBRANCH   6  21
ENDBRANCH   2   3
TORSDOF 6
ENDMDL
MODEL      236
REMARK 921   NORMALIZED FREE ENERGY PREDICTED BY IDOCK:   -3.34 KCAL/MOL
REMARK 922        TOTAL FREE ENERGY PREDICTED BY IDOCK:   -5.00 KCAL/MOL
REMARK 923 INTER-LIGAND FREE ENERGY PREDICTED BY IDOCK:   -4.64 KCAL/MOL
REMARK 924 INTRA-LIGAND FREE ENERGY PREDICTED BY IDOCK:   -0.37 KCAL/MOL
REMARK 927      BINDING AFFINITY PREDICTED BY RF-SCORE:    0.00 PKD
ROOT
HETATM    1  C   UNL     1      -5.661  14.593  67.976  1.00  0.00    -0.128 C  
HETATM    2  O   UNL     1      -5.743  15.693  67.074  1.00  0.00    -0.290 OA 
ENDROOT
BRANCH   2   3
HETATM    3  C   UNL     1      -6.910  16.407  67.075  1.00  0.00    -0.210 A  
HETATM    4  C   UNL     1      -8.124  15.980  67.607  1.00  0.00    -0.164 A  
HETATM    5  C   UNL     1      -9.288  16.781  67.552  1.00  0.00    -0.231 A  
HETATM    6  C   UNL     1      -9.190  18.054  66.951  1.00  0.00    -0.269 A  
HETATM    7  C   UNL     1      -7.967  18.482  66.419  1.00  0.00    -0.291 A  
HETATM    8  C   UNL     1      -6.836  17.663  66.481  1.00  0.00    -0.277 A  
BRANCH   5   9
HETATM    9  C   UNL     1     -10.616  16.280  68.128  1.00  0.00    -0.307 C  
HETATM   10  O   UNL     1     -11.724  16.762  67.349  1.00  0.00     0.487 OA 
HETATM   11  H   UNL     1     -12.547  16.452  67.705  1.00  0.00     0.000 HD 
BRANCH   9  12
HETATM   12  C   UNL     1     -10.752  14.744  68.165  1.00  0.00    -0.247 C  
BRANCH  12  13
HETATM   13  N   UNL     1     -11.312  14.147  66.972  1.00  0.00    -0.318 N  
HETATM   14  H   UNL     1     -11.345  14.674  66.099  1.00  0.00     0.000 HD 
HETATM   15  C   UNL     1     -11.802  12.859  67.026  1.00  0.00    -0.374 C  
HETATM   16  O   UNL     1     -11.871  12.208  68.067  1.00  0.00    -0.390 OA 
BRANCH  15  17
HETATM   17  C   UNL     1     -12.233  12.280  65.677  1.00  0.00    -0.127 C  
HETATM   18  N   UNL     1     -13.048  13.247  64.919  1.00  0.00    -0.711 NA 
HETATM   19  H1  UNL     1     -13.336  12.860  64.020  1.00  0.00     0.000 HD 
HETATM   20  H2  UNL     1     -12.565  14.138  64.808  1.00  0.00     0.000 HD 
ENDBRANCH  15  17
ENDBRANCH  12  13
ENDBRANCH   9  12
ENDBRANCH   5   9
BRANCH   6  21
HETATM   21  O   UNL     1     -10.340  18.799  66.924  1.00  0.00    -0.361 OA 
HETATM   22  C   UNL     1     -10.206  20.217  66.910  1.00  0.00    -0.430 C  
ENDBRANCH   6  21
ENDBRANCH   2   3
TORSDOF 6
ENDMDL
MODEL      237
REMARK 921   NORMALIZED FREE ENERGY PREDICTED BY IDOCK:   -3.33 KCAL/MOL
REMARK 922        TOTAL FREE ENERGY PREDICTED BY IDOCK:   -4.99 KCAL/MOL
REMARK 923 INTER-LIGAND FREE ENERGY PREDICTED BY IDOCK:   -4.56 KCAL/MOL
REMARK 924 INTRA-LIGAND FREE ENERGY PREDICTED BY IDOCK:   -0.43 KCAL/MOL
REMARK 927      BINDING AFFINITY PREDICTED BY RF-SCORE:    0.00 PKD
ROOT
HETATM    1  C   UNL     1      -7.305   8.324  63.337  1.00  0.00    -0.105 C  
HETATM    2  O   UNL     1      -8.554   8.796  63.836  1.00  0.00    -0.150 OA 
ENDROOT
BRANCH   2   3
HETATM    3  C   UNL     1      -8.578   9.230  65.132  1.00  0.00    -0.172 A  
HETATM    4  C   UNL     1      -8.059  10.436  65.596  1.00  0.00    -0.156 A  
HETATM    5  C   UNL     1      -8.115  10.801  66.961  1.00  0.00    -0.124 A  
HETATM    6  C   UNL     1      -8.736   9.907  67.861  1.00  0.00    -0.129 A  
HETATM    7  C   UNL     1      -9.260   8.696  67.391  1.00  0.00    -0.158 A  
HETATM    8  C   UNL     1      -9.179   8.361  66.037  1.00  0.00    -0.247 A  
BRANCH   5   9
HETATM    9  C   UNL     1      -7.520  12.125  67.448  1.00  0.00    -0.156 C  
HETATM   10  O   UNL     1      -6.426  12.531  66.609  1.00  0.00    -0.445 OA 
HETATM   11  H   UNL     1      -6.057  13.353  66.910  1.00  0.00     0.000 HD 
BRANCH   9  12
HETATM   12  C   UNL     1      -8.517  13.302  67.457  1.00  0.00    -0.202 C  
BRANCH  12  13
HETATM   13  N   UNL     1      -9.109  13.617  66.176  1.00  0.00    -0.475 N  
HETATM   14  H   UNL     1      -8.523  13.708  65.346  1.00  0.00     0.000 HD 
HETATM   15  C   UNL     1     -10.474  13.791  66.085  1.00  0.00    -0.297 C  
HETATM   16  O   UNL     1     -11.220  13.782  67.063  1.00  0.00    -0.296 OA 
BRANCH  15  17
HETATM   17  C   UNL     1     -11.005  13.973  64.662  1.00  0.00    -0.392 C  
HETATM   18  N   UNL     1     -10.286  13.106  63.711  1.00  0.00    -0.657 NA 
HETATM   19  H1  UNL     1     -10.641  13.228  62.762  1.00  0.00     0.000 HD 
HETATM   20  H2  UNL     1     -10.316  12.128  64.000  1.00  0.00     0.000 HD 
ENDBRANCH  15  17
ENDBRANCH  12  13
ENDBRANCH   9  12
ENDBRANCH   5   9
BRANCH   6  21
HETATM   21  O   UNL     1      -8.774  10.302  69.172  1.00  0.00    -0.151 OA 
HETATM   22  C   UNL     1      -9.856   9.832  69.970  1.00  0.00    -0.251 C  
ENDBRANCH   6  21
ENDBRANCH   2   3
TORSDOF 6
ENDMDL
MODEL      238
REMARK 921   NORMALIZED FREE ENERGY PREDICTED BY IDOCK:   -3.31 KCAL/MOL
REMARK 922        TOTAL FREE ENERGY PREDICTED BY IDOCK:   -4.97 KCAL/MOL
REMARK 923 INTER-LIGAND FREE ENERGY PREDICTED BY IDOCK:   -4.27 KCAL/MOL
REMARK 924 INTRA-LIGAND FREE ENERGY PREDICTED BY IDOCK:   -0.70 KCAL/MOL
REMARK 927      BINDING AFFINITY PREDICTED BY RF-SCORE:    0.00 PKD
ROOT
HETATM    1  C   UNL     1      -8.426  15.609  67.288  1.00  0.00    -0.191 C  
HETATM    2  O   UNL     1      -7.355  14.669  67.260  1.00  0.00    -0.193 OA 
ENDROOT
BRANCH   2   3
HETATM    3  C   UNL     1      -7.646  13.389  67.640  1.00  0.00    -0.174 A  
HETATM    4  C   UNL     1      -8.890  12.930  68.068  1.00  0.00    -0.195 A  
HETATM    5  C   UNL     1      -9.099  11.587  68.457  1.00  0.00    -0.157 A  
HETATM    6  C   UNL     1      -8.006  10.697  68.384  1.00  0.00    -0.120 A  
HETATM    7  C   UNL     1      -6.757  11.160  67.951  1.00  0.00    -0.063 A  
HETATM    8  C   UNL     1      -6.580  12.497  67.583  1.00  0.00    -0.136 A  
BRANCH   5   9
HETATM    9  C   UNL     1     -10.472  11.112  68.942  1.00  0.00    -0.207 C  
HETATM   10  O   UNL     1     -10.394  10.616  70.288  1.00  0.00    -0.408 OA 
HETATM   11  H   UNL     1     -11.245  10.321  70.589  1.00  0.00     0.000 HD 
BRANCH   9  12
HETATM   12  C   UNL     1     -11.556  12.210  68.950  1.00  0.00    -0.324 C  
BRANCH  12  13
HETATM   13  N   UNL     1     -11.921  12.703  70.260  1.00  0.00    -0.502 N  
HETATM   14  H   UNL     1     -12.029  12.058  71.042  1.00  0.00     0.000 HD 
HETATM   15  C   UNL     1     -12.122  14.056  70.442  1.00  0.00    -0.356 C  
HETATM   16  O   UNL     1     -12.094  14.870  69.521  1.00  0.00    -0.301 OA 
BRANCH  15  17
HETATM   17  C   UNL     1     -12.359  14.479  71.892  1.00  0.00    -0.313 C  
HETATM   18  N   UNL     1     -13.293  15.617  71.969  1.00  0.00    -0.464 NA 
HETATM   19  H1  UNL     1     -13.451  15.899  72.937  1.00  0.00     0.000 HD 
HETATM   20  H2  UNL     1     -14.170  15.414  71.490  1.00  0.00     0.000 HD 
ENDBRANCH  15  17
ENDBRANCH  12  13
ENDBRANCH   9  12
ENDBRANCH   5   9
BRANCH   6  21
HETATM   21  O   UNL     1      -8.254   9.404  68.765  1.00  0.00    -0.105 OA 
HETATM   22  C   UNL     1      -7.179   8.670  69.344  1.00  0.00    -0.057 C  
ENDBRANCH   6  21
ENDBRANCH   2   3
TORSDOF 6
ENDMDL
MODEL      239
REMARK 921   NORMALIZED FREE ENERGY PREDICTED BY IDOCK:   -3.31 KCAL/MOL
REMARK 922        TOTAL FREE ENERGY PREDICTED BY IDOCK:   -4.96 KCAL/MOL
REMARK 923 INTER-LIGAND FREE ENERGY PREDICTED BY IDOCK:   -4.57 KCAL/MOL
REMARK 924 INTRA-LIGAND FREE ENERGY PREDICTED BY IDOCK:   -0.40 KCAL/MOL
REMARK 927      BINDING AFFINITY PREDICTED BY RF-SCORE:    0.00 PKD
ROOT
HETATM    1  C   UNL     1      -8.104   4.762  66.038  1.00  0.00    -0.107 C  
HETATM    2  O   UNL     1      -9.428   5.274  65.910  1.00  0.00    -0.158 OA 
ENDROOT
BRANCH   2   3
HETATM    3  C   UNL     1      -9.897   6.040  66.941  1.00  0.00    -0.158 A  
HETATM    4  C   UNL     1      -9.988   7.430  66.946  1.00  0.00    -0.307 A  
HETATM    5  C   UNL     1     -10.474   8.144  68.065  1.00  0.00    -0.242 A  
HETATM    6  C   UNL     1     -10.891   7.406  69.194  1.00  0.00    -0.111 A  
HETATM    7  C   UNL     1     -10.801   6.008  69.185  1.00  0.00    -0.422 A  
HETATM    8  C   UNL     1     -10.306   5.331  68.067  1.00  0.00    -0.183 A  
BRANCH   5   9
HETATM    9  C   UNL     1     -10.547   9.674  68.052  1.00  0.00    -0.243 C  
HETATM   10  O   UNL     1     -11.857  10.125  68.431  1.00  0.00    -0.676 OA 
HETATM   11  H   UNL     1     -11.903  11.074  68.423  1.00  0.00     0.000 HD 
BRANCH   9  12
HETATM   12  C   UNL     1      -9.558  10.363  69.015  1.00  0.00    -0.204 C  
BRANCH  12  13
HETATM   13  N   UNL     1      -9.459  11.799  68.871  1.00  0.00    -0.410 N  
HETATM   14  H   UNL     1     -10.078  12.414  69.400  1.00  0.00     0.000 HD 
HETATM   15  C   UNL     1      -8.521  12.329  68.011  1.00  0.00    -0.171 C  
HETATM   16  O   UNL     1      -7.811  11.640  67.281  1.00  0.00    -0.140 OA 
BRANCH  15  17
HETATM   17  C   UNL     1      -8.406  13.854  68.048  1.00  0.00    -0.166 C  
HETATM   18  N   UNL     1      -7.749  14.308  69.287  1.00  0.00    -0.333 NA 
HETATM   19  H1  UNL     1      -7.672  15.326  69.311  1.00  0.00     0.000 HD 
HETATM   20  H2  UNL     1      -6.841  13.860  69.415  1.00  0.00     0.000 HD 
ENDBRANCH  15  17
ENDBRANCH  12  13
ENDBRANCH   9  12
ENDBRANCH   5   9
BRANCH   6  21
HETATM   21  O   UNL     1     -11.360   8.137  70.253  1.00  0.00    -0.236 OA 
HETATM   22  C   UNL     1     -12.195   7.470  71.195  1.00  0.00    -0.301 C  
ENDBRANCH   6  21
ENDBRANCH   2   3
TORSDOF 6
ENDMDL
MODEL      240
REMARK 921   NORMALIZED FREE ENERGY PREDICTED BY IDOCK:   -3.30 KCAL/MOL
REMARK 922        TOTAL FREE ENERGY PREDICTED BY IDOCK:   -4.96 KCAL/MOL
REMARK 923 INTER-LIGAND FREE ENERGY PREDICTED BY IDOCK:   -4.47 KCAL/MOL
REMARK 924 INTRA-LIGAND FREE ENERGY PREDICTED BY IDOCK:   -0.49 KCAL/MOL
REMARK 927      BINDING AFFINITY PREDICTED BY RF-SCORE:    0.00 PKD
ROOT
HETATM    1  C   UNL     1     -12.059  12.971  63.490  1.00  0.00    -0.542 C  
HETATM    2  O   UNL     1     -12.392  14.197  64.136  1.00  0.00    -0.628 OA 
ENDROOT
BRANCH   2   3
HETATM    3  C   UNL     1     -11.471  14.705  65.009  1.00  0.00    -0.386 A  
HETATM    4  C   UNL     1     -11.091  14.127  66.218  1.00  0.00    -0.318 A  
HETATM    5  C   UNL     1     -10.138  14.730  67.070  1.00  0.00    -0.245 A  
HETATM    6  C   UNL     1      -9.553  15.946  66.656  1.00  0.00    -0.246 A  
HETATM    7  C   UNL     1      -9.934  16.524  65.438  1.00  0.00     0.001 A  
HETATM    8  C   UNL     1     -10.888  15.907  64.623  1.00  0.00    -0.234 A  
BRANCH   5   9
HETATM    9  C   UNL     1      -9.752  14.083  68.404  1.00  0.00    -0.223 C  
HETATM   10  O   UNL     1     -10.508  14.653  69.485  1.00  0.00    -0.352 OA 
HETATM   11  H   UNL     1     -10.269  14.251  70.312  1.00  0.00     0.000 HD 
BRANCH   9  12
HETATM   12  C   UNL     1      -9.994  12.561  68.463  1.00  0.00    -0.165 C  
BRANCH  12  13
HETATM   13  N   UNL     1      -9.045  11.818  69.262  1.00  0.00    -0.151 N  
HETATM   14  H   UNL     1      -8.471  12.295  69.956  1.00  0.00     0.000 HD 
HETATM   15  C   UNL     1      -8.924  10.456  69.077  1.00  0.00    -0.179 C  
HETATM   16  O   UNL     1      -9.523   9.841  68.197  1.00  0.00    -0.135 OA 
BRANCH  15  17
HETATM   17  C   UNL     1      -8.001   9.753  70.074  1.00  0.00    -0.184 C  
HETATM   18  N   UNL     1      -6.702   9.426  69.458  1.00  0.00    -0.047 NA 
HETATM   19  H1  UNL     1      -6.087   8.957  70.123  1.00  0.00     0.000 HD 
HETATM   20  H2  UNL     1      -6.260  10.252  69.055  1.00  0.00     0.000 HD 
ENDBRANCH  15  17
ENDBRANCH  12  13
ENDBRANCH   9  12
ENDBRANCH   5   9
BRANCH   6  21
HETATM   21  O   UNL     1      -8.630  16.494  67.508  1.00  0.00    -0.175 OA 
HETATM   22  C   UNL     1      -8.908  17.787  68.036  1.00  0.00    -0.259 C  
ENDBRANCH   6  21
ENDBRANCH   2   3
TORSDOF 6
ENDMDL
MODEL      241
REMARK 921   NORMALIZED FREE ENERGY PREDICTED BY IDOCK:   -3.30 KCAL/MOL
REMARK 922        TOTAL FREE ENERGY PREDICTED BY IDOCK:   -4.95 KCAL/MOL
REMARK 923 INTER-LIGAND FREE ENERGY PREDICTED BY IDOCK:   -4.58 KCAL/MOL
REMARK 924 INTRA-LIGAND FREE ENERGY PREDICTED BY IDOCK:   -0.37 KCAL/MOL
REMARK 927      BINDING AFFINITY PREDICTED BY RF-SCORE:    0.00 PKD
ROOT
HETATM    1  C   UNL     1      -8.079  18.115  68.645  1.00  0.00    -0.288 C  
HETATM    2  O   UNL     1      -7.664  16.963  67.916  1.00  0.00    -0.167 OA 
ENDROOT
BRANCH   2   3
HETATM    3  C   UNL     1      -8.638  16.258  67.266  1.00  0.00    -0.179 A  
HETATM    4  C   UNL     1      -8.811  14.876  67.312  1.00  0.00    -0.216 A  
HETATM    5  C   UNL     1      -9.841  14.226  66.595  1.00  0.00    -0.288 A  
HETATM    6  C   UNL     1     -10.721  15.022  65.829  1.00  0.00    -0.342 A  
HETATM    7  C   UNL     1     -10.547  16.411  65.787  1.00  0.00    -0.327 A  
HETATM    8  C   UNL     1      -9.512  17.023  66.500  1.00  0.00    -0.295 A  
BRANCH   5   9
HETATM    9  C   UNL     1      -9.998  12.704  66.648  1.00  0.00    -0.242 C  
HETATM   10  O   UNL     1      -9.012  12.061  65.824  1.00  0.00    -0.415 OA 
HETATM   11  H   UNL     1      -9.108  11.116  65.856  1.00  0.00     0.000 HD 
BRANCH   9  12
HETATM   12  C   UNL     1      -9.841  12.099  68.058  1.00  0.00    -0.202 C  
BRANCH  12  13
HETATM   13  N   UNL     1     -10.421  10.786  68.232  1.00  0.00    -0.171 N  
HETATM   14  H   UNL     1     -11.263  10.523  67.721  1.00  0.00     0.000 HD 
HETATM   15  C   UNL     1      -9.825   9.891  69.097  1.00  0.00    -0.198 C  
HETATM   16  O   UNL     1      -8.864  10.181  69.807  1.00  0.00    -0.193 OA 
BRANCH  15  17
HETATM   17  C   UNL     1     -10.437   8.489  69.091  1.00  0.00    -0.205 C  
HETATM   18  N   UNL     1     -11.378   8.314  70.212  1.00  0.00    -0.429 NA 
HETATM   19  H1  UNL     1     -11.785   7.378  70.208  1.00  0.00     0.000 HD 
HETATM   20  H2  UNL     1     -12.097   9.037  70.214  1.00  0.00     0.000 HD 
ENDBRANCH  15  17
ENDBRANCH  12  13
ENDBRANCH   9  12
ENDBRANCH   5   9
BRANCH   6  21
HETATM   21  O   UNL     1     -11.708  14.352  65.155  1.00  0.00    -0.346 OA 
HETATM   22  C   UNL     1     -13.035  14.452  65.662  1.00  0.00    -0.082 C  
ENDBRANCH   6  21
ENDBRANCH   2   3
TORSDOF 6
ENDMDL
MODEL      242
REMARK 921   NORMALIZED FREE ENERGY PREDICTED BY IDOCK:   -3.29 KCAL/MOL
REMARK 922        TOTAL FREE ENERGY PREDICTED BY IDOCK:   -4.94 KCAL/MOL
REMARK 923 INTER-LIGAND FREE ENERGY PREDICTED BY IDOCK:   -4.35 KCAL/MOL
REMARK 924 INTRA-LIGAND FREE ENERGY PREDICTED BY IDOCK:   -0.59 KCAL/MOL
REMARK 927      BINDING AFFINITY PREDICTED BY RF-SCORE:    0.00 PKD
ROOT
HETATM    1  C   UNL     1     -12.201  13.058  63.340  1.00  0.00    -0.472 C  
HETATM    2  O   UNL     1     -12.583  13.778  64.509  1.00  0.00    -0.620 OA 
ENDROOT
BRANCH   2   3
HETATM    3  C   UNL     1     -11.635  13.922  65.484  1.00  0.00    -0.327 A  
HETATM    4  C   UNL     1     -11.042  12.885  66.201  1.00  0.00    -0.314 A  
HETATM    5  C   UNL     1     -10.076  13.126  67.205  1.00  0.00    -0.242 A  
HETATM    6  C   UNL     1      -9.704  14.463  67.460  1.00  0.00    -0.215 A  
HETATM    7  C   UNL     1     -10.299  15.504  66.736  1.00  0.00    -0.288 A  
HETATM    8  C   UNL     1     -11.259  15.233  65.756  1.00  0.00    -0.247 A  
BRANCH   5   9
HETATM    9  C   UNL     1      -9.453  11.969  67.992  1.00  0.00    -0.199 C  
HETATM   10  O   UNL     1      -9.829  12.035  69.378  1.00  0.00    -0.225 OA 
HETATM   11  H   UNL     1      -9.443  11.317  69.866  1.00  0.00     0.000 HD 
BRANCH   9  12
HETATM   12  C   UNL     1      -9.871  10.569  67.498  1.00  0.00    -0.168 C  
BRANCH  12  13
HETATM   13  N   UNL     1      -8.828   9.567  67.535  1.00  0.00    -0.125 N  
HETATM   14  H   UNL     1      -8.007   9.701  68.125  1.00  0.00     0.000 HD 
HETATM   15  C   UNL     1      -8.955   8.429  66.767  1.00  0.00    -0.145 C  
HETATM   16  O   UNL     1      -9.876   8.254  65.971  1.00  0.00    -0.147 OA 
BRANCH  15  17
HETATM   17  C   UNL     1      -7.869   7.376  66.996  1.00  0.00    -0.116 C  
HETATM   18  N   UNL     1      -7.001   7.744  68.129  1.00  0.00    -0.077 NA 
HETATM   19  H1  UNL     1      -6.277   7.042  68.281  1.00  0.00     0.000 HD 
HETATM   20  H2  UNL     1      -7.543   7.915  68.976  1.00  0.00     0.000 HD 
ENDBRANCH  15  17
ENDBRANCH  12  13
ENDBRANCH   9  12
ENDBRANCH   5   9
BRANCH   6  21
HETATM   21  O   UNL     1      -8.761  14.651  68.437  1.00  0.00    -0.163 OA 
HETATM   22  C   UNL     1      -8.725  15.921  69.081  1.00  0.00    -0.256 C  
ENDBRANCH   6  21
ENDBRANCH   2   3
TORSDOF 6
ENDMDL
MODEL      243
REMARK 921   NORMALIZED FREE ENERGY PREDICTED BY IDOCK:   -3.28 KCAL/MOL
REMARK 922        TOTAL FREE ENERGY PREDICTED BY IDOCK:   -4.93 KCAL/MOL
REMARK 923 INTER-LIGAND FREE ENERGY PREDICTED BY IDOCK:   -4.41 KCAL/MOL
REMARK 924 INTRA-LIGAND FREE ENERGY PREDICTED BY IDOCK:   -0.52 KCAL/MOL
REMARK 927      BINDING AFFINITY PREDICTED BY RF-SCORE:    0.00 PKD
ROOT
HETATM    1  C   UNL     1      -8.915  11.974  68.317  1.00  0.00    -0.186 C  
HETATM    2  O   UNL     1     -10.323  11.762  68.265  1.00  0.00    -0.192 OA 
ENDROOT
BRANCH   2   3
HETATM    3  C   UNL     1     -10.885  11.084  69.311  1.00  0.00    -0.238 A  
HETATM    4  C   UNL     1     -10.412   9.892  69.856  1.00  0.00    -0.309 A  
HETATM    5  C   UNL     1     -11.065   9.249  70.933  1.00  0.00    -0.374 A  
HETATM    6  C   UNL     1     -12.221   9.860  71.467  1.00  0.00    -0.416 A  
HETATM    7  C   UNL     1     -12.693  11.059  70.920  1.00  0.00    -0.452 A  
HETATM    8  C   UNL     1     -12.029  11.665  69.848  1.00  0.00    -0.414 A  
BRANCH   5   9
HETATM    9  C   UNL     1     -10.535   7.930  71.501  1.00  0.00    -0.210 C  
HETATM   10  O   UNL     1     -11.568   6.930  71.517  1.00  0.00    -0.260 OA 
HETATM   11  H   UNL     1     -11.239   6.111  71.869  1.00  0.00     0.000 HD 
BRANCH   9  12
HETATM   12  C   UNL     1      -9.360   7.324  70.706  1.00  0.00    -0.160 C  
BRANCH  12  13
HETATM   13  N   UNL     1      -8.552   6.371  71.434  1.00  0.00    -0.130 N  
HETATM   14  H   UNL     1      -8.875   5.412  71.561  1.00  0.00     0.000 HD 
HETATM   15  C   UNL     1      -7.339   6.771  71.955  1.00  0.00    -0.088 C  
HETATM   16  O   UNL     1      -6.939   7.933  71.912  1.00  0.00    -0.061 OA 
BRANCH  15  17
HETATM   17  C   UNL     1      -6.506   5.648  72.575  1.00  0.00    -0.061 C  
HETATM   18  N   UNL     1      -5.398   6.191  73.382  1.00  0.00    -0.035 NA 
HETATM   19  H1  UNL     1      -4.842   5.441  73.796  1.00  0.00     0.000 HD 
HETATM   20  H2  UNL     1      -5.735   6.843  74.090  1.00  0.00     0.000 HD 
ENDBRANCH  15  17
ENDBRANCH  12  13
ENDBRANCH   9  12
ENDBRANCH   5   9
BRANCH   6  21
HETATM   21  O   UNL     1     -12.819   9.207  72.513  1.00  0.00    -0.388 OA 
HETATM   22  C   UNL     1     -14.155   8.748  72.325  1.00  0.00    -0.441 C  
ENDBRANCH   6  21
ENDBRANCH   2   3
TORSDOF 6
ENDMDL
MODEL      244
REMARK 921   NORMALIZED FREE ENERGY PREDICTED BY IDOCK:   -3.28 KCAL/MOL
REMARK 922        TOTAL FREE ENERGY PREDICTED BY IDOCK:   -4.93 KCAL/MOL
REMARK 923 INTER-LIGAND FREE ENERGY PREDICTED BY IDOCK:   -4.98 KCAL/MOL
REMARK 924 INTRA-LIGAND FREE ENERGY PREDICTED BY IDOCK:    0.06 KCAL/MOL
REMARK 927      BINDING AFFINITY PREDICTED BY RF-SCORE:    0.00 PKD
ROOT
HETATM    1  C   UNL     1     -11.591  13.387  68.131  1.00  0.00    -0.341 C  
HETATM    2  O   UNL     1     -12.150  12.101  67.873  1.00  0.00    -0.502 OA 
ENDROOT
BRANCH   2   3
HETATM    3  C   UNL     1     -11.343  11.191  67.249  1.00  0.00    -0.226 A  
HETATM    4  C   UNL     1     -11.276   9.830  67.539  1.00  0.00     0.080 A  
HETATM    5  C   UNL     1     -10.400   8.959  66.851  1.00  0.00    -0.332 A  
HETATM    6  C   UNL     1      -9.589   9.504  65.832  1.00  0.00    -0.261 A  
HETATM    7  C   UNL     1      -9.660  10.872  65.540  1.00  0.00    -0.266 A  
HETATM    8  C   UNL     1     -10.530  11.708  66.246  1.00  0.00    -0.286 A  
BRANCH   5   9
HETATM    9  C   UNL     1     -10.333   7.470  67.202  1.00  0.00    -0.313 C  
HETATM   10  O   UNL     1      -9.863   6.703  66.081  1.00  0.00    -0.398 OA 
HETATM   11  H   UNL     1      -9.821   5.779  66.299  1.00  0.00     0.000 HD 
BRANCH   9  12
HETATM   12  C   UNL     1      -9.390   7.138  68.377  1.00  0.00    -0.135 C  
BRANCH  12  13
HETATM   13  N   UNL     1      -9.855   7.567  69.678  1.00  0.00    -0.178 N  
HETATM   14  H   UNL     1      -9.303   8.221  70.232  1.00  0.00     0.000 HD 
HETATM   15  C   UNL     1     -11.052   7.082  70.162  1.00  0.00    -0.285 C  
HETATM   16  O   UNL     1     -11.715   6.225  69.582  1.00  0.00    -0.382 OA 
BRANCH  15  17
HETATM   17  C   UNL     1     -11.515   7.713  71.477  1.00  0.00    -0.264 C  
HETATM   18  N   UNL     1     -12.550   6.890  72.127  1.00  0.00    -0.536 NA 
HETATM   19  H1  UNL     1     -12.858   7.311  73.004  1.00  0.00     0.000 HD 
HETATM   20  H2  UNL     1     -12.234   5.929  72.263  1.00  0.00     0.000 HD 
ENDBRANCH  15  17
ENDBRANCH  12  13
ENDBRANCH   9  12
ENDBRANCH   5   9
BRANCH   6  21
HETATM   21  O   UNL     1      -8.759   8.624  65.187  1.00  0.00    -0.184 OA 
HETATM   22  C   UNL     1      -8.272   9.001  63.903  1.00  0.00    -0.172 C  
ENDBRANCH   6  21
ENDBRANCH   2   3
TORSDOF 6
ENDMDL
MODEL      245
REMARK 921   NORMALIZED FREE ENERGY PREDICTED BY IDOCK:   -3.27 KCAL/MOL
REMARK 922        TOTAL FREE ENERGY PREDICTED BY IDOCK:   -4.91 KCAL/MOL
REMARK 923 INTER-LIGAND FREE ENERGY PREDICTED BY IDOCK:   -4.31 KCAL/MOL
REMARK 924 INTRA-LIGAND FREE ENERGY PREDICTED BY IDOCK:   -0.60 KCAL/MOL
REMARK 927      BINDING AFFINITY PREDICTED BY RF-SCORE:    0.00 PKD
ROOT
HETATM    1  C   UNL     1      -7.393   9.195  69.245  1.00  0.00    -0.070 C  
HETATM    2  O   UNL     1      -7.454  10.493  68.662  1.00  0.00    -0.085 OA 
ENDROOT
BRANCH   2   3
HETATM    3  C   UNL     1      -8.082  10.599  67.452  1.00  0.00    -0.112 A  
HETATM    4  C   UNL     1      -8.888  11.660  67.044  1.00  0.00    -0.177 A  
HETATM    5  C   UNL     1      -9.513  11.681  65.776  1.00  0.00    -0.244 A  
HETATM    6  C   UNL     1      -9.286  10.592  64.906  1.00  0.00    -0.217 A  
HETATM    7  C   UNL     1      -8.472   9.528  65.317  1.00  0.00    -0.159 A  
HETATM    8  C   UNL     1      -7.877   9.533  66.582  1.00  0.00    -0.101 A  
BRANCH   5   9
HETATM    9  C   UNL     1     -10.410  12.850  65.359  1.00  0.00    -0.296 C  
HETATM   10  O   UNL     1     -11.767  12.413  65.179  1.00  0.00    -0.355 OA 
HETATM   11  H   UNL     1     -12.323  13.138  64.921  1.00  0.00     0.000 HD 
BRANCH   9  12
HETATM   12  C   UNL     1     -10.461  14.005  66.380  1.00  0.00    -0.284 C  
BRANCH  12  13
HETATM   13  N   UNL     1      -9.781  15.215  65.975  1.00  0.00    -0.308 N  
HETATM   14  H   UNL     1      -9.304  15.261  65.074  1.00  0.00     0.000 HD 
HETATM   15  C   UNL     1      -9.782  16.307  66.817  1.00  0.00    -0.241 C  
HETATM   16  O   UNL     1     -10.261  16.283  67.949  1.00  0.00    -0.248 OA 
BRANCH  15  17
HETATM   17  C   UNL     1      -9.162  17.574  66.225  1.00  0.00    -0.203 C  
HETATM   18  N   UNL     1     -10.199  18.562  65.876  1.00  0.00    -0.580 NA 
HETATM   19  H1  UNL     1      -9.785  19.407  65.481  1.00  0.00     0.000 HD 
HETATM   20  H2  UNL     1     -10.798  18.774  66.674  1.00  0.00     0.000 HD 
ENDBRANCH  15  17
ENDBRANCH  12  13
ENDBRANCH   9  12
ENDBRANCH   5   9
BRANCH   6  21
HETATM   21  O   UNL     1      -9.905  10.656  63.685  1.00  0.00    -0.303 OA 
HETATM   22  C   UNL     1      -9.090  10.916  62.547  1.00  0.00    -0.326 C  
ENDBRANCH   6  21
ENDBRANCH   2   3
TORSDOF 6
ENDMDL
MODEL      246
REMARK 921   NORMALIZED FREE ENERGY PREDICTED BY IDOCK:   -3.26 KCAL/MOL
REMARK 922        TOTAL FREE ENERGY PREDICTED BY IDOCK:   -4.91 KCAL/MOL
REMARK 923 INTER-LIGAND FREE ENERGY PREDICTED BY IDOCK:   -4.87 KCAL/MOL
REMARK 924 INTRA-LIGAND FREE ENERGY PREDICTED BY IDOCK:   -0.03 KCAL/MOL
REMARK 927      BINDING AFFINITY PREDICTED BY RF-SCORE:    0.00 PKD
ROOT
HETATM    1  C   UNL     1     -14.340   8.708  72.230  1.00  0.00    -0.396 C  
HETATM    2  O   UNL     1     -13.353   7.725  71.931  1.00  0.00    -0.318 OA 
ENDROOT
BRANCH   2   3
HETATM    3  C   UNL     1     -12.079   8.173  71.714  1.00  0.00    -0.315 A  
HETATM    4  C   UNL     1     -11.675   8.999  70.668  1.00  0.00    -0.237 A  
HETATM    5  C   UNL     1     -10.330   9.405  70.511  1.00  0.00    -0.341 A  
HETATM    6  C   UNL     1      -9.387   8.962  71.465  1.00  0.00    -0.265 A  
HETATM    7  C   UNL     1      -9.797   8.133  72.517  1.00  0.00    -0.363 A  
HETATM    8  C   UNL     1     -11.134   7.742  72.639  1.00  0.00    -0.433 A  
BRANCH   5   9
HETATM    9  C   UNL     1      -9.907  10.299  69.342  1.00  0.00    -0.227 C  
HETATM   10  O   UNL     1      -8.537  10.057  68.984  1.00  0.00    -0.132 OA 
HETATM   11  H   UNL     1      -8.275  10.610  68.258  1.00  0.00     0.000 HD 
BRANCH   9  12
HETATM   12  C   UNL     1     -10.733  10.090  68.055  1.00  0.00    -0.256 C  
BRANCH  12  13
HETATM   13  N   UNL     1     -10.380  10.956  66.952  1.00  0.00    -0.228 N  
HETATM   14  H   UNL     1     -10.386  11.969  67.070  1.00  0.00     0.000 HD 
HETATM   15  C   UNL     1     -10.036  10.400  65.737  1.00  0.00    -0.262 C  
HETATM   16  O   UNL     1     -10.098   9.193  65.509  1.00  0.00    -0.066 OA 
BRANCH  15  17
HETATM   17  C   UNL     1      -9.542  11.399  64.691  1.00  0.00    -0.199 C  
HETATM   18  N   UNL     1      -9.443  12.757  65.256  1.00  0.00    -0.448 NA 
HETATM   19  H1  UNL     1      -9.113  13.424  64.557  1.00  0.00     0.000 HD 
HETATM   20  H2  UNL     1      -8.862  12.773  66.094  1.00  0.00     0.000 HD 
ENDBRANCH  15  17
ENDBRANCH  12  13
ENDBRANCH   9  12
ENDBRANCH   5   9
BRANCH   6  21
HETATM   21  O   UNL     1      -8.097   9.383  71.278  1.00  0.00    -0.319 OA 
HETATM   22  C   UNL     1      -7.088   8.383  71.166  1.00  0.00    -0.066 C  
ENDBRANCH   6  21
ENDBRANCH   2   3
TORSDOF 6
ENDMDL
MODEL      247
REMARK 921   NORMALIZED FREE ENERGY PREDICTED BY IDOCK:   -3.26 KCAL/MOL
REMARK 922        TOTAL FREE ENERGY PREDICTED BY IDOCK:   -4.89 KCAL/MOL
REMARK 923 INTER-LIGAND FREE ENERGY PREDICTED BY IDOCK:   -4.35 KCAL/MOL
REMARK 924 INTRA-LIGAND FREE ENERGY PREDICTED BY IDOCK:   -0.54 KCAL/MOL
REMARK 927      BINDING AFFINITY PREDICTED BY RF-SCORE:    0.00 PKD
ROOT
HETATM    1  C   UNL     1      -9.717   4.134  68.948  1.00  0.00    -0.106 C  
HETATM    2  O   UNL     1      -9.504   5.349  68.235  1.00  0.00    -0.111 OA 
ENDROOT
BRANCH   2   3
HETATM    3  C   UNL     1     -10.006   6.491  68.794  1.00  0.00    -0.143 A  
HETATM    4  C   UNL     1     -10.123   7.725  68.158  1.00  0.00    -0.220 A  
HETATM    5  C   UNL     1     -10.643   8.861  68.819  1.00  0.00    -0.185 A  
HETATM    6  C   UNL     1     -11.066   8.715  70.158  1.00  0.00    -0.192 A  
HETATM    7  C   UNL     1     -10.950   7.473  70.794  1.00  0.00    -0.265 A  
HETATM    8  C   UNL     1     -10.422   6.370  70.116  1.00  0.00    -0.269 A  
BRANCH   5   9
HETATM    9  C   UNL     1     -10.744  10.211  68.102  1.00  0.00    -0.244 C  
HETATM   10  O   UNL     1     -12.069  10.755  68.223  1.00  0.00    -0.805 OA 
HETATM   11  H   UNL     1     -12.131  11.592  67.779  1.00  0.00     0.000 HD 
BRANCH   9  12
HETATM   12  C   UNL     1      -9.784  11.290  68.646  1.00  0.00    -0.195 C  
BRANCH  12  13
HETATM   13  N   UNL     1      -8.692  11.640  67.766  1.00  0.00    -0.146 N  
HETATM   14  H   UNL     1      -8.814  12.360  67.054  1.00  0.00     0.000 HD 
HETATM   15  C   UNL     1      -7.481  10.991  67.898  1.00  0.00    -0.093 C  
HETATM   16  O   UNL     1      -7.301  10.055  68.675  1.00  0.00    -0.078 OA 
BRANCH  15  17
HETATM   17  C   UNL     1      -6.359  11.543  67.018  1.00  0.00    -0.133 C  
HETATM   18  N   UNL     1      -6.306  13.014  67.081  1.00  0.00    -0.481 NA 
HETATM   19  H1  UNL     1      -5.557  13.382  66.494  1.00  0.00     0.000 HD 
HETATM   20  H2  UNL     1      -6.226  13.345  68.043  1.00  0.00     0.000 HD 
ENDBRANCH  15  17
ENDBRANCH  12  13
ENDBRANCH   9  12
ENDBRANCH   5   9
BRANCH   6  21
HETATM   21  O   UNL     1     -11.569   9.840  70.758  1.00  0.00    -0.290 OA 
HETATM   22  C   UNL     1     -12.816   9.722  71.436  1.00  0.00    -0.392 C  
ENDBRANCH   6  21
ENDBRANCH   2   3
TORSDOF 6
ENDMDL
MODEL      248
REMARK 921   NORMALIZED FREE ENERGY PREDICTED BY IDOCK:   -3.24 KCAL/MOL
REMARK 922        TOTAL FREE ENERGY PREDICTED BY IDOCK:   -4.87 KCAL/MOL
REMARK 923 INTER-LIGAND FREE ENERGY PREDICTED BY IDOCK:   -4.91 KCAL/MOL
REMARK 924 INTRA-LIGAND FREE ENERGY PREDICTED BY IDOCK:    0.04 KCAL/MOL
REMARK 927      BINDING AFFINITY PREDICTED BY RF-SCORE:    0.00 PKD
ROOT
HETATM    1  C   UNL     1      -5.368  16.835  67.845  1.00  0.00    -0.120 C  
HETATM    2  O   UNL     1      -5.668  15.574  67.254  1.00  0.00    -0.336 OA 
ENDROOT
BRANCH   2   3
HETATM    3  C   UNL     1      -6.869  15.009  67.579  1.00  0.00    -0.168 A  
HETATM    4  C   UNL     1      -8.101  15.660  67.577  1.00  0.00    -0.181 A  
HETATM    5  C   UNL     1      -9.297  15.000  67.942  1.00  0.00    -0.183 A  
HETATM    6  C   UNL     1      -9.221  13.636  68.298  1.00  0.00    -0.198 A  
HETATM    7  C   UNL     1      -7.982  12.983  68.296  1.00  0.00    -0.151 A  
HETATM    8  C   UNL     1      -6.815  13.666  67.940  1.00  0.00    -0.155 A  
BRANCH   5   9
HETATM    9  C   UNL     1     -10.636  15.744  67.950  1.00  0.00    -0.282 C  
HETATM   10  O   UNL     1     -10.521  17.007  67.275  1.00  0.00    -0.315 OA 
HETATM   11  H   UNL     1     -11.352  17.469  67.280  1.00  0.00     0.000 HD 
BRANCH   9  12
HETATM   12  C   UNL     1     -11.786  14.986  67.254  1.00  0.00    -0.223 C  
BRANCH  12  13
HETATM   13  N   UNL     1     -11.627  14.802  65.829  1.00  0.00    -0.327 N  
HETATM   14  H   UNL     1     -11.121  15.492  65.273  1.00  0.00     0.000 HD 
HETATM   15  C   UNL     1     -12.166  13.685  65.226  1.00  0.00    -0.439 C  
HETATM   16  O   UNL     1     -12.861  12.866  65.825  1.00  0.00    -0.403 OA 
BRANCH  15  17
HETATM   17  C   UNL     1     -11.812  13.520  63.747  1.00  0.00    -0.381 C  
HETATM   18  N   UNL     1     -11.586  12.103  63.408  1.00  0.00    -0.656 NA 
HETATM   19  H1  UNL     1     -11.350  11.993  62.421  1.00  0.00     0.000 HD 
HETATM   20  H2  UNL     1     -12.384  11.524  63.670  1.00  0.00     0.000 HD 
ENDBRANCH  15  17
ENDBRANCH  12  13
ENDBRANCH   9  12
ENDBRANCH   5   9
BRANCH   6  21
HETATM   21  O   UNL     1     -10.404  13.034  68.639  1.00  0.00    -0.241 OA 
HETATM   22  C   UNL     1     -10.383  11.631  68.880  1.00  0.00    -0.153 C  
ENDBRANCH   6  21
ENDBRANCH   2   3
TORSDOF 6
ENDMDL
MODEL      249
REMARK 921   NORMALIZED FREE ENERGY PREDICTED BY IDOCK:   -3.22 KCAL/MOL
REMARK 922        TOTAL FREE ENERGY PREDICTED BY IDOCK:   -4.84 KCAL/MOL
REMARK 923 INTER-LIGAND FREE ENERGY PREDICTED BY IDOCK:   -4.15 KCAL/MOL
REMARK 924 INTRA-LIGAND FREE ENERGY PREDICTED BY IDOCK:   -0.69 KCAL/MOL
REMARK 927      BINDING AFFINITY PREDICTED BY RF-SCORE:    0.00 PKD
ROOT
HETATM    1  C   UNL     1     -11.913  12.678  64.464  1.00  0.00    -0.399 C  
HETATM    2  O   UNL     1     -12.260  12.550  65.840  1.00  0.00    -0.593 OA 
ENDROOT
BRANCH   2   3
HETATM    3  C   UNL     1     -11.314  12.015  66.670  1.00  0.00    -0.340 A  
HETATM    4  C   UNL     1     -11.265  10.691  67.101  1.00  0.00    -0.177 A  
HETATM    5  C   UNL     1     -10.255  10.224  67.973  1.00  0.00    -0.200 A  
HETATM    6  C   UNL     1      -9.267  11.140  68.394  1.00  0.00    -0.175 A  
HETATM    7  C   UNL     1      -9.317  12.470  67.958  1.00  0.00    -0.205 A  
HETATM    8  C   UNL     1     -10.335  12.903  67.103  1.00  0.00    -0.239 A  
BRANCH   5   9
HETATM    9  C   UNL     1     -10.234   8.768  68.446  1.00  0.00    -0.196 C  
HETATM   10  O   UNL     1      -8.929   8.193  68.270  1.00  0.00    -0.136 OA 
HETATM   11  H   UNL     1      -8.916   7.290  68.564  1.00  0.00     0.000 HD 
BRANCH   9  12
HETATM   12  C   UNL     1     -10.591   8.581  69.935  1.00  0.00    -0.228 C  
BRANCH  12  13
HETATM   13  N   UNL     1      -9.460   8.419  70.822  1.00  0.00    -0.163 N  
HETATM   14  H   UNL     1      -8.739   9.139  70.874  1.00  0.00     0.000 HD 
HETATM   15  C   UNL     1      -9.365   7.283  71.598  1.00  0.00    -0.151 C  
HETATM   16  O   UNL     1     -10.153   6.343  71.514  1.00  0.00    -0.190 OA 
BRANCH  15  17
HETATM   17  C   UNL     1      -8.211   7.286  72.602  1.00  0.00    -0.107 C  
HETATM   18  N   UNL     1      -8.252   8.486  73.457  1.00  0.00    -0.399 NA 
HETATM   19  H1  UNL     1      -7.482   8.488  74.127  1.00  0.00     0.000 HD 
HETATM   20  H2  UNL     1      -9.154   8.584  73.922  1.00  0.00     0.000 HD 
ENDBRANCH  15  17
ENDBRANCH  12  13
ENDBRANCH   9  12
ENDBRANCH   5   9
BRANCH   6  21
HETATM   21  O   UNL     1      -8.304  10.644  69.234  1.00  0.00    -0.152 OA 
HETATM   22  C   UNL     1      -7.079  11.366  69.329  1.00  0.00    -0.100 C  
ENDBRANCH   6  21
ENDBRANCH   2   3
TORSDOF 6
ENDMDL
MODEL      250
REMARK 921   NORMALIZED FREE ENERGY PREDICTED BY IDOCK:   -3.21 KCAL/MOL
REMARK 922        TOTAL FREE ENERGY PREDICTED BY IDOCK:   -4.84 KCAL/MOL
REMARK 923 INTER-LIGAND FREE ENERGY PREDICTED BY IDOCK:   -4.27 KCAL/MOL
REMARK 924 INTRA-LIGAND FREE ENERGY PREDICTED BY IDOCK:   -0.57 KCAL/MOL
REMARK 927      BINDING AFFINITY PREDICTED BY RF-SCORE:    0.00 PKD
ROOT
HETATM    1  C   UNL     1      -8.970  17.301  66.676  1.00  0.00    -0.256 C  
HETATM    2  O   UNL     1     -10.255  16.961  67.190  1.00  0.00    -0.285 OA 
ENDROOT
BRANCH   2   3
HETATM    3  C   UNL     1     -10.462  15.650  67.519  1.00  0.00    -0.285 A  
HETATM    4  C   UNL     1      -9.957  14.549  66.831  1.00  0.00    -0.259 A  
HETATM    5  C   UNL     1     -10.233  13.222  67.235  1.00  0.00    -0.240 A  
HETATM    6  C   UNL     1     -11.033  13.031  68.383  1.00  0.00    -0.262 A  
HETATM    7  C   UNL     1     -11.537  14.140  69.075  1.00  0.00    -0.342 A  
HETATM    8  C   UNL     1     -11.253  15.439  68.644  1.00  0.00    -0.312 A  
BRANCH   5   9
HETATM    9  C   UNL     1      -9.682  12.029  66.450  1.00  0.00    -0.225 C  
HETATM   10  O   UNL     1      -9.669  12.308  65.041  1.00  0.00    -0.422 OA 
HETATM   11  H   UNL     1      -9.326  11.568  64.554  1.00  0.00     0.000 HD 
BRANCH   9  12
HETATM   12  C   UNL     1      -8.237  11.637  66.825  1.00  0.00    -0.161 C  
BRANCH  12  13
HETATM   13  N   UNL     1      -8.087  11.010  68.121  1.00  0.00    -0.116 N  
HETATM   14  H   UNL     1      -8.909  10.748  68.665  1.00  0.00     0.000 HD 
HETATM   15  C   UNL     1      -6.821  10.771  68.614  1.00  0.00    -0.060 C  
HETATM   16  O   UNL     1      -5.797  11.144  68.046  1.00  0.00    -0.043 OA 
BRANCH  15  17
HETATM   17  C   UNL     1      -6.782   9.975  69.919  1.00  0.00    -0.099 C  
HETATM   18  N   UNL     1      -6.347  10.820  71.045  1.00  0.00    -0.372 NA 
HETATM   19  H1  UNL     1      -6.321  10.289  71.916  1.00  0.00     0.000 HD 
HETATM   20  H2  UNL     1      -6.926  11.655  71.132  1.00  0.00     0.000 HD 
ENDBRANCH  15  17
ENDBRANCH  12  13
ENDBRANCH   9  12
ENDBRANCH   5   9
BRANCH   6  21
HETATM   21  O   UNL     1     -11.271  11.730  68.743  1.00  0.00    -0.212 OA 
HETATM   22  C   UNL     1     -12.145  11.502  69.844  1.00  0.00    -0.316 C  
ENDBRANCH   6  21
ENDBRANCH   2   3
TORSDOF 6
ENDMDL
MODEL      251
REMARK 921   NORMALIZED FREE ENERGY PREDICTED BY IDOCK:   -3.20 KCAL/MOL
REMARK 922        TOTAL FREE ENERGY PREDICTED BY IDOCK:   -4.81 KCAL/MOL
REMARK 923 INTER-LIGAND FREE ENERGY PREDICTED BY IDOCK:   -4.53 KCAL/MOL
REMARK 924 INTRA-LIGAND FREE ENERGY PREDICTED BY IDOCK:   -0.28 KCAL/MOL
REMARK 927      BINDING AFFINITY PREDICTED BY RF-SCORE:    0.00 PKD
ROOT
HETATM    1  C   UNL     1      -6.271   8.547  63.266  1.00  0.00    -0.085 C  
HETATM    2  O   UNL     1      -7.445   7.983  63.846  1.00  0.00    -0.101 OA 
ENDROOT
BRANCH   2   3
HETATM    3  C   UNL     1      -8.031   8.685  64.862  1.00  0.00    -0.138 A  
HETATM    4  C   UNL     1      -9.027   8.209  65.711  1.00  0.00    -0.165 A  
HETATM    5  C   UNL     1      -9.590   9.011  66.731  1.00  0.00    -0.259 A  
HETATM    6  C   UNL     1      -9.100  10.326  66.886  1.00  0.00    -0.143 A  
HETATM    7  C   UNL     1      -8.097  10.802  66.032  1.00  0.00    -0.158 A  
HETATM    8  C   UNL     1      -7.568   9.987  65.027  1.00  0.00    -0.139 A  
BRANCH   5   9
HETATM    9  C   UNL     1     -10.697   8.469  67.639  1.00  0.00    -0.119 C  
HETATM   10  O   UNL     1     -11.189   7.211  67.148  1.00  0.00    -0.592 OA 
HETATM   11  H   UNL     1     -11.876   6.874  67.711  1.00  0.00     0.000 HD 
BRANCH   9  12
HETATM   12  C   UNL     1     -10.256   8.220  69.096  1.00  0.00    -0.218 C  
BRANCH  12  13
HETATM   13  N   UNL     1     -11.335   8.073  70.048  1.00  0.00    -0.453 N  
HETATM   14  H   UNL     1     -11.832   7.186  70.131  1.00  0.00     0.000 HD 
HETATM   15  C   UNL     1     -11.685   9.144  70.844  1.00  0.00    -0.284 C  
HETATM   16  O   UNL     1     -11.185  10.261  70.728  1.00  0.00    -0.329 OA 
BRANCH  15  17
HETATM   17  C   UNL     1     -12.735   8.833  71.912  1.00  0.00    -0.374 C  
HETATM   18  N   UNL     1     -14.011   8.421  71.299  1.00  0.00    -0.604 NA 
HETATM   19  H1  UNL     1     -14.712   8.213  72.012  1.00  0.00     0.000 HD 
HETATM   20  H2  UNL     1     -13.884   7.637  70.659  1.00  0.00     0.000 HD 
ENDBRANCH  15  17
ENDBRANCH  12  13
ENDBRANCH   9  12
ENDBRANCH   5   9
BRANCH   6  21
HETATM   21  O   UNL     1      -9.669  11.067  67.889  1.00  0.00    -0.166 OA 
HETATM   22  C   UNL     1      -9.300  12.439  67.983  1.00  0.00    -0.204 C  
ENDBRANCH   6  21
ENDBRANCH   2   3
TORSDOF 6
ENDMDL
MODEL      252
REMARK 921   NORMALIZED FREE ENERGY PREDICTED BY IDOCK:   -3.18 KCAL/MOL
REMARK 922        TOTAL FREE ENERGY PREDICTED BY IDOCK:   -4.80 KCAL/MOL
REMARK 923 INTER-LIGAND FREE ENERGY PREDICTED BY IDOCK:   -4.34 KCAL/MOL
REMARK 924 INTRA-LIGAND FREE ENERGY PREDICTED BY IDOCK:   -0.45 KCAL/MOL
REMARK 927      BINDING AFFINITY PREDICTED BY RF-SCORE:    0.00 PKD
ROOT
HETATM    1  C   UNL     1     -13.050   7.598  71.826  1.00  0.00    -0.323 C  
HETATM    2  O   UNL     1     -11.691   7.458  72.232  1.00  0.00    -0.286 OA 
ENDROOT
BRANCH   2   3
HETATM    3  C   UNL     1     -10.736   7.657  71.274  1.00  0.00    -0.228 A  
HETATM    4  C   UNL     1     -10.938   7.591  69.898  1.00  0.00    -0.223 A  
HETATM    5  C   UNL     1      -9.887   7.798  68.975  1.00  0.00    -0.169 A  
HETATM    6  C   UNL     1      -8.605   8.096  69.487  1.00  0.00    -0.134 A  
HETATM    7  C   UNL     1      -8.405   8.164  70.871  1.00  0.00    -0.124 A  
HETATM    8  C   UNL     1      -9.463   7.945  71.757  1.00  0.00    -0.205 A  
BRANCH   5   9
HETATM    9  C   UNL     1     -10.132   7.701  67.467  1.00  0.00    -0.202 C  
HETATM   10  O   UNL     1     -11.272   6.872  67.187  1.00  0.00    -0.583 OA 
HETATM   11  H   UNL     1     -11.424   6.812  66.252  1.00  0.00     0.000 HD 
BRANCH   9  12
HETATM   12  C   UNL     1     -10.406   9.056  66.781  1.00  0.00    -0.240 C  
BRANCH  12  13
HETATM   13  N   UNL     1     -11.210   9.981  67.549  1.00  0.00    -0.378 N  
HETATM   14  H   UNL     1     -12.212   9.826  67.658  1.00  0.00     0.000 HD 
HETATM   15  C   UNL     1     -10.609  11.077  68.133  1.00  0.00    -0.191 C  
HETATM   16  O   UNL     1      -9.426  11.365  67.964  1.00  0.00    -0.168 OA 
BRANCH  15  17
HETATM   17  C   UNL     1     -11.524  11.903  69.040  1.00  0.00    -0.297 C  
HETATM   18  N   UNL     1     -10.831  13.102  69.544  1.00  0.00    -0.448 NA 
HETATM   19  H1  UNL     1     -11.442  13.653  70.148  1.00  0.00     0.000 HD 
HETATM   20  H2  UNL     1     -10.451  13.664  68.781  1.00  0.00     0.000 HD 
ENDBRANCH  15  17
ENDBRANCH  12  13
ENDBRANCH   9  12
ENDBRANCH   5   9
BRANCH   6  21
HETATM   21  O   UNL     1      -7.617   8.295  68.558  1.00  0.00    -0.096 OA 
HETATM   22  C   UNL     1      -6.501   9.091  68.945  1.00  0.00    -0.048 C  
ENDBRANCH   6  21
ENDBRANCH   2   3
TORSDOF 6
ENDMDL
MODEL      253
REMARK 921   NORMALIZED FREE ENERGY PREDICTED BY IDOCK:   -3.18 KCAL/MOL
REMARK 922        TOTAL FREE ENERGY PREDICTED BY IDOCK:   -4.79 KCAL/MOL
REMARK 923 INTER-LIGAND FREE ENERGY PREDICTED BY IDOCK:   -4.25 KCAL/MOL
REMARK 924 INTRA-LIGAND FREE ENERGY PREDICTED BY IDOCK:   -0.54 KCAL/MOL
REMARK 927      BINDING AFFINITY PREDICTED BY RF-SCORE:    0.00 PKD
ROOT
HETATM    1  C   UNL     1     -13.256  10.981  71.933  1.00  0.00    -0.398 C  
HETATM    2  O   UNL     1     -12.014  10.677  71.304  1.00  0.00    -0.331 OA 
ENDROOT
BRANCH   2   3
HETATM    3  C   UNL     1     -11.553   9.396  71.432  1.00  0.00    -0.381 A  
HETATM    4  C   UNL     1     -10.323   8.925  70.979  1.00  0.00    -0.321 A  
HETATM    5  C   UNL     1      -9.931   7.576  71.143  1.00  0.00    -0.187 A  
HETATM    6  C   UNL     1     -10.822   6.702  71.803  1.00  0.00    -0.233 A  
HETATM    7  C   UNL     1     -12.057   7.179  72.260  1.00  0.00    -0.219 A  
HETATM    8  C   UNL     1     -12.419   8.516  72.074  1.00  0.00    -0.417 A  
BRANCH   5   9
HETATM    9  C   UNL     1      -8.581   7.079  70.619  1.00  0.00    -0.147 C  
HETATM   10  O   UNL     1      -7.884   6.334  71.631  1.00  0.00    -0.099 OA 
HETATM   11  H   UNL     1      -7.046   6.025  71.306  1.00  0.00     0.000 HD 
BRANCH   9  12
HETATM   12  C   UNL     1      -8.681   6.149  69.392  1.00  0.00    -0.123 C  
BRANCH  12  13
HETATM   13  N   UNL     1      -8.055   6.650  68.188  1.00  0.00    -0.110 N  
HETATM   14  H   UNL     1      -7.042   6.606  68.077  1.00  0.00     0.000 HD 
HETATM   15  C   UNL     1      -8.841   7.188  67.190  1.00  0.00    -0.121 C  
HETATM   16  O   UNL     1     -10.055   7.349  67.303  1.00  0.00    -0.183 OA 
BRANCH  15  17
HETATM   17  C   UNL     1      -8.090   7.549  65.907  1.00  0.00    -0.127 C  
HETATM   18  N   UNL     1      -8.939   8.342  65.000  1.00  0.00    -0.413 NA 
HETATM   19  H1  UNL     1      -8.438   8.583  64.144  1.00  0.00     0.000 HD 
HETATM   20  H2  UNL     1      -9.311   9.171  65.463  1.00  0.00     0.000 HD 
ENDBRANCH  15  17
ENDBRANCH  12  13
ENDBRANCH   9  12
ENDBRANCH   5   9
BRANCH   6  21
HETATM   21  O   UNL     1     -10.400   5.405  71.945  1.00  0.00    -0.200 OA 
HETATM   22  C   UNL     1     -10.784   4.715  73.130  1.00  0.00    -0.239 C  
ENDBRANCH   6  21
ENDBRANCH   2   3
TORSDOF 6
ENDMDL
MODEL      254
REMARK 921   NORMALIZED FREE ENERGY PREDICTED BY IDOCK:   -3.18 KCAL/MOL
REMARK 922        TOTAL FREE ENERGY PREDICTED BY IDOCK:   -4.79 KCAL/MOL
REMARK 923 INTER-LIGAND FREE ENERGY PREDICTED BY IDOCK:   -4.31 KCAL/MOL
REMARK 924 INTRA-LIGAND FREE ENERGY PREDICTED BY IDOCK:   -0.47 KCAL/MOL
REMARK 927      BINDING AFFINITY PREDICTED BY RF-SCORE:    0.00 PKD
ROOT
HETATM    1  C   UNL     1     -13.029  12.946  65.027  1.00  0.00    -0.093 C  
HETATM    2  O   UNL     1     -12.084  13.623  65.852  1.00  0.00    -0.386 OA 
ENDROOT
BRANCH   2   3
HETATM    3  C   UNL     1     -10.935  12.948  66.159  1.00  0.00    -0.281 A  
HETATM    4  C   UNL     1     -10.246  12.087  65.308  1.00  0.00    -0.304 A  
HETATM    5  C   UNL     1      -9.069  11.417  65.713  1.00  0.00    -0.195 A  
HETATM    6  C   UNL     1      -8.585  11.656  67.017  1.00  0.00    -0.169 A  
HETATM    7  C   UNL     1      -9.278  12.525  67.870  1.00  0.00    -0.200 A  
HETATM    8  C   UNL     1     -10.445  13.165  67.443  1.00  0.00    -0.243 A  
BRANCH   5   9
HETATM    9  C   UNL     1      -8.341  10.461  64.764  1.00  0.00    -0.157 C  
HETATM   10  O   UNL     1      -6.974  10.865  64.582  1.00  0.00    -0.331 OA 
HETATM   11  H   UNL     1      -6.522  10.272  63.994  1.00  0.00     0.000 HD 
BRANCH   9  12
HETATM   12  C   UNL     1      -8.296   8.997  65.251  1.00  0.00    -0.149 C  
BRANCH  12  13
HETATM   13  N   UNL     1      -9.550   8.477  65.750  1.00  0.00    -0.453 N  
HETATM   14  H   UNL     1     -10.434   8.808  65.365  1.00  0.00     0.000 HD 
HETATM   15  C   UNL     1      -9.538   7.529  66.752  1.00  0.00    -0.206 C  
HETATM   16  O   UNL     1      -8.510   7.158  67.316  1.00  0.00    -0.120 OA 
BRANCH  15  17
HETATM   17  C   UNL     1     -10.909   6.944  67.097  1.00  0.00    -0.377 C  
HETATM   18  N   UNL     1     -11.141   6.956  68.552  1.00  0.00    -0.493 NA 
HETATM   19  H1  UNL     1     -12.056   6.566  68.783  1.00  0.00     0.000 HD 
HETATM   20  H2  UNL     1     -11.023   7.890  68.943  1.00  0.00     0.000 HD 
ENDBRANCH  15  17
ENDBRANCH  12  13
ENDBRANCH   9  12
ENDBRANCH   5   9
BRANCH   6  21
HETATM   21  O   UNL     1      -7.439  10.992  67.367  1.00  0.00    -0.098 OA 
HETATM   22  C   UNL     1      -6.552  11.641  68.273  1.00  0.00    -0.059 C  
ENDBRANCH   6  21
ENDBRANCH   2   3
TORSDOF 6
ENDMDL
MODEL      255
REMARK 921   NORMALIZED FREE ENERGY PREDICTED BY IDOCK:   -3.17 KCAL/MOL
REMARK 922        TOTAL FREE ENERGY PREDICTED BY IDOCK:   -4.77 KCAL/MOL
REMARK 923 INTER-LIGAND FREE ENERGY PREDICTED BY IDOCK:   -4.11 KCAL/MOL
REMARK 924 INTRA-LIGAND FREE ENERGY PREDICTED BY IDOCK:   -0.66 KCAL/MOL
REMARK 927      BINDING AFFINITY PREDICTED BY RF-SCORE:    0.00 PKD
ROOT
HETATM    1  C   UNL     1      -6.890   9.066  71.577  1.00  0.00    -0.038 C  
HETATM    2  O   UNL     1      -8.276   9.187  71.267  1.00  0.00    -0.290 OA 
ENDROOT
BRANCH   2   3
HETATM    3  C   UNL     1      -8.621   9.139  69.945  1.00  0.00    -0.150 A  
HETATM    4  C   UNL     1      -9.678   9.826  69.354  1.00  0.00    -0.214 A  
HETATM    5  C   UNL     1      -9.973   9.707  67.977  1.00  0.00    -0.190 A  
HETATM    6  C   UNL     1      -9.147   8.873  67.191  1.00  0.00    -0.138 A  
HETATM    7  C   UNL     1      -8.082   8.185  67.787  1.00  0.00    -0.127 A  
HETATM    8  C   UNL     1      -7.823   8.317  69.155  1.00  0.00    -0.106 A  
BRANCH   5   9
HETATM    9  C   UNL     1     -11.153  10.459  67.355  1.00  0.00    -0.226 C  
HETATM   10  O   UNL     1     -12.069  10.899  68.372  1.00  0.00    -0.776 OA 
HETATM   11  H   UNL     1     -12.801  11.366  67.987  1.00  0.00     0.000 HD 
BRANCH   9  12
HETATM   12  C   UNL     1     -10.754  11.719  66.560  1.00  0.00    -0.265 C  
BRANCH  12  13
HETATM   13  N   UNL     1      -9.634  12.457  67.101  1.00  0.00    -0.202 N  
HETATM   14  H   UNL     1      -8.679  12.158  66.910  1.00  0.00     0.000 HD 
HETATM   15  C   UNL     1      -9.871  13.572  67.878  1.00  0.00    -0.235 C  
HETATM   16  O   UNL     1     -10.998  13.930  68.216  1.00  0.00    -0.241 OA 
BRANCH  15  17
HETATM   17  C   UNL     1      -8.618  14.357  68.272  1.00  0.00    -0.170 C  
HETATM   18  N   UNL     1      -7.709  14.519  67.124  1.00  0.00    -0.330 NA 
HETATM   19  H1  UNL     1      -6.873  15.043  67.387  1.00  0.00     0.000 HD 
HETATM   20  H2  UNL     1      -8.183  14.944  66.327  1.00  0.00     0.000 HD 
ENDBRANCH  15  17
ENDBRANCH  12  13
ENDBRANCH   9  12
ENDBRANCH   5   9
BRANCH   6  21
HETATM   21  O   UNL     1      -9.464   8.791  65.861  1.00  0.00    -0.235 OA 
HETATM   22  C   UNL     1      -8.418   9.016  64.920  1.00  0.00    -0.178 C  
ENDBRANCH   6  21
ENDBRANCH   2   3
TORSDOF 6
ENDMDL
MODEL      256
REMARK 921   NORMALIZED FREE ENERGY PREDICTED BY IDOCK:   -3.16 KCAL/MOL
REMARK 922        TOTAL FREE ENERGY PREDICTED BY IDOCK:   -4.76 KCAL/MOL
REMARK 923 INTER-LIGAND FREE ENERGY PREDICTED BY IDOCK:   -4.15 KCAL/MOL
REMARK 924 INTRA-LIGAND FREE ENERGY PREDICTED BY IDOCK:   -0.62 KCAL/MOL
REMARK 927      BINDING AFFINITY PREDICTED BY RF-SCORE:    0.00 PKD
ROOT
HETATM    1  C   UNL     1     -10.805  16.778  64.886  1.00  0.00    -0.073 C  
HETATM    2  O   UNL     1     -11.196  15.420  64.701  1.00  0.00    -0.407 OA 
ENDROOT
BRANCH   2   3
HETATM    3  C   UNL     1     -11.044  14.582  65.771  1.00  0.00    -0.324 A  
HETATM    4  C   UNL     1      -9.876  14.409  66.510  1.00  0.00    -0.298 A  
HETATM    5  C   UNL     1      -9.804  13.508  67.597  1.00  0.00    -0.228 A  
HETATM    6  C   UNL     1     -10.967  12.783  67.936  1.00  0.00    -0.234 A  
HETATM    7  C   UNL     1     -12.142  12.961  67.193  1.00  0.00    -0.283 A  
HETATM    8  C   UNL     1     -12.178  13.853  66.118  1.00  0.00    -0.498 A  
BRANCH   5   9
HETATM    9  C   UNL     1      -8.502  13.322  68.381  1.00  0.00    -0.128 C  
HETATM   10  O   UNL     1      -8.196  11.927  68.539  1.00  0.00    -0.154 OA 
HETATM   11  H   UNL     1      -7.388  11.812  69.025  1.00  0.00     0.000 HD 
BRANCH   9  12
HETATM   12  C   UNL     1      -7.265  13.962  67.717  1.00  0.00    -0.164 C  
BRANCH  12  13
HETATM   13  N   UNL     1      -6.945  15.297  68.172  1.00  0.00    -0.116 N  
HETATM   14  H   UNL     1      -7.268  16.111  67.650  1.00  0.00     0.000 HD 
HETATM   15  C   UNL     1      -6.198  15.459  69.321  1.00  0.00    -0.124 C  
HETATM   16  O   UNL     1      -5.705  14.519  69.941  1.00  0.00    -0.101 OA 
BRANCH  15  17
HETATM   17  C   UNL     1      -6.045  16.908  69.787  1.00  0.00    -0.229 C  
HETATM   18  N   UNL     1      -6.963  17.802  69.057  1.00  0.00    -0.249 NA 
HETATM   19  H1  UNL     1      -6.861  18.769  69.369  1.00  0.00     0.000 HD 
HETATM   20  H2  UNL     1      -7.929  17.485  69.128  1.00  0.00     0.000 HD 
ENDBRANCH  15  17
ENDBRANCH  12  13
ENDBRANCH   9  12
ENDBRANCH   5   9
BRANCH   6  21
HETATM   21  O   UNL     1     -10.855  11.925  68.999  1.00  0.00    -0.222 OA 
HETATM   22  C   UNL     1     -11.792  12.068  70.062  1.00  0.00    -0.314 C  
ENDBRANCH   6  21
ENDBRANCH   2   3
TORSDOF 6
ENDMDL
MODEL      257
REMARK 921   NORMALIZED FREE ENERGY PREDICTED BY IDOCK:   -3.16 KCAL/MOL
REMARK 922        TOTAL FREE ENERGY PREDICTED BY IDOCK:   -4.76 KCAL/MOL
REMARK 923 INTER-LIGAND FREE ENERGY PREDICTED BY IDOCK:   -4.19 KCAL/MOL
REMARK 924 INTRA-LIGAND FREE ENERGY PREDICTED BY IDOCK:   -0.57 KCAL/MOL
REMARK 927      BINDING AFFINITY PREDICTED BY RF-SCORE:    0.00 PKD
ROOT
HETATM    1  C   UNL     1      -5.628  16.030  69.234  1.00  0.00    -0.116 C  
HETATM    2  O   UNL     1      -5.669  14.722  68.670  1.00  0.00    -0.085 OA 
ENDROOT
BRANCH   2   3
HETATM    3  C   UNL     1      -6.905  14.207  68.394  1.00  0.00    -0.098 A  
HETATM    4  C   UNL     1      -7.230  12.853  68.345  1.00  0.00    -0.113 A  
HETATM    5  C   UNL     1      -8.535  12.406  68.036  1.00  0.00    -0.176 A  
HETATM    6  C   UNL     1      -9.528  13.379  67.790  1.00  0.00    -0.210 A  
HETATM    7  C   UNL     1      -9.200  14.740  67.843  1.00  0.00    -0.191 A  
HETATM    8  C   UNL     1      -7.897  15.149  68.141  1.00  0.00    -0.126 A  
BRANCH   5   9
HETATM    9  C   UNL     1      -8.862  10.911  67.971  1.00  0.00    -0.135 C  
HETATM   10  O   UNL     1      -7.702  10.153  67.591  1.00  0.00    -0.091 OA 
HETATM   11  H   UNL     1      -7.904   9.225  67.550  1.00  0.00     0.000 HD 
BRANCH   9  12
HETATM   12  C   UNL     1      -9.351  10.311  69.305  1.00  0.00    -0.207 C  
BRANCH  12  13
HETATM   13  N   UNL     1     -10.581  10.873  69.818  1.00  0.00    -0.444 N  
HETATM   14  H   UNL     1     -10.842  11.833  69.591  1.00  0.00     0.000 HD 
HETATM   15  C   UNL     1     -11.397  10.100  70.617  1.00  0.00    -0.352 C  
HETATM   16  O   UNL     1     -11.093   8.971  70.997  1.00  0.00    -0.249 OA 
BRANCH  15  17
HETATM   17  C   UNL     1     -12.736  10.745  70.979  1.00  0.00    -0.415 C  
HETATM   18  N   UNL     1     -13.183  10.327  72.320  1.00  0.00    -0.570 NA 
HETATM   19  H1  UNL     1     -14.076  10.757  72.562  1.00  0.00     0.000 HD 
HETATM   20  H2  UNL     1     -12.472  10.515  73.027  1.00  0.00     0.000 HD 
ENDBRANCH  15  17
ENDBRANCH  12  13
ENDBRANCH   9  12
ENDBRANCH   5   9
BRANCH   6  21
HETATM   21  O   UNL     1     -10.781  12.903  67.501  1.00  0.00    -0.223 OA 
HETATM   22  C   UNL     1     -11.864  13.826  67.555  1.00  0.00    -0.387 C  
ENDBRANCH   6  21
ENDBRANCH   2   3
TORSDOF 6
ENDMDL
MODEL      258
REMARK 921   NORMALIZED FREE ENERGY PREDICTED BY IDOCK:   -3.15 KCAL/MOL
REMARK 922        TOTAL FREE ENERGY PREDICTED BY IDOCK:   -4.75 KCAL/MOL
REMARK 923 INTER-LIGAND FREE ENERGY PREDICTED BY IDOCK:   -4.15 KCAL/MOL
REMARK 924 INTRA-LIGAND FREE ENERGY PREDICTED BY IDOCK:   -0.61 KCAL/MOL
REMARK 927      BINDING AFFINITY PREDICTED BY RF-SCORE:    0.00 PKD
ROOT
HETATM    1  C   UNL     1      -8.273   9.945  67.666  1.00  0.00    -0.114 C  
HETATM    2  O   UNL     1      -9.543   9.724  68.272  1.00  0.00    -0.142 OA 
ENDROOT
BRANCH   2   3
HETATM    3  C   UNL     1     -10.233  10.831  68.684  1.00  0.00    -0.185 A  
HETATM    4  C   UNL     1      -9.805  12.150  68.555  1.00  0.00    -0.167 A  
HETATM    5  C   UNL     1     -10.579  13.237  69.022  1.00  0.00    -0.096 A  
HETATM    6  C   UNL     1     -11.827  12.955  69.619  1.00  0.00    -0.320 A  
HETATM    7  C   UNL     1     -12.256  11.628  69.745  1.00  0.00    -0.285 A  
HETATM    8  C   UNL     1     -11.463  10.574  69.281  1.00  0.00    -0.323 A  
BRANCH   5   9
HETATM    9  C   UNL     1     -10.077  14.678  68.885  1.00  0.00    -0.234 C  
HETATM   10  O   UNL     1     -10.166  15.370  70.141  1.00  0.00    -0.403 OA 
HETATM   11  H   UNL     1      -9.855  16.264  70.056  1.00  0.00     0.000 HD 
BRANCH   9  12
HETATM   12  C   UNL     1      -8.608  14.796  68.431  1.00  0.00    -0.166 C  
BRANCH  12  13
HETATM   13  N   UNL     1      -7.789  15.686  69.224  1.00  0.00    -0.218 N  
HETATM   14  H   UNL     1      -7.773  15.603  70.240  1.00  0.00     0.000 HD 
HETATM   15  C   UNL     1      -7.029  16.650  68.593  1.00  0.00    -0.172 C  
HETATM   16  O   UNL     1      -7.076  16.856  67.382  1.00  0.00    -0.141 OA 
BRANCH  15  17
HETATM   17  C   UNL     1      -6.094  17.434  69.515  1.00  0.00    -0.252 C  
HETATM   18  N   UNL     1      -6.324  18.885  69.396  1.00  0.00    -0.271 NA 
HETATM   19  H1  UNL     1      -5.700  19.409  70.011  1.00  0.00     0.000 HD 
HETATM   20  H2  UNL     1      -7.301  19.124  69.561  1.00  0.00     0.000 HD 
ENDBRANCH  15  17
ENDBRANCH  12  13
ENDBRANCH   9  12
ENDBRANCH   5   9
BRANCH   6  21
HETATM   21  O   UNL     1     -12.546  14.038  70.053  1.00  0.00    -0.317 OA 
HETATM   22  C   UNL     1     -13.127  13.965  71.352  1.00  0.00    -0.340 C  
ENDBRANCH   6  21
ENDBRANCH   2   3
TORSDOF 6
ENDMDL
MODEL      259
REMARK 921   NORMALIZED FREE ENERGY PREDICTED BY IDOCK:   -3.15 KCAL/MOL
REMARK 922        TOTAL FREE ENERGY PREDICTED BY IDOCK:   -4.75 KCAL/MOL
REMARK 923 INTER-LIGAND FREE ENERGY PREDICTED BY IDOCK:   -4.32 KCAL/MOL
REMARK 924 INTRA-LIGAND FREE ENERGY PREDICTED BY IDOCK:   -0.43 KCAL/MOL
REMARK 927      BINDING AFFINITY PREDICTED BY RF-SCORE:    0.00 PKD
ROOT
HETATM    1  C   UNL     1      -6.760  14.851  68.798  1.00  0.00    -0.092 C  
HETATM    2  O   UNL     1      -7.075  13.504  68.457  1.00  0.00    -0.093 OA 
ENDROOT
BRANCH   2   3
HETATM    3  C   UNL     1      -8.295  13.281  67.881  1.00  0.00    -0.163 A  
HETATM    4  C   UNL     1      -8.920  12.042  67.754  1.00  0.00    -0.176 A  
HETATM    5  C   UNL     1     -10.181  11.901  67.129  1.00  0.00    -0.230 A  
HETATM    6  C   UNL     1     -10.814  13.064  66.642  1.00  0.00    -0.275 A  
HETATM    7  C   UNL     1     -10.184  14.309  66.773  1.00  0.00    -0.272 A  
HETATM    8  C   UNL     1      -8.933  14.414  67.387  1.00  0.00    -0.204 A  
BRANCH   5   9
HETATM    9  C   UNL     1     -10.838  10.525  66.986  1.00  0.00    -0.225 C  
HETATM   10  O   UNL     1     -10.285   9.809  65.869  1.00  0.00    -0.259 OA 
HETATM   11  H   UNL     1     -10.692   8.956  65.780  1.00  0.00     0.000 HD 
BRANCH   9  12
HETATM   12  C   UNL     1     -10.664   9.608  68.214  1.00  0.00    -0.217 C  
BRANCH  12  13
HETATM   13  N   UNL     1     -10.903   8.203  67.971  1.00  0.00    -0.464 N  
HETATM   14  H   UNL     1     -11.107   7.870  67.029  1.00  0.00     0.000 HD 
HETATM   15  C   UNL     1     -10.852   7.315  69.026  1.00  0.00    -0.113 C  
HETATM   16  O   UNL     1     -10.700   7.667  70.194  1.00  0.00    -0.233 OA 
BRANCH  15  17
HETATM   17  C   UNL     1     -10.973   5.842  68.631  1.00  0.00    -0.215 C  
HETATM   18  N   UNL     1     -10.649   5.645  67.207  1.00  0.00    -0.257 NA 
HETATM   19  H1  UNL     1     -10.731   4.662  66.943  1.00  0.00     0.000 HD 
HETATM   20  H2  UNL     1      -9.730   6.020  66.976  1.00  0.00     0.000 HD 
ENDBRANCH  15  17
ENDBRANCH  12  13
ENDBRANCH   9  12
ENDBRANCH   5   9
BRANCH   6  21
HETATM   21  O   UNL     1     -12.036  12.882  66.049  1.00  0.00    -0.424 OA 
HETATM   22  C   UNL     1     -12.116  13.059  64.638  1.00  0.00    -0.409 C  
ENDBRANCH   6  21
ENDBRANCH   2   3
TORSDOF 6
ENDMDL
MODEL      260
REMARK 921   NORMALIZED FREE ENERGY PREDICTED BY IDOCK:   -3.14 KCAL/MOL
REMARK 922        TOTAL FREE ENERGY PREDICTED BY IDOCK:   -4.74 KCAL/MOL
REMARK 923 INTER-LIGAND FREE ENERGY PREDICTED BY IDOCK:   -4.17 KCAL/MOL
REMARK 924 INTRA-LIGAND FREE ENERGY PREDICTED BY IDOCK:   -0.57 KCAL/MOL
REMARK 927      BINDING AFFINITY PREDICTED BY RF-SCORE:    0.00 PKD
ROOT
HETATM    1  C   UNL     1     -11.104  14.037  64.625  1.00  0.00    -0.382 C  
HETATM    2  O   UNL     1     -10.709  12.739  65.059  1.00  0.00    -0.280 OA 
ENDROOT
BRANCH   2   3
HETATM    3  C   UNL     1      -9.793  12.677  66.072  1.00  0.00    -0.254 A  
HETATM    4  C   UNL     1      -9.077  13.755  66.588  1.00  0.00    -0.196 A  
HETATM    5  C   UNL     1      -8.136  13.599  67.631  1.00  0.00    -0.179 A  
HETATM    6  C   UNL     1      -7.944  12.305  68.163  1.00  0.00    -0.155 A  
HETATM    7  C   UNL     1      -8.667  11.223  67.645  1.00  0.00    -0.131 A  
HETATM    8  C   UNL     1      -9.584  11.409  66.606  1.00  0.00    -0.211 A  
BRANCH   5   9
HETATM    9  C   UNL     1      -7.348  14.797  68.168  1.00  0.00    -0.119 C  
HETATM   10  O   UNL     1      -7.323  15.863  67.205  1.00  0.00    -0.191 OA 
HETATM   11  H   UNL     1      -6.835  16.607  67.538  1.00  0.00     0.000 HD 
BRANCH   9  12
HETATM   12  C   UNL     1      -7.922  15.403  69.466  1.00  0.00    -0.204 C  
BRANCH  12  13
HETATM   13  N   UNL     1      -9.328  15.152  69.692  1.00  0.00    -0.443 N  
HETATM   14  H   UNL     1      -9.632  14.287  70.139  1.00  0.00     0.000 HD 
HETATM   15  C   UNL     1     -10.255  16.094  69.297  1.00  0.00    -0.257 C  
HETATM   16  O   UNL     1      -9.957  17.111  68.674  1.00  0.00    -0.278 OA 
BRANCH  15  17
HETATM   17  C   UNL     1     -11.695  15.792  69.716  1.00  0.00    -0.348 C  
HETATM   18  N   UNL     1     -11.749  15.255  71.088  1.00  0.00    -0.326 NA 
HETATM   19  H1  UNL     1     -12.709  15.054  71.368  1.00  0.00     0.000 HD 
HETATM   20  H2  UNL     1     -11.287  15.877  71.752  1.00  0.00     0.000 HD 
ENDBRANCH  15  17
ENDBRANCH  12  13
ENDBRANCH   9  12
ENDBRANCH   5   9
BRANCH   6  21
HETATM   21  O   UNL     1      -7.027  12.199  69.176  1.00  0.00    -0.101 OA 
HETATM   22  C   UNL     1      -6.583  10.892  69.527  1.00  0.00    -0.109 C  
ENDBRANCH   6  21
ENDBRANCH   2   3
TORSDOF 6
ENDMDL
MODEL      261
REMARK 921   NORMALIZED FREE ENERGY PREDICTED BY IDOCK:   -3.14 KCAL/MOL
REMARK 922        TOTAL FREE ENERGY PREDICTED BY IDOCK:   -4.73 KCAL/MOL
REMARK 923 INTER-LIGAND FREE ENERGY PREDICTED BY IDOCK:   -4.04 KCAL/MOL
REMARK 924 INTRA-LIGAND FREE ENERGY PREDICTED BY IDOCK:   -0.69 KCAL/MOL
REMARK 927      BINDING AFFINITY PREDICTED BY RF-SCORE:    0.00 PKD
ROOT
HETATM    1  C   UNL     1     -11.812  11.630  68.819  1.00  0.00    -0.325 C  
HETATM    2  O   UNL     1     -12.378  11.356  70.098  1.00  0.00    -0.297 OA 
ENDROOT
BRANCH   2   3
HETATM    3  C   UNL     1     -11.884  10.275  70.775  1.00  0.00    -0.365 A  
HETATM    4  C   UNL     1     -10.668   9.644  70.522  1.00  0.00    -0.374 A  
HETATM    5  C   UNL     1     -10.240   8.519  71.265  1.00  0.00    -0.287 A  
HETATM    6  C   UNL     1     -11.078   8.049  72.299  1.00  0.00    -0.331 A  
HETATM    7  C   UNL     1     -12.298   8.687  72.553  1.00  0.00    -0.378 A  
HETATM    8  C   UNL     1     -12.698   9.792  71.794  1.00  0.00    -0.519 A  
BRANCH   5   9
HETATM    9  C   UNL     1      -8.907   7.832  70.954  1.00  0.00    -0.142 C  
HETATM   10  O   UNL     1      -8.156   7.609  72.159  1.00  0.00    -0.097 OA 
HETATM   11  H   UNL     1      -7.329   7.182  71.967  1.00  0.00     0.000 HD 
BRANCH   9  12
HETATM   12  C   UNL     1      -9.048   6.454  70.274  1.00  0.00    -0.155 C  
BRANCH  12  13
HETATM   13  N   UNL     1      -8.703   5.321  71.103  1.00  0.00    -0.126 N  
HETATM   14  H   UNL     1      -8.782   5.382  72.118  1.00  0.00     0.000 HD 
HETATM   15  C   UNL     1      -8.265   4.156  70.508  1.00  0.00    -0.062 C  
HETATM   16  O   UNL     1      -8.064   4.052  69.300  1.00  0.00    -0.059 OA 
BRANCH  15  17
HETATM   17  C   UNL     1      -8.070   2.980  71.468  1.00  0.00    -0.060 C  
HETATM   18  N   UNL     1      -8.411   3.359  72.851  1.00  0.00    -0.080 NA 
HETATM   19  H1  UNL     1      -8.280   2.575  73.491  1.00  0.00     0.000 HD 
HETATM   20  H2  UNL     1      -9.354   3.742  72.913  1.00  0.00     0.000 HD 
ENDBRANCH  15  17
ENDBRANCH  12  13
ENDBRANCH   9  12
ENDBRANCH   5   9
BRANCH   6  21
HETATM   21  O   UNL     1     -10.622   6.961  72.997  1.00  0.00    -0.233 OA 
HETATM   22  C   UNL     1     -11.477   5.824  73.074  1.00  0.00    -0.150 C  
ENDBRANCH   6  21
ENDBRANCH   2   3
TORSDOF 6
ENDMDL
MODEL      262
REMARK 921   NORMALIZED FREE ENERGY PREDICTED BY IDOCK:   -3.13 KCAL/MOL
REMARK 922        TOTAL FREE ENERGY PREDICTED BY IDOCK:   -4.73 KCAL/MOL
REMARK 923 INTER-LIGAND FREE ENERGY PREDICTED BY IDOCK:   -4.78 KCAL/MOL
REMARK 924 INTRA-LIGAND FREE ENERGY PREDICTED BY IDOCK:    0.06 KCAL/MOL
REMARK 927      BINDING AFFINITY PREDICTED BY RF-SCORE:    0.00 PKD
ROOT
HETATM    1  C   UNL     1     -12.629  14.248  65.528  1.00  0.00    -0.413 C  
HETATM    2  O   UNL     1     -12.888  12.937  65.034  1.00  0.00    -0.699 OA 
ENDROOT
BRANCH   2   3
HETATM    3  C   UNL     1     -11.803  12.137  64.803  1.00  0.00    -0.318 A  
HETATM    4  C   UNL     1     -11.371  11.096  65.621  1.00  0.00     0.130 A  
HETATM    5  C   UNL     1     -10.227  10.326  65.311  1.00  0.00    -0.308 A  
HETATM    6  C   UNL     1      -9.525  10.628  64.124  1.00  0.00    -0.281 A  
HETATM    7  C   UNL     1      -9.963  11.674  63.302  1.00  0.00    -0.442 A  
HETATM    8  C   UNL     1     -11.094  12.423  63.641  1.00  0.00    -0.535 A  
BRANCH   5   9
HETATM    9  C   UNL     1      -9.762   9.198  66.237  1.00  0.00    -0.274 C  
HETATM   10  O   UNL     1      -8.759   8.393  65.596  1.00  0.00    -0.165 OA 
HETATM   11  H   UNL     1      -8.470   7.693  66.171  1.00  0.00     0.000 HD 
BRANCH   9  12
HETATM   12  C   UNL     1      -9.142   9.683  67.564  1.00  0.00    -0.130 C  
BRANCH  12  13
HETATM   13  N   UNL     1      -9.853   9.281  68.758  1.00  0.00    -0.161 N  
HETATM   14  H   UNL     1     -10.809   8.932  68.695  1.00  0.00     0.000 HD 
HETATM   15  C   UNL     1      -9.226   9.375  69.983  1.00  0.00    -0.220 C  
HETATM   16  O   UNL     1      -8.110   9.870  70.132  1.00  0.00    -0.179 OA 
BRANCH  15  17
HETATM   17  C   UNL     1     -10.015   8.787  71.154  1.00  0.00    -0.248 C  
HETATM   18  N   UNL     1     -10.986   7.780  70.689  1.00  0.00    -0.246 NA 
HETATM   19  H1  UNL     1     -11.513   7.388  71.471  1.00  0.00     0.000 HD 
HETATM   20  H2  UNL     1     -10.535   7.051  70.137  1.00  0.00     0.000 HD 
ENDBRANCH  15  17
ENDBRANCH  12  13
ENDBRANCH   9  12
ENDBRANCH   5   9
BRANCH   6  21
HETATM   21  O   UNL     1      -8.425   9.854  63.860  1.00  0.00    -0.152 OA 
HETATM   22  C   UNL     1      -8.173   9.512  62.500  1.00  0.00    -0.142 C  
ENDBRANCH   6  21
ENDBRANCH   2   3
TORSDOF 6
ENDMDL
MODEL      263
REMARK 921   NORMALIZED FREE ENERGY PREDICTED BY IDOCK:   -3.13 KCAL/MOL
REMARK 922        TOTAL FREE ENERGY PREDICTED BY IDOCK:   -4.73 KCAL/MOL
REMARK 923 INTER-LIGAND FREE ENERGY PREDICTED BY IDOCK:   -4.20 KCAL/MOL
REMARK 924 INTRA-LIGAND FREE ENERGY PREDICTED BY IDOCK:   -0.52 KCAL/MOL
REMARK 927      BINDING AFFINITY PREDICTED BY RF-SCORE:    0.00 PKD
ROOT
HETATM    1  C   UNL     1      -8.555   3.735  67.411  1.00  0.00    -0.103 C  
HETATM    2  O   UNL     1      -9.707   3.882  68.237  1.00  0.00    -0.140 OA 
ENDROOT
BRANCH   2   3
HETATM    3  C   UNL     1      -9.887   5.097  68.837  1.00  0.00    -0.172 A  
HETATM    4  C   UNL     1      -9.572   6.334  68.280  1.00  0.00    -0.119 A  
HETATM    5  C   UNL     1      -9.779   7.545  68.980  1.00  0.00    -0.162 A  
HETATM    6  C   UNL     1     -10.338   7.476  70.275  1.00  0.00    -0.213 A  
HETATM    7  C   UNL     1     -10.656   6.231  70.832  1.00  0.00    -0.293 A  
HETATM    8  C   UNL     1     -10.430   5.051  70.117  1.00  0.00    -0.235 A  
BRANCH   5   9
HETATM    9  C   UNL     1      -9.408   8.892  68.352  1.00  0.00    -0.136 C  
HETATM   10  O   UNL     1      -8.395   8.723  67.346  1.00  0.00    -0.108 OA 
HETATM   11  H   UNL     1      -8.164   9.557  66.956  1.00  0.00     0.000 HD 
BRANCH   9  12
HETATM   12  C   UNL     1     -10.583   9.615  67.662  1.00  0.00    -0.275 C  
BRANCH  12  13
HETATM   13  N   UNL     1     -11.058  10.800  68.341  1.00  0.00    -0.245 N  
HETATM   14  H   UNL     1     -11.097  10.830  69.360  1.00  0.00     0.000 HD 
HETATM   15  C   UNL     1     -11.459  11.891  67.598  1.00  0.00    -0.317 C  
HETATM   16  O   UNL     1     -11.519  11.883  66.370  1.00  0.00    -0.353 OA 
BRANCH  15  17
HETATM   17  C   UNL     1     -11.802  13.135  68.419  1.00  0.00    -0.351 C  
HETATM   18  N   UNL     1     -10.816  13.353  69.493  1.00  0.00    -0.449 NA 
HETATM   19  H1  UNL     1     -11.045  14.183  70.041  1.00  0.00     0.000 HD 
HETATM   20  H2  UNL     1      -9.865  13.396  69.126  1.00  0.00     0.000 HD 
ENDBRANCH  15  17
ENDBRANCH  12  13
ENDBRANCH   9  12
ENDBRANCH   5   9
BRANCH   6  21
HETATM   21  O   UNL     1     -10.527   8.673  70.915  1.00  0.00    -0.198 OA 
HETATM   22  C   UNL     1     -11.794   8.900  71.525  1.00  0.00    -0.332 C  
ENDBRANCH   6  21
ENDBRANCH   2   3
TORSDOF 6
ENDMDL
MODEL      264
REMARK 921   NORMALIZED FREE ENERGY PREDICTED BY IDOCK:   -3.12 KCAL/MOL
REMARK 922        TOTAL FREE ENERGY PREDICTED BY IDOCK:   -4.71 KCAL/MOL
REMARK 923 INTER-LIGAND FREE ENERGY PREDICTED BY IDOCK:   -4.20 KCAL/MOL
REMARK 924 INTRA-LIGAND FREE ENERGY PREDICTED BY IDOCK:   -0.51 KCAL/MOL
REMARK 927      BINDING AFFINITY PREDICTED BY RF-SCORE:    0.00 PKD
ROOT
HETATM    1  C   UNL     1     -11.008  14.210  64.854  1.00  0.00    -0.397 C  
HETATM    2  O   UNL     1     -11.469  12.978  65.402  1.00  0.00    -0.299 OA 
ENDROOT
BRANCH   2   3
HETATM    3  C   UNL     1     -10.751  12.457  66.443  1.00  0.00    -0.247 A  
HETATM    4  C   UNL     1      -9.437  12.787  66.770  1.00  0.00    -0.243 A  
HETATM    5  C   UNL     1      -8.764  12.188  67.859  1.00  0.00    -0.176 A  
HETATM    6  C   UNL     1      -9.468  11.241  68.635  1.00  0.00    -0.175 A  
HETATM    7  C   UNL     1     -10.789  10.913  68.305  1.00  0.00    -0.272 A  
HETATM    8  C   UNL     1     -11.424  11.517  67.216  1.00  0.00    -0.338 A  
BRANCH   5   9
HETATM    9  C   UNL     1      -7.313  12.554  68.186  1.00  0.00    -0.110 C  
HETATM   10  O   UNL     1      -6.610  12.960  67.001  1.00  0.00    -0.444 OA 
HETATM   11  H   UNL     1      -5.710  13.188  67.203  1.00  0.00     0.000 HD 
BRANCH   9  12
HETATM   12  C   UNL     1      -7.165  13.713  69.194  1.00  0.00     0.005 C  
BRANCH  12  13
HETATM   13  N   UNL     1      -8.313  14.586  69.299  1.00  0.00    -0.364 N  
HETATM   14  H   UNL     1      -9.062  14.375  69.958  1.00  0.00     0.000 HD 
HETATM   15  C   UNL     1      -8.385  15.709  68.501  1.00  0.00    -0.166 C  
HETATM   16  O   UNL     1      -7.559  15.968  67.628  1.00  0.00    -0.129 OA 
BRANCH  15  17
HETATM   17  C   UNL     1      -9.566  16.634  68.801  1.00  0.00    -0.254 C  
HETATM   18  N   UNL     1      -9.312  17.999  68.306  1.00  0.00    -0.286 NA 
HETATM   19  H1  UNL     1     -10.100  18.616  68.506  1.00  0.00     0.000 HD 
HETATM   20  H2  UNL     1      -9.076  18.000  67.314  1.00  0.00     0.000 HD 
ENDBRANCH  15  17
ENDBRANCH  12  13
ENDBRANCH   9  12
ENDBRANCH   5   9
BRANCH   6  21
HETATM   21  O   UNL     1      -8.779  10.689  69.683  1.00  0.00    -0.050 OA 
HETATM   22  C   UNL     1      -9.349   9.547  70.316  1.00  0.00    -0.259 C  
ENDBRANCH   6  21
ENDBRANCH   2   3
TORSDOF 6
ENDMDL
MODEL      265
REMARK 921   NORMALIZED FREE ENERGY PREDICTED BY IDOCK:   -3.12 KCAL/MOL
REMARK 922        TOTAL FREE ENERGY PREDICTED BY IDOCK:   -4.71 KCAL/MOL
REMARK 923 INTER-LIGAND FREE ENERGY PREDICTED BY IDOCK:   -4.39 KCAL/MOL
REMARK 924 INTRA-LIGAND FREE ENERGY PREDICTED BY IDOCK:   -0.32 KCAL/MOL
REMARK 927      BINDING AFFINITY PREDICTED BY RF-SCORE:    0.00 PKD
ROOT
HETATM    1  C   UNL     1      -8.004  10.162  65.795  1.00  0.00    -0.140 C  
HETATM    2  O   UNL     1      -9.317  10.020  66.329  1.00  0.00    -0.156 OA 
ENDROOT
BRANCH   2   3
HETATM    3  C   UNL     1      -9.525   8.981  67.193  1.00  0.00    -0.152 A  
HETATM    4  C   UNL     1      -8.918   8.825  68.438  1.00  0.00    -0.141 A  
HETATM    5  C   UNL     1      -9.181   7.708  69.264  1.00  0.00    -0.145 A  
HETATM    6  C   UNL     1     -10.101   6.743  68.802  1.00  0.00    -0.160 A  
HETATM    7  C   UNL     1     -10.712   6.903  67.552  1.00  0.00    -0.368 A  
HETATM    8  C   UNL     1     -10.423   8.014  66.754  1.00  0.00    -0.319 A  
BRANCH   5   9
HETATM    9  C   UNL     1      -8.487   7.551  70.620  1.00  0.00    -0.132 C  
HETATM   10  O   UNL     1      -7.173   8.133  70.591  1.00  0.00    -0.050 OA 
HETATM   11  H   UNL     1      -6.742   8.036  71.432  1.00  0.00     0.000 HD 
BRANCH   9  12
HETATM   12  C   UNL     1      -9.229   8.222  71.794  1.00  0.00    -0.198 C  
BRANCH  12  13
HETATM   13  N   UNL     1     -10.165   9.259  71.417  1.00  0.00    -0.324 N  
HETATM   14  H   UNL     1      -9.868  10.026  70.813  1.00  0.00     0.000 HD 
HETATM   15  C   UNL     1     -11.462   9.202  71.882  1.00  0.00    -0.353 C  
HETATM   16  O   UNL     1     -11.853   8.355  72.682  1.00  0.00    -0.393 OA 
BRANCH  15  17
HETATM   17  C   UNL     1     -12.398  10.265  71.303  1.00  0.00    -0.403 C  
HETATM   18  N   UNL     1     -13.566   9.647  70.651  1.00  0.00    -0.551 NA 
HETATM   19  H1  UNL     1     -14.190  10.357  70.265  1.00  0.00     0.000 HD 
HETATM   20  H2  UNL     1     -14.059   9.017  71.284  1.00  0.00     0.000 HD 
ENDBRANCH  15  17
ENDBRANCH  12  13
ENDBRANCH   9  12
ENDBRANCH   5   9
BRANCH   6  21
HETATM   21  O   UNL     1     -10.331   5.680  69.637  1.00  0.00    -0.223 OA 
HETATM   22  C   UNL     1      -9.770   4.423  69.270  1.00  0.00    -0.182 C  
ENDBRANCH   6  21
ENDBRANCH   2   3
TORSDOF 6
ENDMDL
MODEL      266
REMARK 921   NORMALIZED FREE ENERGY PREDICTED BY IDOCK:   -3.11 KCAL/MOL
REMARK 922        TOTAL FREE ENERGY PREDICTED BY IDOCK:   -4.69 KCAL/MOL
REMARK 923 INTER-LIGAND FREE ENERGY PREDICTED BY IDOCK:   -4.29 KCAL/MOL
REMARK 924 INTRA-LIGAND FREE ENERGY PREDICTED BY IDOCK:   -0.40 KCAL/MOL
REMARK 927      BINDING AFFINITY PREDICTED BY RF-SCORE:    0.00 PKD
ROOT
HETATM    1  C   UNL     1     -11.278  12.430  66.931  1.00  0.00    -0.305 C  
HETATM    2  O   UNL     1     -12.091  12.321  68.096  1.00  0.00    -0.407 OA 
ENDROOT
BRANCH   2   3
HETATM    3  C   UNL     1     -11.845  11.261  68.924  1.00  0.00    -0.345 A  
HETATM    4  C   UNL     1     -11.282  10.045  68.544  1.00  0.00    -0.180 A  
HETATM    5  C   UNL     1     -11.075   8.994  69.467  1.00  0.00    -0.039 A  
HETATM    6  C   UNL     1     -11.442   9.212  70.813  1.00  0.00    -0.282 A  
HETATM    7  C   UNL     1     -12.006  10.436  71.193  1.00  0.00    -0.460 A  
HETATM    8  C   UNL     1     -12.206  11.452  70.254  1.00  0.00    -0.433 A  
BRANCH   5   9
HETATM    9  C   UNL     1     -10.471   7.660  69.019  1.00  0.00    -0.205 C  
HETATM   10  O   UNL     1     -11.368   6.964  68.138  1.00  0.00    -0.533 OA 
HETATM   11  H   UNL     1     -10.994   6.137  67.860  1.00  0.00     0.000 HD 
BRANCH   9  12
HETATM   12  C   UNL     1      -9.136   7.793  68.258  1.00  0.00    -0.130 C  
BRANCH  12  13
HETATM   13  N   UNL     1      -8.843   6.716  67.339  1.00  0.00    -0.117 N  
HETATM   14  H   UNL     1      -9.220   6.730  66.391  1.00  0.00     0.000 HD 
HETATM   15  C   UNL     1      -8.048   5.668  67.755  1.00  0.00    -0.101 C  
HETATM   16  O   UNL     1      -7.640   5.550  68.909  1.00  0.00    -0.083 OA 
BRANCH  15  17
HETATM   17  C   UNL     1      -7.685   4.663  66.660  1.00  0.00    -0.091 C  
HETATM   18  N   UNL     1      -6.520   3.849  67.049  1.00  0.00    -0.040 NA 
HETATM   19  H1  UNL     1      -6.277   3.180  66.318  1.00  0.00     0.000 HD 
HETATM   20  H2  UNL     1      -6.667   3.389  67.947  1.00  0.00     0.000 HD 
ENDBRANCH  15  17
ENDBRANCH  12  13
ENDBRANCH   9  12
ENDBRANCH   5   9
BRANCH   6  21
HETATM   21  O   UNL     1     -11.219   8.169  71.675  1.00  0.00    -0.244 OA 
HETATM   22  C   UNL     1     -10.146   8.301  72.602  1.00  0.00    -0.295 C  
ENDBRANCH   6  21
ENDBRANCH   2   3
TORSDOF 6
ENDMDL
MODEL      267
REMARK 921   NORMALIZED FREE ENERGY PREDICTED BY IDOCK:   -3.11 KCAL/MOL
REMARK 922        TOTAL FREE ENERGY PREDICTED BY IDOCK:   -4.69 KCAL/MOL
REMARK 923 INTER-LIGAND FREE ENERGY PREDICTED BY IDOCK:   -4.22 KCAL/MOL
REMARK 924 INTRA-LIGAND FREE ENERGY PREDICTED BY IDOCK:   -0.48 KCAL/MOL
REMARK 927      BINDING AFFINITY PREDICTED BY RF-SCORE:    0.00 PKD
ROOT
HETATM    1  C   UNL     1      -7.770  10.165  68.430  1.00  0.00    -0.089 C  
HETATM    2  O   UNL     1      -8.301  10.180  69.752  1.00  0.00    -0.175 OA 
ENDROOT
BRANCH   2   3
HETATM    3  C   UNL     1      -9.334   9.323  70.013  1.00  0.00    -0.209 A  
HETATM    4  C   UNL     1      -9.666   8.196  69.264  1.00  0.00    -0.170 A  
HETATM    5  C   UNL     1     -10.763   7.370  69.599  1.00  0.00    -0.245 A  
HETATM    6  C   UNL     1     -11.523   7.707  70.741  1.00  0.00    -0.277 A  
HETATM    7  C   UNL     1     -11.186   8.839  71.494  1.00  0.00    -0.377 A  
HETATM    8  C   UNL     1     -10.100   9.641  71.131  1.00  0.00    -0.120 A  
BRANCH   5   9
HETATM    9  C   UNL     1     -11.117   6.147  68.748  1.00  0.00    -0.319 C  
HETATM   10  O   UNL     1     -11.424   6.536  67.399  1.00  0.00    -0.740 OA 
HETATM   11  H   UNL     1     -11.643   5.778  66.871  1.00  0.00     0.000 HD 
BRANCH   9  12
HETATM   12  C   UNL     1      -9.992   5.097  68.649  1.00  0.00    -0.158 C  
BRANCH  12  13
HETATM   13  N   UNL     1     -10.000   4.088  69.685  1.00  0.00    -0.077 N  
HETATM   14  H   UNL     1     -10.528   3.224  69.559  1.00  0.00     0.000 HD 
HETATM   15  C   UNL     1      -9.287   4.303  70.846  1.00  0.00    -0.150 C  
HETATM   16  O   UNL     1      -8.707   5.359  71.093  1.00  0.00    -0.126 OA 
BRANCH  15  17
HETATM   17  C   UNL     1      -9.248   3.112  71.805  1.00  0.00    -0.113 C  
HETATM   18  N   UNL     1      -9.528   1.850  71.097  1.00  0.00    -0.127 NA 
HETATM   19  H1  UNL     1      -9.501   1.055  71.737  1.00  0.00     0.000 HD 
HETATM   20  H2  UNL     1      -8.898   1.716  70.306  1.00  0.00     0.000 HD 
ENDBRANCH  15  17
ENDBRANCH  12  13
ENDBRANCH   9  12
ENDBRANCH   5   9
BRANCH   6  21
HETATM   21  O   UNL     1     -12.573   6.877  71.033  1.00  0.00    -0.374 OA 
HETATM   22  C   UNL     1     -13.780   7.479  71.490  1.00  0.00    -0.372 C  
ENDBRANCH   6  21
ENDBRANCH   2   3
TORSDOF 6
ENDMDL
MODEL      268
REMARK 921   NORMALIZED FREE ENERGY PREDICTED BY IDOCK:   -3.06 KCAL/MOL
REMARK 922        TOTAL FREE ENERGY PREDICTED BY IDOCK:   -4.62 KCAL/MOL
REMARK 923 INTER-LIGAND FREE ENERGY PREDICTED BY IDOCK:   -4.20 KCAL/MOL
REMARK 924 INTRA-LIGAND FREE ENERGY PREDICTED BY IDOCK:   -0.42 KCAL/MOL
REMARK 927      BINDING AFFINITY PREDICTED BY RF-SCORE:    0.00 PKD
ROOT
HETATM    1  C   UNL     1      -7.372   9.833  69.659  1.00  0.00    -0.103 C  
HETATM    2  O   UNL     1      -8.621   9.944  68.983  1.00  0.00    -0.131 OA 
ENDROOT
BRANCH   2   3
HETATM    3  C   UNL     1      -9.725   9.479  69.642  1.00  0.00    -0.200 A  
HETATM    4  C   UNL     1      -9.955   8.155  70.011  1.00  0.00    -0.192 A  
HETATM    5  C   UNL     1     -11.134   7.758  70.681  1.00  0.00    -0.264 A  
HETATM    6  C   UNL     1     -12.088   8.752  70.991  1.00  0.00    -0.225 A  
HETATM    7  C   UNL     1     -11.853  10.083  70.622  1.00  0.00    -0.411 A  
HETATM    8  C   UNL     1     -10.681  10.442  69.952  1.00  0.00    -0.331 A  
BRANCH   5   9
HETATM    9  C   UNL     1     -11.371   6.293  71.058  1.00  0.00    -0.316 C  
HETATM   10  O   UNL     1     -10.425   5.437  70.397  1.00  0.00    -0.266 OA 
HETATM   11  H   UNL     1     -10.571   4.528  70.631  1.00  0.00     0.000 HD 
BRANCH   9  12
HETATM   12  C   UNL     1     -11.238   5.998  72.567  1.00  0.00    -0.290 C  
BRANCH  12  13
HETATM   13  N   UNL     1     -10.356   6.886  73.291  1.00  0.00    -0.256 N  
HETATM   14  H   UNL     1     -10.651   7.836  73.515  1.00  0.00     0.000 HD 
HETATM   15  C   UNL     1      -9.110   6.436  73.677  1.00  0.00    -0.129 C  
HETATM   16  O   UNL     1      -8.664   5.335  73.359  1.00  0.00    -0.115 OA 
BRANCH  15  17
HETATM   17  C   UNL     1      -8.324   7.405  74.561  1.00  0.00    -0.204 C  
HETATM   18  N   UNL     1      -6.885   7.086  74.553  1.00  0.00    -0.090 NA 
HETATM   19  H1  UNL     1      -6.360   7.732  75.143  1.00  0.00     0.000 HD 
HETATM   20  H2  UNL     1      -6.513   7.057  73.604  1.00  0.00     0.000 HD 
ENDBRANCH  15  17
ENDBRANCH  12  13
ENDBRANCH   9  12
ENDBRANCH   5   9
BRANCH   6  21
HETATM   21  O   UNL     1     -13.213   8.325  71.646  1.00  0.00    -0.328 OA 
HETATM   22  C   UNL     1     -13.766   9.187  72.636  1.00  0.00    -0.351 C  
ENDBRANCH   6  21
ENDBRANCH   2   3
TORSDOF 6
ENDMDL
MODEL      269
REMARK 921   NORMALIZED FREE ENERGY PREDICTED BY IDOCK:   -3.05 KCAL/MOL
REMARK 922        TOTAL FREE ENERGY PREDICTED BY IDOCK:   -4.62 KCAL/MOL
REMARK 923 INTER-LIGAND FREE ENERGY PREDICTED BY IDOCK:   -4.18 KCAL/MOL
REMARK 924 INTRA-LIGAND FREE ENERGY PREDICTED BY IDOCK:   -0.44 KCAL/MOL
REMARK 927      BINDING AFFINITY PREDICTED BY RF-SCORE:    0.00 PKD
ROOT
HETATM    1  C   UNL     1      -8.827  10.736  66.919  1.00  0.00    -0.140 C  
HETATM    2  O   UNL     1      -9.962  11.168  67.665  1.00  0.00    -0.171 OA 
ENDROOT
BRANCH   2   3
HETATM    3  C   UNL     1     -10.178  10.560  68.870  1.00  0.00    -0.208 A  
HETATM    4  C   UNL     1      -9.206   9.945  69.657  1.00  0.00    -0.246 A  
HETATM    5  C   UNL     1      -9.521   9.326  70.888  1.00  0.00    -0.330 A  
HETATM    6  C   UNL     1     -10.864   9.358  71.323  1.00  0.00    -0.361 A  
HETATM    7  C   UNL     1     -11.839   9.979  70.532  1.00  0.00    -0.387 A  
HETATM    8  C   UNL     1     -11.497  10.574  69.314  1.00  0.00    -0.323 A  
BRANCH   5   9
HETATM    9  C   UNL     1      -8.437   8.641  71.725  1.00  0.00    -0.155 C  
HETATM   10  O   UNL     1      -8.707   8.789  73.129  1.00  0.00    -0.341 OA 
HETATM   11  H   UNL     1      -8.035   8.364  73.649  1.00  0.00     0.000 HD 
BRANCH   9  12
HETATM   12  C   UNL     1      -8.303   7.125  71.470  1.00  0.00    -0.111 C  
BRANCH  12  13
HETATM   13  N   UNL     1      -9.500   6.476  70.982  1.00  0.00    -0.164 N  
HETATM   14  H   UNL     1     -10.244   6.214  71.628  1.00  0.00     0.000 HD 
HETATM   15  C   UNL     1      -9.626   6.214  69.634  1.00  0.00    -0.148 C  
HETATM   16  O   UNL     1      -8.727   6.424  68.821  1.00  0.00    -0.122 OA 
BRANCH  15  17
HETATM   17  C   UNL     1     -10.988   5.661  69.212  1.00  0.00    -0.154 C  
HETATM   18  N   UNL     1     -12.084   6.522  69.693  1.00  0.00    -0.386 NA 
HETATM   19  H1  UNL     1     -12.993   6.152  69.412  1.00  0.00     0.000 HD 
HETATM   20  H2  UNL     1     -11.961   7.488  69.391  1.00  0.00     0.000 HD 
ENDBRANCH  15  17
ENDBRANCH  12  13
ENDBRANCH   9  12
ENDBRANCH   5   9
BRANCH   6  21
HETATM   21  O   UNL     1     -11.124   8.751  72.524  1.00  0.00    -0.266 OA 
HETATM   22  C   UNL     1     -12.404   8.149  72.693  1.00  0.00    -0.166 C  
ENDBRANCH   6  21
ENDBRANCH   2   3
TORSDOF 6
ENDMDL
MODEL      270
REMARK 921   NORMALIZED FREE ENERGY PREDICTED BY IDOCK:   -3.05 KCAL/MOL
REMARK 922        TOTAL FREE ENERGY PREDICTED BY IDOCK:   -4.62 KCAL/MOL
REMARK 923 INTER-LIGAND FREE ENERGY PREDICTED BY IDOCK:   -4.10 KCAL/MOL
REMARK 924 INTRA-LIGAND FREE ENERGY PREDICTED BY IDOCK:   -0.52 KCAL/MOL
REMARK 927      BINDING AFFINITY PREDICTED BY RF-SCORE:    0.00 PKD
ROOT
HETATM    1  C   UNL     1      -5.307  11.863  68.557  1.00  0.00    -0.052 C  
HETATM    2  O   UNL     1      -6.169  10.744  68.749  1.00  0.00    -0.040 OA 
ENDROOT
BRANCH   2   3
HETATM    3  C   UNL     1      -7.502  10.942  68.518  1.00  0.00    -0.103 A  
HETATM    4  C   UNL     1      -8.121  12.177  68.341  1.00  0.00    -0.149 A  
HETATM    5  C   UNL     1      -9.513  12.292  68.119  1.00  0.00    -0.213 A  
HETATM    6  C   UNL     1     -10.276  11.105  68.064  1.00  0.00    -0.181 A  
HETATM    7  C   UNL     1      -9.650   9.865  68.240  1.00  0.00    -0.151 A  
HETATM    8  C   UNL     1      -8.273   9.786  68.467  1.00  0.00    -0.106 A  
BRANCH   5   9
HETATM    9  C   UNL     1     -10.172  13.663  67.946  1.00  0.00    -0.250 C  
HETATM   10  O   UNL     1      -9.531  14.646  68.775  1.00  0.00    -0.204 OA 
HETATM   11  H   UNL     1      -9.940  15.497  68.667  1.00  0.00     0.000 HD 
BRANCH   9  12
HETATM   12  C   UNL     1     -10.119  14.214  66.506  1.00  0.00    -0.280 C  
BRANCH  12  13
HETATM   13  N   UNL     1     -10.821  13.422  65.519  1.00  0.00    -0.285 N  
HETATM   14  H   UNL     1     -10.763  12.404  65.539  1.00  0.00     0.000 HD 
HETATM   15  C   UNL     1     -11.569  14.057  64.549  1.00  0.00    -0.391 C  
HETATM   16  O   UNL     1     -11.604  15.279  64.420  1.00  0.00    -0.358 OA 
BRANCH  15  17
HETATM   17  C   UNL     1     -12.382  13.122  63.653  1.00  0.00    -0.404 C  
HETATM   18  N   UNL     1     -13.236  12.226  64.453  1.00  0.00    -0.749 NA 
HETATM   19  H1  UNL     1     -13.778  11.602  63.855  1.00  0.00     0.000 HD 
HETATM   20  H2  UNL     1     -13.835  12.750  65.091  1.00  0.00     0.000 HD 
ENDBRANCH  15  17
ENDBRANCH  12  13
ENDBRANCH   9  12
ENDBRANCH   5   9
BRANCH   6  21
HETATM   21  O   UNL     1     -11.619  11.262  67.842  1.00  0.00    -0.441 OA 
HETATM   22  C   UNL     1     -12.483  11.210  68.973  1.00  0.00     0.259 C  
ENDBRANCH   6  21
ENDBRANCH   2   3
TORSDOF 6
ENDMDL
MODEL      271
REMARK 921   NORMALIZED FREE ENERGY PREDICTED BY IDOCK:   -3.04 KCAL/MOL
REMARK 922        TOTAL FREE ENERGY PREDICTED BY IDOCK:   -4.61 KCAL/MOL
REMARK 923 INTER-LIGAND FREE ENERGY PREDICTED BY IDOCK:   -4.18 KCAL/MOL
REMARK 924 INTRA-LIGAND FREE ENERGY PREDICTED BY IDOCK:   -0.43 KCAL/MOL
REMARK 927      BINDING AFFINITY PREDICTED BY RF-SCORE:    0.00 PKD
ROOT
HETATM    1  C   UNL     1     -12.994  10.489  71.645  1.00  0.00    -0.476 C  
HETATM    2  O   UNL     1     -12.445  10.656  70.341  1.00  0.00    -0.317 OA 
ENDROOT
BRANCH   2   3
HETATM    3  C   UNL     1     -11.296   9.968  70.061  1.00  0.00    -0.275 A  
HETATM    4  C   UNL     1     -10.316  10.358  69.151  1.00  0.00    -0.241 A  
HETATM    5  C   UNL     1      -9.162   9.576  68.913  1.00  0.00    -0.145 A  
HETATM    6  C   UNL     1      -9.010   8.378  69.643  1.00  0.00    -0.145 A  
HETATM    7  C   UNL     1      -9.996   7.990  70.560  1.00  0.00    -0.193 A  
HETATM    8  C   UNL     1     -11.130   8.780  70.766  1.00  0.00    -0.306 A  
BRANCH   5   9
HETATM    9  C   UNL     1      -8.109  10.017  67.893  1.00  0.00    -0.109 C  
HETATM   10  O   UNL     1      -6.786   9.696  68.354  1.00  0.00    -0.060 OA 
HETATM   11  H   UNL     1      -6.133   9.969  67.721  1.00  0.00     0.000 HD 
BRANCH   9  12
HETATM   12  C   UNL     1      -8.254   9.357  66.506  1.00  0.00    -0.115 C  
BRANCH  12  13
HETATM   13  N   UNL     1      -8.353  10.277  65.395  1.00  0.00    -0.157 N  
HETATM   14  H   UNL     1      -7.510  10.647  64.956  1.00  0.00     0.000 HD 
HETATM   15  C   UNL     1      -9.598  10.650  64.933  1.00  0.00    -0.269 C  
HETATM   16  O   UNL     1     -10.647  10.309  65.477  1.00  0.00    -0.142 OA 
BRANCH  15  17
HETATM   17  C   UNL     1      -9.582  11.507  63.666  1.00  0.00    -0.249 C  
HETATM   18  N   UNL     1     -10.770  11.247  62.833  1.00  0.00    -0.792 NA 
HETATM   19  H1  UNL     1     -10.759  11.819  61.987  1.00  0.00     0.000 HD 
HETATM   20  H2  UNL     1     -11.633  11.374  63.361  1.00  0.00     0.000 HD 
ENDBRANCH  15  17
ENDBRANCH  12  13
ENDBRANCH   9  12
ENDBRANCH   5   9
BRANCH   6  21
HETATM   21  O   UNL     1      -7.875   7.654  69.386  1.00  0.00    -0.117 OA 
HETATM   22  C   UNL     1      -7.245   7.005  70.487  1.00  0.00    -0.068 C  
ENDBRANCH   6  21
ENDBRANCH   2   3
TORSDOF 6
ENDMDL
MODEL      272
REMARK 921   NORMALIZED FREE ENERGY PREDICTED BY IDOCK:   -3.04 KCAL/MOL
REMARK 922        TOTAL FREE ENERGY PREDICTED BY IDOCK:   -4.60 KCAL/MOL
REMARK 923 INTER-LIGAND FREE ENERGY PREDICTED BY IDOCK:   -3.83 KCAL/MOL
REMARK 924 INTRA-LIGAND FREE ENERGY PREDICTED BY IDOCK:   -0.78 KCAL/MOL
REMARK 927      BINDING AFFINITY PREDICTED BY RF-SCORE:    0.00 PKD
ROOT
HETATM    1  C   UNL     1      -9.633   3.209  63.949  1.00  0.00    -0.135 C  
HETATM    2  O   UNL     1     -10.271   4.263  64.665  1.00  0.00    -0.181 OA 
ENDROOT
BRANCH   2   3
HETATM    3  C   UNL     1      -9.947   4.399  65.986  1.00  0.00    -0.240 A  
HETATM    4  C   UNL     1      -9.946   5.592  66.705  1.00  0.00    -0.210 A  
HETATM    5  C   UNL     1      -9.582   5.643  68.071  1.00  0.00    -0.137 A  
HETATM    6  C   UNL     1      -9.229   4.434  68.709  1.00  0.00    -0.136 A  
HETATM    7  C   UNL     1      -9.233   3.236  67.985  1.00  0.00    -0.243 A  
HETATM    8  C   UNL     1      -9.588   3.220  66.633  1.00  0.00    -0.045 A  
BRANCH   5   9
HETATM    9  C   UNL     1      -9.572   6.971  68.834  1.00  0.00    -0.140 C  
HETATM   10  O   UNL     1      -8.226   7.428  69.043  1.00  0.00    -0.125 OA 
HETATM   11  H   UNL     1      -8.219   8.252  69.516  1.00  0.00     0.000 HD 
BRANCH   9  12
HETATM   12  C   UNL     1     -10.310   8.120  68.116  1.00  0.00    -0.201 C  
BRANCH  12  13
HETATM   13  N   UNL     1     -11.211   8.886  68.949  1.00  0.00    -0.375 N  
HETATM   14  H   UNL     1     -12.211   8.688  68.946  1.00  0.00     0.000 HD 
HETATM   15  C   UNL     1     -10.704   9.890  69.749  1.00  0.00    -0.267 C  
HETATM   16  O   UNL     1      -9.524  10.234  69.729  1.00  0.00    -0.191 OA 
BRANCH  15  17
HETATM   17  C   UNL     1     -11.721  10.533  70.693  1.00  0.00    -0.357 C  
HETATM   18  N   UNL     1     -13.065   9.961  70.497  1.00  0.00    -0.586 NA 
HETATM   19  H1  UNL     1     -13.744  10.390  71.127  1.00  0.00     0.000 HD 
HETATM   20  H2  UNL     1     -13.057   8.945  70.589  1.00  0.00     0.000 HD 
ENDBRANCH  15  17
ENDBRANCH  12  13
ENDBRANCH   9  12
ENDBRANCH   5   9
BRANCH   6  21
HETATM   21  O   UNL     1      -8.889   4.529  70.033  1.00  0.00    -0.079 OA 
HETATM   22  C   UNL     1      -9.687   3.811  70.970  1.00  0.00    -0.178 C  
ENDBRANCH   6  21
ENDBRANCH   2   3
TORSDOF 6
ENDMDL
MODEL      273
REMARK 921   NORMALIZED FREE ENERGY PREDICTED BY IDOCK:   -3.03 KCAL/MOL
REMARK 922        TOTAL FREE ENERGY PREDICTED BY IDOCK:   -4.58 KCAL/MOL
REMARK 923 INTER-LIGAND FREE ENERGY PREDICTED BY IDOCK:   -3.89 KCAL/MOL
REMARK 924 INTRA-LIGAND FREE ENERGY PREDICTED BY IDOCK:   -0.69 KCAL/MOL
REMARK 927      BINDING AFFINITY PREDICTED BY RF-SCORE:    0.00 PKD
ROOT
HETATM    1  C   UNL     1     -11.644  11.886  68.179  1.00  0.00    -0.334 C  
HETATM    2  O   UNL     1     -11.976  11.528  69.518  1.00  0.00    -0.312 OA 
ENDROOT
BRANCH   2   3
HETATM    3  C   UNL     1     -11.588  10.286  69.940  1.00  0.00    -0.256 A  
HETATM    4  C   UNL     1     -10.990   9.308  69.148  1.00  0.00    -0.083 A  
HETATM    5  C   UNL     1     -10.632   8.042  69.665  1.00  0.00    -0.223 A  
HETATM    6  C   UNL     1     -10.881   7.788  71.031  1.00  0.00    -0.239 A  
HETATM    7  C   UNL     1     -11.480   8.774  71.826  1.00  0.00    -0.413 A  
HETATM    8  C   UNL     1     -11.831  10.013  71.282  1.00  0.00    -0.471 A  
BRANCH   5   9
HETATM    9  C   UNL     1      -9.992   6.978  68.769  1.00  0.00    -0.160 C  
HETATM   10  O   UNL     1     -10.755   5.760  68.800  1.00  0.00    -0.254 OA 
HETATM   11  H   UNL     1     -10.359   5.100  68.243  1.00  0.00     0.000 HD 
BRANCH   9  12
HETATM   12  C   UNL     1      -9.885   7.381  67.284  1.00  0.00    -0.175 C  
BRANCH  12  13
HETATM   13  N   UNL     1      -8.565   7.253  66.706  1.00  0.00    -0.123 N  
HETATM   14  H   UNL     1      -7.891   8.014  66.786  1.00  0.00     0.000 HD 
HETATM   15  C   UNL     1      -8.226   6.090  66.045  1.00  0.00    -0.125 C  
HETATM   16  O   UNL     1      -9.022   5.177  65.839  1.00  0.00    -0.135 OA 
BRANCH  15  17
HETATM   17  C   UNL     1      -6.763   6.006  65.605  1.00  0.00    -0.048 C  
HETATM   18  N   UNL     1      -6.638   6.148  64.143  1.00  0.00    -0.033 NA 
HETATM   19  H1  UNL     1      -5.663   6.092  63.850  1.00  0.00     0.000 HD 
HETATM   20  H2  UNL     1      -7.082   7.004  63.811  1.00  0.00     0.000 HD 
ENDBRANCH  15  17
ENDBRANCH  12  13
ENDBRANCH   9  12
ENDBRANCH   5   9
BRANCH   6  21
HETATM   21  O   UNL     1     -10.513   6.551  71.492  1.00  0.00    -0.210 OA 
HETATM   22  C   UNL     1     -11.447   5.848  72.306  1.00  0.00    -0.297 C  
ENDBRANCH   6  21
ENDBRANCH   2   3
TORSDOF 6
ENDMDL
MODEL      274
REMARK 921   NORMALIZED FREE ENERGY PREDICTED BY IDOCK:   -3.01 KCAL/MOL
REMARK 922        TOTAL FREE ENERGY PREDICTED BY IDOCK:   -4.56 KCAL/MOL
REMARK 923 INTER-LIGAND FREE ENERGY PREDICTED BY IDOCK:   -4.15 KCAL/MOL
REMARK 924 INTRA-LIGAND FREE ENERGY PREDICTED BY IDOCK:   -0.41 KCAL/MOL
REMARK 927      BINDING AFFINITY PREDICTED BY RF-SCORE:    0.00 PKD
ROOT
HETATM    1  C   UNL     1      -8.484   9.881  69.638  1.00  0.00    -0.187 C  
HETATM    2  O   UNL     1      -7.711  10.462  68.591  1.00  0.00    -0.091 OA 
ENDROOT
BRANCH   2   3
HETATM    3  C   UNL     1      -7.646   9.769  67.414  1.00  0.00    -0.091 A  
HETATM    4  C   UNL     1      -7.790  10.315  66.140  1.00  0.00    -0.129 A  
HETATM    5  C   UNL     1      -7.722   9.521  64.973  1.00  0.00    -0.114 A  
HETATM    6  C   UNL     1      -7.483   8.138  65.124  1.00  0.00    -0.081 A  
HETATM    7  C   UNL     1      -7.335   7.592  66.406  1.00  0.00    -0.083 A  
HETATM    8  C   UNL     1      -7.418   8.403  67.541  1.00  0.00    -0.094 A  
BRANCH   5   9
HETATM    9  C   UNL     1      -7.903  10.143  63.585  1.00  0.00    -0.154 C  
HETATM   10  O   UNL     1      -6.907   9.652  62.672  1.00  0.00    -0.097 OA 
HETATM   11  H   UNL     1      -7.019  10.037  61.811  1.00  0.00     0.000 HD 
BRANCH   9  12
HETATM   12  C   UNL     1      -9.269   9.847  62.931  1.00  0.00    -0.261 C  
BRANCH  12  13
HETATM   13  N   UNL     1     -10.136  10.994  62.774  1.00  0.00    -0.690 N  
HETATM   14  H   UNL     1     -10.181  11.488  61.883  1.00  0.00     0.000 HD 
HETATM   15  C   UNL     1     -10.902  11.414  63.842  1.00  0.00    -0.393 C  
HETATM   16  O   UNL     1     -10.824  10.916  64.963  1.00  0.00    -0.208 OA 
BRANCH  15  17
HETATM   17  C   UNL     1     -11.887  12.540  63.521  1.00  0.00    -0.534 C  
HETATM   18  N   UNL     1     -13.145  12.377  64.272  1.00  0.00    -0.787 NA 
HETATM   19  H1  UNL     1     -13.802  13.128  64.057  1.00  0.00     0.000 HD 
HETATM   20  H2  UNL     1     -12.975  12.302  65.275  1.00  0.00     0.000 HD 
ENDBRANCH  15  17
ENDBRANCH  12  13
ENDBRANCH   9  12
ENDBRANCH   5   9
BRANCH   6  21
HETATM   21  O   UNL     1      -7.419   7.406  63.967  1.00  0.00    -0.085 OA 
HETATM   22  C   UNL     1      -8.088   6.149  63.946  1.00  0.00    -0.068 C  
ENDBRANCH   6  21
ENDBRANCH   2   3
TORSDOF 6
ENDMDL
MODEL      275
REMARK 921   NORMALIZED FREE ENERGY PREDICTED BY IDOCK:   -3.00 KCAL/MOL
REMARK 922        TOTAL FREE ENERGY PREDICTED BY IDOCK:   -4.55 KCAL/MOL
REMARK 923 INTER-LIGAND FREE ENERGY PREDICTED BY IDOCK:   -3.98 KCAL/MOL
REMARK 924 INTRA-LIGAND FREE ENERGY PREDICTED BY IDOCK:   -0.57 KCAL/MOL
REMARK 927      BINDING AFFINITY PREDICTED BY RF-SCORE:    0.00 PKD
ROOT
HETATM    1  C   UNL     1     -13.112   9.203  72.645  1.00  0.00    -0.276 C  
HETATM    2  O   UNL     1     -12.569   8.424  71.583  1.00  0.00    -0.311 OA 
ENDROOT
BRANCH   2   3
HETATM    3  C   UNL     1     -11.930   9.102  70.583  1.00  0.00    -0.124 A  
HETATM    4  C   UNL     1     -10.854   8.628  69.837  1.00  0.00    -0.210 A  
HETATM    5  C   UNL     1     -10.243   9.405  68.826  1.00  0.00    -0.221 A  
HETATM    6  C   UNL     1     -10.767  10.691  68.570  1.00  0.00    -0.217 A  
HETATM    7  C   UNL     1     -11.851  11.164  69.319  1.00  0.00    -0.422 A  
HETATM    8  C   UNL     1     -12.427  10.375  70.319  1.00  0.00    -0.296 A  
BRANCH   5   9
HETATM    9  C   UNL     1      -9.048   8.867  68.033  1.00  0.00    -0.139 C  
HETATM   10  O   UNL     1      -8.408   7.793  68.741  1.00  0.00    -0.126 OA 
HETATM   11  H   UNL     1      -7.667   7.459  68.249  1.00  0.00     0.000 HD 
BRANCH   9  12
HETATM   12  C   UNL     1      -9.411   8.310  66.640  1.00  0.00    -0.209 C  
BRANCH  12  13
HETATM   13  N   UNL     1      -9.062   9.164  65.527  1.00  0.00    -0.211 N  
HETATM   14  H   UNL     1      -9.375  10.134  65.503  1.00  0.00     0.000 HD 
HETATM   15  C   UNL     1      -8.302   8.654  64.495  1.00  0.00    -0.147 C  
HETATM   16  O   UNL     1      -7.972   7.471  64.423  1.00  0.00    -0.135 OA 
BRANCH  15  17
HETATM   17  C   UNL     1      -7.871   9.681  63.447  1.00  0.00    -0.138 C  
HETATM   18  N   UNL     1      -6.912  10.647  64.012  1.00  0.00    -0.341 NA 
HETATM   19  H1  UNL     1      -6.624  11.333  63.312  1.00  0.00     0.000 HD 
HETATM   20  H2  UNL     1      -6.108  10.177  64.429  1.00  0.00     0.000 HD 
ENDBRANCH  15  17
ENDBRANCH  12  13
ENDBRANCH   9  12
ENDBRANCH   5   9
BRANCH   6  21
HETATM   21  O   UNL     1     -10.149  11.407  67.578  1.00  0.00    -0.180 OA 
HETATM   22  C   UNL     1     -10.966  12.242  66.763  1.00  0.00    -0.276 C  
ENDBRANCH   6  21
ENDBRANCH   2   3
TORSDOF 6
ENDMDL
MODEL      276
REMARK 921   NORMALIZED FREE ENERGY PREDICTED BY IDOCK:   -2.98 KCAL/MOL
REMARK 922        TOTAL FREE ENERGY PREDICTED BY IDOCK:   -4.53 KCAL/MOL
REMARK 923 INTER-LIGAND FREE ENERGY PREDICTED BY IDOCK:   -3.79 KCAL/MOL
REMARK 924 INTRA-LIGAND FREE ENERGY PREDICTED BY IDOCK:   -0.74 KCAL/MOL
REMARK 927      BINDING AFFINITY PREDICTED BY RF-SCORE:    0.00 PKD
ROOT
HETATM    1  C   UNL     1      -6.379  11.171  70.145  1.00  0.00    -0.137 C  
HETATM    2  O   UNL     1      -7.441  10.221  70.132  1.00  0.00    -0.165 OA 
ENDROOT
BRANCH   2   3
HETATM    3  C   UNL     1      -8.082  10.027  68.940  1.00  0.00    -0.111 A  
HETATM    4  C   UNL     1      -8.961   8.985  68.649  1.00  0.00    -0.137 A  
HETATM    5  C   UNL     1      -9.571   8.853  67.381  1.00  0.00    -0.201 A  
HETATM    6  C   UNL     1      -9.281   9.825  66.400  1.00  0.00    -0.160 A  
HETATM    7  C   UNL     1      -8.399  10.873  66.695  1.00  0.00    -0.143 A  
HETATM    8  C   UNL     1      -7.804  10.971  67.956  1.00  0.00    -0.112 A  
BRANCH   5   9
HETATM    9  C   UNL     1     -10.519   7.688  67.081  1.00  0.00    -0.342 C  
HETATM   10  O   UNL     1     -10.013   6.883  66.004  1.00  0.00    -0.408 OA 
HETATM   11  H   UNL     1     -10.600   6.160  65.818  1.00  0.00     0.000 HD 
BRANCH   9  12
HETATM   12  C   UNL     1     -10.740   6.729  68.269  1.00  0.00    -0.235 C  
BRANCH  12  13
HETATM   13  N   UNL     1     -10.396   5.347  68.016  1.00  0.00    -0.174 N  
HETATM   14  H   UNL     1     -10.812   4.849  67.229  1.00  0.00     0.000 HD 
HETATM   15  C   UNL     1      -9.501   4.708  68.848  1.00  0.00    -0.153 C  
HETATM   16  O   UNL     1      -9.037   5.227  69.862  1.00  0.00    -0.125 OA 
BRANCH  15  17
HETATM   17  C   UNL     1      -9.101   3.301  68.401  1.00  0.00    -0.157 C  
HETATM   18  N   UNL     1      -9.489   3.057  67.000  1.00  0.00    -0.383 NA 
HETATM   19  H1  UNL     1      -9.222   2.118  66.702  1.00  0.00     0.000 HD 
HETATM   20  H2  UNL     1      -9.112   3.770  66.377  1.00  0.00     0.000 HD 
ENDBRANCH  15  17
ENDBRANCH  12  13
ENDBRANCH   9  12
ENDBRANCH   5   9
BRANCH   6  21
HETATM   21  O   UNL     1      -9.898   9.661  65.187  1.00  0.00    -0.295 OA 
HETATM   22  C   UNL     1     -10.099  10.824  64.389  1.00  0.00    -0.353 C  
ENDBRANCH   6  21
ENDBRANCH   2   3
TORSDOF 6
ENDMDL
MODEL      277
REMARK 921   NORMALIZED FREE ENERGY PREDICTED BY IDOCK:   -2.98 KCAL/MOL
REMARK 922        TOTAL FREE ENERGY PREDICTED BY IDOCK:   -4.52 KCAL/MOL
REMARK 923 INTER-LIGAND FREE ENERGY PREDICTED BY IDOCK:   -4.44 KCAL/MOL
REMARK 924 INTRA-LIGAND FREE ENERGY PREDICTED BY IDOCK:   -0.08 KCAL/MOL
REMARK 927      BINDING AFFINITY PREDICTED BY RF-SCORE:    0.00 PKD
ROOT
HETATM    1  C   UNL     1      -6.725   8.584  68.918  1.00  0.00    -0.053 C  
HETATM    2  O   UNL     1      -6.466   9.886  68.400  1.00  0.00    -0.054 OA 
ENDROOT
BRANCH   2   3
HETATM    3  C   UNL     1      -7.514  10.539  67.815  1.00  0.00    -0.087 A  
HETATM    4  C   UNL     1      -7.715  11.918  67.814  1.00  0.00    -0.136 A  
HETATM    5  C   UNL     1      -8.839  12.510  67.193  1.00  0.00    -0.202 A  
HETATM    6  C   UNL     1      -9.764  11.662  66.547  1.00  0.00    -0.206 A  
HETATM    7  C   UNL     1      -9.558  10.276  66.547  1.00  0.00    -0.228 A  
HETATM    8  C   UNL     1      -8.442   9.721  67.178  1.00  0.00    -0.125 A  
BRANCH   5   9
HETATM    9  C   UNL     1      -9.047  14.027  67.222  1.00  0.00    -0.220 C  
HETATM   10  O   UNL     1     -10.197  14.399  66.445  1.00  0.00    -0.274 OA 
HETATM   11  H   UNL     1     -10.326  15.340  66.463  1.00  0.00     0.000 HD 
BRANCH   9  12
HETATM   12  C   UNL     1      -9.273  14.609  68.633  1.00  0.00    -0.194 C  
BRANCH  12  13
HETATM   13  N   UNL     1     -10.469  14.149  69.303  1.00  0.00    -0.424 N  
HETATM   14  H   UNL     1     -10.508  13.213  69.704  1.00  0.00     0.000 HD 
HETATM   15  C   UNL     1     -11.560  14.990  69.393  1.00  0.00    -0.315 C  
HETATM   16  O   UNL     1     -11.605  16.093  68.852  1.00  0.00    -0.357 OA 
BRANCH  15  17
HETATM   17  C   UNL     1     -12.711  14.456  70.247  1.00  0.00    -0.263 C  
HETATM   18  N   UNL     1     -13.549  15.556  70.757  1.00  0.00    -0.847 NA 
HETATM   19  H1  UNL     1     -14.318  15.200  71.327  1.00  0.00     0.000 HD 
HETATM   20  H2  UNL     1     -13.887  16.152  70.001  1.00  0.00     0.000 HD 
ENDBRANCH  15  17
ENDBRANCH  12  13
ENDBRANCH   9  12
ENDBRANCH   5   9
BRANCH   6  21
HETATM   21  O   UNL     1     -10.835  12.278  65.953  1.00  0.00    -0.255 OA 
HETATM   22  C   UNL     1     -11.386  11.665  64.792  1.00  0.00    -0.201 C  
ENDBRANCH   6  21
ENDBRANCH   2   3
TORSDOF 6
ENDMDL
MODEL      278
REMARK 921   NORMALIZED FREE ENERGY PREDICTED BY IDOCK:   -2.95 KCAL/MOL
REMARK 922        TOTAL FREE ENERGY PREDICTED BY IDOCK:   -4.48 KCAL/MOL
REMARK 923 INTER-LIGAND FREE ENERGY PREDICTED BY IDOCK:   -4.11 KCAL/MOL
REMARK 924 INTRA-LIGAND FREE ENERGY PREDICTED BY IDOCK:   -0.37 KCAL/MOL
REMARK 927      BINDING AFFINITY PREDICTED BY RF-SCORE:    0.00 PKD
ROOT
HETATM    1  C   UNL     1      -6.300   8.443  63.174  1.00  0.00    -0.086 C  
HETATM    2  O   UNL     1      -7.297   7.703  63.875  1.00  0.00    -0.079 OA 
ENDROOT
BRANCH   2   3
HETATM    3  C   UNL     1      -8.191   8.421  64.618  1.00  0.00    -0.154 A  
HETATM    4  C   UNL     1      -8.875   7.956  65.739  1.00  0.00    -0.155 A  
HETATM    5  C   UNL     1      -9.797   8.765  66.443  1.00  0.00    -0.352 A  
HETATM    6  C   UNL     1     -10.001  10.087  65.990  1.00  0.00    -0.267 A  
HETATM    7  C   UNL     1      -9.310  10.553  64.864  1.00  0.00    -0.278 A  
HETATM    8  C   UNL     1      -8.413   9.724  64.184  1.00  0.00    -0.182 A  
BRANCH   5   9
HETATM    9  C   UNL     1     -10.550   8.224  67.662  1.00  0.00    -0.194 C  
HETATM   10  O   UNL     1     -11.347   7.084  67.303  1.00  0.00    -0.605 OA 
HETATM   11  H   UNL     1     -11.814   6.747  68.058  1.00  0.00     0.000 HD 
BRANCH   9  12
HETATM   12  C   UNL     1      -9.638   7.765  68.818  1.00  0.00    -0.154 C  
BRANCH  12  13
HETATM   13  N   UNL     1      -9.311   6.356  68.821  1.00  0.00    -0.126 N  
HETATM   14  H   UNL     1      -8.526   6.008  68.270  1.00  0.00     0.000 HD 
HETATM   15  C   UNL     1     -10.069   5.487  69.577  1.00  0.00    -0.234 C  
HETATM   16  O   UNL     1     -11.079   5.832  70.189  1.00  0.00    -0.334 OA 
BRANCH  15  17
HETATM   17  C   UNL     1      -9.545   4.051  69.622  1.00  0.00    -0.200 C  
HETATM   18  N   UNL     1      -9.578   3.430  68.285  1.00  0.00    -0.139 NA 
HETATM   19  H1  UNL     1      -9.229   2.472  68.315  1.00  0.00     0.000 HD 
HETATM   20  H2  UNL     1      -9.075   3.992  67.598  1.00  0.00     0.000 HD 
ENDBRANCH  15  17
ENDBRANCH  12  13
ENDBRANCH   9  12
ENDBRANCH   5   9
BRANCH   6  21
HETATM   21  O   UNL     1     -10.898  10.838  66.704  1.00  0.00    -0.237 OA 
HETATM   22  C   UNL     1     -11.204  12.139  66.213  1.00  0.00    -0.334 C  
ENDBRANCH   6  21
ENDBRANCH   2   3
TORSDOF 6
ENDMDL
MODEL      279
REMARK 921   NORMALIZED FREE ENERGY PREDICTED BY IDOCK:   -2.93 KCAL/MOL
REMARK 922        TOTAL FREE ENERGY PREDICTED BY IDOCK:   -4.46 KCAL/MOL
REMARK 923 INTER-LIGAND FREE ENERGY PREDICTED BY IDOCK:   -3.91 KCAL/MOL
REMARK 924 INTRA-LIGAND FREE ENERGY PREDICTED BY IDOCK:   -0.55 KCAL/MOL
REMARK 927      BINDING AFFINITY PREDICTED BY RF-SCORE:    0.00 PKD
ROOT
HETATM    1  C   UNL     1      -6.790   8.318  72.543  1.00  0.00    -0.089 C  
HETATM    2  O   UNL     1      -8.108   8.845  72.416  1.00  0.00    -0.381 OA 
ENDROOT
BRANCH   2   3
HETATM    3  C   UNL     1      -8.812   8.487  71.301  1.00  0.00    -0.190 A  
HETATM    4  C   UNL     1      -9.551   9.350  70.494  1.00  0.00    -0.330 A  
HETATM    5  C   UNL     1     -10.263   8.890  69.362  1.00  0.00    -0.210 A  
HETATM    6  C   UNL     1     -10.197   7.515  69.049  1.00  0.00    -0.205 A  
HETATM    7  C   UNL     1      -9.451   6.650  69.861  1.00  0.00    -0.159 A  
HETATM    8  C   UNL     1      -8.765   7.135  70.979  1.00  0.00    -0.141 A  
BRANCH   5   9
HETATM    9  C   UNL     1     -11.084   9.856  68.502  1.00  0.00    -0.129 C  
HETATM   10  O   UNL     1     -12.199  10.377  69.243  1.00  0.00    -0.588 OA 
HETATM   11  H   UNL     1     -12.708  10.976  68.710  1.00  0.00     0.000 HD 
BRANCH   9  12
HETATM   12  C   UNL     1     -10.294  11.080  67.996  1.00  0.00    -0.185 C  
BRANCH  12  13
HETATM   13  N   UNL     1      -9.090  10.772  67.255  1.00  0.00    -0.144 N  
HETATM   14  H   UNL     1      -9.112  10.087  66.499  1.00  0.00     0.000 HD 
HETATM   15  C   UNL     1      -7.913  11.413  67.579  1.00  0.00    -0.127 C  
HETATM   16  O   UNL     1      -7.805  12.179  68.534  1.00  0.00    -0.134 OA 
BRANCH  15  17
HETATM   17  C   UNL     1      -6.743  11.119  66.638  1.00  0.00    -0.137 C  
HETATM   18  N   UNL     1      -7.220  10.766  65.289  1.00  0.00    -0.359 NA 
HETATM   19  H1  UNL     1      -6.439  10.570  64.661  1.00  0.00     0.000 HD 
HETATM   20  H2  UNL     1      -7.836  11.485  64.909  1.00  0.00     0.000 HD 
ENDBRANCH  15  17
ENDBRANCH  12  13
ENDBRANCH   9  12
ENDBRANCH   5   9
BRANCH   6  21
HETATM   21  O   UNL     1     -10.897   7.114  67.942  1.00  0.00    -0.205 OA 
HETATM   22  C   UNL     1     -10.157   6.867  66.750  1.00  0.00    -0.194 C  
ENDBRANCH   6  21
ENDBRANCH   2   3
TORSDOF 6
ENDMDL
MODEL      280
REMARK 921   NORMALIZED FREE ENERGY PREDICTED BY IDOCK:   -2.92 KCAL/MOL
REMARK 922        TOTAL FREE ENERGY PREDICTED BY IDOCK:   -4.44 KCAL/MOL
REMARK 923 INTER-LIGAND FREE ENERGY PREDICTED BY IDOCK:   -3.94 KCAL/MOL
REMARK 924 INTRA-LIGAND FREE ENERGY PREDICTED BY IDOCK:   -0.50 KCAL/MOL
REMARK 927      BINDING AFFINITY PREDICTED BY RF-SCORE:    0.00 PKD
ROOT
HETATM    1  C   UNL     1      -5.285  11.703  69.855  1.00  0.00    -0.073 C  
HETATM    2  O   UNL     1      -6.658  11.375  70.051  1.00  0.00    -0.129 OA 
ENDROOT
BRANCH   2   3
HETATM    3  C   UNL     1      -7.441  11.299  68.932  1.00  0.00    -0.123 A  
HETATM    4  C   UNL     1      -8.823  11.124  68.917  1.00  0.00    -0.086 A  
HETATM    5  C   UNL     1      -9.554  11.043  67.710  1.00  0.00    -0.180 A  
HETATM    6  C   UNL     1      -8.845  11.163  66.495  1.00  0.00    -0.171 A  
HETATM    7  C   UNL     1      -7.456  11.342  66.513  1.00  0.00    -0.105 A  
HETATM    8  C   UNL     1      -6.760  11.408  67.724  1.00  0.00    -0.070 A  
BRANCH   5   9
HETATM    9  C   UNL     1     -11.071  10.832  67.720  1.00  0.00    -0.318 C  
HETATM   10  O   UNL     1     -11.392   9.436  67.601  1.00  0.00    -0.397 OA 
HETATM   11  H   UNL     1     -12.333   9.305  67.608  1.00  0.00     0.000 HD 
BRANCH   9  12
HETATM   12  C   UNL     1     -11.771  11.327  69.003  1.00  0.00    -0.342 C  
BRANCH  12  13
HETATM   13  N   UNL     1     -11.853  12.764  69.143  1.00  0.00    -0.309 N  
HETATM   14  H   UNL     1     -11.402  13.374  68.462  1.00  0.00     0.000 HD 
HETATM   15  C   UNL     1     -12.547  13.302  70.207  1.00  0.00    -0.090 C  
HETATM   16  O   UNL     1     -13.034  12.619  71.106  1.00  0.00    -0.270 OA 
BRANCH  15  17
HETATM   17  C   UNL     1     -12.693  14.824  70.174  1.00  0.00    -0.219 C  
HETATM   18  N   UNL     1     -12.341  15.364  68.848  1.00  0.00    -0.608 NA 
HETATM   19  H1  UNL     1     -12.438  16.380  68.826  1.00  0.00     0.000 HD 
HETATM   20  H2  UNL     1     -12.881  14.919  68.106  1.00  0.00     0.000 HD 
ENDBRANCH  15  17
ENDBRANCH  12  13
ENDBRANCH   9  12
ENDBRANCH   5   9
BRANCH   6  21
HETATM   21  O   UNL     1      -9.593  11.084  65.349  1.00  0.00    -0.203 OA 
HETATM   22  C   UNL     1      -9.127  10.220  64.317  1.00  0.00    -0.243 C  
ENDBRANCH   6  21
ENDBRANCH   2   3
TORSDOF 6
ENDMDL
MODEL      281
REMARK 921   NORMALIZED FREE ENERGY PREDICTED BY IDOCK:   -2.89 KCAL/MOL
REMARK 922        TOTAL FREE ENERGY PREDICTED BY IDOCK:   -4.39 KCAL/MOL
REMARK 923 INTER-LIGAND FREE ENERGY PREDICTED BY IDOCK:   -3.76 KCAL/MOL
REMARK 924 INTRA-LIGAND FREE ENERGY PREDICTED BY IDOCK:   -0.63 KCAL/MOL
REMARK 927      BINDING AFFINITY PREDICTED BY RF-SCORE:    0.00 PKD
ROOT
HETATM    1  C   UNL     1      -6.049   8.899  66.538  1.00  0.00    -0.060 C  
HETATM    2  O   UNL     1      -6.970   8.002  67.151  1.00  0.00    -0.071 OA 
ENDROOT
BRANCH   2   3
HETATM    3  C   UNL     1      -7.991   8.559  67.870  1.00  0.00    -0.108 A  
HETATM    4  C   UNL     1      -8.704   9.702  67.518  1.00  0.00    -0.126 A  
HETATM    5  C   UNL     1      -9.740  10.219  68.330  1.00  0.00    -0.165 A  
HETATM    6  C   UNL     1     -10.055   9.529  69.521  1.00  0.00    -0.206 A  
HETATM    7  C   UNL     1      -9.338   8.378  69.872  1.00  0.00    -0.155 A  
HETATM    8  C   UNL     1      -8.313   7.898  69.052  1.00  0.00    -0.130 A  
BRANCH   5   9
HETATM    9  C   UNL     1     -10.496  11.488  67.929  1.00  0.00    -0.184 C  
HETATM   10  O   UNL     1     -10.428  12.473  68.974  1.00  0.00    -0.404 OA 
HETATM   11  H   UNL     1     -10.897  13.261  68.725  1.00  0.00     0.000 HD 
BRANCH   9  12
HETATM   12  C   UNL     1      -9.957  12.172  66.656  1.00  0.00    -0.206 C  
BRANCH  12  13
HETATM   13  N   UNL     1      -9.270  13.426  66.876  1.00  0.00    -0.244 N  
HETATM   14  H   UNL     1      -8.414  13.454  67.429  1.00  0.00     0.000 HD 
HETATM   15  C   UNL     1      -9.784  14.584  66.330  1.00  0.00    -0.309 C  
HETATM   16  O   UNL     1     -10.858  14.627  65.732  1.00  0.00    -0.302 OA 
BRANCH  15  17
HETATM   17  C   UNL     1      -8.901  15.821  66.501  1.00  0.00    -0.310 C  
HETATM   18  N   UNL     1      -9.261  16.567  67.720  1.00  0.00    -0.201 NA 
HETATM   19  H1  UNL     1      -8.671  17.393  67.834  1.00  0.00     0.000 HD 
HETATM   20  H2  UNL     1      -9.235  15.970  68.547  1.00  0.00     0.000 HD 
ENDBRANCH  15  17
ENDBRANCH  12  13
ENDBRANCH   9  12
ENDBRANCH   5   9
BRANCH   6  21
HETATM   21  O   UNL     1     -11.069  10.061  70.276  1.00  0.00    -0.271 OA 
HETATM   22  C   UNL     1     -11.262   9.532  71.584  1.00  0.00    -0.308 C  
ENDBRANCH   6  21
ENDBRANCH   2   3
TORSDOF 6
ENDMDL
MODEL      282
REMARK 921   NORMALIZED FREE ENERGY PREDICTED BY IDOCK:   -2.88 KCAL/MOL
REMARK 922        TOTAL FREE ENERGY PREDICTED BY IDOCK:   -4.38 KCAL/MOL
REMARK 923 INTER-LIGAND FREE ENERGY PREDICTED BY IDOCK:   -3.85 KCAL/MOL
REMARK 924 INTRA-LIGAND FREE ENERGY PREDICTED BY IDOCK:   -0.53 KCAL/MOL
REMARK 927      BINDING AFFINITY PREDICTED BY RF-SCORE:    0.00 PKD
ROOT
HETATM    1  C   UNL     1     -10.951   6.611  68.890  1.00  0.00    -0.267 C  
HETATM    2  O   UNL     1     -10.010   7.346  69.667  1.00  0.00    -0.177 OA 
ENDROOT
BRANCH   2   3
HETATM    3  C   UNL     1      -9.754   8.630  69.276  1.00  0.00    -0.173 A  
HETATM    4  C   UNL     1      -8.554   9.094  68.741  1.00  0.00    -0.131 A  
HETATM    5  C   UNL     1      -8.371  10.447  68.375  1.00  0.00    -0.119 A  
HETATM    6  C   UNL     1      -9.455  11.335  68.549  1.00  0.00    -0.191 A  
HETATM    7  C   UNL     1     -10.661  10.865  69.085  1.00  0.00    -0.265 A  
HETATM    8  C   UNL     1     -10.807   9.523  69.446  1.00  0.00    -0.226 A  
BRANCH   5   9
HETATM    9  C   UNL     1      -7.035  10.936  67.806  1.00  0.00    -0.077 C  
HETATM   10  O   UNL     1      -5.949  10.131  68.294  1.00  0.00    -0.042 OA 
HETATM   11  H   UNL     1      -5.120  10.433  67.941  1.00  0.00     0.000 HD 
BRANCH   9  12
HETATM   12  C   UNL     1      -6.948  10.891  66.267  1.00  0.00    -0.120 C  
BRANCH  12  13
HETATM   13  N   UNL     1      -8.186  11.167  65.572  1.00  0.00    -0.365 N  
HETATM   14  H   UNL     1      -8.742  11.986  65.817  1.00  0.00     0.000 HD 
HETATM   15  C   UNL     1      -8.608  10.312  64.575  1.00  0.00    -0.186 C  
HETATM   16  O   UNL     1      -8.029   9.264  64.298  1.00  0.00    -0.121 OA 
BRANCH  15  17
HETATM   17  C   UNL     1      -9.849  10.779  63.813  1.00  0.00    -0.339 C  
HETATM   18  N   UNL     1      -9.505  11.809  62.816  1.00  0.00    -0.598 NA 
HETATM   19  H1  UNL     1     -10.333  12.121  62.307  1.00  0.00     0.000 HD 
HETATM   20  H2  UNL     1      -8.774  11.487  62.182  1.00  0.00     0.000 HD 
ENDBRANCH  15  17
ENDBRANCH  12  13
ENDBRANCH   9  12
ENDBRANCH   5   9
BRANCH   6  21
HETATM   21  O   UNL     1      -9.236  12.635  68.176  1.00  0.00    -0.201 OA 
HETATM   22  C   UNL     1     -10.331  13.541  68.274  1.00  0.00    -0.252 C  
ENDBRANCH   6  21
ENDBRANCH   2   3
TORSDOF 6
ENDMDL
MODEL      283
REMARK 921   NORMALIZED FREE ENERGY PREDICTED BY IDOCK:   -2.86 KCAL/MOL
REMARK 922        TOTAL FREE ENERGY PREDICTED BY IDOCK:   -4.35 KCAL/MOL
REMARK 923 INTER-LIGAND FREE ENERGY PREDICTED BY IDOCK:   -3.87 KCAL/MOL
REMARK 924 INTRA-LIGAND FREE ENERGY PREDICTED BY IDOCK:   -0.49 KCAL/MOL
REMARK 927      BINDING AFFINITY PREDICTED BY RF-SCORE:    0.00 PKD
ROOT
HETATM    1  C   UNL     1      -8.453   9.721  67.095  1.00  0.00    -0.125 C  
HETATM    2  O   UNL     1      -9.397  10.619  67.673  1.00  0.00    -0.145 OA 
ENDROOT
BRANCH   2   3
HETATM    3  C   UNL     1     -10.077  10.176  68.773  1.00  0.00    -0.187 A  
HETATM    4  C   UNL     1      -9.981   8.903  69.332  1.00  0.00    -0.192 A  
HETATM    5  C   UNL     1     -10.734   8.525  70.467  1.00  0.00    -0.246 A  
HETATM    6  C   UNL     1     -11.590   9.486  71.046  1.00  0.00    -0.344 A  
HETATM    7  C   UNL     1     -11.683  10.766  70.484  1.00  0.00    -0.449 A  
HETATM    8  C   UNL     1     -10.932  11.106  69.356  1.00  0.00    -0.298 A  
BRANCH   5   9
HETATM    9  C   UNL     1     -10.624   7.113  71.050  1.00  0.00    -0.221 C  
HETATM   10  O   UNL     1     -11.433   6.188  70.303  1.00  0.00    -0.375 OA 
HETATM   11  H   UNL     1     -11.364   5.313  70.665  1.00  0.00     0.000 HD 
BRANCH   9  12
HETATM   12  C   UNL     1      -9.193   6.535  71.045  1.00  0.00    -0.160 C  
BRANCH  12  13
HETATM   13  N   UNL     1      -8.881   5.677  69.923  1.00  0.00    -0.127 N  
HETATM   14  H   UNL     1      -9.426   4.832  69.753  1.00  0.00     0.000 HD 
HETATM   15  C   UNL     1      -7.838   6.013  69.085  1.00  0.00    -0.099 C  
HETATM   16  O   UNL     1      -7.090   6.967  69.290  1.00  0.00    -0.077 OA 
BRANCH  15  17
HETATM   17  C   UNL     1      -7.692   5.117  67.854  1.00  0.00    -0.087 C  
HETATM   18  N   UNL     1      -6.940   3.890  68.174  1.00  0.00    -0.050 NA 
HETATM   19  H1  UNL     1      -6.843   3.293  67.352  1.00  0.00     0.000 HD 
HETATM   20  H2  UNL     1      -7.359   3.387  68.956  1.00  0.00     0.000 HD 
ENDBRANCH  15  17
ENDBRANCH  12  13
ENDBRANCH   9  12
ENDBRANCH   5   9
BRANCH   6  21
HETATM   21  O   UNL     1     -12.297   9.079  72.147  1.00  0.00    -0.368 OA 
HETATM   22  C   UNL     1     -13.565   9.686  72.377  1.00  0.00    -0.314 C  
ENDBRANCH   6  21
ENDBRANCH   2   3
TORSDOF 6
ENDMDL
MODEL      284
REMARK 921   NORMALIZED FREE ENERGY PREDICTED BY IDOCK:   -2.85 KCAL/MOL
REMARK 922        TOTAL FREE ENERGY PREDICTED BY IDOCK:   -4.35 KCAL/MOL
REMARK 923 INTER-LIGAND FREE ENERGY PREDICTED BY IDOCK:   -3.72 KCAL/MOL
REMARK 924 INTRA-LIGAND FREE ENERGY PREDICTED BY IDOCK:   -0.62 KCAL/MOL
REMARK 927      BINDING AFFINITY PREDICTED BY RF-SCORE:    0.00 PKD
ROOT
HETATM    1  C   UNL     1     -10.716   3.968  64.626  1.00  0.00    -0.141 C  
HETATM    2  O   UNL     1     -11.208   4.914  65.571  1.00  0.00    -0.065 OA 
ENDROOT
BRANCH   2   3
HETATM    3  C   UNL     1     -10.310   5.411  66.474  1.00  0.00    -0.269 A  
HETATM    4  C   UNL     1     -10.271   6.721  66.947  1.00  0.00    -0.300 A  
HETATM    5  C   UNL     1      -9.295   7.154  67.874  1.00  0.00    -0.128 A  
HETATM    6  C   UNL     1      -8.352   6.210  68.334  1.00  0.00    -0.114 A  
HETATM    7  C   UNL     1      -8.394   4.893  67.859  1.00  0.00    -0.103 A  
HETATM    8  C   UNL     1      -9.366   4.498  66.935  1.00  0.00    -0.156 A  
BRANCH   5   9
HETATM    9  C   UNL     1      -9.263   8.604  68.364  1.00  0.00    -0.138 C  
HETATM   10  O   UNL     1      -8.223   9.343  67.703  1.00  0.00    -0.113 OA 
HETATM   11  H   UNL     1      -8.203  10.243  68.007  1.00  0.00     0.000 HD 
BRANCH   9  12
HETATM   12  C   UNL     1     -10.570   9.386  68.116  1.00  0.00    -0.212 C  
BRANCH  12  13
HETATM   13  N   UNL     1     -11.375   9.628  69.294  1.00  0.00    -0.448 N  
HETATM   14  H   UNL     1     -11.547   8.878  69.963  1.00  0.00     0.000 HD 
HETATM   15  C   UNL     1     -11.907  10.883  69.503  1.00  0.00    -0.332 C  
HETATM   16  O   UNL     1     -11.810  11.800  68.690  1.00  0.00    -0.309 OA 
BRANCH  15  17
HETATM   17  C   UNL     1     -12.614  11.063  70.848  1.00  0.00    -0.391 C  
HETATM   18  N   UNL     1     -12.689   9.788  71.585  1.00  0.00    -0.388 NA 
HETATM   19  H1  UNL     1     -13.161   9.909  72.482  1.00  0.00     0.000 HD 
HETATM   20  H2  UNL     1     -11.767   9.367  71.699  1.00  0.00     0.000 HD 
ENDBRANCH  15  17
ENDBRANCH  12  13
ENDBRANCH   9  12
ENDBRANCH   5   9
BRANCH   6  21
HETATM   21  O   UNL     1      -7.428   6.670  69.236  1.00  0.00    -0.090 OA 
HETATM   22  C   UNL     1      -6.053   6.564  68.881  1.00  0.00    -0.026 C  
ENDBRANCH   6  21
ENDBRANCH   2   3
TORSDOF 6
ENDMDL
MODEL      285
REMARK 921   NORMALIZED FREE ENERGY PREDICTED BY IDOCK:   -2.83 KCAL/MOL
REMARK 922        TOTAL FREE ENERGY PREDICTED BY IDOCK:   -4.32 KCAL/MOL
REMARK 923 INTER-LIGAND FREE ENERGY PREDICTED BY IDOCK:   -4.01 KCAL/MOL
REMARK 924 INTRA-LIGAND FREE ENERGY PREDICTED BY IDOCK:   -0.31 KCAL/MOL
REMARK 927      BINDING AFFINITY PREDICTED BY RF-SCORE:    0.00 PKD
ROOT
HETATM    1  C   UNL     1      -6.831  16.525  67.168  1.00  0.00    -0.195 C  
HETATM    2  O   UNL     1      -7.212  15.260  67.704  1.00  0.00    -0.145 OA 
ENDROOT
BRANCH   2   3
HETATM    3  C   UNL     1      -8.404  14.743  67.280  1.00  0.00    -0.212 A  
HETATM    4  C   UNL     1      -8.956  13.531  67.688  1.00  0.00    -0.200 A  
HETATM    5  C   UNL     1     -10.193  13.065  67.187  1.00  0.00    -0.243 A  
HETATM    6  C   UNL     1     -10.881  13.875  66.257  1.00  0.00    -0.290 A  
HETATM    7  C   UNL     1     -10.325  15.095  65.851  1.00  0.00    -0.344 A  
HETATM    8  C   UNL     1      -9.095  15.524  66.358  1.00  0.00    -0.351 A  
BRANCH   5   9
HETATM    9  C   UNL     1     -10.769  11.719  67.638  1.00  0.00    -0.214 C  
HETATM   10  O   UNL     1     -12.205  11.737  67.586  1.00  0.00    -0.534 OA 
HETATM   11  H   UNL     1     -12.563  10.902  67.866  1.00  0.00     0.000 HD 
BRANCH   9  12
HETATM   12  C   UNL     1     -10.322  10.518  66.779  1.00  0.00    -0.245 C  
BRANCH  12  13
HETATM   13  N   UNL     1      -9.246   9.730  67.338  1.00  0.00    -0.134 N  
HETATM   14  H   UNL     1      -8.279   9.916  67.072  1.00  0.00     0.000 HD 
HETATM   15  C   UNL     1      -9.539   8.724  68.234  1.00  0.00    -0.146 C  
HETATM   16  O   UNL     1     -10.688   8.394  68.524  1.00  0.00    -0.144 OA 
BRANCH  15  17
HETATM   17  C   UNL     1      -8.319   8.056  68.870  1.00  0.00    -0.126 C  
HETATM   18  N   UNL     1      -7.397   9.058  69.435  1.00  0.00    -0.074 NA 
HETATM   19  H1  UNL     1      -6.583   8.612  69.859  1.00  0.00     0.000 HD 
HETATM   20  H2  UNL     1      -7.872   9.676  70.093  1.00  0.00     0.000 HD 
ENDBRANCH  15  17
ENDBRANCH  12  13
ENDBRANCH   9  12
ENDBRANCH   5   9
BRANCH   6  21
HETATM   21  O   UNL     1     -12.078  13.388  65.801  1.00  0.00    -0.386 OA 
HETATM   22  C   UNL     1     -12.918  14.281  65.077  1.00  0.00    -0.027 C  
ENDBRANCH   6  21
ENDBRANCH   2   3
TORSDOF 6
ENDMDL
MODEL      286
REMARK 921   NORMALIZED FREE ENERGY PREDICTED BY IDOCK:   -2.81 KCAL/MOL
REMARK 922        TOTAL FREE ENERGY PREDICTED BY IDOCK:   -4.29 KCAL/MOL
REMARK 923 INTER-LIGAND FREE ENERGY PREDICTED BY IDOCK:   -3.89 KCAL/MOL
REMARK 924 INTRA-LIGAND FREE ENERGY PREDICTED BY IDOCK:   -0.40 KCAL/MOL
REMARK 927      BINDING AFFINITY PREDICTED BY RF-SCORE:    0.00 PKD
ROOT
HETATM    1  C   UNL     1     -12.391  13.297  65.335  1.00  0.00    -0.479 C  
HETATM    2  O   UNL     1     -11.938  14.260  66.283  1.00  0.00    -0.396 OA 
ENDROOT
BRANCH   2   3
HETATM    3  C   UNL     1     -10.606  14.244  66.592  1.00  0.00    -0.278 A  
HETATM    4  C   UNL     1      -9.848  13.108  66.866  1.00  0.00    -0.249 A  
HETATM    5  C   UNL     1      -8.474  13.186  67.191  1.00  0.00    -0.173 A  
HETATM    6  C   UNL     1      -7.868  14.461  67.216  1.00  0.00    -0.163 A  
HETATM    7  C   UNL     1      -8.632  15.601  66.937  1.00  0.00    -0.281 A  
HETATM    8  C   UNL     1      -9.992  15.492  66.629  1.00  0.00    -0.272 A  
BRANCH   5   9
HETATM    9  C   UNL     1      -7.667  11.923  67.507  1.00  0.00    -0.151 C  
HETATM   10  O   UNL     1      -6.469  11.872  66.715  1.00  0.00    -0.291 OA 
HETATM   11  H   UNL     1      -5.968  11.089  66.911  1.00  0.00     0.000 HD 
BRANCH   9  12
HETATM   12  C   UNL     1      -7.216  11.811  68.978  1.00  0.00    -0.080 C  
BRANCH  12  13
HETATM   13  N   UNL     1      -7.867  10.771  69.743  1.00  0.00    -0.368 N  
HETATM   14  H   UNL     1      -8.869  10.610  69.645  1.00  0.00     0.000 HD 
HETATM   15  C   UNL     1      -7.120   9.998  70.608  1.00  0.00     0.021 C  
HETATM   16  O   UNL     1      -5.929  10.203  70.835  1.00  0.00    -0.091 OA 
BRANCH  15  17
HETATM   17  C   UNL     1      -7.881   8.838  71.251  1.00  0.00    -0.134 C  
HETATM   18  N   UNL     1      -8.527   7.993  70.230  1.00  0.00    -0.125 NA 
HETATM   19  H1  UNL     1      -9.035   7.219  70.660  1.00  0.00     0.000 HD 
HETATM   20  H2  UNL     1      -7.856   7.663  69.537  1.00  0.00     0.000 HD 
ENDBRANCH  15  17
ENDBRANCH  12  13
ENDBRANCH   9  12
ENDBRANCH   5   9
BRANCH   6  21
HETATM   21  O   UNL     1      -6.535  14.489  67.529  1.00  0.00    -0.264 OA 
HETATM   22  C   UNL     1      -6.044  15.640  68.211  1.00  0.00    -0.115 C  
ENDBRANCH   6  21
ENDBRANCH   2   3
TORSDOF 6
ENDMDL
MODEL      287
REMARK 921   NORMALIZED FREE ENERGY PREDICTED BY IDOCK:   -2.80 KCAL/MOL
REMARK 922        TOTAL FREE ENERGY PREDICTED BY IDOCK:   -4.27 KCAL/MOL
REMARK 923 INTER-LIGAND FREE ENERGY PREDICTED BY IDOCK:   -3.84 KCAL/MOL
REMARK 924 INTRA-LIGAND FREE ENERGY PREDICTED BY IDOCK:   -0.44 KCAL/MOL
REMARK 927      BINDING AFFINITY PREDICTED BY RF-SCORE:    0.00 PKD
ROOT
HETATM    1  C   UNL     1      -8.690  10.454  66.586  1.00  0.00    -0.135 C  
HETATM    2  O   UNL     1      -9.612  10.944  67.557  1.00  0.00    -0.154 OA 
ENDROOT
BRANCH   2   3
HETATM    3  C   UNL     1     -10.129  10.032  68.434  1.00  0.00    -0.165 A  
HETATM    4  C   UNL     1     -10.116   8.649  68.272  1.00  0.00    -0.225 A  
HETATM    5  C   UNL     1     -10.688   7.777  69.227  1.00  0.00    -0.156 A  
HETATM    6  C   UNL     1     -11.271   8.347  70.380  1.00  0.00    -0.213 A  
HETATM    7  C   UNL     1     -11.280   9.738  70.542  1.00  0.00    -0.381 A  
HETATM    8  C   UNL     1     -10.714  10.573  69.575  1.00  0.00    -0.291 A  
BRANCH   5   9
HETATM    9  C   UNL     1     -10.677   6.261  69.016  1.00  0.00    -0.302 C  
HETATM   10  O   UNL     1     -11.144   5.926  67.698  1.00  0.00    -0.364 OA 
HETATM   11  H   UNL     1     -11.137   4.985  67.567  1.00  0.00     0.000 HD 
BRANCH   9  12
HETATM   12  C   UNL     1      -9.285   5.611  69.158  1.00  0.00    -0.115 C  
BRANCH  12  13
HETATM   13  N   UNL     1      -9.167   4.282  68.601  1.00  0.00    -0.130 N  
HETATM   14  H   UNL     1      -9.695   3.507  69.002  1.00  0.00     0.000 HD 
HETATM   15  C   UNL     1      -8.334   4.071  67.522  1.00  0.00    -0.098 C  
HETATM   16  O   UNL     1      -7.606   4.944  67.054  1.00  0.00    -0.086 OA 
BRANCH  15  17
HETATM   17  C   UNL     1      -8.400   2.663  66.927  1.00  0.00    -0.095 C  
HETATM   18  N   UNL     1      -9.663   1.993  67.284  1.00  0.00    -0.358 NA 
HETATM   19  H1  UNL     1      -9.707   1.053  66.886  1.00  0.00     0.000 HD 
HETATM   20  H2  UNL     1     -10.473   2.552  67.016  1.00  0.00     0.000 HD 
ENDBRANCH  15  17
ENDBRANCH  12  13
ENDBRANCH   9  12
ENDBRANCH   5   9
BRANCH   6  21
HETATM   21  O   UNL     1     -11.809   7.466  71.282  1.00  0.00    -0.280 OA 
HETATM   22  C   UNL     1     -11.135   7.306  72.527  1.00  0.00    -0.293 C  
ENDBRANCH   6  21
ENDBRANCH   2   3
TORSDOF 6
ENDMDL
MODEL      288
REMARK 921   NORMALIZED FREE ENERGY PREDICTED BY IDOCK:   -2.76 KCAL/MOL
REMARK 922        TOTAL FREE ENERGY PREDICTED BY IDOCK:   -4.23 KCAL/MOL
REMARK 923 INTER-LIGAND FREE ENERGY PREDICTED BY IDOCK:   -3.59 KCAL/MOL
REMARK 924 INTRA-LIGAND FREE ENERGY PREDICTED BY IDOCK:   -0.64 KCAL/MOL
REMARK 927      BINDING AFFINITY PREDICTED BY RF-SCORE:    0.00 PKD
ROOT
HETATM    1  C   UNL     1      -9.289  16.294  67.160  1.00  0.00    -0.222 C  
HETATM    2  O   UNL     1      -9.244  15.096  66.391  1.00  0.00    -0.266 OA 
ENDROOT
BRANCH   2   3
HETATM    3  C   UNL     1      -9.046  13.929  67.075  1.00  0.00    -0.250 A  
HETATM    4  C   UNL     1     -10.037  13.013  67.424  1.00  0.00    -0.231 A  
HETATM    5  C   UNL     1      -9.745  11.833  68.147  1.00  0.00    -0.192 A  
HETATM    6  C   UNL     1      -8.401  11.588  68.502  1.00  0.00    -0.146 A  
HETATM    7  C   UNL     1      -7.406  12.509  68.147  1.00  0.00    -0.110 A  
HETATM    8  C   UNL     1      -7.729  13.671  67.440  1.00  0.00    -0.156 A  
BRANCH   5   9
HETATM    9  C   UNL     1     -10.855  10.852  68.535  1.00  0.00    -0.220 C  
HETATM   10  O   UNL     1     -12.149  11.459  68.382  1.00  0.00    -0.575 OA 
HETATM   11  H   UNL     1     -12.837  10.851  68.622  1.00  0.00     0.000 HD 
BRANCH   9  12
HETATM   12  C   UNL     1     -10.882   9.561  67.691  1.00  0.00    -0.187 C  
BRANCH  12  13
HETATM   13  N   UNL     1     -10.256   8.412  68.306  1.00  0.00    -0.200 N  
HETATM   14  H   UNL     1     -10.444   8.183  69.282  1.00  0.00     0.000 HD 
HETATM   15  C   UNL     1      -9.402   7.626  67.560  1.00  0.00    -0.139 C  
HETATM   16  O   UNL     1      -9.068   7.901  66.409  1.00  0.00    -0.162 OA 
BRANCH  15  17
HETATM   17  C   UNL     1      -8.915   6.359  68.265  1.00  0.00    -0.116 C  
HETATM   18  N   UNL     1      -8.251   6.682  69.540  1.00  0.00    -0.128 NA 
HETATM   19  H1  UNL     1      -7.925   5.837  70.011  1.00  0.00     0.000 HD 
HETATM   20  H2  UNL     1      -8.852   7.241  70.145  1.00  0.00     0.000 HD 
ENDBRANCH  15  17
ENDBRANCH  12  13
ENDBRANCH   9  12
ENDBRANCH   5   9
BRANCH   6  21
HETATM   21  O   UNL     1      -8.162  10.431  69.196  1.00  0.00    -0.135 OA 
HETATM   22  C   UNL     1      -6.997  10.384  70.015  1.00  0.00    -0.157 C  
ENDBRANCH   6  21
ENDBRANCH   2   3
TORSDOF 6
ENDMDL
MODEL      289
REMARK 921   NORMALIZED FREE ENERGY PREDICTED BY IDOCK:   -2.72 KCAL/MOL
REMARK 922        TOTAL FREE ENERGY PREDICTED BY IDOCK:   -4.17 KCAL/MOL
REMARK 923 INTER-LIGAND FREE ENERGY PREDICTED BY IDOCK:   -3.83 KCAL/MOL
REMARK 924 INTRA-LIGAND FREE ENERGY PREDICTED BY IDOCK:   -0.34 KCAL/MOL
REMARK 927      BINDING AFFINITY PREDICTED BY RF-SCORE:    0.00 PKD
ROOT
HETATM    1  C   UNL     1      -7.584  19.108  68.729  1.00  0.00    -0.353 C  
HETATM    2  O   UNL     1      -6.998  17.901  68.248  1.00  0.00    -0.208 OA 
ENDROOT
BRANCH   2   3
HETATM    3  C   UNL     1      -7.849  16.964  67.732  1.00  0.00    -0.178 A  
HETATM    4  C   UNL     1      -8.048  15.681  68.236  1.00  0.00    -0.134 A  
HETATM    5  C   UNL     1      -8.941  14.768  67.629  1.00  0.00    -0.183 A  
HETATM    6  C   UNL     1      -9.653  15.196  66.487  1.00  0.00    -0.271 A  
HETATM    7  C   UNL     1      -9.452  16.488  65.984  1.00  0.00    -0.317 A  
HETATM    8  C   UNL     1      -8.555  17.363  66.602  1.00  0.00    -0.283 A  
BRANCH   5   9
HETATM    9  C   UNL     1      -9.129  13.356  68.192  1.00  0.00    -0.207 C  
HETATM   10  O   UNL     1     -10.522  13.069  68.394  1.00  0.00    -0.242 OA 
HETATM   11  H   UNL     1     -10.639  12.194  68.744  1.00  0.00     0.000 HD 
BRANCH   9  12
HETATM   12  C   UNL     1      -8.584  12.234  67.284  1.00  0.00    -0.183 C  
BRANCH  12  13
HETATM   13  N   UNL     1      -8.876  10.889  67.728  1.00  0.00    -0.133 N  
HETATM   14  H   UNL     1      -8.890  10.666  68.723  1.00  0.00     0.000 HD 
HETATM   15  C   UNL     1      -9.136   9.909  66.792  1.00  0.00    -0.143 C  
HETATM   16  O   UNL     1      -9.046  10.095  65.580  1.00  0.00    -0.158 OA 
BRANCH  15  17
HETATM   17  C   UNL     1      -9.575   8.565  67.376  1.00  0.00    -0.160 C  
HETATM   18  N   UNL     1      -8.490   7.571  67.297  1.00  0.00    -0.118 NA 
HETATM   19  H1  UNL     1      -8.783   6.674  67.686  1.00  0.00     0.000 HD 
HETATM   20  H2  UNL     1      -7.636   7.911  67.739  1.00  0.00     0.000 HD 
ENDBRANCH  15  17
ENDBRANCH  12  13
ENDBRANCH   9  12
ENDBRANCH   5   9
BRANCH   6  21
HETATM   21  O   UNL     1     -10.511  14.282  65.934  1.00  0.00    -0.287 OA 
HETATM   22  C   UNL     1     -11.871  14.672  65.769  1.00  0.00    -0.274 C  
ENDBRANCH   6  21
ENDBRANCH   2   3
TORSDOF 6
ENDMDL
MODEL      290
REMARK 921   NORMALIZED FREE ENERGY PREDICTED BY IDOCK:   -2.72 KCAL/MOL
REMARK 922        TOTAL FREE ENERGY PREDICTED BY IDOCK:   -4.17 KCAL/MOL
REMARK 923 INTER-LIGAND FREE ENERGY PREDICTED BY IDOCK:   -3.61 KCAL/MOL
REMARK 924 INTRA-LIGAND FREE ENERGY PREDICTED BY IDOCK:   -0.56 KCAL/MOL
REMARK 927      BINDING AFFINITY PREDICTED BY RF-SCORE:    0.00 PKD
ROOT
HETATM    1  C   UNL     1      -8.186  10.846  66.230  1.00  0.00    -0.165 C  
HETATM    2  O   UNL     1      -9.299  10.706  67.109  1.00  0.00    -0.154 OA 
ENDROOT
BRANCH   2   3
HETATM    3  C   UNL     1      -9.155   9.840  68.156  1.00  0.00    -0.125 A  
HETATM    4  C   UNL     1     -10.193   9.276  68.895  1.00  0.00    -0.217 A  
HETATM    5  C   UNL     1      -9.953   8.397  69.975  1.00  0.00    -0.188 A  
HETATM    6  C   UNL     1      -8.612   8.081  70.288  1.00  0.00    -0.132 A  
HETATM    7  C   UNL     1      -7.570   8.647  69.543  1.00  0.00    -0.088 A  
HETATM    8  C   UNL     1      -7.841   9.521  68.486  1.00  0.00    -0.085 A  
BRANCH   5   9
HETATM    9  C   UNL     1     -11.112   7.806  70.783  1.00  0.00    -0.257 C  
HETATM   10  O   UNL     1     -12.303   8.591  70.614  1.00  0.00    -0.496 OA 
HETATM   11  H   UNL     1     -13.023   8.224  71.115  1.00  0.00     0.000 HD 
BRANCH   9  12
HETATM   12  C   UNL     1     -11.487   6.362  70.388  1.00  0.00    -0.393 C  
BRANCH  12  13
HETATM   13  N   UNL     1     -10.710   5.799  69.307  1.00  0.00    -0.311 N  
HETATM   14  H   UNL     1     -10.727   6.228  68.382  1.00  0.00     0.000 HD 
HETATM   15  C   UNL     1      -9.944   4.675  69.537  1.00  0.00    -0.196 C  
HETATM   16  O   UNL     1      -9.952   4.063  70.603  1.00  0.00    -0.187 OA 
BRANCH  15  17
HETATM   17  C   UNL     1      -9.053   4.255  68.367  1.00  0.00    -0.128 C  
HETATM   18  N   UNL     1      -9.745   3.293  67.490  1.00  0.00    -0.294 NA 
HETATM   19  H1  UNL     1      -9.150   3.013  66.709  1.00  0.00     0.000 HD 
HETATM   20  H2  UNL     1     -10.641   3.658  67.167  1.00  0.00     0.000 HD 
ENDBRANCH  15  17
ENDBRANCH  12  13
ENDBRANCH   9  12
ENDBRANCH   5   9
BRANCH   6  21
HETATM   21  O   UNL     1      -8.425   7.221  71.339  1.00  0.00    -0.114 OA 
HETATM   22  C   UNL     1      -7.248   6.419  71.330  1.00  0.00    -0.079 C  
ENDBRANCH   6  21
ENDBRANCH   2   3
TORSDOF 6
ENDMDL
MODEL      291
REMARK 921   NORMALIZED FREE ENERGY PREDICTED BY IDOCK:   -2.72 KCAL/MOL
REMARK 922        TOTAL FREE ENERGY PREDICTED BY IDOCK:   -4.16 KCAL/MOL
REMARK 923 INTER-LIGAND FREE ENERGY PREDICTED BY IDOCK:   -3.51 KCAL/MOL
REMARK 924 INTRA-LIGAND FREE ENERGY PREDICTED BY IDOCK:   -0.65 KCAL/MOL
REMARK 927      BINDING AFFINITY PREDICTED BY RF-SCORE:    0.00 PKD
ROOT
HETATM    1  C   UNL     1      -8.497  10.366  64.730  1.00  0.00    -0.173 C  
HETATM    2  O   UNL     1      -9.418   9.370  65.167  1.00  0.00    -0.259 OA 
ENDROOT
BRANCH   2   3
HETATM    3  C   UNL     1      -9.495   9.146  66.513  1.00  0.00    -0.208 A  
HETATM    4  C   UNL     1      -8.807   9.855  67.496  1.00  0.00    -0.131 A  
HETATM    5  C   UNL     1      -8.936   9.546  68.870  1.00  0.00    -0.141 A  
HETATM    6  C   UNL     1      -9.806   8.496  69.235  1.00  0.00    -0.185 A  
HETATM    7  C   UNL     1     -10.498   7.787  68.246  1.00  0.00    -0.215 A  
HETATM    8  C   UNL     1     -10.342   8.110  66.895  1.00  0.00    -0.401 A  
BRANCH   5   9
HETATM    9  C   UNL     1      -8.154  10.328  69.929  1.00  0.00    -0.052 C  
HETATM   10  O   UNL     1      -7.523   9.434  70.861  1.00  0.00    -0.199 OA 
HETATM   11  H   UNL     1      -7.038   9.919  71.518  1.00  0.00     0.000 HD 
BRANCH   9  12
HETATM   12  C   UNL     1      -7.032  11.219  69.359  1.00  0.00    -0.109 C  
BRANCH  12  13
HETATM   13  N   UNL     1      -7.416  12.583  69.069  1.00  0.00    -0.313 N  
HETATM   14  H   UNL     1      -8.023  13.095  69.710  1.00  0.00     0.000 HD 
HETATM   15  C   UNL     1      -6.956  13.186  67.917  1.00  0.00    -0.132 C  
HETATM   16  O   UNL     1      -6.298  12.593  67.064  1.00  0.00    -0.212 OA 
BRANCH  15  17
HETATM   17  C   UNL     1      -7.303  14.670  67.787  1.00  0.00    -0.173 C  
HETATM   18  N   UNL     1      -8.346  15.059  68.753  1.00  0.00    -0.165 NA 
HETATM   19  H1  UNL     1      -8.578  16.049  68.666  1.00  0.00     0.000 HD 
HETATM   20  H2  UNL     1      -8.081  14.818  69.708  1.00  0.00     0.000 HD 
ENDBRANCH  15  17
ENDBRANCH  12  13
ENDBRANCH   9  12
ENDBRANCH   5   9
BRANCH   6  21
HETATM   21  O   UNL     1      -9.905   8.234  70.577  1.00  0.00    -0.180 OA 
HETATM   22  C   UNL     1     -11.166   8.463  71.200  1.00  0.00    -0.263 C  
ENDBRANCH   6  21
ENDBRANCH   2   3
TORSDOF 6
ENDMDL
MODEL      292
REMARK 921   NORMALIZED FREE ENERGY PREDICTED BY IDOCK:   -2.71 KCAL/MOL
REMARK 922        TOTAL FREE ENERGY PREDICTED BY IDOCK:   -4.15 KCAL/MOL
REMARK 923 INTER-LIGAND FREE ENERGY PREDICTED BY IDOCK:   -3.74 KCAL/MOL
REMARK 924 INTRA-LIGAND FREE ENERGY PREDICTED BY IDOCK:   -0.41 KCAL/MOL
REMARK 927      BINDING AFFINITY PREDICTED BY RF-SCORE:    0.00 PKD
ROOT
HETATM    1  C   UNL     1      -6.280   8.047  63.177  1.00  0.00    -0.076 C  
HETATM    2  O   UNL     1      -7.321   7.545  64.010  1.00  0.00    -0.081 OA 
ENDROOT
BRANCH   2   3
HETATM    3  C   UNL     1      -8.221   8.455  64.491  1.00  0.00    -0.146 A  
HETATM    4  C   UNL     1      -8.890   8.371  65.711  1.00  0.00    -0.204 A  
HETATM    5  C   UNL     1      -9.817   9.354  66.125  1.00  0.00    -0.356 A  
HETATM    6  C   UNL     1     -10.046  10.454  65.270  1.00  0.00    -0.300 A  
HETATM    7  C   UNL     1      -9.370  10.537  64.046  1.00  0.00    -0.308 A  
HETATM    8  C   UNL     1      -8.466   9.543  63.660  1.00  0.00    -0.197 A  
BRANCH   5   9
HETATM    9  C   UNL     1     -10.553   9.228  67.463  1.00  0.00    -0.262 C  
HETATM   10  O   UNL     1     -11.145   7.926  67.599  1.00  0.00    -0.504 OA 
HETATM   11  H   UNL     1     -11.601   7.847  68.428  1.00  0.00     0.000 HD 
BRANCH   9  12
HETATM   12  C   UNL     1      -9.655   9.425  68.701  1.00  0.00    -0.147 C  
BRANCH  12  13
HETATM   13  N   UNL     1      -9.065   8.216  69.231  1.00  0.00    -0.151 N  
HETATM   14  H   UNL     1      -9.381   7.303  68.905  1.00  0.00     0.000 HD 
HETATM   15  C   UNL     1      -8.071   8.308  70.184  1.00  0.00    -0.112 C  
HETATM   16  O   UNL     1      -7.713   9.375  70.680  1.00  0.00    -0.143 OA 
BRANCH  15  17
HETATM   17  C   UNL     1      -7.421   6.977  70.563  1.00  0.00    -0.088 C  
HETATM   18  N   UNL     1      -7.372   6.807  72.027  1.00  0.00    -0.087 NA 
HETATM   19  H1  UNL     1      -6.938   5.918  72.280  1.00  0.00     0.000 HD 
HETATM   20  H2  UNL     1      -8.296   6.906  72.446  1.00  0.00     0.000 HD 
ENDBRANCH  15  17
ENDBRANCH  12  13
ENDBRANCH   9  12
ENDBRANCH   5   9
BRANCH   6  21
HETATM   21  O   UNL     1     -10.948  11.385  65.713  1.00  0.00    -0.266 OA 
HETATM   22  C   UNL     1     -11.411  12.351  64.774  1.00  0.00    -0.315 C  
ENDBRANCH   6  21
ENDBRANCH   2   3
TORSDOF 6
ENDMDL
MODEL      293
REMARK 921   NORMALIZED FREE ENERGY PREDICTED BY IDOCK:   -2.70 KCAL/MOL
REMARK 922        TOTAL FREE ENERGY PREDICTED BY IDOCK:   -4.14 KCAL/MOL
REMARK 923 INTER-LIGAND FREE ENERGY PREDICTED BY IDOCK:   -3.40 KCAL/MOL
REMARK 924 INTRA-LIGAND FREE ENERGY PREDICTED BY IDOCK:   -0.74 KCAL/MOL
REMARK 927      BINDING AFFINITY PREDICTED BY RF-SCORE:    0.00 PKD
ROOT
HETATM    1  C   UNL     1      -9.868  16.111  66.074  1.00  0.00    -0.347 C  
HETATM    2  O   UNL     1     -10.924  15.157  66.131  1.00  0.00    -0.333 OA 
ENDROOT
BRANCH   2   3
HETATM    3  C   UNL     1     -10.571  13.855  66.357  1.00  0.00    -0.280 A  
HETATM    4  C   UNL     1      -9.361  13.423  66.895  1.00  0.00    -0.253 A  
HETATM    5  C   UNL     1      -9.073  12.051  67.083  1.00  0.00    -0.186 A  
HETATM    6  C   UNL     1     -10.061  11.110  66.722  1.00  0.00    -0.218 A  
HETATM    7  C   UNL     1     -11.278  11.548  66.183  1.00  0.00    -0.265 A  
HETATM    8  C   UNL     1     -11.529  12.911  66.001  1.00  0.00    -0.384 A  
BRANCH   5   9
HETATM    9  C   UNL     1      -7.728  11.601  67.660  1.00  0.00    -0.133 C  
HETATM   10  O   UNL     1      -6.698  12.558  67.359  1.00  0.00    -0.138 OA 
HETATM   11  H   UNL     1      -5.863  12.279  67.717  1.00  0.00     0.000 HD 
BRANCH   9  12
HETATM   12  C   UNL     1      -7.721  11.430  69.193  1.00  0.00    -0.008 C  
BRANCH  12  13
HETATM   13  N   UNL     1      -8.132  10.127  69.668  1.00  0.00    -0.187 N  
HETATM   14  H   UNL     1      -9.103   9.957  69.929  1.00  0.00     0.000 HD 
HETATM   15  C   UNL     1      -7.198   9.116  69.764  1.00  0.00    -0.062 C  
HETATM   16  O   UNL     1      -6.000   9.285  69.549  1.00  0.00    -0.033 OA 
BRANCH  15  17
HETATM   17  C   UNL     1      -7.771   7.747  70.135  1.00  0.00    -0.090 C  
HETATM   18  N   UNL     1      -9.134   7.871  70.682  1.00  0.00    -0.152 NA 
HETATM   19  H1  UNL     1      -9.516   6.957  70.930  1.00  0.00     0.000 HD 
HETATM   20  H2  UNL     1      -9.750   8.375  70.045  1.00  0.00     0.000 HD 
ENDBRANCH  15  17
ENDBRANCH  12  13
ENDBRANCH   9  12
ENDBRANCH   5   9
BRANCH   6  21
HETATM   21  O   UNL     1      -9.742   9.793  66.926  1.00  0.00    -0.174 OA 
HETATM   22  C   UNL     1     -10.784   8.923  67.358  1.00  0.00    -0.155 C  
ENDBRANCH   6  21
ENDBRANCH   2   3
TORSDOF 6
ENDMDL
MODEL      294
REMARK 921   NORMALIZED FREE ENERGY PREDICTED BY IDOCK:   -2.66 KCAL/MOL
REMARK 922        TOTAL FREE ENERGY PREDICTED BY IDOCK:   -4.09 KCAL/MOL
REMARK 923 INTER-LIGAND FREE ENERGY PREDICTED BY IDOCK:   -3.43 KCAL/MOL
REMARK 924 INTRA-LIGAND FREE ENERGY PREDICTED BY IDOCK:   -0.66 KCAL/MOL
REMARK 927      BINDING AFFINITY PREDICTED BY RF-SCORE:    0.00 PKD
ROOT
HETATM    1  C   UNL     1     -10.793  10.267  67.930  1.00  0.00    -0.284 C  
HETATM    2  O   UNL     1     -10.870   8.853  68.092  1.00  0.00    -0.136 OA 
ENDROOT
BRANCH   2   3
HETATM    3  C   UNL     1     -10.512   8.350  69.312  1.00  0.00    -0.215 A  
HETATM    4  C   UNL     1     -10.239   7.013  69.591  1.00  0.00    -0.212 A  
HETATM    5  C   UNL     1      -9.887   6.576  70.889  1.00  0.00    -0.201 A  
HETATM    6  C   UNL     1      -9.800   7.543  71.914  1.00  0.00    -0.163 A  
HETATM    7  C   UNL     1     -10.073   8.887  71.629  1.00  0.00    -0.411 A  
HETATM    8  C   UNL     1     -10.427   9.286  70.337  1.00  0.00    -0.296 A  
BRANCH   5   9
HETATM    9  C   UNL     1      -9.610   5.097  71.175  1.00  0.00    -0.166 C  
HETATM   10  O   UNL     1     -10.477   4.606  72.210  1.00  0.00    -0.200 OA 
HETATM   11  H   UNL     1     -10.306   3.689  72.387  1.00  0.00     0.000 HD 
BRANCH   9  12
HETATM   12  C   UNL     1      -9.818   4.168  69.961  1.00  0.00    -0.175 C  
BRANCH  12  13
HETATM   13  N   UNL     1      -8.664   4.007  69.104  1.00  0.00    -0.083 N  
HETATM   14  H   UNL     1      -7.739   3.864  69.508  1.00  0.00     0.000 HD 
HETATM   15  C   UNL     1      -8.826   4.050  67.735  1.00  0.00    -0.115 C  
HETATM   16  O   UNL     1      -9.899   4.309  67.192  1.00  0.00    -0.204 OA 
BRANCH  15  17
HETATM   17  C   UNL     1      -7.568   3.723  66.930  1.00  0.00    -0.080 C  
HETATM   18  N   UNL     1      -7.531   4.483  65.667  1.00  0.00    -0.080 NA 
HETATM   19  H1  UNL     1      -6.692   4.265  65.130  1.00  0.00     0.000 HD 
HETATM   20  H2  UNL     1      -7.623   5.486  65.830  1.00  0.00     0.000 HD 
ENDBRANCH  15  17
ENDBRANCH  12  13
ENDBRANCH   9  12
ENDBRANCH   5   9
BRANCH   6  21
HETATM   21  O   UNL     1      -9.451   7.078  73.155  1.00  0.00    -0.143 OA 
HETATM   22  C   UNL     1      -8.645   7.922  73.971  1.00  0.00    -0.264 C  
ENDBRANCH   6  21
ENDBRANCH   2   3
TORSDOF 6
ENDMDL
MODEL      295
REMARK 921   NORMALIZED FREE ENERGY PREDICTED BY IDOCK:   -2.65 KCAL/MOL
REMARK 922        TOTAL FREE ENERGY PREDICTED BY IDOCK:   -4.07 KCAL/MOL
REMARK 923 INTER-LIGAND FREE ENERGY PREDICTED BY IDOCK:   -3.74 KCAL/MOL
REMARK 924 INTRA-LIGAND FREE ENERGY PREDICTED BY IDOCK:   -0.33 KCAL/MOL
REMARK 927      BINDING AFFINITY PREDICTED BY RF-SCORE:    0.00 PKD
ROOT
HETATM    1  C   UNL     1      -5.744  17.043  68.899  1.00  0.00    -0.143 C  
HETATM    2  O   UNL     1      -5.153  15.793  68.555  1.00  0.00    -0.086 OA 
ENDROOT
BRANCH   2   3
HETATM    3  C   UNL     1      -5.995  14.723  68.432  1.00  0.00    -0.102 A  
HETATM    4  C   UNL     1      -7.344  14.707  68.779  1.00  0.00    -0.131 A  
HETATM    5  C   UNL     1      -8.141  13.548  68.632  1.00  0.00    -0.055 A  
HETATM    6  C   UNL     1      -7.535  12.389  68.100  1.00  0.00    -0.118 A  
HETATM    7  C   UNL     1      -6.179  12.409  67.750  1.00  0.00    -0.111 A  
HETATM    8  C   UNL     1      -5.416  13.568  67.917  1.00  0.00    -0.107 A  
BRANCH   5   9
HETATM    9  C   UNL     1      -9.618  13.551  69.038  1.00  0.00     0.266 C  
HETATM   10  O   UNL     1      -9.975  14.800  69.652  1.00  0.00    -0.411 OA 
HETATM   11  H   UNL     1     -10.891  14.802  69.904  1.00  0.00     0.000 HD 
BRANCH   9  12
HETATM   12  C   UNL     1     -10.598  13.352  67.863  1.00  0.00    -0.245 C  
BRANCH  12  13
HETATM   13  N   UNL     1     -11.010  14.567  67.194  1.00  0.00    -0.296 N  
HETATM   14  H   UNL     1     -11.657  15.211  67.648  1.00  0.00     0.000 HD 
HETATM   15  C   UNL     1     -10.518  14.846  65.936  1.00  0.00    -0.315 C  
HETATM   16  O   UNL     1      -9.808  14.067  65.303  1.00  0.00    -0.271 OA 
BRANCH  15  17
HETATM   17  C   UNL     1     -10.903  16.221  65.388  1.00  0.00    -0.273 C  
HETATM   18  N   UNL     1     -11.172  16.161  63.940  1.00  0.00    -1.112 NA 
HETATM   19  H1  UNL     1     -11.429  17.079  63.574  1.00  0.00     0.000 HD 
HETATM   20  H2  UNL     1     -11.877  15.458  63.719  1.00  0.00     0.000 HD 
ENDBRANCH  15  17
ENDBRANCH  12  13
ENDBRANCH   9  12
ENDBRANCH   5   9
BRANCH   6  21
HETATM   21  O   UNL     1      -8.345  11.291  67.969  1.00  0.00    -0.125 OA 
HETATM   22  C   UNL     1      -7.949  10.098  68.640  1.00  0.00    -0.103 C  
ENDBRANCH   6  21
ENDBRANCH   2   3
TORSDOF 6
ENDMDL
MODEL      296
REMARK 921   NORMALIZED FREE ENERGY PREDICTED BY IDOCK:   -2.64 KCAL/MOL
REMARK 922        TOTAL FREE ENERGY PREDICTED BY IDOCK:   -4.06 KCAL/MOL
REMARK 923 INTER-LIGAND FREE ENERGY PREDICTED BY IDOCK:   -3.58 KCAL/MOL
REMARK 924 INTRA-LIGAND FREE ENERGY PREDICTED BY IDOCK:   -0.48 KCAL/MOL
REMARK 927      BINDING AFFINITY PREDICTED BY RF-SCORE:    0.00 PKD
ROOT
HETATM    1  C   UNL     1      -6.012  17.527  67.772  1.00  0.00    -0.149 C  
HETATM    2  O   UNL     1      -6.605  16.518  66.959  1.00  0.00    -0.174 OA 
ENDROOT
BRANCH   2   3
HETATM    3  C   UNL     1      -7.740  15.926  67.439  1.00  0.00    -0.175 A  
HETATM    4  C   UNL     1      -8.382  14.824  66.878  1.00  0.00    -0.184 A  
HETATM    5  C   UNL     1      -9.564  14.282  67.434  1.00  0.00    -0.214 A  
HETATM    6  C   UNL     1     -10.083  14.881  68.602  1.00  0.00    -0.237 A  
HETATM    7  C   UNL     1      -9.434  15.988  69.166  1.00  0.00    -0.253 A  
HETATM    8  C   UNL     1      -8.272  16.506  68.586  1.00  0.00    -0.234 A  
BRANCH   5   9
HETATM    9  C   UNL     1     -10.260  13.082  66.787  1.00  0.00    -0.246 C  
HETATM   10  O   UNL     1      -9.738  12.838  65.470  1.00  0.00    -0.414 OA 
HETATM   11  H   UNL     1     -10.170  12.093  65.069  1.00  0.00     0.000 HD 
BRANCH   9  12
HETATM   12  C   UNL     1     -10.098  11.760  67.566  1.00  0.00    -0.192 C  
BRANCH  12  13
HETATM   13  N   UNL     1      -8.997  10.926  67.139  1.00  0.00    -0.138 N  
HETATM   14  H   UNL     1      -9.098  10.312  66.330  1.00  0.00     0.000 HD 
HETATM   15  C   UNL     1      -7.807  10.967  67.835  1.00  0.00    -0.110 C  
HETATM   16  O   UNL     1      -7.654  11.617  68.867  1.00  0.00    -0.129 OA 
BRANCH  15  17
HETATM   17  C   UNL     1      -6.669  10.158  67.209  1.00  0.00    -0.073 C  
HETATM   18  N   UNL     1      -5.851  10.995  66.313  1.00  0.00    -0.138 NA 
HETATM   19  H1  UNL     1      -5.092  10.455  65.895  1.00  0.00     0.000 HD 
HETATM   20  H2  UNL     1      -5.502  11.826  66.790  1.00  0.00     0.000 HD 
ENDBRANCH  15  17
ENDBRANCH  12  13
ENDBRANCH   9  12
ENDBRANCH   5   9
BRANCH   6  21
HETATM   21  O   UNL     1     -11.225  14.321  69.110  1.00  0.00    -0.249 OA 
HETATM   22  C   UNL     1     -11.598  14.678  70.438  1.00  0.00    -0.268 C  
ENDBRANCH   6  21
ENDBRANCH   2   3
TORSDOF 6
ENDMDL
MODEL      297
REMARK 921   NORMALIZED FREE ENERGY PREDICTED BY IDOCK:   -2.62 KCAL/MOL
REMARK 922        TOTAL FREE ENERGY PREDICTED BY IDOCK:   -4.03 KCAL/MOL
REMARK 923 INTER-LIGAND FREE ENERGY PREDICTED BY IDOCK:   -3.61 KCAL/MOL
REMARK 924 INTRA-LIGAND FREE ENERGY PREDICTED BY IDOCK:   -0.43 KCAL/MOL
REMARK 927      BINDING AFFINITY PREDICTED BY RF-SCORE:    0.00 PKD
ROOT
HETATM    1  C   UNL     1      -9.837  12.215  65.970  1.00  0.00    -0.243 C  
HETATM    2  O   UNL     1     -10.228  10.943  65.459  1.00  0.00    -0.253 OA 
ENDROOT
BRANCH   2   3
HETATM    3  C   UNL     1     -10.089   9.872  66.297  1.00  0.00    -0.241 A  
HETATM    4  C   UNL     1      -9.520   8.645  65.961  1.00  0.00    -0.278 A  
HETATM    5  C   UNL     1      -9.429   7.583  66.889  1.00  0.00    -0.219 A  
HETATM    6  C   UNL     1      -9.921   7.798  68.195  1.00  0.00    -0.178 A  
HETATM    7  C   UNL     1     -10.491   9.033  68.531  1.00  0.00    -0.232 A  
HETATM    8  C   UNL     1     -10.575  10.061  67.587  1.00  0.00    -0.323 A  
BRANCH   5   9
HETATM    9  C   UNL     1      -8.816   6.238  66.489  1.00  0.00    -0.138 C  
HETATM   10  O   UNL     1      -7.834   5.819  67.451  1.00  0.00    -0.100 OA 
HETATM   11  H   UNL     1      -7.454   4.984  67.203  1.00  0.00     0.000 HD 
BRANCH   9  12
HETATM   12  C   UNL     1      -9.834   5.084  66.382  1.00  0.00    -0.201 C  
BRANCH  12  13
HETATM   13  N   UNL     1     -10.136   4.652  65.035  1.00  0.00    -0.396 N  
HETATM   14  H   UNL     1     -10.571   5.295  64.374  1.00  0.00     0.000 HD 
HETATM   15  C   UNL     1      -9.828   3.363  64.652  1.00  0.00    -0.146 C  
HETATM   16  O   UNL     1      -9.386   2.518  65.429  1.00  0.00    -0.131 OA 
BRANCH  15  17
HETATM   17  C   UNL     1     -10.054   3.063  63.170  1.00  0.00    -0.129 C  
HETATM   18  N   UNL     1      -8.781   3.058  62.427  1.00  0.00    -0.074 NA 
HETATM   19  H1  UNL     1      -8.932   2.857  61.438  1.00  0.00     0.000 HD 
HETATM   20  H2  UNL     1      -8.108   2.413  62.843  1.00  0.00     0.000 HD 
ENDBRANCH  15  17
ENDBRANCH  12  13
ENDBRANCH   9  12
ENDBRANCH   5   9
BRANCH   6  21
HETATM   21  O   UNL     1      -9.808   6.744  69.063  1.00  0.00    -0.147 OA 
HETATM   22  C   UNL     1      -9.882   7.030  70.457  1.00  0.00    -0.179 C  
ENDBRANCH   6  21
ENDBRANCH   2   3
TORSDOF 6
ENDMDL
MODEL      298
REMARK 921   NORMALIZED FREE ENERGY PREDICTED BY IDOCK:   -2.62 KCAL/MOL
REMARK 922        TOTAL FREE ENERGY PREDICTED BY IDOCK:   -4.03 KCAL/MOL
REMARK 923 INTER-LIGAND FREE ENERGY PREDICTED BY IDOCK:   -3.32 KCAL/MOL
REMARK 924 INTRA-LIGAND FREE ENERGY PREDICTED BY IDOCK:   -0.71 KCAL/MOL
REMARK 927      BINDING AFFINITY PREDICTED BY RF-SCORE:    0.00 PKD
ROOT
HETATM    1  C   UNL     1     -11.007  12.973  65.588  1.00  0.00    -0.273 C  
HETATM    2  O   UNL     1     -11.520  11.670  65.855  1.00  0.00    -0.272 OA 
ENDROOT
BRANCH   2   3
HETATM    3  C   UNL     1     -10.777  10.870  66.679  1.00  0.00    -0.230 A  
HETATM    4  C   UNL     1     -10.004   9.784  66.278  1.00  0.00    -0.331 A  
HETATM    5  C   UNL     1      -9.276   9.000  67.202  1.00  0.00    -0.164 A  
HETATM    6  C   UNL     1      -9.336   9.357  68.567  1.00  0.00    -0.138 A  
HETATM    7  C   UNL     1     -10.112  10.452  68.968  1.00  0.00    -0.227 A  
HETATM    8  C   UNL     1     -10.828  11.201  68.030  1.00  0.00    -0.274 A  
BRANCH   5   9
HETATM    9  C   UNL     1      -8.448   7.799  66.737  1.00  0.00    -0.126 C  
HETATM   10  O   UNL     1      -7.219   7.709  67.477  1.00  0.00    -0.082 OA 
HETATM   11  H   UNL     1      -6.705   6.964  67.188  1.00  0.00     0.000 HD 
BRANCH   9  12
HETATM   12  C   UNL     1      -9.154   6.438  66.909  1.00  0.00    -0.133 C  
BRANCH  12  13
HETATM   13  N   UNL     1      -8.730   5.666  68.056  1.00  0.00    -0.101 N  
HETATM   14  H   UNL     1      -7.798   5.252  68.082  1.00  0.00     0.000 HD 
HETATM   15  C   UNL     1      -9.597   5.494  69.114  1.00  0.00    -0.143 C  
HETATM   16  O   UNL     1     -10.761   5.891  69.102  1.00  0.00    -0.271 OA 
BRANCH  15  17
HETATM   17  C   UNL     1      -8.994   4.788  70.330  1.00  0.00    -0.103 C  
HETATM   18  N   UNL     1      -8.880   5.707  71.477  1.00  0.00    -0.136 NA 
HETATM   19  H1  UNL     1      -8.477   5.236  72.287  1.00  0.00     0.000 HD 
HETATM   20  H2  UNL     1      -9.776   6.140  71.700  1.00  0.00     0.000 HD 
ENDBRANCH  15  17
ENDBRANCH  12  13
ENDBRANCH   9  12
ENDBRANCH   5   9
BRANCH   6  21
HETATM   21  O   UNL     1      -8.611   8.575  69.428  1.00  0.00    -0.125 OA 
HETATM   22  C   UNL     1      -8.409   9.065  70.750  1.00  0.00    -0.192 C  
ENDBRANCH   6  21
ENDBRANCH   2   3
TORSDOF 6
ENDMDL
MODEL      299
REMARK 921   NORMALIZED FREE ENERGY PREDICTED BY IDOCK:   -2.60 KCAL/MOL
REMARK 922        TOTAL FREE ENERGY PREDICTED BY IDOCK:   -4.01 KCAL/MOL
REMARK 923 INTER-LIGAND FREE ENERGY PREDICTED BY IDOCK:   -4.59 KCAL/MOL
REMARK 924 INTRA-LIGAND FREE ENERGY PREDICTED BY IDOCK:    0.57 KCAL/MOL
REMARK 927      BINDING AFFINITY PREDICTED BY RF-SCORE:    0.00 PKD
ROOT
HETATM    1  C   UNL     1      -9.442   4.990  65.667  1.00  0.00    -0.141 C  
HETATM    2  O   UNL     1      -8.415   5.975  65.748  1.00  0.00    -0.135 OA 
ENDROOT
BRANCH   2   3
HETATM    3  C   UNL     1      -8.384   6.744  66.878  1.00  0.00    -0.114 A  
HETATM    4  C   UNL     1      -9.219   7.826  67.148  1.00  0.00    -0.174 A  
HETATM    5  C   UNL     1      -9.108   8.578  68.340  1.00  0.00    -0.139 A  
HETATM    6  C   UNL     1      -8.126   8.193  69.279  1.00  0.00    -0.117 A  
HETATM    7  C   UNL     1      -7.290   7.103  69.006  1.00  0.00    -0.092 A  
HETATM    8  C   UNL     1      -7.418   6.386  67.813  1.00  0.00    -0.093 A  
BRANCH   5   9
HETATM    9  C   UNL     1     -10.027   9.774  68.605  1.00  0.00    -0.167 C  
HETATM   10  O   UNL     1     -11.301   9.591  67.966  1.00  0.00    -0.514 OA 
HETATM   11  H   UNL     1     -11.871  10.332  68.130  1.00  0.00     0.000 HD 
BRANCH   9  12
HETATM   12  C   UNL     1     -10.326  10.026  70.098  1.00  0.00    -0.266 C  
BRANCH  12  13
HETATM   13  N   UNL     1     -11.728  10.142  70.432  1.00  0.00    -0.289 N  
HETATM   14  H   UNL     1     -12.323  10.804  69.934  1.00  0.00     0.000 HD 
HETATM   15  C   UNL     1     -12.253   9.350  71.432  1.00  0.00    -0.356 C  
HETATM   16  O   UNL     1     -11.568   8.601  72.127  1.00  0.00    -0.342 OA 
BRANCH  15  17
HETATM   17  C   UNL     1     -13.770   9.452  71.600  1.00  0.00    -0.321 C  
HETATM   18  N   UNL     1     -14.206   8.849  72.873  1.00  0.00    -1.123 NA 
HETATM   19  H1  UNL     1     -15.218   8.916  72.985  1.00  0.00     0.000 HD 
HETATM   20  H2  UNL     1     -13.712   9.254  73.668  1.00  0.00     0.000 HD 
ENDBRANCH  15  17
ENDBRANCH  12  13
ENDBRANCH   9  12
ENDBRANCH   5   9
BRANCH   6  21
HETATM   21  O   UNL     1      -8.057   8.945  70.422  1.00  0.00    -0.100 OA 
HETATM   22  C   UNL     1      -7.773   8.264  71.641  1.00  0.00    -0.101 C  
ENDBRANCH   6  21
ENDBRANCH   2   3
TORSDOF 6
ENDMDL
MODEL      300
REMARK 921   NORMALIZED FREE ENERGY PREDICTED BY IDOCK:   -2.58 KCAL/MOL
REMARK 922        TOTAL FREE ENERGY PREDICTED BY IDOCK:   -3.98 KCAL/MOL
REMARK 923 INTER-LIGAND FREE ENERGY PREDICTED BY IDOCK:   -3.95 KCAL/MOL
REMARK 924 INTRA-LIGAND FREE ENERGY PREDICTED BY IDOCK:   -0.03 KCAL/MOL
REMARK 927      BINDING AFFINITY PREDICTED BY RF-SCORE:    0.00 PKD
ROOT
HETATM    1  C   UNL     1      -7.563  16.389  67.774  1.00  0.00    -0.145 C  
HETATM    2  O   UNL     1      -7.511  15.277  68.664  1.00  0.00    -0.115 OA 
ENDROOT
BRANCH   2   3
HETATM    3  C   UNL     1      -7.747  14.043  68.126  1.00  0.00    -0.143 A  
HETATM    4  C   UNL     1      -8.937  13.629  67.530  1.00  0.00    -0.209 A  
HETATM    5  C   UNL     1      -9.099  12.325  67.009  1.00  0.00    -0.201 A  
HETATM    6  C   UNL     1      -8.006  11.436  67.091  1.00  0.00    -0.156 A  
HETATM    7  C   UNL     1      -6.810  11.855  67.689  1.00  0.00    -0.112 A  
HETATM    8  C   UNL     1      -6.684  13.149  68.203  1.00  0.00    -0.111 A  
BRANCH   5   9
HETATM    9  C   UNL     1     -10.424  11.889  66.375  1.00  0.00    -0.223 C  
HETATM   10  O   UNL     1     -10.408  10.484  66.077  1.00  0.00    -0.248 OA 
HETATM   11  H   UNL     1     -11.230  10.214  65.684  1.00  0.00     0.000 HD 
BRANCH   9  12
HETATM   12  C   UNL     1     -11.661  12.127  67.266  1.00  0.00    -0.334 C  
BRANCH  12  13
HETATM   13  N   UNL     1     -11.824  11.188  68.355  1.00  0.00    -0.293 N  
HETATM   14  H   UNL     1     -12.056  10.214  68.164  1.00  0.00     0.000 HD 
HETATM   15  C   UNL     1     -11.662  11.623  69.654  1.00  0.00    -0.350 C  
HETATM   16  O   UNL     1     -11.471  12.801  69.950  1.00  0.00    -0.195 OA 
BRANCH  15  17
HETATM   17  C   UNL     1     -11.712  10.519  70.711  1.00  0.00    -0.356 C  
HETATM   18  N   UNL     1     -13.089  10.031  70.907  1.00  0.00    -0.530 NA 
HETATM   19  H1  UNL     1     -13.122   9.295  71.612  1.00  0.00     0.000 HD 
HETATM   20  H2  UNL     1     -13.508   9.729  70.028  1.00  0.00     0.000 HD 
ENDBRANCH  15  17
ENDBRANCH  12  13
ENDBRANCH   9  12
ENDBRANCH   5   9
BRANCH   6  21
HETATM   21  O   UNL     1      -8.205  10.185  66.570  1.00  0.00    -0.121 OA 
HETATM   22  C   UNL     1      -7.297   9.738  65.567  1.00  0.00    -0.112 C  
ENDBRANCH   6  21
ENDBRANCH   2   3
TORSDOF 6
ENDMDL
MODEL      301
REMARK 921   NORMALIZED FREE ENERGY PREDICTED BY IDOCK:   -2.58 KCAL/MOL
REMARK 922        TOTAL FREE ENERGY PREDICTED BY IDOCK:   -3.98 KCAL/MOL
REMARK 923 INTER-LIGAND FREE ENERGY PREDICTED BY IDOCK:   -3.33 KCAL/MOL
REMARK 924 INTRA-LIGAND FREE ENERGY PREDICTED BY IDOCK:   -0.64 KCAL/MOL
REMARK 927      BINDING AFFINITY PREDICTED BY RF-SCORE:    0.00 PKD
ROOT
HETATM    1  C   UNL     1      -5.650  15.995  69.809  1.00  0.00    -0.144 C  
HETATM    2  O   UNL     1      -5.885  16.074  68.406  1.00  0.00    -0.099 OA 
ENDROOT
BRANCH   2   3
HETATM    3  C   UNL     1      -6.993  15.434  67.927  1.00  0.00    -0.145 A  
HETATM    4  C   UNL     1      -7.108  14.063  67.704  1.00  0.00    -0.193 A  
HETATM    5  C   UNL     1      -8.292  13.484  67.192  1.00  0.00    -0.151 A  
HETATM    6  C   UNL     1      -9.384  14.337  66.920  1.00  0.00    -0.257 A  
HETATM    7  C   UNL     1      -9.267  15.714  67.147  1.00  0.00    -0.226 A  
HETATM    8  C   UNL     1      -8.079  16.257  67.646  1.00  0.00    -0.161 A  
BRANCH   5   9
HETATM    9  C   UNL     1      -8.386  11.977  66.938  1.00  0.00    -0.159 C  
HETATM   10  O   UNL     1      -8.473  11.701  65.530  1.00  0.00    -0.370 OA 
HETATM   11  H   UNL     1      -8.531  10.766  65.373  1.00  0.00     0.000 HD 
BRANCH   9  12
HETATM   12  C   UNL     1      -7.180  11.170  67.462  1.00  0.00    -0.101 C  
BRANCH  12  13
HETATM   13  N   UNL     1      -7.316  10.666  68.810  1.00  0.00    -0.092 N  
HETATM   14  H   UNL     1      -7.257  11.301  69.606  1.00  0.00     0.000 HD 
HETATM   15  C   UNL     1      -7.528   9.318  69.011  1.00  0.00    -0.073 C  
HETATM   16  O   UNL     1      -7.519   8.493  68.100  1.00  0.00    -0.093 OA 
BRANCH  15  17
HETATM   17  C   UNL     1      -7.804   8.921  70.462  1.00  0.00    -0.112 C  
HETATM   18  N   UNL     1      -6.741   9.411  71.359  1.00  0.00    -0.289 NA 
HETATM   19  H1  UNL     1      -6.925   9.146  72.327  1.00  0.00     0.000 HD 
HETATM   20  H2  UNL     1      -6.606  10.417  71.264  1.00  0.00     0.000 HD 
ENDBRANCH  15  17
ENDBRANCH  12  13
ENDBRANCH   9  12
ENDBRANCH   5   9
BRANCH   6  21
HETATM   21  O   UNL     1     -10.513  13.734  66.430  1.00  0.00    -0.277 OA 
HETATM   22  C   UNL     1     -11.743  14.443  66.552  1.00  0.00    -0.391 C  
ENDBRANCH   6  21
ENDBRANCH   2   3
TORSDOF 6
ENDMDL
MODEL      302
REMARK 921   NORMALIZED FREE ENERGY PREDICTED BY IDOCK:   -2.55 KCAL/MOL
REMARK 922        TOTAL FREE ENERGY PREDICTED BY IDOCK:   -3.93 KCAL/MOL
REMARK 923 INTER-LIGAND FREE ENERGY PREDICTED BY IDOCK:   -3.52 KCAL/MOL
REMARK 924 INTRA-LIGAND FREE ENERGY PREDICTED BY IDOCK:   -0.41 KCAL/MOL
REMARK 927      BINDING AFFINITY PREDICTED BY RF-SCORE:    0.00 PKD
ROOT
HETATM    1  C   UNL     1      -6.147   9.105  65.391  1.00  0.00    -0.063 C  
HETATM    2  O   UNL     1      -6.491   7.722  65.418  1.00  0.00    -0.041 OA 
ENDROOT
BRANCH   2   3
HETATM    3  C   UNL     1      -7.225   7.289  66.488  1.00  0.00    -0.079 A  
HETATM    4  C   UNL     1      -8.479   7.767  66.861  1.00  0.00    -0.125 A  
HETATM    5  C   UNL     1      -9.163   7.269  67.994  1.00  0.00    -0.131 A  
HETATM    6  C   UNL     1      -8.545   6.245  68.745  1.00  0.00    -0.122 A  
HETATM    7  C   UNL     1      -7.286   5.764  68.366  1.00  0.00    -0.079 A  
HETATM    8  C   UNL     1      -6.631   6.284  67.246  1.00  0.00    -0.058 A  
BRANCH   5   9
HETATM    9  C   UNL     1     -10.533   7.825  68.394  1.00  0.00    -0.166 C  
HETATM   10  O   UNL     1     -11.414   6.765  68.800  1.00  0.00    -0.559 OA 
HETATM   11  H   UNL     1     -12.264   7.109  69.049  1.00  0.00     0.000 HD 
BRANCH   9  12
HETATM   12  C   UNL     1     -10.492   8.825  69.568  1.00  0.00    -0.220 C  
BRANCH  12  13
HETATM   13  N   UNL     1     -11.321   8.477  70.701  1.00  0.00    -0.277 N  
HETATM   14  H   UNL     1     -11.102   7.658  71.268  1.00  0.00     0.000 HD 
HETATM   15  C   UNL     1     -12.412   9.263  71.008  1.00  0.00    -0.211 C  
HETATM   16  O   UNL     1     -12.778  10.208  70.312  1.00  0.00    -0.186 OA 
BRANCH  15  17
HETATM   17  C   UNL     1     -13.128   8.888  72.307  1.00  0.00    -0.436 C  
HETATM   18  N   UNL     1     -14.141   9.897  72.667  1.00  0.00    -0.516 NA 
HETATM   19  H1  UNL     1     -14.618   9.646  73.534  1.00  0.00     0.000 HD 
HETATM   20  H2  UNL     1     -14.802  10.052  71.906  1.00  0.00     0.000 HD 
ENDBRANCH  15  17
ENDBRANCH  12  13
ENDBRANCH   9  12
ENDBRANCH   5   9
BRANCH   6  21
HETATM   21  O   UNL     1      -9.245   5.788  69.831  1.00  0.00    -0.141 OA 
HETATM   22  C   UNL     1      -8.585   4.875  70.702  1.00  0.00    -0.109 C  
ENDBRANCH   6  21
ENDBRANCH   2   3
TORSDOF 6
ENDMDL
MODEL      303
REMARK 921   NORMALIZED FREE ENERGY PREDICTED BY IDOCK:   -2.51 KCAL/MOL
REMARK 922        TOTAL FREE ENERGY PREDICTED BY IDOCK:   -3.89 KCAL/MOL
REMARK 923 INTER-LIGAND FREE ENERGY PREDICTED BY IDOCK:   -3.50 KCAL/MOL
REMARK 924 INTRA-LIGAND FREE ENERGY PREDICTED BY IDOCK:   -0.39 KCAL/MOL
REMARK 927      BINDING AFFINITY PREDICTED BY RF-SCORE:    0.00 PKD
ROOT
HETATM    1  C   UNL     1     -13.809   7.689  71.565  1.00  0.00    -0.375 C  
HETATM    2  O   UNL     1     -13.067   6.472  71.567  1.00  0.00    -0.136 OA 
ENDROOT
BRANCH   2   3
HETATM    3  C   UNL     1     -11.777   6.534  71.118  1.00  0.00    -0.335 A  
HETATM    4  C   UNL     1     -11.384   6.654  69.787  1.00  0.00    -0.412 A  
HETATM    5  C   UNL     1     -10.022   6.698  69.409  1.00  0.00    -0.169 A  
HETATM    6  C   UNL     1      -9.048   6.633  70.428  1.00  0.00    -0.152 A  
HETATM    7  C   UNL     1      -9.446   6.515  71.766  1.00  0.00    -0.155 A  
HETATM    8  C   UNL     1     -10.801   6.465  72.107  1.00  0.00    -0.272 A  
BRANCH   5   9
HETATM    9  C   UNL     1      -9.617   6.811  67.936  1.00  0.00    -0.120 C  
HETATM   10  O   UNL     1     -10.266   5.800  67.149  1.00  0.00    -0.161 OA 
HETATM   11  H   UNL     1     -10.015   5.870  66.236  1.00  0.00     0.000 HD 
BRANCH   9  12
HETATM   12  C   UNL     1      -9.975   8.162  67.283  1.00  0.00    -0.218 C  
BRANCH  12  13
HETATM   13  N   UNL     1      -8.960   8.712  66.412  1.00  0.00    -0.151 N  
HETATM   14  H   UNL     1      -7.983   8.441  66.524  1.00  0.00     0.000 HD 
HETATM   15  C   UNL     1      -9.325   9.608  65.428  1.00  0.00    -0.259 C  
HETATM   16  O   UNL     1     -10.469  10.041  65.303  1.00  0.00    -0.139 OA 
BRANCH  15  17
HETATM   17  C   UNL     1      -8.197  10.010  64.477  1.00  0.00    -0.164 C  
HETATM   18  N   UNL     1      -8.008   9.001  63.418  1.00  0.00    -0.141 NA 
HETATM   19  H1  UNL     1      -7.255   9.269  62.784  1.00  0.00     0.000 HD 
HETATM   20  H2  UNL     1      -8.877   8.819  62.916  1.00  0.00     0.000 HD 
ENDBRANCH  15  17
ENDBRANCH  12  13
ENDBRANCH   9  12
ENDBRANCH   5   9
BRANCH   6  21
HETATM   21  O   UNL     1      -7.741   6.684  70.018  1.00  0.00    -0.097 OA 
HETATM   22  C   UNL     1      -6.941   7.757  70.505  1.00  0.00    -0.046 C  
ENDBRANCH   6  21
ENDBRANCH   2   3
TORSDOF 6
ENDMDL
MODEL      304
REMARK 921   NORMALIZED FREE ENERGY PREDICTED BY IDOCK:   -2.48 KCAL/MOL
REMARK 922        TOTAL FREE ENERGY PREDICTED BY IDOCK:   -3.85 KCAL/MOL
REMARK 923 INTER-LIGAND FREE ENERGY PREDICTED BY IDOCK:   -3.15 KCAL/MOL
REMARK 924 INTRA-LIGAND FREE ENERGY PREDICTED BY IDOCK:   -0.70 KCAL/MOL
REMARK 927      BINDING AFFINITY PREDICTED BY RF-SCORE:    0.00 PKD
ROOT
HETATM    1  C   UNL     1      -6.920   2.061  65.075  1.00  0.00    -0.043 C  
HETATM    2  O   UNL     1      -7.750   3.139  64.650  1.00  0.00    -0.075 OA 
ENDROOT
BRANCH   2   3
HETATM    3  C   UNL     1      -8.109   4.054  65.600  1.00  0.00    -0.101 A  
HETATM    4  C   UNL     1      -8.026   3.871  66.979  1.00  0.00    -0.095 A  
HETATM    5  C   UNL     1      -8.433   4.870  67.893  1.00  0.00    -0.103 A  
HETATM    6  C   UNL     1      -8.920   6.088  67.371  1.00  0.00    -0.108 A  
HETATM    7  C   UNL     1      -8.999   6.271  65.985  1.00  0.00    -0.150 A  
HETATM    8  C   UNL     1      -8.598   5.260  65.107  1.00  0.00    -0.151 A  
BRANCH   5   9
HETATM    9  C   UNL     1      -8.349   4.636  69.404  1.00  0.00    -0.075 C  
HETATM   10  O   UNL     1      -7.931   5.832  70.083  1.00  0.00    -0.096 OA 
HETATM   11  H   UNL     1      -7.880   5.687  71.020  1.00  0.00     0.000 HD 
BRANCH   9  12
HETATM   12  C   UNL     1      -9.683   4.215  70.055  1.00  0.00    -0.212 C  
BRANCH  12  13
HETATM   13  N   UNL     1     -10.621   5.291  70.285  1.00  0.00    -0.260 N  
HETATM   14  H   UNL     1     -11.183   5.657  69.517  1.00  0.00     0.000 HD 
HETATM   15  C   UNL     1     -10.750   5.818  71.553  1.00  0.00    -0.258 C  
HETATM   16  O   UNL     1     -10.038   5.480  72.497  1.00  0.00    -0.171 OA 
BRANCH  15  17
HETATM   17  C   UNL     1     -11.872   6.846  71.710  1.00  0.00    -0.316 C  
HETATM   18  N   UNL     1     -12.637   6.994  70.459  1.00  0.00    -0.593 NA 
HETATM   19  H1  UNL     1     -13.385   7.680  70.564  1.00  0.00     0.000 HD 
HETATM   20  H2  UNL     1     -12.993   6.097  70.129  1.00  0.00     0.000 HD 
ENDBRANCH  15  17
ENDBRANCH  12  13
ENDBRANCH   9  12
ENDBRANCH   5   9
BRANCH   6  21
HETATM   21  O   UNL     1      -9.298   7.030  68.292  1.00  0.00    -0.129 OA 
HETATM   22  C   UNL     1     -10.269   7.992  67.889  1.00  0.00    -0.212 C  
ENDBRANCH   6  21
ENDBRANCH   2   3
TORSDOF 6
ENDMDL
MODEL      305
REMARK 921   NORMALIZED FREE ENERGY PREDICTED BY IDOCK:   -2.43 KCAL/MOL
REMARK 922        TOTAL FREE ENERGY PREDICTED BY IDOCK:   -3.77 KCAL/MOL
REMARK 923 INTER-LIGAND FREE ENERGY PREDICTED BY IDOCK:   -3.20 KCAL/MOL
REMARK 924 INTRA-LIGAND FREE ENERGY PREDICTED BY IDOCK:   -0.57 KCAL/MOL
REMARK 927      BINDING AFFINITY PREDICTED BY RF-SCORE:    0.00 PKD
ROOT
HETATM    1  C   UNL     1     -11.511  12.060  68.563  1.00  0.00    -0.293 C  
HETATM    2  O   UNL     1     -11.732  10.757  68.029  1.00  0.00    -0.528 OA 
ENDROOT
BRANCH   2   3
HETATM    3  C   UNL     1     -10.642   9.938  67.927  1.00  0.00    -0.254 A  
HETATM    4  C   UNL     1     -10.670   8.545  67.914  1.00  0.00    -0.148 A  
HETATM    5  C   UNL     1      -9.489   7.773  67.818  1.00  0.00    -0.163 A  
HETATM    6  C   UNL     1      -8.257   8.456  67.716  1.00  0.00    -0.126 A  
HETATM    7  C   UNL     1      -8.232   9.856  67.726  1.00  0.00    -0.114 A  
HETATM    8  C   UNL     1      -9.417  10.590  67.832  1.00  0.00    -0.157 A  
BRANCH   5   9
HETATM    9  C   UNL     1      -9.545   6.243  67.826  1.00  0.00    -0.117 C  
HETATM   10  O   UNL     1      -8.786   5.700  66.733  1.00  0.00    -0.114 OA 
HETATM   11  H   UNL     1      -8.821   4.750  66.737  1.00  0.00     0.000 HD 
BRANCH   9  12
HETATM   12  C   UNL     1      -8.981   5.594  69.107  1.00  0.00    -0.113 C  
BRANCH  12  13
HETATM   13  N   UNL     1      -9.861   5.634  70.254  1.00  0.00    -0.183 N  
HETATM   14  H   UNL     1     -10.794   5.227  70.202  1.00  0.00     0.000 HD 
HETATM   15  C   UNL     1      -9.425   6.227  71.421  1.00  0.00    -0.156 C  
HETATM   16  O   UNL     1      -8.347   6.812  71.516  1.00  0.00    -0.114 OA 
BRANCH  15  17
HETATM   17  C   UNL     1     -10.377   6.082  72.609  1.00  0.00    -0.196 C  
HETATM   18  N   UNL     1     -10.002   6.991  73.706  1.00  0.00    -0.296 NA 
HETATM   19  H1  UNL     1     -10.638   6.894  74.499  1.00  0.00     0.000 HD 
HETATM   20  H2  UNL     1      -9.944   7.958  73.388  1.00  0.00     0.000 HD 
ENDBRANCH  15  17
ENDBRANCH  12  13
ENDBRANCH   9  12
ENDBRANCH   5   9
BRANCH   6  21
HETATM   21  O   UNL     1      -7.138   7.669  67.620  1.00  0.00    -0.080 OA 
HETATM   22  C   UNL     1      -6.161   8.033  66.650  1.00  0.00    -0.049 C  
ENDBRANCH   6  21
ENDBRANCH   2   3
TORSDOF 6
ENDMDL
MODEL      306
REMARK 921   NORMALIZED FREE ENERGY PREDICTED BY IDOCK:   -2.32 KCAL/MOL
REMARK 922        TOTAL FREE ENERGY PREDICTED BY IDOCK:   -3.62 KCAL/MOL
REMARK 923 INTER-LIGAND FREE ENERGY PREDICTED BY IDOCK:   -3.29 KCAL/MOL
REMARK 924 INTRA-LIGAND FREE ENERGY PREDICTED BY IDOCK:   -0.34 KCAL/MOL
REMARK 927      BINDING AFFINITY PREDICTED BY RF-SCORE:    0.00 PKD
ROOT
HETATM    1  C   UNL     1      -5.886  10.017  63.585  1.00  0.00    -0.128 C  
HETATM    2  O   UNL     1      -7.292  10.038  63.356  1.00  0.00    -0.132 OA 
ENDROOT
BRANCH   2   3
HETATM    3  C   UNL     1      -8.097  10.118  64.458  1.00  0.00    -0.160 A  
HETATM    4  C   UNL     1      -8.246  11.235  65.277  1.00  0.00     0.320 A  
HETATM    5  C   UNL     1      -9.093  11.226  66.409  1.00  0.00    -0.201 A  
HETATM    6  C   UNL     1      -9.813  10.044  66.690  1.00  0.00    -0.203 A  
HETATM    7  C   UNL     1      -9.664   8.924  65.863  1.00  0.00    -0.259 A  
HETATM    8  C   UNL     1      -8.811   8.961  64.756  1.00  0.00    -0.130 A  
BRANCH   5   9
HETATM    9  C   UNL     1      -9.224  12.462  67.304  1.00  0.00    -0.187 C  
HETATM   10  O   UNL     1      -7.983  12.743  67.971  1.00  0.00    -0.136 OA 
HETATM   11  H   UNL     1      -8.064  13.509  68.526  1.00  0.00     0.000 HD 
BRANCH   9  12
HETATM   12  C   UNL     1      -9.611  13.751  66.551  1.00  0.00    -0.285 C  
BRANCH  12  13
HETATM   13  N   UNL     1      -9.453  14.975  67.306  1.00  0.00    -0.204 N  
HETATM   14  H   UNL     1      -9.328  14.943  68.318  1.00  0.00     0.000 HD 
HETATM   15  C   UNL     1      -9.474  16.185  66.646  1.00  0.00    -0.247 C  
HETATM   16  O   UNL     1      -9.710  16.292  65.444  1.00  0.00    -0.473 OA 
BRANCH  15  17
HETATM   17  C   UNL     1      -9.152  17.399  67.520  1.00  0.00    -0.232 C  
HETATM   18  N   UNL     1      -7.802  17.293  68.102  1.00  0.00    -0.212 NA 
HETATM   19  H1  UNL     1      -7.587  18.102  68.685  1.00  0.00     0.000 HD 
HETATM   20  H2  UNL     1      -7.094  17.150  67.381  1.00  0.00     0.000 HD 
ENDBRANCH  15  17
ENDBRANCH  12  13
ENDBRANCH   9  12
ENDBRANCH   5   9
BRANCH   6  21
HETATM   21  O   UNL     1     -10.626  10.081  67.792  1.00  0.00    -0.224 OA 
HETATM   22  C   UNL     1     -10.135   9.490  68.992  1.00  0.00    -0.193 C  
ENDBRANCH   6  21
ENDBRANCH   2   3
TORSDOF 6
ENDMDL
MODEL      307
REMARK 921   NORMALIZED FREE ENERGY PREDICTED BY IDOCK:   -2.28 KCAL/MOL
REMARK 922        TOTAL FREE ENERGY PREDICTED BY IDOCK:   -3.58 KCAL/MOL
REMARK 923 INTER-LIGAND FREE ENERGY PREDICTED BY IDOCK:   -2.83 KCAL/MOL
REMARK 924 INTRA-LIGAND FREE ENERGY PREDICTED BY IDOCK:   -0.75 KCAL/MOL
REMARK 927      BINDING AFFINITY PREDICTED BY RF-SCORE:    0.00 PKD
ROOT
HETATM    1  C   UNL     1      -9.679   4.576  65.192  1.00  0.00    -0.152 C  
HETATM    2  O   UNL     1      -8.838   5.677  65.522  1.00  0.00    -0.154 OA 
ENDROOT
BRANCH   2   3
HETATM    3  C   UNL     1      -8.537   5.851  66.845  1.00  0.00    -0.111 A  
HETATM    4  C   UNL     1      -9.231   5.294  67.916  1.00  0.00    -0.122 A  
HETATM    5  C   UNL     1      -8.857   5.538  69.258  1.00  0.00    -0.112 A  
HETATM    6  C   UNL     1      -7.735   6.361  69.495  1.00  0.00    -0.100 A  
HETATM    7  C   UNL     1      -7.038   6.918  68.416  1.00  0.00    -0.086 A  
HETATM    8  C   UNL     1      -7.438   6.665  67.100  1.00  0.00    -0.088 A  
BRANCH   5   9
HETATM    9  C   UNL     1      -9.648   4.928  70.419  1.00  0.00    -0.190 C  
HETATM   10  O   UNL     1      -8.773   4.231  71.321  1.00  0.00    -0.098 OA 
HETATM   11  H   UNL     1      -9.264   3.853  72.042  1.00  0.00     0.000 HD 
BRANCH   9  12
HETATM   12  C   UNL     1     -10.416   5.959  71.273  1.00  0.00    -0.233 C  
BRANCH  12  13
HETATM   13  N   UNL     1      -9.805   6.282  72.543  1.00  0.00    -0.167 N  
HETATM   14  H   UNL     1      -9.491   5.539  73.168  1.00  0.00     0.000 HD 
HETATM   15  C   UNL     1      -9.649   7.605  72.902  1.00  0.00    -0.218 C  
HETATM   16  O   UNL     1     -10.086   8.539  72.233  1.00  0.00    -0.293 OA 
BRANCH  15  17
HETATM   17  C   UNL     1      -8.861   7.830  74.193  1.00  0.00    -0.199 C  
HETATM   18  N   UNL     1      -7.742   8.766  73.978  1.00  0.00    -0.402 NA 
HETATM   19  H1  UNL     1      -7.216   8.916  74.840  1.00  0.00     0.000 HD 
HETATM   20  H2  UNL     1      -8.062   9.646  73.575  1.00  0.00     0.000 HD 
ENDBRANCH  15  17
ENDBRANCH  12  13
ENDBRANCH   9  12
ENDBRANCH   5   9
BRANCH   6  21
HETATM   21  O   UNL     1      -7.405   6.567  70.810  1.00  0.00    -0.073 OA 
HETATM   22  C   UNL     1      -6.021   6.667  71.132  1.00  0.00    -0.035 C  
ENDBRANCH   6  21
ENDBRANCH   2   3
TORSDOF 6
ENDMDL
MODEL      308
REMARK 921   NORMALIZED FREE ENERGY PREDICTED BY IDOCK:   -2.23 KCAL/MOL
REMARK 922        TOTAL FREE ENERGY PREDICTED BY IDOCK:   -3.51 KCAL/MOL
REMARK 923 INTER-LIGAND FREE ENERGY PREDICTED BY IDOCK:   -2.88 KCAL/MOL
REMARK 924 INTRA-LIGAND FREE ENERGY PREDICTED BY IDOCK:   -0.63 KCAL/MOL
REMARK 927      BINDING AFFINITY PREDICTED BY RF-SCORE:    0.00 PKD
ROOT
HETATM    1  C   UNL     1      -7.178   9.235  65.991  1.00  0.00    -0.091 C  
HETATM    2  O   UNL     1      -7.712   7.918  65.882  1.00  0.00    -0.087 OA 
ENDROOT
BRANCH   2   3
HETATM    3  C   UNL     1      -8.569   7.515  66.868  1.00  0.00    -0.124 A  
HETATM    4  C   UNL     1      -8.534   6.287  67.524  1.00  0.00    -0.108 A  
HETATM    5  C   UNL     1      -9.471   5.946  68.526  1.00  0.00    -0.134 A  
HETATM    6  C   UNL     1     -10.453   6.901  68.868  1.00  0.00    -0.208 A  
HETATM    7  C   UNL     1     -10.485   8.136  68.209  1.00  0.00    -0.210 A  
HETATM    8  C   UNL     1      -9.549   8.439  67.215  1.00  0.00    -0.215 A  
BRANCH   5   9
HETATM    9  C   UNL     1      -9.422   4.581  69.219  1.00  0.00    -0.172 C  
HETATM   10  O   UNL     1      -8.912   3.575  68.329  1.00  0.00    -0.108 OA 
HETATM   11  H   UNL     1      -8.881   2.729  68.758  1.00  0.00     0.000 HD 
BRANCH   9  12
HETATM   12  C   UNL     1      -8.527   4.540  70.475  1.00  0.00    -0.082 C  
BRANCH  12  13
HETATM   13  N   UNL     1      -9.199   4.844  71.719  1.00  0.00    -0.139 N  
HETATM   14  H   UNL     1      -9.905   5.579  71.757  1.00  0.00     0.000 HD 
HETATM   15  C   UNL     1      -8.875   4.131  72.855  1.00  0.00    -0.102 C  
HETATM   16  O   UNL     1      -7.972   3.298  72.891  1.00  0.00    -0.066 OA 
BRANCH  15  17
HETATM   17  C   UNL     1      -9.749   4.435  74.073  1.00  0.00    -0.121 C  
HETATM   18  N   UNL     1     -10.438   5.730  73.924  1.00  0.00    -0.267 NA 
HETATM   19  H1  UNL     1     -11.020   5.933  74.738  1.00  0.00     0.000 HD 
HETATM   20  H2  UNL     1     -10.975   5.771  73.058  1.00  0.00     0.000 HD 
ENDBRANCH  15  17
ENDBRANCH  12  13
ENDBRANCH   9  12
ENDBRANCH   5   9
BRANCH   6  21
HETATM   21  O   UNL     1     -11.338   6.532  69.848  1.00  0.00    -0.359 OA 
HETATM   22  C   UNL     1     -11.503   7.416  70.953  1.00  0.00    -0.286 C  
ENDBRANCH   6  21
ENDBRANCH   2   3
TORSDOF 6
ENDMDL
MODEL      309
REMARK 921   NORMALIZED FREE ENERGY PREDICTED BY IDOCK:   -2.10 KCAL/MOL
REMARK 922        TOTAL FREE ENERGY PREDICTED BY IDOCK:   -3.33 KCAL/MOL
REMARK 923 INTER-LIGAND FREE ENERGY PREDICTED BY IDOCK:   -3.33 KCAL/MOL
REMARK 924 INTRA-LIGAND FREE ENERGY PREDICTED BY IDOCK:   -0.00 KCAL/MOL
REMARK 927      BINDING AFFINITY PREDICTED BY RF-SCORE:    0.00 PKD
ROOT
HETATM    1  C   UNL     1      -8.861  16.479  68.860  1.00  0.00    -0.244 C  
HETATM    2  O   UNL     1      -9.147  15.991  67.552  1.00  0.00    -0.196 OA 
ENDROOT
BRANCH   2   3
HETATM    3  C   UNL     1      -9.357  14.646  67.426  1.00  0.00    -0.196 A  
HETATM    4  C   UNL     1     -10.258  13.890  68.173  1.00  0.00    -0.249 A  
HETATM    5  C   UNL     1     -10.402  12.496  67.986  1.00  0.00    -0.226 A  
HETATM    6  C   UNL     1      -9.611  11.875  66.995  1.00  0.00    -0.189 A  
HETATM    7  C   UNL     1      -8.708  12.637  66.243  1.00  0.00     0.182 A  
HETATM    8  C   UNL     1      -8.583  14.013  66.459  1.00  0.00     0.156 A  
BRANCH   5   9
HETATM    9  C   UNL     1     -11.386  11.685  68.834  1.00  0.00    -0.267 C  
HETATM   10  O   UNL     1     -12.377  11.057  68.004  1.00  0.00    -0.544 OA 
HETATM   11  H   UNL     1     -12.987  10.554  68.529  1.00  0.00     0.000 HD 
BRANCH   9  12
HETATM   12  C   UNL     1     -10.732  10.553  69.654  1.00  0.00    -0.259 C  
BRANCH  12  13
HETATM   13  N   UNL     1      -9.286  10.558  69.664  1.00  0.00    -0.411 N  
HETATM   14  H   UNL     1      -8.775  11.413  69.885  1.00  0.00     0.000 HD 
HETATM   15  C   UNL     1      -8.603   9.396  69.373  1.00  0.00    -0.148 C  
HETATM   16  O   UNL     1      -9.160   8.360  69.012  1.00  0.00    -0.146 OA 
BRANCH  15  17
HETATM   17  C   UNL     1      -7.087   9.479  69.556  1.00  0.00    -0.068 C  
HETATM   18  N   UNL     1      -6.488  10.439  68.612  1.00  0.00    -0.051 NA 
HETATM   19  H1  UNL     1      -5.476  10.494  68.734  1.00  0.00     0.000 HD 
HETATM   20  H2  UNL     1      -6.926  11.357  68.683  1.00  0.00     0.000 HD 
ENDBRANCH  15  17
ENDBRANCH  12  13
ENDBRANCH   9  12
ENDBRANCH   5   9
BRANCH   6  21
HETATM   21  O   UNL     1      -9.786  10.524  66.842  1.00  0.00    -0.181 OA 
HETATM   22  C   UNL     1      -9.706   9.995  65.522  1.00  0.00    -0.289 C  
ENDBRANCH   6  21
ENDBRANCH   2   3
TORSDOF 6
ENDMDL
MODEL      310
REMARK 921   NORMALIZED FREE ENERGY PREDICTED BY IDOCK:   -2.02 KCAL/MOL
REMARK 922        TOTAL FREE ENERGY PREDICTED BY IDOCK:   -3.23 KCAL/MOL
REMARK 923 INTER-LIGAND FREE ENERGY PREDICTED BY IDOCK:   -3.83 KCAL/MOL
REMARK 924 INTRA-LIGAND FREE ENERGY PREDICTED BY IDOCK:    0.60 KCAL/MOL
REMARK 927      BINDING AFFINITY PREDICTED BY RF-SCORE:    0.00 PKD
ROOT
HETATM    1  C   UNL     1      -7.606   3.594  66.720  1.00  0.00    -0.080 C  
HETATM    2  O   UNL     1      -8.776   4.160  66.136  1.00  0.00    -0.112 OA 
ENDROOT
BRANCH   2   3
HETATM    3  C   UNL     1      -9.237   5.327  66.681  1.00  0.00    -0.130 A  
HETATM    4  C   UNL     1      -8.950   6.609  66.218  1.00  0.00    -0.168 A  
HETATM    5  C   UNL     1      -9.460   7.765  66.852  1.00  0.00    -0.238 A  
HETATM    6  C   UNL     1     -10.296   7.591  67.976  1.00  0.00    -0.204 A  
HETATM    7  C   UNL     1     -10.585   6.301  68.438  1.00  0.00    -0.316 A  
HETATM    8  C   UNL     1     -10.057   5.178  67.794  1.00  0.00    -0.197 A  
BRANCH   5   9
HETATM    9  C   UNL     1      -9.114   9.165  66.335  1.00  0.00    -0.170 C  
HETATM   10  O   UNL     1      -9.856   9.465  65.141  1.00  0.00    -0.447 OA 
HETATM   11  H   UNL     1      -9.643  10.333  64.820  1.00  0.00     0.000 HD 
BRANCH   9  12
HETATM   12  C   UNL     1      -9.422  10.302  67.331  1.00  0.00    -0.153 C  
BRANCH  12  13
HETATM   13  N   UNL     1     -10.263  11.360  66.815  1.00  0.00    -0.216 N  
HETATM   14  H   UNL     1     -11.225  11.165  66.540  1.00  0.00     0.000 HD 
HETATM   15  C   UNL     1      -9.751  12.636  66.699  1.00  0.00    -0.249 C  
HETATM   16  O   UNL     1      -8.576  12.913  66.929  1.00  0.00    -0.195 OA 
BRANCH  15  17
HETATM   17  C   UNL     1     -10.769  13.699  66.284  1.00  0.00    -0.285 C  
HETATM   18  N   UNL     1     -12.132  13.323  66.699  1.00  0.00    -0.385 NA 
HETATM   19  H1  UNL     1     -12.811  14.033  66.422  1.00  0.00     0.000 HD 
HETATM   20  H2  UNL     1     -12.179  13.129  67.700  1.00  0.00     0.000 HD 
ENDBRANCH  15  17
ENDBRANCH  12  13
ENDBRANCH   9  12
ENDBRANCH   5   9
BRANCH   6  21
HETATM   21  O   UNL     1     -10.773   8.738  68.557  1.00  0.00    -0.168 OA 
HETATM   22  C   UNL     1     -11.147   8.673  69.930  1.00  0.00    -0.116 C  
ENDBRANCH   6  21
ENDBRANCH   2   3
TORSDOF 6
ENDMDL
MODEL      311
REMARK 921   NORMALIZED FREE ENERGY PREDICTED BY IDOCK:   -1.32 KCAL/MOL
REMARK 922        TOTAL FREE ENERGY PREDICTED BY IDOCK:   -2.28 KCAL/MOL
REMARK 923 INTER-LIGAND FREE ENERGY PREDICTED BY IDOCK:   -1.69 KCAL/MOL
REMARK 924 INTRA-LIGAND FREE ENERGY PREDICTED BY IDOCK:   -0.59 KCAL/MOL
REMARK 927      BINDING AFFINITY PREDICTED BY RF-SCORE:    0.00 PKD
ROOT
HETATM    1  C   UNL     1      -7.020   2.079  64.200  1.00  0.00    -0.039 C  
HETATM    2  O   UNL     1      -7.615   3.367  64.070  1.00  0.00    -0.072 OA 
ENDROOT
BRANCH   2   3
HETATM    3  C   UNL     1      -7.267   4.306  65.001  1.00  0.00    -0.071 A  
HETATM    4  C   UNL     1      -7.412   4.176  66.380  1.00  0.00    -0.084 A  
HETATM    5  C   UNL     1      -7.037   5.207  67.273  1.00  0.00    -0.069 A  
HETATM    6  C   UNL     1      -6.486   6.387  66.729  1.00  0.00    -0.046 A  
HETATM    7  C   UNL     1      -6.339   6.514  65.342  1.00  0.00    -0.038 A  
HETATM    8  C   UNL     1      -6.728   5.481  64.486  1.00  0.00    -0.043 A  
BRANCH   5   9
HETATM    9  C   UNL     1      -7.224   5.046  68.784  1.00  0.00    -0.058 C  
HETATM   10  O   UNL     1      -6.165   5.701  69.502  1.00  0.00    -0.029 OA 
HETATM   11  H   UNL     1      -6.281   5.602  70.439  1.00  0.00     0.000 HD 
BRANCH   9  12
HETATM   12  C   UNL     1      -8.541   5.638  69.326  1.00  0.00    -0.106 C  
BRANCH  12  13
HETATM   13  N   UNL     1      -8.423   6.944  69.937  1.00  0.00    -0.139 N  
HETATM   14  H   UNL     1      -7.705   7.597  69.623  1.00  0.00     0.000 HD 
HETATM   15  C   UNL     1      -9.290   7.299  70.949  1.00  0.00    -0.159 C  
HETATM   16  O   UNL     1     -10.115   6.525  71.431  1.00  0.00    -0.190 OA 
BRANCH  15  17
HETATM   17  C   UNL     1      -9.169   8.750  71.418  1.00  0.00    -0.255 C  
HETATM   18  N   UNL     1      -8.378   9.552  70.468  1.00  0.00    -0.189 NA 
HETATM   19  H1  UNL     1      -8.297  10.520  70.782  1.00  0.00     0.000 HD 
HETATM   20  H2  UNL     1      -8.755   9.494  69.523  1.00  0.00     0.000 HD 
ENDBRANCH  15  17
ENDBRANCH  12  13
ENDBRANCH   9  12
ENDBRANCH   5   9
BRANCH   6  21
HETATM   21  O   UNL     1      -6.132   7.358  67.630  1.00  0.00    -0.042 OA 
HETATM   22  C   UNL     1      -6.513   8.698  67.337  1.00  0.00    -0.058 C  
ENDBRANCH   6  21
ENDBRANCH   2   3
TORSDOF 6
ENDMDL
MODEL      312
REMARK 921   NORMALIZED FREE ENERGY PREDICTED BY IDOCK:   -1.31 KCAL/MOL
REMARK 922        TOTAL FREE ENERGY PREDICTED BY IDOCK:   -2.26 KCAL/MOL
REMARK 923 INTER-LIGAND FREE ENERGY PREDICTED BY IDOCK:   -1.91 KCAL/MOL
REMARK 924 INTRA-LIGAND FREE ENERGY PREDICTED BY IDOCK:   -0.35 KCAL/MOL
REMARK 927      BINDING AFFINITY PREDICTED BY RF-SCORE:    0.00 PKD
ROOT
HETATM    1  C   UNL     1      -6.085   9.658  73.811  1.00  0.00     0.569 C  
HETATM    2  O   UNL     1      -7.353   9.047  73.586  1.00  0.00    -0.335 OA 
ENDROOT
BRANCH   2   3
HETATM    3  C   UNL     1      -7.346   7.746  73.163  1.00  0.00    -0.104 A  
HETATM    4  C   UNL     1      -8.244   7.180  72.261  1.00  0.00    -0.108 A  
HETATM    5  C   UNL     1      -8.172   5.818  71.888  1.00  0.00    -0.119 A  
HETATM    6  C   UNL     1      -7.142   5.031  72.447  1.00  0.00    -0.084 A  
HETATM    7  C   UNL     1      -6.239   5.603  73.352  1.00  0.00    -0.057 A  
HETATM    8  C   UNL     1      -6.343   6.951  73.707  1.00  0.00    -0.067 A  
BRANCH   5   9
HETATM    9  C   UNL     1      -9.183   5.215  70.908  1.00  0.00    -0.146 C  
HETATM   10  O   UNL     1     -10.489   5.143  71.503  1.00  0.00    -0.218 OA 
HETATM   11  H   UNL     1     -11.116   4.770  70.895  1.00  0.00     0.000 HD 
BRANCH   9  12
HETATM   12  C   UNL     1      -9.349   6.013  69.598  1.00  0.00    -0.144 C  
BRANCH  12  13
HETATM   13  N   UNL     1      -9.194   5.241  68.385  1.00  0.00    -0.110 N  
HETATM   14  H   UNL     1      -9.018   4.238  68.431  1.00  0.00     0.000 HD 
HETATM   15  C   UNL     1      -9.286   5.875  67.163  1.00  0.00    -0.116 C  
HETATM   16  O   UNL     1      -9.406   7.093  67.045  1.00  0.00    -0.139 OA 
BRANCH  15  17
HETATM   17  C   UNL     1      -9.254   4.942  65.952  1.00  0.00    -0.155 C  
HETATM   18  N   UNL     1     -10.571   4.878  65.293  1.00  0.00    -0.481 NA 
HETATM   19  H1  UNL     1     -10.549   4.255  64.485  1.00  0.00     0.000 HD 
HETATM   20  H2  UNL     1     -10.909   5.807  65.042  1.00  0.00     0.000 HD 
ENDBRANCH  15  17
ENDBRANCH  12  13
ENDBRANCH   9  12
ENDBRANCH   5   9
BRANCH   6  21
HETATM   21  O   UNL     1      -7.105   3.718  72.054  1.00  0.00    -0.045 OA 
HETATM   22  C   UNL     1      -7.611   2.745  72.964  1.00  0.00    -0.050 C  
ENDBRANCH   6  21
ENDBRANCH   2   3
TORSDOF 6
ENDMDL
MODEL      313
REMARK 921   NORMALIZED FREE ENERGY PREDICTED BY IDOCK:    1.78 KCAL/MOL
REMARK 922        TOTAL FREE ENERGY PREDICTED BY IDOCK:    1.91 KCAL/MOL
REMARK 923 INTER-LIGAND FREE ENERGY PREDICTED BY IDOCK:    2.28 KCAL/MOL
REMARK 924 INTRA-LIGAND FREE ENERGY PREDICTED BY IDOCK:   -0.38 KCAL/MOL
REMARK 927      BINDING AFFINITY PREDICTED BY RF-SCORE:    0.00 PKD
ROOT
HETATM    1  C   UNL     1      -6.492  10.420  73.667  1.00  0.00     2.559 C  
HETATM    2  O   UNL     1      -7.497   9.563  73.132  1.00  0.00     0.682 OA 
ENDROOT
BRANCH   2   3
HETATM    3  C   UNL     1      -7.130   8.274  72.860  1.00  0.00    -0.099 A  
HETATM    4  C   UNL     1      -7.454   7.562  71.707  1.00  0.00    -0.080 A  
HETATM    5  C   UNL     1      -7.043   6.224  71.513  1.00  0.00    -0.078 A  
HETATM    6  C   UNL     1      -6.268   5.615  72.524  1.00  0.00    -0.047 A  
HETATM    7  C   UNL     1      -5.941   6.333  73.681  1.00  0.00    -0.062 A  
HETATM    8  C   UNL     1      -6.371   7.653  73.847  1.00  0.00    -0.079 A  
BRANCH   5   9
HETATM    9  C   UNL     1      -7.429   5.457  70.245  1.00  0.00    -0.072 C  
HETATM   10  O   UNL     1      -8.855   5.309  70.152  1.00  0.00    -0.120 OA 
HETATM   11  H   UNL     1      -9.094   4.834  69.365  1.00  0.00     0.000 HD 
BRANCH   9  12
HETATM   12  C   UNL     1      -6.979   6.135  68.934  1.00  0.00    -0.072 C  
BRANCH  12  13
HETATM   13  N   UNL     1      -6.763   5.238  67.820  1.00  0.00    -0.054 N  
HETATM   14  H   UNL     1      -6.931   4.237  67.925  1.00  0.00     0.000 HD 
HETATM   15  C   UNL     1      -6.329   5.748  66.615  1.00  0.00    -0.042 C  
HETATM   16  O   UNL     1      -6.025   6.928  66.454  1.00  0.00    -0.031 OA 
BRANCH  15  17
HETATM   17  C   UNL     1      -6.276   4.733  65.471  1.00  0.00    -0.034 C  
HETATM   18  N   UNL     1      -7.424   3.810  65.525  1.00  0.00    -0.076 NA 
HETATM   19  H1  UNL     1      -7.388   3.133  64.762  1.00  0.00     0.000 HD 
HETATM   20  H2  UNL     1      -8.310   4.314  65.539  1.00  0.00     0.000 HD 
ENDBRANCH  15  17
ENDBRANCH  12  13
ENDBRANCH   9  12
ENDBRANCH   5   9
BRANCH   6  21
HETATM   21  O   UNL     1      -5.886   4.319  72.293  1.00  0.00    -0.011 OA 
HETATM   22  C   UNL     1      -5.750   3.462  73.423  1.00  0.00     0.000 C  
ENDBRANCH   6  21
ENDBRANCH   2   3
TORSDOF 6
ENDMDL
MODEL      314
REMARK 921   NORMALIZED FREE ENERGY PREDICTED BY IDOCK:    2.13 KCAL/MOL
REMARK 922        TOTAL FREE ENERGY PREDICTED BY IDOCK:    2.38 KCAL/MOL
REMARK 923 INTER-LIGAND FREE ENERGY PREDICTED BY IDOCK:   -1.14 KCAL/MOL
REMARK 924 INTRA-LIGAND FREE ENERGY PREDICTED BY IDOCK:    3.52 KCAL/MOL
REMARK 927      BINDING AFFINITY PREDICTED BY RF-SCORE:    0.00 PKD
ROOT
HETATM    1  C   UNL     1      -9.002  18.359  68.255  1.00  0.00    -0.312 C  
HETATM    2  O   UNL     1      -8.587  17.637  67.098  1.00  0.00    -0.219 OA 
ENDROOT
BRANCH   2   3
HETATM    3  C   UNL     1      -8.458  16.282  67.227  1.00  0.00    -0.177 A  
HETATM    4  C   UNL     1      -7.935  15.617  68.334  1.00  0.00    -0.136 A  
HETATM    5  C   UNL     1      -7.825  14.208  68.378  1.00  0.00    -0.143 A  
HETATM    6  C   UNL     1      -8.281  13.472  67.263  1.00  0.00    -0.154 A  
HETATM    7  C   UNL     1      -8.809  14.143  66.153  1.00  0.00     0.302 A  
HETATM    8  C   UNL     1      -8.895  15.538  66.136  1.00  0.00    -0.273 A  
BRANCH   5   9
HETATM    9  C   UNL     1      -7.228  13.503  69.599  1.00  0.00     0.379 C  
HETATM   10  O   UNL     1      -7.770  12.179  69.738  1.00  0.00     0.160 OA 
HETATM   11  H   UNL     1      -7.400  11.741  70.495  1.00  0.00     0.000 HD 
BRANCH   9  12
HETATM   12  C   UNL     1      -5.695  13.338  69.550  1.00  0.00    -0.094 C  
BRANCH  12  13
HETATM   13  N   UNL     1      -5.229  11.985  69.340  1.00  0.00    -0.063 N  
HETATM   14  H   UNL     1      -4.459  11.800  68.697  1.00  0.00     0.000 HD 
HETATM   15  C   UNL     1      -5.835  10.948  70.017  1.00  0.00    -0.089 C  
HETATM   16  O   UNL     1      -6.822  11.098  70.734  1.00  0.00     0.087 OA 
BRANCH  15  17
HETATM   17  C   UNL     1      -5.167   9.584  69.832  1.00  0.00    -0.033 C  
HETATM   18  N   UNL     1      -5.671   8.904  68.625  1.00  0.00    -0.041 NA 
HETATM   19  H1  UNL     1      -5.225   7.994  68.502  1.00  0.00     0.000 HD 
HETATM   20  H2  UNL     1      -5.569   9.488  67.796  1.00  0.00     0.000 HD 
ENDBRANCH  15  17
ENDBRANCH  12  13
ENDBRANCH   9  12
ENDBRANCH   5   9
BRANCH   6  21
HETATM   21  O   UNL     1      -8.161  12.110  67.350  1.00  0.00    -0.157 OA 
HETATM   22  C   UNL     1      -9.258  11.323  66.895  1.00  0.00    -0.175 C  
ENDBRANCH   6  21
ENDBRANCH   2   3
TORSDOF 6
ENDMDL
MODEL      315
REMARK 921   NORMALIZED FREE ENERGY PREDICTED BY IDOCK:    3.84 KCAL/MOL
REMARK 922        TOTAL FREE ENERGY PREDICTED BY IDOCK:    4.69 KCAL/MOL
REMARK 923 INTER-LIGAND FREE ENERGY PREDICTED BY IDOCK:    4.85 KCAL/MOL
REMARK 924 INTRA-LIGAND FREE ENERGY PREDICTED BY IDOCK:   -0.16 KCAL/MOL
REMARK 927      BINDING AFFINITY PREDICTED BY RF-SCORE:    0.00 PKD
ROOT
HETATM    1  C   UNL     1      -5.983  11.445  74.260  1.00  0.00     1.878 C  
HETATM    2  O   UNL     1      -6.967  10.623  73.636  1.00  0.00     3.362 OA 
ENDROOT
BRANCH   2   3
HETATM    3  C   UNL     1      -6.579   9.364  73.270  1.00  0.00     0.733 A  
HETATM    4  C   UNL     1      -6.849   8.753  72.048  1.00  0.00    -0.051 A  
HETATM    5  C   UNL     1      -6.420   7.437  71.758  1.00  0.00    -0.043 A  
HETATM    6  C   UNL     1      -5.682   6.747  72.744  1.00  0.00    -0.038 A  
HETATM    7  C   UNL     1      -5.409   7.365  73.970  1.00  0.00    -0.046 A  
HETATM    8  C   UNL     1      -5.856   8.664  74.231  1.00  0.00    -0.132 A  
BRANCH   5   9
HETATM    9  C   UNL     1      -6.747   6.781  70.413  1.00  0.00    -0.057 C  
HETATM   10  O   UNL     1      -8.166   6.617  70.257  1.00  0.00    -0.122 OA 
HETATM   11  H   UNL     1      -8.369   6.210  69.423  1.00  0.00     0.000 HD 
BRANCH   9  12
HETATM   12  C   UNL     1      -6.268   7.581  69.184  1.00  0.00    -0.035 C  
BRANCH  12  13
HETATM   13  N   UNL     1      -6.988   8.811  68.933  1.00  0.00    -0.061 N  
HETATM   14  H   UNL     1      -7.736   9.107  69.560  1.00  0.00     0.000 HD 
HETATM   15  C   UNL     1      -6.652   9.580  67.838  1.00  0.00    -0.062 C  
HETATM   16  O   UNL     1      -5.823   9.231  67.000  1.00  0.00    -0.044 OA 
BRANCH  15  17
HETATM   17  C   UNL     1      -7.375  10.925  67.754  1.00  0.00    -0.093 C  
HETATM   18  N   UNL     1      -7.560  11.515  69.092  1.00  0.00    -0.317 NA 
HETATM   19  H1  UNL     1      -8.042  12.413  69.035  1.00  0.00     0.000 HD 
HETATM   20  H2  UNL     1      -6.674  11.595  69.592  1.00  0.00     0.000 HD 
ENDBRANCH  15  17
ENDBRANCH  12  13
ENDBRANCH   9  12
ENDBRANCH   5   9
BRANCH   6  21
HETATM   21  O   UNL     1      -5.281   5.478  72.418  1.00  0.00    -0.016 OA 
HETATM   22  C   UNL     1      -5.991   4.392  73.008  1.00  0.00    -0.012 C  
ENDBRANCH   6  21
ENDBRANCH   2   3
TORSDOF 6
ENDMDL
MODEL      316
REMARK 921   NORMALIZED FREE ENERGY PREDICTED BY IDOCK:    4.29 KCAL/MOL
REMARK 922        TOTAL FREE ENERGY PREDICTED BY IDOCK:    5.30 KCAL/MOL
REMARK 923 INTER-LIGAND FREE ENERGY PREDICTED BY IDOCK:    5.85 KCAL/MOL
REMARK 924 INTRA-LIGAND FREE ENERGY PREDICTED BY IDOCK:   -0.55 KCAL/MOL
REMARK 927      BINDING AFFINITY PREDICTED BY RF-SCORE:    0.00 PKD
ROOT
HETATM    1  C   UNL     1      -6.099  11.550  74.217  1.00  0.00     2.302 C  
HETATM    2  O   UNL     1      -7.142  10.813  73.585  1.00  0.00     4.319 OA 
ENDROOT
BRANCH   2   3
HETATM    3  C   UNL     1      -6.851   9.532  73.205  1.00  0.00     1.203 A  
HETATM    4  C   UNL     1      -7.735   8.456  73.228  1.00  0.00    -0.129 A  
HETATM    5  C   UNL     1      -7.344   7.157  72.827  1.00  0.00    -0.076 A  
HETATM    6  C   UNL     1      -6.019   6.972  72.379  1.00  0.00    -0.041 A  
HETATM    7  C   UNL     1      -5.132   8.056  72.354  1.00  0.00    -0.035 A  
HETATM    8  C   UNL     1      -5.546   9.326  72.766  1.00  0.00    -0.017 A  
BRANCH   5   9
HETATM    9  C   UNL     1      -8.331   5.987  72.880  1.00  0.00    -0.117 C  
HETATM   10  O   UNL     1      -8.274   5.329  74.156  1.00  0.00    -0.109 OA 
HETATM   11  H   UNL     1      -8.886   4.604  74.189  1.00  0.00     0.000 HD 
BRANCH   9  12
HETATM   12  C   UNL     1      -9.805   6.391  72.668  1.00  0.00    -0.166 C  
BRANCH  12  13
HETATM   13  N   UNL     1     -10.423   5.857  71.475  1.00  0.00    -0.225 N  
HETATM   14  H   UNL     1     -10.757   4.894  71.454  1.00  0.00     0.000 HD 
HETATM   15  C   UNL     1     -10.557   6.664  70.363  1.00  0.00    -0.223 C  
HETATM   16  O   UNL     1     -10.094   7.801  70.298  1.00  0.00    -0.192 OA 
BRANCH  15  17
HETATM   17  C   UNL     1     -11.354   6.045  69.214  1.00  0.00    -0.174 C  
HETATM   18  N   UNL     1     -10.967   6.635  67.920  1.00  0.00    -0.443 NA 
HETATM   19  H1  UNL     1     -11.499   6.222  67.153  1.00  0.00     0.000 HD 
HETATM   20  H2  UNL     1      -9.962   6.564  67.761  1.00  0.00     0.000 HD 
ENDBRANCH  15  17
ENDBRANCH  12  13
ENDBRANCH   9  12
ENDBRANCH   5   9
BRANCH   6  21
HETATM   21  O   UNL     1      -5.684   5.699  71.996  1.00  0.00    -0.020 OA 
HETATM   22  C   UNL     1      -5.134   5.528  70.693  1.00  0.00    -0.005 C  
ENDBRANCH   6  21
ENDBRANCH   2   3
TORSDOF 6
ENDMDL
