MODEL        1
REMARK 921   NORMALIZED FREE ENERGY PREDICTED BY IDOCK:   -6.87 KCAL/MOL
REMARK 922        TOTAL FREE ENERGY PREDICTED BY IDOCK:   -8.71 KCAL/MOL
REMARK 923 INTER-LIGAND FREE ENERGY PREDICTED BY IDOCK:   -8.08 KCAL/MOL
REMARK 924 INTRA-LIGAND FREE ENERGY PREDICTED BY IDOCK:   -0.63 KCAL/MOL
REMARK 927      BINDING AFFINITY PREDICTED BY RF-SCORE:    0.00 PKD
ROOT
HETATM    1  C   UNL     1      -8.443   9.176  64.792  1.00  0.00    -0.194 C  
HETATM    2  C   UNL     1      -7.434   9.880  64.086  1.00  0.00    -0.139 C  
HETATM    3  C   UNL     1      -7.515  10.058  65.565  1.00  0.00    -0.137 C  
HETATM    4  C   UNL     1      -8.684   8.696  66.603  1.00  0.00    -0.123 C  
HETATM    5  O   UNL     1      -8.550   8.310  67.989  1.00  0.00    -0.130 OA 
HETATM    6  C   UNL     1      -9.801  10.363  65.138  1.00  0.00    -0.378 C  
HETATM    7  C   UNL     1      -7.346   8.797  66.360  1.00  0.00    -0.084 C  
HETATM    8  C   UNL     1      -7.326  10.156  67.699  1.00  0.00    -0.089 C  
HETATM    9  C   UNL     1      -6.219   7.793  66.313  1.00  0.00    -0.045 C  
HETATM   10  C   UNL     1     -10.325  10.926  63.800  1.00  0.00    -0.384 C  
HETATM   11  H   UNL     1      -9.086   7.686  68.464  1.00  0.00     0.000 HD 
HETATM   12  C   UNL     1     -10.593  12.428  63.678  1.00  0.00    -0.481 C  
HETATM   13  C   UNL     1      -8.850  11.054  67.717  1.00  0.00    -0.133 C  
HETATM   14  C   UNL     1      -9.560  11.511  66.297  1.00  0.00    -0.239 C  
HETATM   15  C   UNL     1     -10.326  13.353  64.828  1.00  0.00    -0.397 C  
HETATM   16  C   UNL     1     -10.573  14.659  64.616  1.00  0.00    -0.268 C  
HETATM   17  C   UNL     1      -9.806  12.844  66.082  1.00  0.00    -0.270 C  
HETATM   18  O   UNL     1     -10.616  16.883  65.320  1.00  0.00    -0.633 OA 
HETATM   19  C   UNL     1      -9.473  13.880  67.154  1.00  0.00    -0.246 C  
HETATM   20  C   UNL     1      -9.802  15.356  66.955  1.00  0.00    -0.251 C  
HETATM   21  C   UNL     1     -10.350  15.718  65.612  1.00  0.00    -0.388 C  
ENDROOT
BRANCH   4  22
HETATM   22  C   UNL     1      -9.208   7.227  66.109  1.00  0.00    -0.136 C  
HETATM   23  C   UNL     1      -9.568   5.975  66.138  1.00  0.00    -0.091 C  
HETATM   24  C   UNL     1      -9.985   4.513  66.171  1.00  0.00    -0.267 C  
ENDBRANCH   4  22
BRANCH  13  25
HETATM   25  C   UNL     1      -9.921  10.493  68.668  1.00  0.00    -0.188 A  
HETATM   26  C   UNL     1     -10.583   9.839  70.915  1.00  0.00    -0.344 A  
HETATM   27  C   UNL     1     -12.245  10.518  69.358  1.00  0.00    -0.094 A  
HETATM   28  C   UNL     1     -11.270  10.666  68.361  1.00  0.00    -0.347 A  
HETATM   29  C   UNL     1      -9.610   9.955  69.924  1.00  0.00    -0.265 A  
HETATM   30  C   UNL     1     -11.915  10.189  70.682  1.00  0.00    -0.332 A  
BRANCH  30  31
HETATM   31  N   UNL     1     -12.828  10.237  71.717  1.00  0.00    -0.443 NA 
HETATM   32  C   UNL     1     -13.268   9.047  72.426  1.00  0.00    -0.447 C  
HETATM   33  C   UNL     1     -13.473  11.490  72.099  1.00  0.00    -0.114 C  
ENDBRANCH  30  31
ENDBRANCH  13  25
TORSDOF 3
ENDMDL
MODEL        2
REMARK 921   NORMALIZED FREE ENERGY PREDICTED BY IDOCK:   -6.76 KCAL/MOL
REMARK 922        TOTAL FREE ENERGY PREDICTED BY IDOCK:   -8.57 KCAL/MOL
REMARK 923 INTER-LIGAND FREE ENERGY PREDICTED BY IDOCK:   -7.64 KCAL/MOL
REMARK 924 INTRA-LIGAND FREE ENERGY PREDICTED BY IDOCK:   -0.93 KCAL/MOL
REMARK 927      BINDING AFFINITY PREDICTED BY RF-SCORE:    0.00 PKD
ROOT
HETATM    1  C   UNL     1     -11.145  12.763  68.031  1.00  0.00    -0.284 C  
HETATM    2  C   UNL     1     -11.057  13.553  69.205  1.00  0.00    -0.230 C  
HETATM    3  C   UNL     1      -9.816  12.896  68.704  1.00  0.00    -0.074 C  
HETATM    4  C   UNL     1      -9.880  12.136  66.775  1.00  0.00    -0.206 C  
HETATM    5  O   UNL     1      -8.764  11.931  65.882  1.00  0.00    -0.396 OA 
HETATM    6  C   UNL     1     -11.193  11.003  68.555  1.00  0.00    -0.329 C  
HETATM    7  C   UNL     1      -9.410  13.297  67.316  1.00  0.00    -0.226 C  
HETATM    8  C   UNL     1      -7.919  12.272  67.921  1.00  0.00    -0.152 C  
HETATM    9  C   UNL     1      -9.175  14.682  66.762  1.00  0.00    -0.285 C  
HETATM   10  C   UNL     1     -12.410  10.790  69.479  1.00  0.00    -0.208 C  
HETATM   11  H   UNL     1      -8.794  11.583  64.998  1.00  0.00     0.000 HD 
HETATM   12  C   UNL     1     -12.238   9.972  70.760  1.00  0.00    -0.408 C  
HETATM   13  C   UNL     1      -8.399  10.610  68.292  1.00  0.00    -0.122 C  
HETATM   14  C   UNL     1      -9.802  10.315  69.112  1.00  0.00    -0.228 C  
HETATM   15  C   UNL     1     -10.902   9.402  71.136  1.00  0.00    -0.427 C  
HETATM   16  C   UNL     1     -10.847   8.715  72.292  1.00  0.00    -0.392 C  
HETATM   17  C   UNL     1      -9.742   9.618  70.293  1.00  0.00    -0.314 C  
HETATM   18  O   UNL     1      -9.684   7.490  73.901  1.00  0.00    -0.281 OA 
HETATM   19  C   UNL     1      -8.410   9.084  70.815  1.00  0.00    -0.228 C  
HETATM   20  C   UNL     1      -8.338   8.252  72.091  1.00  0.00    -0.232 C  
HETATM   21  C   UNL     1      -9.625   8.106  72.838  1.00  0.00    -0.275 C  
ENDROOT
BRANCH   4  22
HETATM   22  C   UNL     1     -10.939  12.493  65.580  1.00  0.00    -0.323 C  
HETATM   23  C   UNL     1     -11.724  12.355  64.549  1.00  0.00    -0.427 C  
HETATM   24  C   UNL     1     -12.639  12.194  63.345  1.00  0.00    -0.584 C  
ENDBRANCH   4  22
BRANCH  13  25
HETATM   25  C   UNL     1      -8.273   9.622  67.120  1.00  0.00    -0.120 A  
HETATM   26  C   UNL     1      -6.868   8.238  65.697  1.00  0.00    -0.066 A  
HETATM   27  C   UNL     1      -9.147   7.647  66.020  1.00  0.00    -0.152 A  
HETATM   28  C   UNL     1      -9.347   8.792  66.804  1.00  0.00    -0.229 A  
HETATM   29  C   UNL     1      -7.064   9.395  66.450  1.00  0.00    -0.088 A  
HETATM   30  C   UNL     1      -7.883   7.294  65.523  1.00  0.00    -0.115 A  
BRANCH  30  31
HETATM   31  N   UNL     1      -7.624   6.076  64.926  1.00  0.00    -0.086 NA 
HETATM   32  C   UNL     1      -8.208   4.833  65.400  1.00  0.00    -0.118 C  
HETATM   33  C   UNL     1      -6.667   5.960  63.829  1.00  0.00    -0.037 C  
ENDBRANCH  30  31
ENDBRANCH  13  25
TORSDOF 3
ENDMDL
MODEL        3
REMARK 921   NORMALIZED FREE ENERGY PREDICTED BY IDOCK:   -6.53 KCAL/MOL
REMARK 922        TOTAL FREE ENERGY PREDICTED BY IDOCK:   -8.30 KCAL/MOL
REMARK 923 INTER-LIGAND FREE ENERGY PREDICTED BY IDOCK:   -7.59 KCAL/MOL
REMARK 924 INTRA-LIGAND FREE ENERGY PREDICTED BY IDOCK:   -0.71 KCAL/MOL
REMARK 927      BINDING AFFINITY PREDICTED BY RF-SCORE:    0.00 PKD
ROOT
HETATM    1  C   UNL     1      -7.221  17.444  67.297  1.00  0.00    -0.192 C  
HETATM    2  C   UNL     1      -6.810  17.220  65.958  1.00  0.00    -0.135 C  
HETATM    3  C   UNL     1      -8.259  17.079  66.284  1.00  0.00    -0.322 C  
HETATM    4  C   UNL     1      -8.879  17.839  68.111  1.00  0.00    -0.267 C  
HETATM    5  O   UNL     1     -10.204  18.296  68.460  1.00  0.00    -0.381 OA 
HETATM    6  C   UNL     1      -7.459  15.801  68.081  1.00  0.00    -0.129 C  
HETATM    7  C   UNL     1      -8.902  18.318  66.834  1.00  0.00    -0.279 C  
HETATM    8  C   UNL     1     -10.386  17.152  66.551  1.00  0.00    -0.306 C  
HETATM    9  C   UNL     1      -8.935  19.707  66.244  1.00  0.00    -0.420 C  
HETATM   10  C   UNL     1      -6.131  15.017  68.013  1.00  0.00    -0.161 C  
HETATM   11  H   UNL     1     -10.488  18.645  69.297  1.00  0.00     0.000 HD 
HETATM   12  C   UNL     1      -6.156  13.544  67.601  1.00  0.00    -0.120 C  
HETATM   13  C   UNL     1     -10.237  15.685  67.529  1.00  0.00    -0.263 C  
HETATM   14  C   UNL     1      -8.781  14.913  67.651  1.00  0.00    -0.181 C  
HETATM   15  C   UNL     1      -7.445  12.868  67.237  1.00  0.00    -0.092 C  
HETATM   16  C   UNL     1      -7.361  11.577  66.867  1.00  0.00    -0.140 C  
HETATM   17  C   UNL     1      -8.697  13.598  67.268  1.00  0.00    -0.223 C  
HETATM   18  O   UNL     1      -8.325   9.580  66.142  1.00  0.00    -0.113 OA 
HETATM   19  C   UNL     1      -9.936  12.848  66.783  1.00  0.00    -0.243 C  
HETATM   20  C   UNL     1      -9.872  11.369  66.418  1.00  0.00    -0.242 C  
HETATM   21  C   UNL     1      -8.509  10.755  66.454  1.00  0.00    -0.158 C  
ENDROOT
BRANCH   4  22
HETATM   22  C   UNL     1      -8.111  18.919  69.072  1.00  0.00    -0.205 C  
HETATM   23  C   UNL     1      -7.157  19.558  69.687  1.00  0.00    -0.192 C  
HETATM   24  C   UNL     1      -6.044  20.304  70.406  1.00  0.00    -0.359 C  
ENDBRANCH   4  22
BRANCH  13  25
HETATM   25  C   UNL     1     -10.893  15.762  68.918  1.00  0.00    -0.260 A  
HETATM   26  C   UNL     1     -12.882  15.555  70.302  1.00  0.00    -0.239 A  
HETATM   27  C   UNL     1     -10.740  15.218  71.275  1.00  0.00     0.077 A  
HETATM   28  C   UNL     1     -10.122  15.529  70.055  1.00  0.00    -0.241 A  
HETATM   29  C   UNL     1     -12.277  15.895  69.093  1.00  0.00    -0.013 A  
HETATM   30  C   UNL     1     -12.135  15.135  71.405  1.00  0.00    -0.338 A  
BRANCH  30  31
HETATM   31  N   UNL     1     -12.755  14.635  72.533  1.00  0.00    -0.357 NA 
HETATM   32  C   UNL     1     -12.556  15.209  73.853  1.00  0.00    -0.549 C  
HETATM   33  C   UNL     1     -13.585  13.435  72.471  1.00  0.00    -0.554 C  
ENDBRANCH  30  31
ENDBRANCH  13  25
TORSDOF 3
ENDMDL
MODEL        4
REMARK 921   NORMALIZED FREE ENERGY PREDICTED BY IDOCK:   -6.52 KCAL/MOL
REMARK 922        TOTAL FREE ENERGY PREDICTED BY IDOCK:   -8.30 KCAL/MOL
REMARK 923 INTER-LIGAND FREE ENERGY PREDICTED BY IDOCK:   -7.40 KCAL/MOL
REMARK 924 INTRA-LIGAND FREE ENERGY PREDICTED BY IDOCK:   -0.90 KCAL/MOL
REMARK 927      BINDING AFFINITY PREDICTED BY RF-SCORE:    0.00 PKD
ROOT
HETATM    1  C   UNL     1      -9.072  11.717  66.241  1.00  0.00    -0.219 C  
HETATM    2  C   UNL     1      -9.681  11.554  64.970  1.00  0.00    -0.268 C  
HETATM    3  C   UNL     1     -10.451  11.142  66.180  1.00  0.00    -0.307 C  
HETATM    4  C   UNL     1      -9.730  11.799  68.010  1.00  0.00    -0.185 C  
HETATM    5  O   UNL     1     -10.487  11.999  69.224  1.00  0.00    -0.427 OA 
HETATM    6  C   UNL     1      -8.448  10.071  66.767  1.00  0.00    -0.125 C  
HETATM    7  C   UNL     1     -10.706  12.243  67.167  1.00  0.00    -0.265 C  
HETATM    8  C   UNL     1     -11.771  10.808  67.837  1.00  0.00    -0.059 C  
HETATM    9  C   UNL     1     -11.348  13.590  66.936  1.00  0.00    -0.350 C  
HETATM   10  C   UNL     1      -7.444   9.557  65.713  1.00  0.00    -0.100 C  
HETATM   11  H   UNL     1     -10.156  12.300  70.062  1.00  0.00     0.000 HD 
HETATM   12  C   UNL     1      -7.528   8.100  65.254  1.00  0.00    -0.080 C  
HETATM   13  C   UNL     1     -10.766   9.414  68.259  1.00  0.00    -0.220 C  
HETATM   14  C   UNL     1      -9.543   8.939  67.255  1.00  0.00    -0.212 C  
HETATM   15  C   UNL     1      -8.586   7.183  65.793  1.00  0.00    -0.143 C  
HETATM   16  C   UNL     1      -8.591   5.926  65.312  1.00  0.00    -0.119 C  
HETATM   17  C   UNL     1      -9.554   7.658  66.762  1.00  0.00    -0.269 C  
HETATM   18  O   UNL     1      -9.474   3.769  65.208  1.00  0.00    -0.152 OA 
HETATM   19  C   UNL     1     -10.649   6.676  67.171  1.00  0.00    -0.401 C  
HETATM   20  C   UNL     1     -10.637   5.231  66.684  1.00  0.00    -0.334 C  
HETATM   21  C   UNL     1      -9.562   4.892  65.701  1.00  0.00    -0.155 C  
ENDROOT
BRANCH   4  22
HETATM   22  C   UNL     1      -8.684  13.022  68.306  1.00  0.00    -0.173 C  
HETATM   23  C   UNL     1      -8.226  14.203  68.615  1.00  0.00    -0.116 C  
HETATM   24  C   UNL     1      -7.691  15.580  68.973  1.00  0.00    -0.192 C  
ENDBRANCH   4  22
BRANCH  13  25
HETATM   25  C   UNL     1     -10.273   9.387  69.715  1.00  0.00    -0.238 A  
HETATM   26  C   UNL     1     -10.714   8.921  72.061  1.00  0.00    -0.389 A  
HETATM   27  C   UNL     1      -8.484   8.820  71.249  1.00  0.00    -0.238 A  
HETATM   28  C   UNL     1      -8.914   9.225  69.977  1.00  0.00    -0.216 A  
HETATM   29  C   UNL     1     -11.149   9.352  70.809  1.00  0.00    -0.365 A  
HETATM   30  C   UNL     1      -9.383   8.570  72.296  1.00  0.00    -0.293 A  
BRANCH  30  31
HETATM   31  N   UNL     1      -9.004   7.980  73.486  1.00  0.00    -0.267 NA 
HETATM   32  C   UNL     1      -7.740   8.277  74.138  1.00  0.00    -0.209 C  
HETATM   33  C   UNL     1      -9.825   6.947  74.112  1.00  0.00    -0.311 C  
ENDBRANCH  30  31
ENDBRANCH  13  25
TORSDOF 3
ENDMDL
MODEL        5
REMARK 921   NORMALIZED FREE ENERGY PREDICTED BY IDOCK:   -6.50 KCAL/MOL
REMARK 922        TOTAL FREE ENERGY PREDICTED BY IDOCK:   -8.28 KCAL/MOL
REMARK 923 INTER-LIGAND FREE ENERGY PREDICTED BY IDOCK:   -7.66 KCAL/MOL
REMARK 924 INTRA-LIGAND FREE ENERGY PREDICTED BY IDOCK:   -0.61 KCAL/MOL
REMARK 927      BINDING AFFINITY PREDICTED BY RF-SCORE:    0.00 PKD
ROOT
HETATM    1  C   UNL     1      -8.602   9.239  64.545  1.00  0.00    -0.217 C  
HETATM    2  C   UNL     1      -7.755   9.933  63.642  1.00  0.00    -0.141 C  
HETATM    3  C   UNL     1      -7.534  10.124  65.105  1.00  0.00    -0.141 C  
HETATM    4  C   UNL     1      -8.472   8.776  66.371  1.00  0.00    -0.121 C  
HETATM    5  O   UNL     1      -8.060   8.401  67.704  1.00  0.00    -0.115 OA 
HETATM    6  C   UNL     1      -9.859  10.435  65.148  1.00  0.00    -0.378 C  
HETATM    7  C   UNL     1      -7.210   8.869  65.861  1.00  0.00    -0.089 C  
HETATM    8  C   UNL     1      -6.916  10.239  67.156  1.00  0.00    -0.088 C  
HETATM    9  C   UNL     1      -6.119   7.860  65.595  1.00  0.00    -0.038 C  
HETATM   10  C   UNL     1     -10.642  10.988  63.939  1.00  0.00    -0.382 C  
HETATM   11  H   UNL     1      -8.490   7.783  68.284  1.00  0.00     0.000 HD 
HETATM   12  C   UNL     1     -10.926  12.490  63.860  1.00  0.00    -0.471 C  
HETATM   13  C   UNL     1      -8.403  11.143  67.474  1.00  0.00    -0.122 C  
HETATM   14  C   UNL     1      -9.386  11.591  66.224  1.00  0.00    -0.227 C  
HETATM   15  C   UNL     1     -10.429  13.424  64.924  1.00  0.00    -0.404 C  
HETATM   16  C   UNL     1     -10.711  14.729  64.754  1.00  0.00    -0.380 C  
HETATM   17  C   UNL     1      -9.667  12.924  66.051  1.00  0.00    -0.228 C  
HETATM   18  O   UNL     1     -10.606  16.959  65.432  1.00  0.00    -0.579 OA 
HETATM   19  C   UNL     1      -9.121  13.967  67.023  1.00  0.00    -0.259 C  
HETATM   20  C   UNL     1      -9.480  15.442  66.882  1.00  0.00    -0.246 C  
HETATM   21  C   UNL     1     -10.289  15.796  65.675  1.00  0.00    -0.388 C  
ENDROOT
BRANCH   4  22
HETATM   22  C   UNL     1      -9.088   7.304  66.007  1.00  0.00    -0.117 C  
HETATM   23  C   UNL     1      -9.655   6.139  66.144  1.00  0.00    -0.071 C  
HETATM   24  C   UNL     1     -10.315   4.779  66.305  1.00  0.00    -0.329 C  
ENDBRANCH   4  22
BRANCH  13  25
HETATM   25  C   UNL     1      -9.261  10.595  68.628  1.00  0.00    -0.181 A  
HETATM   26  C   UNL     1     -11.290   9.483  69.377  1.00  0.00     0.018 A  
HETATM   27  C   UNL     1      -9.322   9.341  70.701  1.00  0.00    -0.329 A  
HETATM   28  C   UNL     1      -8.642  10.177  69.804  1.00  0.00    -0.148 A  
HETATM   29  C   UNL     1     -10.632  10.339  68.495  1.00  0.00    -0.240 A  
HETATM   30  C   UNL     1     -10.632   8.900  70.462  1.00  0.00    -0.220 A  
BRANCH  30  31
HETATM   31  N   UNL     1     -11.245   7.922  71.220  1.00  0.00    -0.251 NA 
HETATM   32  C   UNL     1     -11.726   6.676  70.648  1.00  0.00    -0.394 C  
HETATM   33  C   UNL     1     -11.525   8.129  72.638  1.00  0.00    -0.387 C  
ENDBRANCH  30  31
ENDBRANCH  13  25
TORSDOF 3
ENDMDL
MODEL        6
REMARK 921   NORMALIZED FREE ENERGY PREDICTED BY IDOCK:   -6.43 KCAL/MOL
REMARK 922        TOTAL FREE ENERGY PREDICTED BY IDOCK:   -8.20 KCAL/MOL
REMARK 923 INTER-LIGAND FREE ENERGY PREDICTED BY IDOCK:   -7.26 KCAL/MOL
REMARK 924 INTRA-LIGAND FREE ENERGY PREDICTED BY IDOCK:   -0.93 KCAL/MOL
REMARK 927      BINDING AFFINITY PREDICTED BY RF-SCORE:    0.00 PKD
ROOT
HETATM    1  C   UNL     1     -10.354   6.860  70.002  1.00  0.00    -0.219 C  
HETATM    2  C   UNL     1      -9.347   5.886  70.223  1.00  0.00    -0.181 C  
HETATM    3  C   UNL     1      -8.927   7.305  70.034  1.00  0.00    -0.142 C  
HETATM    4  C   UNL     1     -10.417   8.741  70.163  1.00  0.00    -0.213 C  
HETATM    5  O   UNL     1     -10.259  10.130  70.526  1.00  0.00    -0.402 OA 
HETATM    6  C   UNL     1     -10.388   7.218  68.201  1.00  0.00    -0.234 C  
HETATM    7  C   UNL     1      -9.488   8.265  71.041  1.00  0.00    -0.197 C  
HETATM    8  C   UNL     1      -8.220   9.329  70.091  1.00  0.00    -0.176 C  
HETATM    9  C   UNL     1      -9.416   8.204  72.548  1.00  0.00    -0.339 C  
HETATM   10  C   UNL     1     -10.680   5.909  67.437  1.00  0.00    -0.370 C  
HETATM   11  H   UNL     1     -10.943  10.788  70.585  1.00  0.00     0.000 HD 
HETATM   12  C   UNL     1      -9.861   5.577  66.188  1.00  0.00    -0.137 C  
HETATM   13  C   UNL     1      -8.645   9.446  68.378  1.00  0.00    -0.124 C  
HETATM   14  C   UNL     1      -9.157   8.106  67.557  1.00  0.00    -0.147 C  
HETATM   15  C   UNL     1      -8.767   6.491  65.719  1.00  0.00    -0.129 C  
HETATM   16  C   UNL     1      -8.090   6.101  64.624  1.00  0.00    -0.126 C  
HETATM   17  C   UNL     1      -8.461   7.709  66.443  1.00  0.00    -0.137 C  
HETATM   18  O   UNL     1      -6.424   6.411  63.020  1.00  0.00    -0.032 OA 
HETATM   19  C   UNL     1      -7.265   8.517  65.943  1.00  0.00    -0.076 C  
HETATM   20  C   UNL     1      -6.524   8.125  64.670  1.00  0.00    -0.064 C  
HETATM   21  C   UNL     1      -6.971   6.850  64.030  1.00  0.00    -0.056 C  
ENDROOT
BRANCH   4  22
HETATM   22  C   UNL     1     -11.904   8.600  70.831  1.00  0.00    -0.257 C  
HETATM   23  C   UNL     1     -12.920   8.791  71.625  1.00  0.00    -0.390 C  
HETATM   24  C   UNL     1     -14.104   9.011  72.553  1.00  0.00    -0.428 C  
ENDBRANCH   4  22
BRANCH  13  25
HETATM   25  C   UNL     1      -9.538  10.643  68.011  1.00  0.00    -0.167 A  
HETATM   26  C   UNL     1      -9.769  13.030  67.609  1.00  0.00    -0.212 A  
HETATM   27  C   UNL     1     -11.278  11.519  66.569  1.00  0.00    -0.324 A  
HETATM   28  C   UNL     1     -10.672  10.439  67.227  1.00  0.00    -0.331 A  
HETATM   29  C   UNL     1      -9.178  11.968  68.291  1.00  0.00    -0.192 A  
HETATM   30  C   UNL     1     -10.785  12.828  66.673  1.00  0.00    -0.261 A  
BRANCH  30  31
HETATM   31  N   UNL     1     -11.236  13.866  65.881  1.00  0.00    -0.295 NA 
HETATM   32  C   UNL     1     -10.355  14.906  65.378  1.00  0.00    -0.388 C  
HETATM   33  C   UNL     1     -12.656  14.022  65.577  1.00  0.00    -0.516 C  
ENDBRANCH  30  31
ENDBRANCH  13  25
TORSDOF 3
ENDMDL
MODEL        7
REMARK 921   NORMALIZED FREE ENERGY PREDICTED BY IDOCK:   -6.28 KCAL/MOL
REMARK 922        TOTAL FREE ENERGY PREDICTED BY IDOCK:   -8.01 KCAL/MOL
REMARK 923 INTER-LIGAND FREE ENERGY PREDICTED BY IDOCK:   -7.19 KCAL/MOL
REMARK 924 INTRA-LIGAND FREE ENERGY PREDICTED BY IDOCK:   -0.82 KCAL/MOL
REMARK 927      BINDING AFFINITY PREDICTED BY RF-SCORE:    0.00 PKD
ROOT
HETATM    1  C   UNL     1      -9.178  12.761  66.725  1.00  0.00    -0.225 C  
HETATM    2  C   UNL     1      -9.401  11.588  65.958  1.00  0.00    -0.239 C  
HETATM    3  C   UNL     1     -10.580  12.262  66.575  1.00  0.00    -0.263 C  
HETATM    4  C   UNL     1     -10.282  14.183  67.296  1.00  0.00    -0.256 C  
HETATM    5  O   UNL     1     -11.278  15.218  67.456  1.00  0.00    -0.320 OA 
HETATM    6  C   UNL     1      -9.234  12.277  68.497  1.00  0.00    -0.089 C  
HETATM    7  C   UNL     1     -10.794  13.681  66.136  1.00  0.00    -0.279 C  
HETATM    8  C   UNL     1     -12.372  13.297  67.139  1.00  0.00    -0.163 C  
HETATM    9  C   UNL     1     -10.927  14.227  64.735  1.00  0.00    -0.408 C  
HETATM   10  C   UNL     1      -8.151  11.209  68.757  1.00  0.00    -0.140 C  
HETATM   11  H   UNL     1     -11.141  16.098  67.786  1.00  0.00     0.000 HD 
HETATM   12  C   UNL     1      -8.505   9.981  69.598  1.00  0.00    -0.193 C  
HETATM   13  C   UNL     1     -11.978  12.907  68.819  1.00  0.00    -0.290 C  
HETATM   14  C   UNL     1     -10.699  11.921  69.164  1.00  0.00    -0.143 C  
HETATM   15  C   UNL     1      -9.890   9.794  70.144  1.00  0.00    -0.306 C  
HETATM   16  C   UNL     1     -10.108   8.671  70.854  1.00  0.00    -0.262 C  
HETATM   17  C   UNL     1     -10.926  10.774  69.884  1.00  0.00    -0.304 C  
HETATM   18  O   UNL     1     -11.494   7.256  72.085  1.00  0.00    -0.257 OA 
HETATM   19  C   UNL     1     -12.325  10.441  70.397  1.00  0.00    -0.370 C  
HETATM   20  C   UNL     1     -12.578   9.205  71.254  1.00  0.00    -0.351 C  
HETATM   21  C   UNL     1     -11.402   8.302  71.446  1.00  0.00    -0.262 C  
ENDROOT
BRANCH   4  22
HETATM   22  C   UNL     1      -9.070  15.223  66.938  1.00  0.00    -0.263 C  
HETATM   23  C   UNL     1      -8.443  16.322  66.628  1.00  0.00    -0.306 C  
HETATM   24  C   UNL     1      -7.711  17.604  66.264  1.00  0.00    -0.324 C  
ENDBRANCH   4  22
BRANCH  13  25
HETATM   25  C   UNL     1     -11.971  14.109  69.779  1.00  0.00    -0.396 A  
HETATM   26  C   UNL     1     -13.156  15.524  71.362  1.00  0.00    -0.580 A  
HETATM   27  C   UNL     1     -10.795  15.318  71.519  1.00  0.00     0.019 A  
HETATM   28  C   UNL     1     -10.777  14.500  70.380  1.00  0.00     0.258 A  
HETATM   29  C   UNL     1     -13.147  14.737  70.212  1.00  0.00    -0.077 A  
HETATM   30  C   UNL     1     -11.992  15.774  72.091  1.00  0.00    -0.485 A  
BRANCH  30  31
HETATM   31  N   UNL     1     -12.045  16.405  73.319  1.00  0.00    -0.504 NA 
HETATM   32  C   UNL     1     -11.620  17.781  73.509  1.00  0.00     1.174 C  
HETATM   33  C   UNL     1     -12.452  15.684  74.522  1.00  0.00    -0.588 C  
ENDBRANCH  30  31
ENDBRANCH  13  25
TORSDOF 3
ENDMDL
MODEL        8
REMARK 921   NORMALIZED FREE ENERGY PREDICTED BY IDOCK:   -6.22 KCAL/MOL
REMARK 922        TOTAL FREE ENERGY PREDICTED BY IDOCK:   -7.94 KCAL/MOL
REMARK 923 INTER-LIGAND FREE ENERGY PREDICTED BY IDOCK:   -7.45 KCAL/MOL
REMARK 924 INTRA-LIGAND FREE ENERGY PREDICTED BY IDOCK:   -0.49 KCAL/MOL
REMARK 927      BINDING AFFINITY PREDICTED BY RF-SCORE:    0.00 PKD
ROOT
HETATM    1  C   UNL     1      -6.746   9.604  66.595  1.00  0.00    -0.079 C  
HETATM    2  C   UNL     1      -6.116  10.660  65.887  1.00  0.00    -0.138 C  
HETATM    3  C   UNL     1      -6.959  11.006  67.068  1.00  0.00    -0.117 C  
HETATM    4  C   UNL     1      -7.487   9.444  68.325  1.00  0.00    -0.078 C  
HETATM    5  O   UNL     1      -7.823   9.529  69.727  1.00  0.00    -0.097 OA 
HETATM    6  C   UNL     1      -8.503   9.555  66.060  1.00  0.00    -0.132 C  
HETATM    7  C   UNL     1      -6.509  10.394  68.362  1.00  0.00    -0.055 C  
HETATM    8  C   UNL     1      -7.876  11.608  68.911  1.00  0.00    -0.040 C  
HETATM    9  C   UNL     1      -5.153  10.467  69.021  1.00  0.00    -0.038 C  
HETATM   10  C   UNL     1      -8.555   9.332  64.534  1.00  0.00    -0.217 C  
HETATM   11  H   UNL     1      -8.065   8.812  70.303  1.00  0.00     0.000 HD 
HETATM   12  C   UNL     1      -9.519  10.170  63.692  1.00  0.00    -0.320 C  
HETATM   13  C   UNL     1      -9.433  11.180  68.188  1.00  0.00    -0.180 C  
HETATM   14  C   UNL     1      -9.516  10.740  66.598  1.00  0.00    -0.201 C  
HETATM   15  C   UNL     1     -10.387  11.216  64.327  1.00  0.00    -0.413 C  
HETATM   16  C   UNL     1     -11.186  11.915  63.500  1.00  0.00    -0.501 C  
HETATM   17  C   UNL     1     -10.329  11.458  65.756  1.00  0.00    -0.304 C  
HETATM   18  O   UNL     1     -12.784  13.566  63.096  1.00  0.00    -0.718 OA 
HETATM   19  C   UNL     1     -11.176  12.611  66.288  1.00  0.00    -0.354 C  
HETATM   20  C   UNL     1     -12.132  13.374  65.378  1.00  0.00    -0.457 C  
HETATM   21  C   UNL     1     -12.087  12.994  63.932  1.00  0.00    -0.471 C  
ENDROOT
BRANCH   4  22
HETATM   22  C   UNL     1      -6.797   7.964  68.446  1.00  0.00    -0.071 C  
HETATM   23  C   UNL     1      -6.550   6.752  68.854  1.00  0.00    -0.051 C  
HETATM   24  C   UNL     1      -6.259   5.337  69.330  1.00  0.00    -0.029 C  
ENDBRANCH   4  22
BRANCH  13  25
HETATM   25  C   UNL     1     -10.300  10.227  69.029  1.00  0.00    -0.229 A  
HETATM   26  C   UNL     1     -10.843   7.960  69.720  1.00  0.00    -0.202 A  
HETATM   27  C   UNL     1     -11.333   9.775  71.174  1.00  0.00    -0.459 A  
HETATM   28  C   UNL     1     -10.873  10.687  70.213  1.00  0.00    -0.157 A  
HETATM   29  C   UNL     1     -10.410   8.859  68.747  1.00  0.00    -0.232 A  
HETATM   30  C   UNL     1     -11.245   8.387  70.988  1.00  0.00    -0.266 A  
BRANCH  30  31
HETATM   31  N   UNL     1     -11.501   7.477  71.995  1.00  0.00    -0.268 NA 
HETATM   32  C   UNL     1     -10.668   7.367  73.180  1.00  0.00    -0.387 C  
HETATM   33  C   UNL     1     -12.585   6.505  71.877  1.00  0.00    -0.187 C  
ENDBRANCH  30  31
ENDBRANCH  13  25
TORSDOF 3
ENDMDL
MODEL        9
REMARK 921   NORMALIZED FREE ENERGY PREDICTED BY IDOCK:   -6.17 KCAL/MOL
REMARK 922        TOTAL FREE ENERGY PREDICTED BY IDOCK:   -7.89 KCAL/MOL
REMARK 923 INTER-LIGAND FREE ENERGY PREDICTED BY IDOCK:   -6.94 KCAL/MOL
REMARK 924 INTRA-LIGAND FREE ENERGY PREDICTED BY IDOCK:   -0.95 KCAL/MOL
REMARK 927      BINDING AFFINITY PREDICTED BY RF-SCORE:    0.00 PKD
ROOT
HETATM    1  C   UNL     1     -11.529  12.099  68.547  1.00  0.00    -0.349 C  
HETATM    2  C   UNL     1     -11.366  12.915  69.696  1.00  0.00    -0.166 C  
HETATM    3  C   UNL     1     -10.175  12.182  69.177  1.00  0.00     0.151 C  
HETATM    4  C   UNL     1     -10.336  11.375  67.273  1.00  0.00    -0.198 C  
HETATM    5  O   UNL     1      -9.259  11.090  66.354  1.00  0.00    -0.166 OA 
HETATM    6  C   UNL     1     -11.650  10.359  69.120  1.00  0.00    -0.234 C  
HETATM    7  C   UNL     1      -9.792  12.524  67.767  1.00  0.00    -0.204 C  
HETATM    8  C   UNL     1      -8.336  11.440  68.358  1.00  0.00    -0.153 C  
HETATM    9  C   UNL     1      -9.504  13.880  67.169  1.00  0.00    -0.246 C  
HETATM   10  C   UNL     1     -12.849  10.233  70.085  1.00  0.00    -0.033 C  
HETATM   11  H   UNL     1      -9.333  10.720  65.482  1.00  0.00     0.000 HD 
HETATM   12  C   UNL     1     -12.680   9.441  71.383  1.00  0.00    -0.425 C  
HETATM   13  C   UNL     1      -8.889   9.815  68.789  1.00  0.00    -0.129 C  
HETATM   14  C   UNL     1     -10.280   9.614  69.657  1.00  0.00    -0.239 C  
HETATM   15  C   UNL     1     -11.363   8.814  71.736  1.00  0.00    -0.409 C  
HETATM   16  C   UNL     1     -11.309   8.155  72.909  1.00  0.00    -0.301 C  
HETATM   17  C   UNL     1     -10.220   8.947  70.855  1.00  0.00    -0.304 C  
HETATM   18  O   UNL     1     -10.161   6.915  74.517  1.00  0.00    -0.259 OA 
HETATM   19  C   UNL     1      -8.901   8.359  71.353  1.00  0.00    -0.230 C  
HETATM   20  C   UNL     1      -8.833   7.559  72.649  1.00  0.00    -0.180 C  
HETATM   21  C   UNL     1     -10.103   7.498  73.436  1.00  0.00    -0.338 C  
ENDROOT
BRANCH   4  22
HETATM   22  C   UNL     1     -11.411  11.755  66.100  1.00  0.00    -0.288 C  
HETATM   23  C   UNL     1     -11.898  12.102  64.942  1.00  0.00    -0.366 C  
HETATM   24  C   UNL     1     -12.466  12.507  63.591  1.00  0.00    -0.570 C  
ENDBRANCH   4  22
BRANCH  13  25
HETATM   25  C   UNL     1      -8.849   8.791  67.642  1.00  0.00    -0.138 A  
HETATM   26  C   UNL     1      -7.554   7.338  66.184  1.00  0.00    -0.088 A  
HETATM   27  C   UNL     1      -9.822   6.805  66.651  1.00  0.00    -0.214 A  
HETATM   28  C   UNL     1      -9.955   7.976  67.410  1.00  0.00    -0.270 A  
HETATM   29  C   UNL     1      -7.684   8.520  66.912  1.00  0.00    -0.091 A  
HETATM   30  C   UNL     1      -8.595   6.411  66.095  1.00  0.00    -0.144 A  
BRANCH  30  31
HETATM   31  N   UNL     1      -8.393   5.171  65.521  1.00  0.00    -0.121 NA 
HETATM   32  C   UNL     1      -7.212   4.855  64.737  1.00  0.00    -0.063 C  
HETATM   33  C   UNL     1      -9.412   4.128  65.600  1.00  0.00    -0.177 C  
ENDBRANCH  30  31
ENDBRANCH  13  25
TORSDOF 3
ENDMDL
MODEL       10
REMARK 921   NORMALIZED FREE ENERGY PREDICTED BY IDOCK:   -6.03 KCAL/MOL
REMARK 922        TOTAL FREE ENERGY PREDICTED BY IDOCK:   -7.72 KCAL/MOL
REMARK 923 INTER-LIGAND FREE ENERGY PREDICTED BY IDOCK:   -7.19 KCAL/MOL
REMARK 924 INTRA-LIGAND FREE ENERGY PREDICTED BY IDOCK:   -0.53 KCAL/MOL
REMARK 927      BINDING AFFINITY PREDICTED BY RF-SCORE:    0.00 PKD
ROOT
HETATM    1  C   UNL     1      -9.606   9.755  65.258  1.00  0.00    -0.368 C  
HETATM    2  C   UNL     1      -8.968  10.564  64.282  1.00  0.00    -0.237 C  
HETATM    3  C   UNL     1      -8.356  10.483  65.640  1.00  0.00    -0.167 C  
HETATM    4  C   UNL     1      -9.042   8.970  66.881  1.00  0.00    -0.132 C  
HETATM    5  O   UNL     1      -8.329   8.347  67.972  1.00  0.00    -0.125 OA 
HETATM    6  C   UNL     1     -10.552  10.874  66.366  1.00  0.00    -0.289 C  
HETATM    7  C   UNL     1      -7.955   9.101  66.067  1.00  0.00    -0.103 C  
HETATM    8  C   UNL     1      -7.214  10.207  67.435  1.00  0.00    -0.088 C  
HETATM    9  C   UNL     1      -7.063   8.113  65.355  1.00  0.00    -0.063 C  
HETATM   10  C   UNL     1     -11.574  11.665  65.522  1.00  0.00    -0.085 C  
HETATM   11  H   UNL     1      -8.644   7.654  68.541  1.00  0.00     0.000 HD 
HETATM   12  C   UNL     1     -11.737  13.166  65.766  1.00  0.00    -0.415 C  
HETATM   13  C   UNL     1      -8.482  11.098  68.288  1.00  0.00    -0.145 C  
HETATM   14  C   UNL     1      -9.715  11.800  67.442  1.00  0.00    -0.186 C  
HETATM   15  C   UNL     1     -10.900  13.876  66.789  1.00  0.00    -0.286 C  
HETATM   16  C   UNL     1     -11.102  15.201  66.914  1.00  0.00    -0.314 C  
HETATM   17  C   UNL     1      -9.915  13.153  67.569  1.00  0.00    -0.223 C  
HETATM   18  O   UNL     1     -10.630  17.268  67.887  1.00  0.00    -0.365 OA 
HETATM   19  C   UNL     1      -9.046  13.984  68.510  1.00  0.00    -0.163 C  
HETATM   20  C   UNL     1      -9.299  15.474  68.710  1.00  0.00    -0.209 C  
HETATM   21  C   UNL     1     -10.363  16.069  67.843  1.00  0.00    -0.269 C  
ENDROOT
BRANCH   4  22
HETATM   22  C   UNL     1      -9.858   7.612  66.468  1.00  0.00    -0.242 C  
HETATM   23  C   UNL     1     -10.169   6.353  66.345  1.00  0.00    -0.059 C  
HETATM   24  C   UNL     1     -10.532   4.884  66.200  1.00  0.00    -0.346 C  
ENDBRANCH   4  22
BRANCH  13  25
HETATM   25  C   UNL     1      -9.051  10.389  69.528  1.00  0.00    -0.129 A  
HETATM   26  C   UNL     1     -10.922   9.304  70.640  1.00  0.00    -0.336 A  
HETATM   27  C   UNL     1      -8.702   8.737  71.268  1.00  0.00    -0.273 A  
HETATM   28  C   UNL     1      -8.191   9.687  70.372  1.00  0.00    -0.194 A  
HETATM   29  C   UNL     1     -10.426  10.272  69.768  1.00  0.00    -0.300 A  
HETATM   30  C   UNL     1     -10.074   8.458  71.357  1.00  0.00    -0.215 A  
BRANCH  30  31
HETATM   31  N   UNL     1     -10.578   7.393  72.077  1.00  0.00    -0.205 NA 
HETATM   32  C   UNL     1     -11.379   6.345  71.467  1.00  0.00    -0.294 C  
HETATM   33  C   UNL     1     -10.406   7.310  73.525  1.00  0.00    -0.366 C  
ENDBRANCH  30  31
ENDBRANCH  13  25
TORSDOF 3
ENDMDL
MODEL       11
REMARK 921   NORMALIZED FREE ENERGY PREDICTED BY IDOCK:   -5.91 KCAL/MOL
REMARK 922        TOTAL FREE ENERGY PREDICTED BY IDOCK:   -7.59 KCAL/MOL
REMARK 923 INTER-LIGAND FREE ENERGY PREDICTED BY IDOCK:   -6.66 KCAL/MOL
REMARK 924 INTRA-LIGAND FREE ENERGY PREDICTED BY IDOCK:   -0.93 KCAL/MOL
REMARK 927      BINDING AFFINITY PREDICTED BY RF-SCORE:    0.00 PKD
ROOT
HETATM    1  C   UNL     1     -10.220  10.525  69.767  1.00  0.00    -0.168 C  
HETATM    2  C   UNL     1     -11.579  10.793  70.070  1.00  0.00    -0.417 C  
HETATM    3  C   UNL     1     -11.275   9.939  68.885  1.00  0.00    -0.126 C  
HETATM    4  C   UNL     1      -9.340   9.208  68.737  1.00  0.00    -0.139 C  
HETATM    5  O   UNL     1      -8.910   8.015  68.045  1.00  0.00    -0.128 OA 
HETATM    6  C   UNL     1      -9.734  11.636  68.388  1.00  0.00    -0.199 C  
HETATM    7  C   UNL     1     -10.514   8.684  69.194  1.00  0.00    -0.223 C  
HETATM    8  C   UNL     1     -10.990   8.458  67.360  1.00  0.00     0.103 C  
HETATM    9  C   UNL     1     -10.851   7.592  70.181  1.00  0.00    -0.255 C  
HETATM   10  C   UNL     1      -9.945  13.100  68.828  1.00  0.00    -0.038 C  
HETATM   11  H   UNL     1      -8.023   7.681  67.977  1.00  0.00     0.000 HD 
HETATM   12  C   UNL     1     -10.609  14.081  67.859  1.00  0.00    -0.246 C  
HETATM   13  C   UNL     1     -10.284   9.736  66.359  1.00  0.00    -0.288 C  
HETATM   14  C   UNL     1     -10.306  11.304  66.878  1.00  0.00    -0.272 C  
HETATM   15  C   UNL     1     -11.079  13.629  66.508  1.00  0.00    -0.310 C  
HETATM   16  C   UNL     1     -11.670  14.560  65.737  1.00  0.00    -0.344 C  
HETATM   17  C   UNL     1     -10.914  12.250  66.091  1.00  0.00    -0.328 C  
HETATM   18  O   UNL     1     -12.729  15.227  63.768  1.00  0.00    -0.687 OA 
HETATM   19  C   UNL     1     -11.516  11.870  64.740  1.00  0.00    -0.323 C  
HETATM   20  C   UNL     1     -12.136  12.922  63.826  1.00  0.00    -0.583 C  
HETATM   21  C   UNL     1     -12.215  14.303  64.395  1.00  0.00    -0.447 C  
ENDROOT
BRANCH   4  22
HETATM   22  C   UNL     1      -8.209   9.091  69.914  1.00  0.00    -0.124 C  
HETATM   23  C   UNL     1      -7.230   8.628  70.638  1.00  0.00    -0.058 C  
HETATM   24  C   UNL     1      -6.089   8.086  71.484  1.00  0.00    -0.035 C  
ENDBRANCH   4  22
BRANCH  13  25
HETATM   25  C   UNL     1      -8.900   9.410  65.773  1.00  0.00    -0.204 A  
HETATM   26  C   UNL     1      -7.542   8.142  64.204  1.00  0.00    -0.128 A  
HETATM   27  C   UNL     1      -6.782  10.262  64.959  1.00  0.00    -0.108 A  
HETATM   28  C   UNL     1      -7.898  10.378  65.800  1.00  0.00    -0.150 A  
HETATM   29  C   UNL     1      -8.640   8.233  65.057  1.00  0.00    -0.102 A  
HETATM   30  C   UNL     1      -6.623   9.185  64.073  1.00  0.00    -0.089 A  
BRANCH  30  31
HETATM   31  N   UNL     1      -5.645   9.152  63.099  1.00  0.00    -0.076 NA 
HETATM   32  C   UNL     1      -5.127  10.355  62.470  1.00  0.00    -0.112 C  
HETATM   33  C   UNL     1      -5.138   7.885  62.580  1.00  0.00    -0.054 C  
ENDBRANCH  30  31
ENDBRANCH  13  25
TORSDOF 3
ENDMDL
MODEL       12
REMARK 921   NORMALIZED FREE ENERGY PREDICTED BY IDOCK:   -5.89 KCAL/MOL
REMARK 922        TOTAL FREE ENERGY PREDICTED BY IDOCK:   -7.56 KCAL/MOL
REMARK 923 INTER-LIGAND FREE ENERGY PREDICTED BY IDOCK:   -6.73 KCAL/MOL
REMARK 924 INTRA-LIGAND FREE ENERGY PREDICTED BY IDOCK:   -0.83 KCAL/MOL
REMARK 927      BINDING AFFINITY PREDICTED BY RF-SCORE:    0.00 PKD
ROOT
HETATM    1  C   UNL     1      -9.725   9.723  67.143  1.00  0.00    -0.223 C  
HETATM    2  C   UNL     1     -11.023   9.196  66.916  1.00  0.00     0.169 C  
HETATM    3  C   UNL     1     -10.769  10.623  66.563  1.00  0.00    -0.218 C  
HETATM    4  C   UNL     1      -8.786  11.225  66.485  1.00  0.00    -0.179 C  
HETATM    5  O   UNL     1      -8.237  12.317  65.715  1.00  0.00     0.029 OA 
HETATM    6  C   UNL     1      -9.794  10.703  68.695  1.00  0.00    -0.183 C  
HETATM    7  C   UNL     1      -9.692  10.836  65.541  1.00  0.00    -0.290 C  
HETATM    8  C   UNL     1     -10.456  12.575  65.730  1.00  0.00    -0.296 C  
HETATM    9  C   UNL     1      -9.564  10.234  64.163  1.00  0.00    -0.376 C  
HETATM   10  C   UNL     1     -10.247   9.782  69.848  1.00  0.00    -0.291 C  
HETATM   11  H   UNL     1      -7.328  12.592  65.680  1.00  0.00     0.000 HD 
HETATM   12  C   UNL     1     -11.298  10.289  70.836  1.00  0.00    -0.376 C  
HETATM   13  C   UNL     1     -10.278  13.170  67.387  1.00  0.00    -0.232 C  
HETATM   14  C   UNL     1     -10.560  12.162  68.665  1.00  0.00    -0.248 C  
HETATM   15  C   UNL     1     -11.908  11.651  70.681  1.00  0.00    -0.238 C  
HETATM   16  C   UNL     1     -12.840  11.998  71.588  1.00  0.00    -0.399 C  
HETATM   17  C   UNL     1     -11.515  12.517  69.586  1.00  0.00    -0.255 C  
HETATM   18  O   UNL     1     -14.392  13.501  72.467  1.00  0.00    -0.713 OA 
HETATM   19  C   UNL     1     -12.267  13.840  69.458  1.00  0.00    -0.344 C  
HETATM   20  C   UNL     1     -13.282  14.276  70.509  1.00  0.00    -0.061 C  
HETATM   21  C   UNL     1     -13.565  13.278  71.586  1.00  0.00    -0.185 C  
ENDROOT
BRANCH   4  22
HETATM   22  C   UNL     1      -7.449  10.290  66.358  1.00  0.00    -0.114 C  
HETATM   23  C   UNL     1      -6.495   9.571  65.838  1.00  0.00    -0.077 C  
HETATM   24  C   UNL     1      -5.382   8.731  65.231  1.00  0.00    -0.038 C  
ENDBRANCH   4  22
BRANCH  13  25
HETATM   25  C   UNL     1      -9.000  13.985  67.650  1.00  0.00    -0.194 A  
HETATM   26  C   UNL     1      -7.725  16.030  67.330  1.00  0.00    -0.215 A  
HETATM   27  C   UNL     1      -7.340  14.704  69.263  1.00  0.00    -0.149 A  
HETATM   28  C   UNL     1      -8.263  13.751  68.809  1.00  0.00    -0.002 A  
HETATM   29  C   UNL     1      -8.623  15.076  66.856  1.00  0.00    -0.280 A  
HETATM   30  C   UNL     1      -7.115  15.909  68.580  1.00  0.00    -0.133 A  
BRANCH  30  31
HETATM   31  N   UNL     1      -6.369  16.943  69.109  1.00  0.00    -0.191 NA 
HETATM   32  C   UNL     1      -6.502  18.317  68.653  1.00  0.00    -0.225 C  
HETATM   33  C   UNL     1      -5.331  16.694  70.105  1.00  0.00    -0.199 C  
ENDBRANCH  30  31
ENDBRANCH  13  25
TORSDOF 3
ENDMDL
MODEL       13
REMARK 921   NORMALIZED FREE ENERGY PREDICTED BY IDOCK:   -5.82 KCAL/MOL
REMARK 922        TOTAL FREE ENERGY PREDICTED BY IDOCK:   -7.48 KCAL/MOL
REMARK 923 INTER-LIGAND FREE ENERGY PREDICTED BY IDOCK:   -7.78 KCAL/MOL
REMARK 924 INTRA-LIGAND FREE ENERGY PREDICTED BY IDOCK:    0.30 KCAL/MOL
REMARK 927      BINDING AFFINITY PREDICTED BY RF-SCORE:    0.00 PKD
ROOT
HETATM    1  C   UNL     1      -8.377  11.571  66.189  1.00  0.00    -0.018 C  
HETATM    2  C   UNL     1      -7.603  10.453  65.786  1.00  0.00    -0.147 C  
HETATM    3  C   UNL     1      -8.919  10.200  66.441  1.00  0.00    -0.163 C  
HETATM    4  C   UNL     1     -10.203  11.820  66.604  1.00  0.00    -0.210 C  
HETATM    5  O   UNL     1     -11.644  11.784  66.701  1.00  0.00    -0.490 OA 
HETATM    6  C   UNL     1      -8.148  11.775  68.000  1.00  0.00    -0.145 C  
HETATM    7  C   UNL     1     -10.100  10.784  65.723  1.00  0.00    -0.320 C  
HETATM    8  C   UNL     1     -10.907   9.709  67.078  1.00  0.00    -0.148 C  
HETATM    9  C   UNL     1     -10.520  10.594  64.285  1.00  0.00    -0.221 C  
HETATM   10  C   UNL     1      -6.648  11.983  68.293  1.00  0.00    -0.055 C  
HETATM   11  H   UNL     1     -12.232  12.526  66.775  1.00  0.00     0.000 HD 
HETATM   12  C   UNL     1      -6.005  11.228  69.459  1.00  0.00    -0.076 C  
HETATM   13  C   UNL     1     -10.447  10.269  68.692  1.00  0.00    -0.215 C  
HETATM   14  C   UNL     1      -8.883  10.696  69.007  1.00  0.00    -0.154 C  
HETATM   15  C   UNL     1      -6.808  10.274  70.294  1.00  0.00    -0.145 C  
HETATM   16  C   UNL     1      -6.148   9.642  71.282  1.00  0.00    -0.035 C  
HETATM   17  C   UNL     1      -8.211  10.046  70.013  1.00  0.00    -0.139 C  
HETATM   18  O   UNL     1      -6.068   8.141  73.066  1.00  0.00    -0.061 OA 
HETATM   19  C   UNL     1      -8.912   8.982  70.855  1.00  0.00    -0.300 C  
HETATM   20  C   UNL     1      -8.199   8.299  72.017  1.00  0.00    -0.211 C  
HETATM   21  C   UNL     1      -6.757   8.656  72.188  1.00  0.00    -0.060 C  
ENDROOT
BRANCH   4  22
HETATM   22  C   UNL     1     -10.164  13.231  65.775  1.00  0.00    -0.296 C  
HETATM   23  C   UNL     1     -10.526  14.388  65.299  1.00  0.00    -0.410 C  
HETATM   24  C   UNL     1     -10.948  15.738  64.741  1.00  0.00    -0.410 C  
ENDBRANCH   4  22
BRANCH  13  25
HETATM   25  C   UNL     1     -11.397  11.308  69.312  1.00  0.00    -0.354 A  
HETATM   26  C   UNL     1     -12.882  11.960  71.124  1.00  0.00    -0.346 A  
HETATM   27  C   UNL     1     -11.801  13.639  69.837  1.00  0.00    -0.389 A  
HETATM   28  C   UNL     1     -11.223  12.659  69.018  1.00  0.00    -0.322 A  
HETATM   29  C   UNL     1     -12.336  10.979  70.298  1.00  0.00    -0.410 A  
HETATM   30  C   UNL     1     -12.570  13.312  70.964  1.00  0.00    -0.324 A  
BRANCH  30  31
HETATM   31  N   UNL     1     -12.976  14.249  71.894  1.00  0.00    -0.333 NA 
HETATM   32  C   UNL     1     -14.369  14.619  72.073  1.00  0.00    -0.558 C  
HETATM   33  C   UNL     1     -12.004  14.990  72.694  1.00  0.00    -0.318 C  
ENDBRANCH  30  31
ENDBRANCH  13  25
TORSDOF 3
ENDMDL
MODEL       14
REMARK 921   NORMALIZED FREE ENERGY PREDICTED BY IDOCK:   -5.53 KCAL/MOL
REMARK 922        TOTAL FREE ENERGY PREDICTED BY IDOCK:   -7.13 KCAL/MOL
REMARK 923 INTER-LIGAND FREE ENERGY PREDICTED BY IDOCK:   -6.19 KCAL/MOL
REMARK 924 INTRA-LIGAND FREE ENERGY PREDICTED BY IDOCK:   -0.94 KCAL/MOL
REMARK 927      BINDING AFFINITY PREDICTED BY RF-SCORE:    0.00 PKD
ROOT
HETATM    1  C   UNL     1      -7.829   9.181  63.616  1.00  0.00    -0.136 C  
HETATM    2  C   UNL     1      -7.119  10.146  62.855  1.00  0.00    -0.130 C  
HETATM    3  C   UNL     1      -6.860  10.075  64.322  1.00  0.00    -0.126 C  
HETATM    4  C   UNL     1      -7.559   8.392  65.311  1.00  0.00    -0.090 C  
HETATM    5  O   UNL     1      -7.043   7.823  66.534  1.00  0.00    -0.075 OA 
HETATM    6  C   UNL     1      -9.201  10.056  64.468  1.00  0.00    -0.313 C  
HETATM    7  C   UNL     1      -6.344   8.752  64.806  1.00  0.00    -0.066 C  
HETATM    8  C   UNL     1      -6.170   9.870  66.342  1.00  0.00    -0.070 C  
HETATM    9  C   UNL     1      -5.145   7.971  64.324  1.00  0.00    -0.036 C  
HETATM   10  C   UNL     1     -10.102  10.724  63.409  1.00  0.00    -0.345 C  
HETATM   11  H   UNL     1      -7.364   7.052  66.987  1.00  0.00     0.000 HD 
HETATM   12  C   UNL     1     -10.579  12.160  63.636  1.00  0.00    -0.504 C  
HETATM   13  C   UNL     1      -7.746  10.486  66.862  1.00  0.00    -0.114 C  
HETATM   14  C   UNL     1      -8.832  11.033  65.744  1.00  0.00    -0.200 C  
HETATM   15  C   UNL     1     -10.159  12.927  64.856  1.00  0.00    -0.229 C  
HETATM   16  C   UNL     1     -10.614  14.190  64.955  1.00  0.00    -0.449 C  
HETATM   17  C   UNL     1      -9.290  12.323  65.846  1.00  0.00    -0.098 C  
HETATM   18  O   UNL     1     -10.766  16.237  66.062  1.00  0.00    -0.295 OA 
HETATM   19  C   UNL     1      -8.840  13.220  66.997  1.00  0.00    -0.216 C  
HETATM   20  C   UNL     1      -9.390  14.633  67.159  1.00  0.00    -0.231 C  
HETATM   21  C   UNL     1     -10.291  15.103  66.062  1.00  0.00    -0.311 C  
ENDROOT
BRANCH   4  22
HETATM   22  C   UNL     1      -7.997   6.951  64.671  1.00  0.00    -0.112 C  
HETATM   23  C   UNL     1      -8.059   5.667  64.458  1.00  0.00    -0.131 C  
HETATM   24  C   UNL     1      -8.129   4.169  64.208  1.00  0.00    -0.091 C  
ENDBRANCH   4  22
BRANCH  13  25
HETATM   25  C   UNL     1      -8.473   9.613  67.899  1.00  0.00    -0.122 A  
HETATM   26  C   UNL     1      -8.764   8.923  70.212  1.00  0.00    -0.183 A  
HETATM   27  C   UNL     1     -10.587   8.739  68.700  1.00  0.00    -0.174 A  
HETATM   28  C   UNL     1      -9.779   9.195  67.649  1.00  0.00    -0.198 A  
HETATM   29  C   UNL     1      -7.944   9.349  69.169  1.00  0.00    -0.091 A  
HETATM   30  C   UNL     1     -10.126   8.679  70.024  1.00  0.00    -0.189 A  
BRANCH  30  31
HETATM   31  N   UNL     1     -10.957   8.429  71.098  1.00  0.00    -0.236 NA 
HETATM   32  C   UNL     1     -11.123   7.103  71.667  1.00  0.00    -0.235 C  
HETATM   33  C   UNL     1     -11.791   9.484  71.669  1.00  0.00    -0.397 C  
ENDBRANCH  30  31
ENDBRANCH  13  25
TORSDOF 3
ENDMDL
MODEL       15
REMARK 921   NORMALIZED FREE ENERGY PREDICTED BY IDOCK:   -5.52 KCAL/MOL
REMARK 922        TOTAL FREE ENERGY PREDICTED BY IDOCK:   -7.12 KCAL/MOL
REMARK 923 INTER-LIGAND FREE ENERGY PREDICTED BY IDOCK:   -6.43 KCAL/MOL
REMARK 924 INTRA-LIGAND FREE ENERGY PREDICTED BY IDOCK:   -0.69 KCAL/MOL
REMARK 927      BINDING AFFINITY PREDICTED BY RF-SCORE:    0.00 PKD
ROOT
HETATM    1  C   UNL     1      -9.628   8.914  69.364  1.00  0.00    -0.163 C  
HETATM    2  C   UNL     1      -9.091   9.359  70.600  1.00  0.00    -0.292 C  
HETATM    3  C   UNL     1      -8.411   8.230  69.901  1.00  0.00    -0.127 C  
HETATM    4  C   UNL     1      -8.938   7.909  67.922  1.00  0.00    -0.129 C  
HETATM    5  O   UNL     1      -8.135   7.282  66.897  1.00  0.00    -0.116 OA 
HETATM    6  C   UNL     1     -10.591   7.387  69.701  1.00  0.00    -0.243 C  
HETATM    7  C   UNL     1      -7.902   8.557  68.528  1.00  0.00    -0.108 C  
HETATM    8  C   UNL     1      -7.169   6.826  68.859  1.00  0.00    -0.091 C  
HETATM    9  C   UNL     1      -6.983   9.676  68.102  1.00  0.00    -0.077 C  
HETATM   10  C   UNL     1     -11.701   7.712  70.723  1.00  0.00    -0.260 C  
HETATM   11  H   UNL     1      -8.377   7.135  65.990  1.00  0.00     0.000 HD 
HETATM   12  C   UNL     1     -11.949   6.747  71.885  1.00  0.00    -0.374 C  
HETATM   13  C   UNL     1      -8.450   5.630  69.101  1.00  0.00    -0.102 C  
HETATM   14  C   UNL     1      -9.765   5.998  70.031  1.00  0.00    -0.202 C  
HETATM   15  C   UNL     1     -11.111   5.514  72.054  1.00  0.00    -0.249 C  
HETATM   16  C   UNL     1     -11.393   4.740  73.118  1.00  0.00    -0.380 C  
HETATM   17  C   UNL     1     -10.046   5.210  71.119  1.00  0.00    -0.291 C  
HETATM   18  O   UNL     1     -11.010   2.866  74.455  1.00  0.00    -0.102 OA 
HETATM   19  C   UNL     1      -9.188   3.987  71.436  1.00  0.00    -0.193 C  
HETATM   20  C   UNL     1      -9.528   3.064  72.602  1.00  0.00    -0.160 C  
HETATM   21  C   UNL     1     -10.667   3.507  73.463  1.00  0.00    -0.216 C  
ENDROOT
BRANCH   4  22
HETATM   22  C   UNL     1      -9.683   8.939  66.891  1.00  0.00    -0.263 C  
HETATM   23  C   UNL     1      -9.880   9.752  65.892  1.00  0.00    -0.352 C  
HETATM   24  C   UNL     1     -10.110  10.701  64.727  1.00  0.00    -0.412 C  
ENDBRANCH   4  22
BRANCH  13  25
HETATM   25  C   UNL     1      -8.912   4.907  67.825  1.00  0.00    -0.118 A  
HETATM   26  C   UNL     1     -10.487   4.725  65.981  1.00  0.00    -0.332 A  
HETATM   27  C   UNL     1      -8.278   3.893  65.717  1.00  0.00    -0.105 A  
HETATM   28  C   UNL     1      -7.978   4.226  67.045  1.00  0.00    -0.097 A  
HETATM   29  C   UNL     1     -10.210   5.034  67.312  1.00  0.00    -0.219 A  
HETATM   30  C   UNL     1      -9.508   4.216  65.125  1.00  0.00    -0.173 A  
BRANCH  30  31
HETATM   31  N   UNL     1      -9.749   4.082  63.772  1.00  0.00    -0.160 NA 
HETATM   32  C   UNL     1     -10.833   3.268  63.248  1.00  0.00    -0.194 C  
HETATM   33  C   UNL     1      -8.861   4.687  62.782  1.00  0.00    -0.127 C  
ENDBRANCH  30  31
ENDBRANCH  13  25
TORSDOF 3
ENDMDL
MODEL       16
REMARK 921   NORMALIZED FREE ENERGY PREDICTED BY IDOCK:   -5.45 KCAL/MOL
REMARK 922        TOTAL FREE ENERGY PREDICTED BY IDOCK:   -7.04 KCAL/MOL
REMARK 923 INTER-LIGAND FREE ENERGY PREDICTED BY IDOCK:   -6.11 KCAL/MOL
REMARK 924 INTRA-LIGAND FREE ENERGY PREDICTED BY IDOCK:   -0.94 KCAL/MOL
REMARK 927      BINDING AFFINITY PREDICTED BY RF-SCORE:    0.00 PKD
ROOT
HETATM    1  C   UNL     1      -9.068   7.314  71.842  1.00  0.00    -0.146 C  
HETATM    2  C   UNL     1      -9.787   8.332  72.519  1.00  0.00    -0.368 C  
HETATM    3  C   UNL     1     -10.453   7.636  71.380  1.00  0.00    -0.230 C  
HETATM    4  C   UNL     1      -9.569   5.881  70.717  1.00  0.00    -0.170 C  
HETATM    5  O   UNL     1     -10.216   4.783  70.038  1.00  0.00    -0.251 OA 
HETATM    6  C   UNL     1      -8.418   8.040  70.286  1.00  0.00    -0.127 C  
HETATM    7  C   UNL     1     -10.610   6.154  71.555  1.00  0.00    -0.288 C  
HETATM    8  C   UNL     1     -11.628   6.512  69.981  1.00  0.00    -0.455 C  
HETATM    9  C   UNL     1     -11.255   5.400  72.693  1.00  0.00    -0.333 C  
HETATM   10  C   UNL     1      -7.515   9.242  70.635  1.00  0.00    -0.145 C  
HETATM   11  H   UNL     1      -9.810   3.979  69.735  1.00  0.00     0.000 HD 
HETATM   12  C   UNL     1      -7.654  10.536  69.829  1.00  0.00    -0.102 C  
HETATM   13  C   UNL     1     -10.605   7.181  68.702  1.00  0.00    -0.217 C  
HETATM   14  C   UNL     1      -9.478   8.335  69.058  1.00  0.00    -0.155 C  
HETATM   15  C   UNL     1      -8.670  10.655  68.732  1.00  0.00    -0.157 C  
HETATM   16  C   UNL     1      -8.729  11.839  68.096  1.00  0.00    -0.168 C  
HETATM   17  C   UNL     1      -9.545   9.544  68.411  1.00  0.00    -0.152 C  
HETATM   18  O   UNL     1      -9.641  13.266  66.491  1.00  0.00    -0.258 OA 
HETATM   19  C   UNL     1     -10.611   9.800  67.348  1.00  0.00    -0.330 C  
HETATM   20  C   UNL     1     -10.656  11.114  66.575  1.00  0.00    -0.314 C  
HETATM   21  C   UNL     1      -9.674  12.153  67.013  1.00  0.00    -0.202 C  
ENDROOT
BRANCH   4  22
HETATM   22  C   UNL     1      -8.489   4.933  71.499  1.00  0.00    -0.124 C  
HETATM   23  C   UNL     1      -7.936   3.883  72.038  1.00  0.00    -0.076 C  
HETATM   24  C   UNL     1      -7.291   2.659  72.668  1.00  0.00    -0.043 C  
ENDBRANCH   4  22
BRANCH  13  25
HETATM   25  C   UNL     1      -9.988   6.138  67.754  1.00  0.00    -0.143 A  
HETATM   26  C   UNL     1     -10.220   4.666  65.832  1.00  0.00    -0.303 A  
HETATM   27  C   UNL     1      -8.067   5.471  66.434  1.00  0.00    -0.105 A  
HETATM   28  C   UNL     1      -8.609   6.129  67.548  1.00  0.00    -0.106 A  
HETATM   29  C   UNL     1     -10.765   5.292  66.952  1.00  0.00    -0.208 A  
HETATM   30  C   UNL     1      -8.870   4.800  65.500  1.00  0.00    -0.139 A  
BRANCH  30  31
HETATM   31  N   UNL     1      -8.384   4.323  64.298  1.00  0.00    -0.101 NA 
HETATM   32  C   UNL     1      -8.447   5.094  63.068  1.00  0.00    -0.114 C  
HETATM   33  C   UNL     1      -7.857   2.966  64.181  1.00  0.00    -0.077 C  
ENDBRANCH  30  31
ENDBRANCH  13  25
TORSDOF 3
ENDMDL
MODEL       17
REMARK 921   NORMALIZED FREE ENERGY PREDICTED BY IDOCK:   -5.42 KCAL/MOL
REMARK 922        TOTAL FREE ENERGY PREDICTED BY IDOCK:   -7.01 KCAL/MOL
REMARK 923 INTER-LIGAND FREE ENERGY PREDICTED BY IDOCK:   -6.30 KCAL/MOL
REMARK 924 INTRA-LIGAND FREE ENERGY PREDICTED BY IDOCK:   -0.71 KCAL/MOL
REMARK 927      BINDING AFFINITY PREDICTED BY RF-SCORE:    0.00 PKD
ROOT
HETATM    1  C   UNL     1      -8.321  10.345  67.727  1.00  0.00    -0.114 C  
HETATM    2  C   UNL     1      -7.969  11.204  68.800  1.00  0.00    -0.144 C  
HETATM    3  C   UNL     1      -7.932   9.732  69.035  1.00  0.00    -0.096 C  
HETATM    4  C   UNL     1      -8.010   8.520  67.354  1.00  0.00    -0.102 C  
HETATM    5  O   UNL     1      -7.498   7.175  67.225  1.00  0.00    -0.094 OA 
HETATM    6  C   UNL     1     -10.045   9.782  68.016  1.00  0.00    -0.204 C  
HETATM    7  C   UNL     1      -6.993   8.976  68.140  1.00  0.00    -0.077 C  
HETATM    8  C   UNL     1      -7.538   7.656  69.406  1.00  0.00    -0.095 C  
HETATM    9  C   UNL     1      -5.520   9.207  67.906  1.00  0.00    -0.034 C  
HETATM   10  C   UNL     1     -10.968  11.016  68.087  1.00  0.00    -0.301 C  
HETATM   11  H   UNL     1      -7.534   6.620  66.455  1.00  0.00     0.000 HD 
HETATM   12  C   UNL     1     -12.028  11.091  69.187  1.00  0.00    -0.394 C  
HETATM   13  C   UNL     1      -9.286   7.390  69.334  1.00  0.00    -0.155 C  
HETATM   14  C   UNL     1     -10.316   8.675  69.208  1.00  0.00    -0.228 C  
HETATM   15  C   UNL     1     -12.158   9.998  70.207  1.00  0.00    -0.226 C  
HETATM   16  C   UNL     1     -13.106  10.165  71.148  1.00  0.00    -0.480 C  
HETATM   17  C   UNL     1     -11.279   8.846  70.172  1.00  0.00    -0.175 C  
HETATM   18  O   UNL     1     -14.264   9.460  73.046  1.00  0.00    -0.310 OA 
HETATM   19  C   UNL     1     -11.425   7.840  71.312  1.00  0.00    -0.294 C  
HETATM   20  C   UNL     1     -12.532   7.981  72.352  1.00  0.00    -0.256 C  
HETATM   21  C   UNL     1     -13.367   9.217  72.241  1.00  0.00    -0.477 C  
ENDROOT
BRANCH   4  22
HETATM   22  C   UNL     1      -7.705   8.925  65.798  1.00  0.00    -0.094 C  
HETATM   23  C   UNL     1      -7.866   9.092  64.516  1.00  0.00    -0.123 C  
HETATM   24  C   UNL     1      -8.052   9.286  63.019  1.00  0.00    -0.157 C  
ENDBRANCH   4  22
BRANCH  13  25
HETATM   25  C   UNL     1      -9.734   6.279  68.369  1.00  0.00    -0.130 A  
HETATM   26  C   UNL     1     -10.676   5.630  66.223  1.00  0.00    -0.142 A  
HETATM   27  C   UNL     1      -9.233   4.129  67.368  1.00  0.00    -0.180 A  
HETATM   28  C   UNL     1      -9.134   5.023  68.444  1.00  0.00    -0.137 A  
HETATM   29  C   UNL     1     -10.608   6.513  67.299  1.00  0.00    -0.383 A  
HETATM   30  C   UNL     1      -9.932   4.449  66.194  1.00  0.00    -0.238 A  
BRANCH  30  31
HETATM   31  N   UNL     1      -9.874   3.675  65.051  1.00  0.00    -0.168 NA 
HETATM   32  C   UNL     1      -8.788   2.745  64.791  1.00  0.00    -0.117 C  
HETATM   33  C   UNL     1     -10.866   3.818  63.990  1.00  0.00    -0.176 C  
ENDBRANCH  30  31
ENDBRANCH  13  25
TORSDOF 3
ENDMDL
MODEL       18
REMARK 921   NORMALIZED FREE ENERGY PREDICTED BY IDOCK:   -5.41 KCAL/MOL
REMARK 922        TOTAL FREE ENERGY PREDICTED BY IDOCK:   -6.99 KCAL/MOL
REMARK 923 INTER-LIGAND FREE ENERGY PREDICTED BY IDOCK:   -6.25 KCAL/MOL
REMARK 924 INTRA-LIGAND FREE ENERGY PREDICTED BY IDOCK:   -0.74 KCAL/MOL
REMARK 927      BINDING AFFINITY PREDICTED BY RF-SCORE:    0.00 PKD
ROOT
HETATM    1  C   UNL     1      -6.947  11.007  69.489  1.00  0.00    -0.126 C  
HETATM    2  C   UNL     1      -5.839  10.194  69.840  1.00  0.00    -0.048 C  
HETATM    3  C   UNL     1      -6.339  10.137  68.436  1.00  0.00    -0.049 C  
HETATM    4  C   UNL     1      -7.642  11.641  67.851  1.00  0.00    -0.115 C  
HETATM    5  O   UNL     1      -7.866  12.126  66.509  1.00  0.00    -0.384 OA 
HETATM    6  C   UNL     1      -8.435   9.930  69.469  1.00  0.00    -0.184 C  
HETATM    7  C   UNL     1      -6.300  11.446  67.702  1.00  0.00    -0.062 C  
HETATM    8  C   UNL     1      -6.754  10.197  66.333  1.00  0.00    -0.092 C  
HETATM    9  C   UNL     1      -5.130  12.376  67.491  1.00  0.00    -0.096 C  
HETATM   10  C   UNL     1      -8.611   9.295  70.864  1.00  0.00    -0.220 C  
HETATM   11  H   UNL     1      -8.463  12.815  66.242  1.00  0.00     0.000 HD 
HETATM   12  C   UNL     1      -8.948   7.806  70.967  1.00  0.00    -0.147 C  
HETATM   13  C   UNL     1      -8.289   9.392  66.691  1.00  0.00    -0.119 C  
HETATM   14  C   UNL     1      -8.612   8.866  68.223  1.00  0.00    -0.134 C  
HETATM   15  C   UNL     1      -9.081   6.960  69.735  1.00  0.00    -0.144 C  
HETATM   16  C   UNL     1      -9.359   5.657  69.930  1.00  0.00    -0.181 C  
HETATM   17  C   UNL     1      -8.890   7.535  68.419  1.00  0.00    -0.126 C  
HETATM   18  O   UNL     1      -9.766   3.503  69.135  1.00  0.00    -0.139 OA 
HETATM   19  C   UNL     1      -8.947   6.570  67.237  1.00  0.00    -0.114 C  
HETATM   20  C   UNL     1      -9.319   5.104  67.431  1.00  0.00    -0.128 C  
HETATM   21  C   UNL     1      -9.502   4.669  68.850  1.00  0.00    -0.153 C  
ENDROOT
BRANCH   4  22
HETATM   22  C   UNL     1      -7.894  13.094  68.559  1.00  0.00    -0.105 C  
HETATM   23  C   UNL     1      -8.245  14.339  68.724  1.00  0.00    -0.102 C  
HETATM   24  C   UNL     1      -8.652  15.791  68.917  1.00  0.00    -0.220 C  
ENDBRANCH   4  22
BRANCH  13  25
HETATM   25  C   UNL     1      -9.534  10.085  66.114  1.00  0.00    -0.242 A  
HETATM   26  C   UNL     1     -11.406  11.608  66.417  1.00  0.00    -0.312 A  
HETATM   27  C   UNL     1     -10.528  11.255  64.238  1.00  0.00    -0.419 A  
HETATM   28  C   UNL     1      -9.619  10.313  64.742  1.00  0.00    -0.369 A  
HETATM   29  C   UNL     1     -10.527  10.652  66.924  1.00  0.00    -0.304 A  
HETATM   30  C   UNL     1     -11.381  11.991  65.075  1.00  0.00    -0.310 A  
BRANCH  30  31
HETATM   31  N   UNL     1     -12.133  13.060  64.627  1.00  0.00    -0.385 NA 
HETATM   32  C   UNL     1     -12.353  13.324  63.216  1.00  0.00    -0.238 C  
HETATM   33  C   UNL     1     -12.678  14.043  65.559  1.00  0.00    -0.486 C  
ENDBRANCH  30  31
ENDBRANCH  13  25
TORSDOF 3
ENDMDL
MODEL       19
REMARK 921   NORMALIZED FREE ENERGY PREDICTED BY IDOCK:   -5.30 KCAL/MOL
REMARK 922        TOTAL FREE ENERGY PREDICTED BY IDOCK:   -6.87 KCAL/MOL
REMARK 923 INTER-LIGAND FREE ENERGY PREDICTED BY IDOCK:   -6.33 KCAL/MOL
REMARK 924 INTRA-LIGAND FREE ENERGY PREDICTED BY IDOCK:   -0.53 KCAL/MOL
REMARK 927      BINDING AFFINITY PREDICTED BY RF-SCORE:    0.00 PKD
ROOT
HETATM    1  C   UNL     1      -7.467   8.815  64.945  1.00  0.00    -0.095 C  
HETATM    2  C   UNL     1      -6.582   9.722  64.306  1.00  0.00    -0.119 C  
HETATM    3  C   UNL     1      -6.825   9.887  65.768  1.00  0.00    -0.104 C  
HETATM    4  C   UNL     1      -7.747   8.306  66.742  1.00  0.00    -0.094 C  
HETATM    5  O   UNL     1      -7.648   7.968  68.143  1.00  0.00    -0.104 OA 
HETATM    6  C   UNL     1      -9.078   9.673  65.151  1.00  0.00    -0.279 C  
HETATM    7  C   UNL     1      -6.449   8.699  66.605  1.00  0.00    -0.060 C  
HETATM    8  C   UNL     1      -6.842  10.038  67.908  1.00  0.00    -0.075 C  
HETATM    9  C   UNL     1      -5.128   7.971  66.674  1.00  0.00    -0.027 C  
HETATM   10  C   UNL     1      -9.599  10.097  63.761  1.00  0.00    -0.285 C  
HETATM   11  H   UNL     1      -8.071   7.243  68.589  1.00  0.00     0.000 HD 
HETATM   12  C   UNL     1     -10.181  11.500  63.581  1.00  0.00    -0.450 C  
HETATM   13  C   UNL     1      -8.524  10.574  67.780  1.00  0.00    -0.114 C  
HETATM   14  C   UNL     1      -9.195  10.853  66.297  1.00  0.00    -0.197 C  
HETATM   15  C   UNL     1     -10.223  12.470  64.725  1.00  0.00    -0.304 C  
HETATM   16  C   UNL     1     -10.733  13.686  64.461  1.00  0.00    -0.420 C  
HETATM   17  C   UNL     1      -9.710  12.097  66.029  1.00  0.00    -0.258 C  
HETATM   18  O   UNL     1     -11.327  15.849  65.104  1.00  0.00    -0.233 OA 
HETATM   19  C   UNL     1      -9.706  13.187  67.098  1.00  0.00    -0.235 C  
HETATM   20  C   UNL     1     -10.335  14.552  66.837  1.00  0.00    -0.264 C  
HETATM   21  C   UNL     1     -10.835  14.775  65.446  1.00  0.00    -0.363 C  
ENDROOT
BRANCH   4  22
HETATM   22  C   UNL     1      -7.890   6.753  66.244  1.00  0.00    -0.104 C  
HETATM   23  C   UNL     1      -8.424   5.616  65.899  1.00  0.00    -0.136 C  
HETATM   24  C   UNL     1      -9.046   4.288  65.497  1.00  0.00    -0.138 C  
ENDBRANCH   4  22
BRANCH  13  25
HETATM   25  C   UNL     1      -9.520   9.796  68.655  1.00  0.00    -0.151 A  
HETATM   26  C   UNL     1     -11.006   7.891  68.940  1.00  0.00     0.101 A  
HETATM   27  C   UNL     1     -10.051   8.926  70.855  1.00  0.00    -0.304 A  
HETATM   28  C   UNL     1      -9.433   9.888  70.043  1.00  0.00    -0.246 A  
HETATM   29  C   UNL     1     -10.420   8.859  68.127  1.00  0.00    -0.254 A  
HETATM   30  C   UNL     1     -10.777   7.852  70.318  1.00  0.00    -0.236 A  
BRANCH  30  31
HETATM   31  N   UNL     1     -11.220   6.789  71.080  1.00  0.00    -0.269 NA 
HETATM   32  C   UNL     1     -12.334   6.901  72.006  1.00  0.00    -0.269 C  
HETATM   33  C   UNL     1     -10.525   5.504  71.061  1.00  0.00    -0.244 C  
ENDBRANCH  30  31
ENDBRANCH  13  25
TORSDOF 3
ENDMDL
MODEL       20
REMARK 921   NORMALIZED FREE ENERGY PREDICTED BY IDOCK:   -5.29 KCAL/MOL
REMARK 922        TOTAL FREE ENERGY PREDICTED BY IDOCK:   -6.85 KCAL/MOL
REMARK 923 INTER-LIGAND FREE ENERGY PREDICTED BY IDOCK:   -5.95 KCAL/MOL
REMARK 924 INTRA-LIGAND FREE ENERGY PREDICTED BY IDOCK:   -0.90 KCAL/MOL
REMARK 927      BINDING AFFINITY PREDICTED BY RF-SCORE:    0.00 PKD
ROOT
HETATM    1  C   UNL     1      -8.197  11.725  67.231  1.00  0.00    -0.163 C  
HETATM    2  C   UNL     1      -8.190  12.784  68.175  1.00  0.00    -0.167 C  
HETATM    3  C   UNL     1      -7.669  11.453  68.603  1.00  0.00    -0.137 C  
HETATM    4  C   UNL     1      -7.280  10.079  67.099  1.00  0.00    -0.090 C  
HETATM    5  O   UNL     1      -6.344   8.981  67.143  1.00  0.00    -0.058 OA 
HETATM    6  C   UNL     1      -9.641  10.657  67.614  1.00  0.00    -0.178 C  
HETATM    7  C   UNL     1      -6.502  10.949  67.805  1.00  0.00    -0.063 C  
HETATM    8  C   UNL     1      -6.614   9.698  69.241  1.00  0.00    -0.048 C  
HETATM    9  C   UNL     1      -5.185  11.631  67.523  1.00  0.00    -0.067 C  
HETATM   10  C   UNL     1     -10.927  11.506  67.532  1.00  0.00    -0.308 C  
HETATM   11  H   UNL     1      -6.166   8.351  66.454  1.00  0.00     0.000 HD 
HETATM   12  C   UNL     1     -11.986  11.362  68.626  1.00  0.00    -0.317 C  
HETATM   13  C   UNL     1      -8.168   8.852  69.228  1.00  0.00    -0.114 C  
HETATM   14  C   UNL     1      -9.565   9.688  68.946  1.00  0.00    -0.161 C  
HETATM   15  C   UNL     1     -11.775  10.430  69.784  1.00  0.00    -0.310 C  
HETATM   16  C   UNL     1     -12.755  10.389  70.706  1.00  0.00    -0.460 C  
HETATM   17  C   UNL     1     -10.560   9.647  69.891  1.00  0.00    -0.281 C  
HETATM   18  O   UNL     1     -13.670   9.587  72.696  1.00  0.00    -0.382 OA 
HETATM   19  C   UNL     1     -10.398   8.808  71.156  1.00  0.00    -0.315 C  
HETATM   20  C   UNL     1     -11.521   8.701  72.182  1.00  0.00    -0.443 C  
HETATM   21  C   UNL     1     -12.717   9.558  71.919  1.00  0.00    -0.411 C  
ENDROOT
BRANCH   4  22
HETATM   22  C   UNL     1      -7.078  10.358  65.499  1.00  0.00    -0.133 C  
HETATM   23  C   UNL     1      -6.966  10.149  64.218  1.00  0.00    -0.103 C  
HETATM   24  C   UNL     1      -6.834   9.905  62.723  1.00  0.00    -0.120 C  
ENDBRANCH   4  22
BRANCH  13  25
HETATM   25  C   UNL     1      -8.185   7.540  68.425  1.00  0.00    -0.125 A  
HETATM   26  C   UNL     1      -7.480   5.224  68.194  1.00  0.00    -0.076 A  
HETATM   27  C   UNL     1      -9.501   5.939  67.169  1.00  0.00    -0.123 A  
HETATM   28  C   UNL     1      -9.273   7.253  67.603  1.00  0.00    -0.130 A  
HETATM   29  C   UNL     1      -7.229   6.532  68.605  1.00  0.00    -0.085 A  
HETATM   30  C   UNL     1      -8.659   4.876  67.531  1.00  0.00    -0.104 A  
BRANCH  30  31
HETATM   31  N   UNL     1      -8.973   3.554  67.288  1.00  0.00    -0.132 NA 
HETATM   32  C   UNL     1      -8.982   2.985  65.951  1.00  0.00    -0.145 C  
HETATM   33  C   UNL     1      -9.405   2.669  68.367  1.00  0.00    -0.197 C  
ENDBRANCH  30  31
ENDBRANCH  13  25
TORSDOF 3
ENDMDL
MODEL       21
REMARK 921   NORMALIZED FREE ENERGY PREDICTED BY IDOCK:   -5.19 KCAL/MOL
REMARK 922        TOTAL FREE ENERGY PREDICTED BY IDOCK:   -6.74 KCAL/MOL
REMARK 923 INTER-LIGAND FREE ENERGY PREDICTED BY IDOCK:   -6.07 KCAL/MOL
REMARK 924 INTRA-LIGAND FREE ENERGY PREDICTED BY IDOCK:   -0.66 KCAL/MOL
REMARK 927      BINDING AFFINITY PREDICTED BY RF-SCORE:    0.00 PKD
ROOT
HETATM    1  C   UNL     1      -6.247   9.500  68.432  1.00  0.00    -0.048 C  
HETATM    2  C   UNL     1      -5.791   8.156  68.417  1.00  0.00    -0.040 C  
HETATM    3  C   UNL     1      -7.066   8.476  67.712  1.00  0.00    -0.083 C  
HETATM    4  C   UNL     1      -7.463  10.483  67.373  1.00  0.00    -0.094 C  
HETATM    5  O   UNL     1      -8.290  11.043  66.329  1.00  0.00    -0.160 OA 
HETATM    6  C   UNL     1      -7.571   9.617  69.699  1.00  0.00    -0.114 C  
HETATM    7  C   UNL     1      -6.938   9.484  66.608  1.00  0.00    -0.085 C  
HETATM    8  C   UNL     1      -8.729   8.854  66.411  1.00  0.00    -0.148 C  
HETATM    9  C   UNL     1      -6.015   9.463  65.413  1.00  0.00    -0.063 C  
HETATM   10  C   UNL     1      -6.994   9.194  71.066  1.00  0.00    -0.102 C  
HETATM   11  H   UNL     1      -8.471  11.963  66.174  1.00  0.00     0.000 HD 
HETATM   12  C   UNL     1      -7.808   8.259  71.961  1.00  0.00    -0.168 C  
HETATM   13  C   UNL     1      -9.686   9.199  67.859  1.00  0.00    -0.182 C  
HETATM   14  C   UNL     1      -9.040   8.950  69.359  1.00  0.00    -0.145 C  
HETATM   15  C   UNL     1      -9.140   7.731  71.514  1.00  0.00    -0.158 C  
HETATM   16  C   UNL     1      -9.770   6.897  72.362  1.00  0.00    -0.168 C  
HETATM   17  C   UNL     1      -9.683   8.095  70.220  1.00  0.00    -0.175 C  
HETATM   18  O   UNL     1     -11.563   5.521  72.937  1.00  0.00    -0.297 OA 
HETATM   19  C   UNL     1     -10.995   7.426  69.817  1.00  0.00    -0.215 C  
HETATM   20  C   UNL     1     -11.753   6.527  70.788  1.00  0.00    -0.427 C  
HETATM   21  C   UNL     1     -11.068   6.262  72.090  1.00  0.00    -0.269 C  
ENDROOT
BRANCH   4  22
HETATM   22  C   UNL     1      -6.417  11.741  67.400  1.00  0.00    -0.116 C  
HETATM   23  C   UNL     1      -5.857  12.869  67.735  1.00  0.00    -0.139 C  
HETATM   24  C   UNL     1      -5.203  14.185  68.126  1.00  0.00    -0.118 C  
ENDBRANCH   4  22
BRANCH  13  25
HETATM   25  C   UNL     1     -10.430  10.545  67.839  1.00  0.00    -0.247 A  
HETATM   26  C   UNL     1     -10.624  12.836  68.630  1.00  0.00    -0.256 A  
HETATM   27  C   UNL     1     -11.507  12.256  66.502  1.00  0.00    -0.438 A  
HETATM   28  C   UNL     1     -11.147  10.915  66.703  1.00  0.00    -0.155 A  
HETATM   29  C   UNL     1     -10.289  11.502  68.853  1.00  0.00    -0.191 A  
HETATM   30  C   UNL     1     -11.173  13.264  67.419  1.00  0.00    -0.289 A  
BRANCH  30  31
HETATM   31  N   UNL     1     -11.336  14.608  67.150  1.00  0.00    -0.345 NA 
HETATM   32  C   UNL     1     -11.255  15.151  65.804  1.00  0.00    -0.287 C  
HETATM   33  C   UNL     1     -11.510  15.580  68.226  1.00  0.00    -0.353 C  
ENDBRANCH  30  31
ENDBRANCH  13  25
TORSDOF 3
ENDMDL
MODEL       22
REMARK 921   NORMALIZED FREE ENERGY PREDICTED BY IDOCK:   -5.15 KCAL/MOL
REMARK 922        TOTAL FREE ENERGY PREDICTED BY IDOCK:   -6.69 KCAL/MOL
REMARK 923 INTER-LIGAND FREE ENERGY PREDICTED BY IDOCK:   -5.84 KCAL/MOL
REMARK 924 INTRA-LIGAND FREE ENERGY PREDICTED BY IDOCK:   -0.84 KCAL/MOL
REMARK 927      BINDING AFFINITY PREDICTED BY RF-SCORE:    0.00 PKD
ROOT
HETATM    1  C   UNL     1      -9.982   9.961  65.363  1.00  0.00    -0.349 C  
HETATM    2  C   UNL     1      -9.951  10.979  64.374  1.00  0.00    -0.368 C  
HETATM    3  C   UNL     1      -8.745  10.793  65.233  1.00  0.00    -0.183 C  
HETATM    4  C   UNL     1      -8.651   9.041  66.338  1.00  0.00    -0.125 C  
HETATM    5  O   UNL     1      -7.462   8.375  66.817  1.00  0.00    -0.082 OA 
HETATM    6  C   UNL     1     -10.314  10.773  66.977  1.00  0.00    -0.275 C  
HETATM    7  C   UNL     1      -8.116   9.433  65.146  1.00  0.00    -0.126 C  
HETATM    8  C   UNL     1      -6.854  10.427  66.176  1.00  0.00    -0.125 C  
HETATM    9  C   UNL     1      -7.643   8.687  63.922  1.00  0.00    -0.127 C  
HETATM   10  C   UNL     1     -11.658  11.526  66.890  1.00  0.00    -0.166 C  
HETATM   11  H   UNL     1      -7.419   7.573  67.324  1.00  0.00     0.000 HD 
HETATM   12  C   UNL     1     -11.756  12.942  67.461  1.00  0.00    -0.422 C  
HETATM   13  C   UNL     1      -7.579  11.007  67.682  1.00  0.00    -0.104 C  
HETATM   14  C   UNL     1      -9.103  11.645  67.677  1.00  0.00    -0.174 C  
HETATM   15  C   UNL     1     -10.560  13.610  68.074  1.00  0.00    -0.256 C  
HETATM   16  C   UNL     1     -10.742  14.863  68.530  1.00  0.00    -0.245 C  
HETATM   17  C   UNL     1      -9.284  12.926  68.137  1.00  0.00    -0.212 C  
HETATM   18  O   UNL     1      -9.958  16.818  69.531  1.00  0.00    -0.177 OA 
HETATM   19  C   UNL     1      -8.106  13.728  68.688  1.00  0.00    -0.084 C  
HETATM   20  C   UNL     1      -8.304  15.127  69.264  1.00  0.00    -0.211 C  
HETATM   21  C   UNL     1      -9.685  15.685  69.139  1.00  0.00    -0.249 C  
ENDROOT
BRANCH   4  22
HETATM   22  C   UNL     1      -9.494   7.656  66.115  1.00  0.00    -0.117 C  
HETATM   23  C   UNL     1     -10.023   6.487  66.342  1.00  0.00    -0.086 C  
HETATM   24  C   UNL     1     -10.638   5.122  66.606  1.00  0.00    -0.295 C  
ENDBRANCH   4  22
BRANCH  13  25
HETATM   25  C   UNL     1      -7.425  10.060  68.883  1.00  0.00    -0.083 A  
HETATM   26  C   UNL     1      -6.160   9.352  70.836  1.00  0.00    -0.069 A  
HETATM   27  C   UNL     1      -8.499   8.944  70.748  1.00  0.00    -0.216 A  
HETATM   28  C   UNL     1      -8.559   9.488  69.457  1.00  0.00    -0.171 A  
HETATM   29  C   UNL     1      -6.203   9.867  69.542  1.00  0.00    -0.045 A  
HETATM   30  C   UNL     1      -7.317   8.947  71.505  1.00  0.00    -0.052 A  
BRANCH  30  31
HETATM   31  N   UNL     1      -7.282   8.606  72.843  1.00  0.00    -0.333 NA 
HETATM   32  C   UNL     1      -6.083   8.743  73.653  1.00  0.00    -0.074 C  
HETATM   33  C   UNL     1      -8.436   7.999  73.499  1.00  0.00    -0.245 C  
ENDBRANCH  30  31
ENDBRANCH  13  25
TORSDOF 3
ENDMDL
MODEL       23
REMARK 921   NORMALIZED FREE ENERGY PREDICTED BY IDOCK:   -5.14 KCAL/MOL
REMARK 922        TOTAL FREE ENERGY PREDICTED BY IDOCK:   -6.68 KCAL/MOL
REMARK 923 INTER-LIGAND FREE ENERGY PREDICTED BY IDOCK:   -5.96 KCAL/MOL
REMARK 924 INTRA-LIGAND FREE ENERGY PREDICTED BY IDOCK:   -0.72 KCAL/MOL
REMARK 927      BINDING AFFINITY PREDICTED BY RF-SCORE:    0.00 PKD
ROOT
HETATM    1  C   UNL     1      -8.928   7.481  71.454  1.00  0.00    -0.140 C  
HETATM    2  C   UNL     1      -9.650   8.454  72.193  1.00  0.00    -0.367 C  
HETATM    3  C   UNL     1     -10.329   7.798  71.038  1.00  0.00    -0.215 C  
HETATM    4  C   UNL     1      -9.428   6.093  70.275  1.00  0.00    -0.160 C  
HETATM    5  O   UNL     1     -10.070   5.014  69.561  1.00  0.00    -0.212 OA 
HETATM    6  C   UNL     1      -8.327   8.291  69.919  1.00  0.00    -0.125 C  
HETATM    7  C   UNL     1     -10.455   6.307  71.148  1.00  0.00    -0.271 C  
HETATM    8  C   UNL     1     -11.514   6.717  69.614  1.00  0.00    -0.358 C  
HETATM    9  C   UNL     1     -11.060   5.489  72.263  1.00  0.00    -0.297 C  
HETATM   10  C   UNL     1      -7.438   9.493  70.303  1.00  0.00    -0.148 C  
HETATM   11  H   UNL     1      -9.657   4.232  69.212  1.00  0.00     0.000 HD 
HETATM   12  C   UNL     1      -7.618  10.819  69.562  1.00  0.00    -0.094 C  
HETATM   13  C   UNL     1     -10.533   7.463  68.345  1.00  0.00    -0.220 C  
HETATM   14  C   UNL     1      -9.420   8.621  68.730  1.00  0.00    -0.143 C  
HETATM   15  C   UNL     1      -8.661  10.968  68.493  1.00  0.00    -0.159 C  
HETATM   16  C   UNL     1      -8.757  12.179  67.914  1.00  0.00    -0.176 C  
HETATM   17  C   UNL     1      -9.523   9.857  68.141  1.00  0.00    -0.149 C  
HETATM   18  O   UNL     1      -9.730  13.660  66.397  1.00  0.00    -0.282 OA 
HETATM   19  C   UNL     1     -10.617  10.140  67.114  1.00  0.00    -0.308 C  
HETATM   20  C   UNL     1     -10.703  11.487  66.403  1.00  0.00    -0.320 C  
HETATM   21  C   UNL     1      -9.731  12.524  66.868  1.00  0.00    -0.232 C  
ENDROOT
BRANCH   4  22
HETATM   22  C   UNL     1      -8.313   5.131  70.989  1.00  0.00    -0.119 C  
HETATM   23  C   UNL     1      -7.643   4.066  71.329  1.00  0.00    -0.055 C  
HETATM   24  C   UNL     1      -6.861   2.824  71.726  1.00  0.00    -0.026 C  
ENDBRANCH   4  22
BRANCH  13  25
HETATM   25  C   UNL     1      -9.918   6.477  67.337  1.00  0.00    -0.180 A  
HETATM   26  C   UNL     1      -8.036   5.104  66.640  1.00  0.00    -0.104 A  
HETATM   27  C   UNL     1     -10.234   4.497  65.975  1.00  0.00    -0.288 A  
HETATM   28  C   UNL     1     -10.754   5.640  66.599  1.00  0.00    -0.339 A  
HETATM   29  C   UNL     1      -8.538   6.259  67.239  1.00  0.00    -0.107 A  
HETATM   30  C   UNL     1      -8.876   4.153  66.057  1.00  0.00    -0.121 A  
BRANCH  30  31
HETATM   31  N   UNL     1      -8.382   2.938  65.627  1.00  0.00    -0.092 NA 
HETATM   32  C   UNL     1      -9.231   1.905  65.059  1.00  0.00    -0.099 C  
HETATM   33  C   UNL     1      -6.975   2.588  65.807  1.00  0.00    -0.052 C  
ENDBRANCH  30  31
ENDBRANCH  13  25
TORSDOF 3
ENDMDL
MODEL       24
REMARK 921   NORMALIZED FREE ENERGY PREDICTED BY IDOCK:   -5.14 KCAL/MOL
REMARK 922        TOTAL FREE ENERGY PREDICTED BY IDOCK:   -6.67 KCAL/MOL
REMARK 923 INTER-LIGAND FREE ENERGY PREDICTED BY IDOCK:   -5.74 KCAL/MOL
REMARK 924 INTRA-LIGAND FREE ENERGY PREDICTED BY IDOCK:   -0.93 KCAL/MOL
REMARK 927      BINDING AFFINITY PREDICTED BY RF-SCORE:    0.00 PKD
ROOT
HETATM    1  C   UNL     1      -8.261  10.868  66.286  1.00  0.00    -0.165 C  
HETATM    2  C   UNL     1      -8.852  10.938  64.999  1.00  0.00    -0.151 C  
HETATM    3  C   UNL     1      -9.707  10.515  66.146  1.00  0.00    -0.259 C  
HETATM    4  C   UNL     1      -8.948  10.852  68.046  1.00  0.00    -0.145 C  
HETATM    5  O   UNL     1      -9.701  11.027  69.266  1.00  0.00    -0.392 OA 
HETATM    6  C   UNL     1      -7.899   9.101  66.630  1.00  0.00    -0.100 C  
HETATM    7  C   UNL     1      -9.826  11.526  67.248  1.00  0.00    -0.208 C  
HETATM    8  C   UNL     1     -11.107  10.200  67.740  1.00  0.00    -0.293 C  
HETATM    9  C   UNL     1     -10.257  12.970  67.163  1.00  0.00    -0.243 C  
HETATM   10  C   UNL     1      -6.953   8.563  65.536  1.00  0.00    -0.074 C  
HETATM   11  H   UNL     1      -9.353  11.182  70.137  1.00  0.00     0.000 HD 
HETATM   12  C   UNL     1      -7.236   7.194  64.915  1.00  0.00    -0.071 C  
HETATM   13  C   UNL     1     -10.329   8.635  68.012  1.00  0.00    -0.277 C  
HETATM   14  C   UNL     1      -9.161   8.097  66.975  1.00  0.00    -0.170 C  
HETATM   15  C   UNL     1      -8.431   6.389  65.335  1.00  0.00    -0.126 C  
HETATM   16  C   UNL     1      -8.606   5.208  64.715  1.00  0.00    -0.148 C  
HETATM   17  C   UNL     1      -9.345   6.894  66.341  1.00  0.00    -0.183 C  
HETATM   18  O   UNL     1      -9.792   3.231  64.359  1.00  0.00    -0.160 OA 
HETATM   19  C   UNL     1     -10.583   6.046  66.624  1.00  0.00    -0.312 C  
HETATM   20  C   UNL     1     -10.769   4.678  65.977  1.00  0.00    -0.126 C  
HETATM   21  C   UNL     1      -9.729   4.293  64.974  1.00  0.00    -0.189 C  
ENDROOT
BRANCH   4  22
HETATM   22  C   UNL     1      -7.743  11.866  68.490  1.00  0.00    -0.135 C  
HETATM   23  C   UNL     1      -6.878  12.500  69.230  1.00  0.00    -0.019 C  
HETATM   24  C   UNL     1      -5.869  13.241  70.094  1.00  0.00    -0.147 C  
ENDBRANCH   4  22
BRANCH  13  25
HETATM   25  C   UNL     1      -9.885   8.375  69.462  1.00  0.00    -0.181 A  
HETATM   26  C   UNL     1     -10.473   7.864  71.766  1.00  0.00    -0.272 A  
HETATM   27  C   UNL     1      -8.327   7.258  70.945  1.00  0.00    -0.116 A  
HETATM   28  C   UNL     1      -8.617   7.852  69.709  1.00  0.00    -0.133 A  
HETATM   29  C   UNL     1     -10.760   8.484  70.551  1.00  0.00    -0.246 A  
HETATM   30  C   UNL     1      -9.279   7.169  71.972  1.00  0.00    -0.134 A  
BRANCH  30  31
HETATM   31  N   UNL     1      -9.085   6.415  73.113  1.00  0.00    -0.129 NA 
HETATM   32  C   UNL     1      -8.235   5.237  73.136  1.00  0.00    -0.112 C  
HETATM   33  C   UNL     1      -9.804   6.714  74.348  1.00  0.00    -0.322 C  
ENDBRANCH  30  31
ENDBRANCH  13  25
TORSDOF 3
ENDMDL
MODEL       25
REMARK 921   NORMALIZED FREE ENERGY PREDICTED BY IDOCK:   -5.13 KCAL/MOL
REMARK 922        TOTAL FREE ENERGY PREDICTED BY IDOCK:   -6.67 KCAL/MOL
REMARK 923 INTER-LIGAND FREE ENERGY PREDICTED BY IDOCK:   -5.94 KCAL/MOL
REMARK 924 INTRA-LIGAND FREE ENERGY PREDICTED BY IDOCK:   -0.72 KCAL/MOL
REMARK 927      BINDING AFFINITY PREDICTED BY RF-SCORE:    0.00 PKD
ROOT
HETATM    1  C   UNL     1     -11.904  14.647  66.441  1.00  0.00    -0.304 C  
HETATM    2  C   UNL     1     -12.907  13.644  66.426  1.00  0.00     0.084 C  
HETATM    3  C   UNL     1     -11.844  13.562  67.468  1.00  0.00    -0.406 C  
HETATM    4  C   UNL     1     -10.677  15.254  67.743  1.00  0.00    -0.286 C  
HETATM    5  O   UNL     1      -9.972  15.640  68.943  1.00  0.00    -0.196 OA 
HETATM    6  C   UNL     1     -10.404  13.937  65.654  1.00  0.00    -0.337 C  
HETATM    7  C   UNL     1     -11.769  14.747  68.385  1.00  0.00    -0.343 C  
HETATM    8  C   UNL     1     -10.569  13.502  69.192  1.00  0.00    -0.055 C  
HETATM    9  C   UNL     1     -12.863  15.364  69.223  1.00  0.00     0.494 C  
HETATM   10  C   UNL     1     -10.754  13.501  64.216  1.00  0.00    -0.324 C  
HETATM   11  H   UNL     1      -9.438  16.416  69.069  1.00  0.00     0.000 HD 
HETATM   12  C   UNL     1     -10.260  12.145  63.708  1.00  0.00    -0.449 C  
HETATM   13  C   UNL     1      -9.236  13.104  68.098  1.00  0.00    -0.215 C  
HETATM   14  C   UNL     1      -9.533  12.821  66.498  1.00  0.00    -0.253 C  
HETATM   15  C   UNL     1      -9.470  11.231  64.598  1.00  0.00    -0.215 C  
HETATM   16  C   UNL     1      -9.099  10.051  64.067  1.00  0.00    -0.296 C  
HETATM   17  C   UNL     1      -9.158  11.614  65.961  1.00  0.00    -0.188 C  
HETATM   18  O   UNL     1      -8.045   7.975  64.210  1.00  0.00    -0.151 OA 
HETATM   19  C   UNL     1      -8.437  10.573  66.815  1.00  0.00    -0.127 C  
HETATM   20  C   UNL     1      -7.956   9.256  66.215  1.00  0.00    -0.107 C  
HETATM   21  C   UNL     1      -8.342   9.017  64.790  1.00  0.00    -0.173 C  
ENDROOT
BRANCH   4  22
HETATM   22  C   UNL     1     -10.996  16.790  67.279  1.00  0.00    -0.040 C  
HETATM   23  C   UNL     1     -10.819  18.041  66.959  1.00  0.00    -0.134 C  
HETATM   24  C   UNL     1     -10.613  19.501  66.588  1.00  0.00    -0.583 C  
ENDBRANCH   4  22
BRANCH  13  25
HETATM   25  C   UNL     1      -7.993  13.999  68.238  1.00  0.00    -0.146 A  
HETATM   26  C   UNL     1      -6.713  15.926  67.490  1.00  0.00    -0.215 A  
HETATM   27  C   UNL     1      -6.485  15.170  69.731  1.00  0.00    -0.166 A  
HETATM   28  C   UNL     1      -7.358  14.103  69.474  1.00  0.00     0.097 A  
HETATM   29  C   UNL     1      -7.558  14.853  67.215  1.00  0.00    -0.213 A  
HETATM   30  C   UNL     1      -6.213  16.159  68.773  1.00  0.00    -0.117 A  
BRANCH  30  31
HETATM   31  N   UNL     1      -5.524  17.319  69.067  1.00  0.00    -0.152 NA 
HETATM   32  C   UNL     1      -5.210  17.719  70.428  1.00  0.00    -0.262 C  
HETATM   33  C   UNL     1      -5.149  18.262  68.017  1.00  0.00    -0.164 C  
ENDBRANCH  30  31
ENDBRANCH  13  25
TORSDOF 3
ENDMDL
MODEL       26
REMARK 921   NORMALIZED FREE ENERGY PREDICTED BY IDOCK:   -4.99 KCAL/MOL
REMARK 922        TOTAL FREE ENERGY PREDICTED BY IDOCK:   -6.50 KCAL/MOL
REMARK 923 INTER-LIGAND FREE ENERGY PREDICTED BY IDOCK:   -5.77 KCAL/MOL
REMARK 924 INTRA-LIGAND FREE ENERGY PREDICTED BY IDOCK:   -0.73 KCAL/MOL
REMARK 927      BINDING AFFINITY PREDICTED BY RF-SCORE:    0.00 PKD
ROOT
HETATM    1  C   UNL     1      -9.426  13.983  67.598  1.00  0.00    -0.210 C  
HETATM    2  C   UNL     1      -9.242  14.245  66.215  1.00  0.00    -0.181 C  
HETATM    3  C   UNL     1     -10.127  13.110  66.606  1.00  0.00    -0.264 C  
HETATM    4  C   UNL     1     -10.724  13.036  68.591  1.00  0.00    -0.248 C  
HETATM    5  O   UNL     1     -11.914  12.412  69.120  1.00  0.00    -0.290 OA 
HETATM    6  C   UNL     1      -8.349  12.561  68.036  1.00  0.00    -0.171 C  
HETATM    7  C   UNL     1     -11.309  13.495  67.447  1.00  0.00    -0.338 C  
HETATM    8  C   UNL     1     -11.654  11.665  67.031  1.00  0.00    -0.268 C  
HETATM    9  C   UNL     1     -12.373  14.527  67.164  1.00  0.00    -0.031 C  
HETATM   10  C   UNL     1      -6.885  12.925  67.713  1.00  0.00    -0.138 C  
HETATM   11  H   UNL     1     -12.188  12.379  70.029  1.00  0.00     0.000 HD 
HETATM   12  C   UNL     1      -6.001  11.897  67.005  1.00  0.00    -0.153 C  
HETATM   13  C   UNL     1     -10.378  10.617  67.668  1.00  0.00    -0.246 C  
HETATM   14  C   UNL     1      -8.793  11.058  67.524  1.00  0.00    -0.131 C  
HETATM   15  C   UNL     1      -6.548  10.560  66.599  1.00  0.00    -0.094 C  
HETATM   16  C   UNL     1      -5.699   9.732  65.963  1.00  0.00    -0.057 C  
HETATM   17  C   UNL     1      -7.930  10.214  66.870  1.00  0.00    -0.114 C  
HETATM   18  O   UNL     1      -5.203   7.713  64.906  1.00  0.00    -0.028 OA 
HETATM   19  C   UNL     1      -8.416   8.871  66.328  1.00  0.00    -0.129 C  
HETATM   20  C   UNL     1      -7.455   7.895  65.658  1.00  0.00    -0.081 C  
HETATM   21  C   UNL     1      -6.058   8.394  65.469  1.00  0.00    -0.045 C  
ENDROOT
BRANCH   4  22
HETATM   22  C   UNL     1     -10.704  14.240  69.700  1.00  0.00    -0.034 C  
HETATM   23  C   UNL     1     -11.114  15.185  70.497  1.00  0.00    -0.294 C  
HETATM   24  C   UNL     1     -11.592  16.290  71.426  1.00  0.00    -0.424 C  
ENDBRANCH   4  22
BRANCH  13  25
HETATM   25  C   UNL     1     -10.632  10.075  69.085  1.00  0.00    -0.240 A  
HETATM   26  C   UNL     1     -12.001   8.758  70.603  1.00  0.00    -0.078 A  
HETATM   27  C   UNL     1      -9.692   9.060  71.075  1.00  0.00    -0.348 A  
HETATM   28  C   UNL     1      -9.556   9.887  69.951  1.00  0.00    -0.265 A  
HETATM   29  C   UNL     1     -11.884   9.602  69.500  1.00  0.00     0.297 A  
HETATM   30  C   UNL     1     -10.894   8.402  71.378  1.00  0.00    -0.244 A  
BRANCH  30  31
HETATM   31  N   UNL     1     -10.994   7.431  72.355  1.00  0.00    -0.256 NA 
HETATM   32  C   UNL     1     -10.195   7.459  73.568  1.00  0.00    -0.349 C  
HETATM   33  C   UNL     1     -11.853   6.264  72.175  1.00  0.00    -0.315 C  
ENDBRANCH  30  31
ENDBRANCH  13  25
TORSDOF 3
ENDMDL
MODEL       27
REMARK 921   NORMALIZED FREE ENERGY PREDICTED BY IDOCK:   -4.87 KCAL/MOL
REMARK 922        TOTAL FREE ENERGY PREDICTED BY IDOCK:   -6.35 KCAL/MOL
REMARK 923 INTER-LIGAND FREE ENERGY PREDICTED BY IDOCK:   -5.77 KCAL/MOL
REMARK 924 INTRA-LIGAND FREE ENERGY PREDICTED BY IDOCK:   -0.58 KCAL/MOL
REMARK 927      BINDING AFFINITY PREDICTED BY RF-SCORE:    0.00 PKD
ROOT
HETATM    1  C   UNL     1     -11.525  14.438  68.145  1.00  0.00    -0.337 C  
HETATM    2  C   UNL     1     -12.252  15.153  67.159  1.00  0.00     0.417 C  
HETATM    3  C   UNL     1     -10.965  14.511  66.760  1.00  0.00    -0.316 C  
HETATM    4  C   UNL     1     -10.171  13.122  68.080  1.00  0.00    -0.233 C  
HETATM    5  O   UNL     1      -9.285  12.026  67.762  1.00  0.00    -0.177 OA 
HETATM    6  C   UNL     1     -10.158  15.524  68.716  1.00  0.00    -0.211 C  
HETATM    7  C   UNL     1     -10.922  13.022  66.946  1.00  0.00    -0.289 C  
HETATM    8  C   UNL     1      -9.311  13.384  65.989  1.00  0.00    -0.010 C  
HETATM    9  C   UNL     1     -11.873  11.976  66.417  1.00  0.00    -0.232 C  
HETATM   10  C   UNL     1     -10.759  16.828  69.281  1.00  0.00    -0.324 C  
HETATM   11  H   UNL     1      -8.922  11.390  68.367  1.00  0.00     0.000 HD 
HETATM   12  C   UNL     1     -10.125  18.167  68.899  1.00  0.00    -0.354 C  
HETATM   13  C   UNL     1      -8.249  14.455  66.915  1.00  0.00    -0.048 C  
HETATM   14  C   UNL     1      -8.875  15.762  67.708  1.00  0.00    -0.173 C  
HETATM   15  C   UNL     1      -8.951  18.225  67.966  1.00  0.00    -0.301 C  
HETATM   16  C   UNL     1      -8.477  19.450  67.674  1.00  0.00    -0.339 C  
HETATM   17  C   UNL     1      -8.393  17.011  67.404  1.00  0.00    -0.206 C  
HETATM   18  O   UNL     1      -6.991  20.869  66.570  1.00  0.00    -0.250 OA 
HETATM   19  C   UNL     1      -7.267  17.184  66.387  1.00  0.00    -0.325 C  
HETATM   20  C   UNL     1      -6.677  18.558  66.089  1.00  0.00    -0.275 C  
HETATM   21  C   UNL     1      -7.352  19.709  66.763  1.00  0.00    -0.228 C  
ENDROOT
BRANCH   4  22
HETATM   22  C   UNL     1     -10.929  12.330  69.294  1.00  0.00    -0.155 C  
HETATM   23  C   UNL     1     -11.681  11.471  69.923  1.00  0.00    -0.420 C  
HETATM   24  C   UNL     1     -12.559  10.470  70.656  1.00  0.00    -0.457 C  
ENDBRANCH   4  22
BRANCH  13  25
HETATM   25  C   UNL     1      -7.241  13.736  67.828  1.00  0.00    -0.169 A  
HETATM   26  C   UNL     1      -6.531  13.107  70.067  1.00  0.00     0.079 A  
HETATM   27  C   UNL     1      -5.899  11.756  68.217  1.00  0.00    -0.049 A  
HETATM   28  C   UNL     1      -6.521  12.650  67.334  1.00  0.00    -0.150 A  
HETATM   29  C   UNL     1      -7.127  14.017  69.196  1.00  0.00    -0.085 A  
HETATM   30  C   UNL     1      -5.967  11.914  69.610  1.00  0.00    -0.114 A  
BRANCH  30  31
HETATM   31  N   UNL     1      -5.540  10.945  70.497  1.00  0.00    -0.103 NA 
HETATM   32  C   UNL     1      -5.130  11.256  71.856  1.00  0.00     0.097 C  
HETATM   33  C   UNL     1      -5.392   9.553  70.082  1.00  0.00    -0.031 C  
ENDBRANCH  30  31
ENDBRANCH  13  25
TORSDOF 3
ENDMDL
MODEL       28
REMARK 921   NORMALIZED FREE ENERGY PREDICTED BY IDOCK:   -4.84 KCAL/MOL
REMARK 922        TOTAL FREE ENERGY PREDICTED BY IDOCK:   -6.32 KCAL/MOL
REMARK 923 INTER-LIGAND FREE ENERGY PREDICTED BY IDOCK:   -5.63 KCAL/MOL
REMARK 924 INTRA-LIGAND FREE ENERGY PREDICTED BY IDOCK:   -0.69 KCAL/MOL
REMARK 927      BINDING AFFINITY PREDICTED BY RF-SCORE:    0.00 PKD
ROOT
HETATM    1  C   UNL     1      -9.576  10.943  67.609  1.00  0.00    -0.177 C  
HETATM    2  C   UNL     1      -9.114  11.828  68.617  1.00  0.00    -0.075 C  
HETATM    3  C   UNL     1      -8.299  10.616  68.315  1.00  0.00    -0.122 C  
HETATM    4  C   UNL     1      -8.753   9.602  66.564  1.00  0.00    -0.134 C  
HETATM    5  O   UNL     1      -7.867   8.767  65.786  1.00  0.00    -0.095 OA 
HETATM    6  C   UNL     1     -10.366   9.515  68.451  1.00  0.00    -0.237 C  
HETATM    7  C   UNL     1      -7.807  10.526  66.900  1.00  0.00    -0.117 C  
HETATM    8  C   UNL     1      -6.889   9.095  67.767  1.00  0.00    -0.076 C  
HETATM    9  C   UNL     1      -7.013  11.537  66.109  1.00  0.00     0.249 C  
HETATM   10  C   UNL     1     -11.522  10.032  69.333  1.00  0.00    -0.139 C  
HETATM   11  H   UNL     1      -8.076   8.302  64.984  1.00  0.00     0.000 HD 
HETATM   12  C   UNL     1     -11.679   9.484  70.752  1.00  0.00    -0.370 C  
HETATM   13  C   UNL     1      -8.030   7.910  68.418  1.00  0.00    -0.122 C  
HETATM   14  C   UNL     1      -9.394   8.415  69.202  1.00  0.00    -0.151 C  
HETATM   15  C   UNL     1     -10.711   8.477  71.300  1.00  0.00    -0.302 C  
HETATM   16  C   UNL     1     -10.921   8.071  72.566  1.00  0.00    -0.430 C  
HETATM   17  C   UNL     1      -9.602   8.003  70.495  1.00  0.00    -0.170 C  
HETATM   18  O   UNL     1     -10.351   6.800  74.437  1.00  0.00    -0.340 OA 
HETATM   19  C   UNL     1      -8.617   7.058  71.179  1.00  0.00    -0.133 C  
HETATM   20  C   UNL     1      -8.870   6.540  72.591  1.00  0.00    -0.126 C  
HETATM   21  C   UNL     1     -10.067   7.111  73.282  1.00  0.00    -0.276 C  
ENDROOT
BRANCH   4  22
HETATM   22  C   UNL     1      -9.592  10.144  65.268  1.00  0.00    -0.338 C  
HETATM   23  C   UNL     1     -10.066  10.946  64.356  1.00  0.00    -0.402 C  
HETATM   24  C   UNL     1     -10.621  11.881  63.294  1.00  0.00    -0.420 C  
ENDBRANCH   4  22
BRANCH  13  25
HETATM   25  C   UNL     1      -8.386   6.759  67.462  1.00  0.00    -0.122 A  
HETATM   26  C   UNL     1      -7.711   4.751  66.268  1.00  0.00    -0.091 A  
HETATM   27  C   UNL     1      -9.999   5.064  66.827  1.00  0.00    -0.242 A  
HETATM   28  C   UNL     1      -9.706   6.321  67.377  1.00  0.00    -0.137 A  
HETATM   29  C   UNL     1      -7.414   6.011  66.785  1.00  0.00    -0.087 A  
HETATM   30  C   UNL     1      -8.996   4.211  66.342  1.00  0.00    -0.124 A  
BRANCH  30  31
HETATM   31  N   UNL     1      -9.235   2.898  65.987  1.00  0.00    -0.129 NA 
HETATM   32  C   UNL     1      -9.020   1.789  66.901  1.00  0.00    -0.109 C  
HETATM   33  C   UNL     1      -9.636   2.543  64.628  1.00  0.00    -0.081 C  
ENDBRANCH  30  31
ENDBRANCH  13  25
TORSDOF 3
ENDMDL
MODEL       29
REMARK 921   NORMALIZED FREE ENERGY PREDICTED BY IDOCK:   -4.82 KCAL/MOL
REMARK 922        TOTAL FREE ENERGY PREDICTED BY IDOCK:   -6.30 KCAL/MOL
REMARK 923 INTER-LIGAND FREE ENERGY PREDICTED BY IDOCK:   -5.49 KCAL/MOL
REMARK 924 INTRA-LIGAND FREE ENERGY PREDICTED BY IDOCK:   -0.80 KCAL/MOL
REMARK 927      BINDING AFFINITY PREDICTED BY RF-SCORE:    0.00 PKD
ROOT
HETATM    1  C   UNL     1     -10.677  14.580  68.375  1.00  0.00    -0.246 C  
HETATM    2  C   UNL     1     -10.858  14.888  69.748  1.00  0.00    -0.255 C  
HETATM    3  C   UNL     1      -9.537  14.346  69.314  1.00  0.00     0.109 C  
HETATM    4  C   UNL     1      -9.162  14.333  67.275  1.00  0.00    -0.214 C  
HETATM    5  O   UNL     1      -7.871  14.362  66.627  1.00  0.00    -0.254 OA 
HETATM    6  C   UNL     1     -10.853  12.761  68.192  1.00  0.00    -0.249 C  
HETATM    7  C   UNL     1      -8.822  15.178  68.291  1.00  0.00    -0.173 C  
HETATM    8  C   UNL     1      -7.515  13.875  68.778  1.00  0.00    -0.114 C  
HETATM    9  C   UNL     1      -8.460  16.642  68.349  1.00  0.00    -0.216 C  
HETATM   10  C   UNL     1     -12.252  12.342  68.693  1.00  0.00     0.051 C  
HETATM   11  H   UNL     1      -7.700  14.356  65.692  1.00  0.00     0.000 HD 
HETATM   12  C   UNL     1     -12.382  11.108  69.588  1.00  0.00    -0.287 C  
HETATM   13  C   UNL     1      -8.076  12.240  68.400  1.00  0.00    -0.151 C  
HETATM   14  C   UNL     1      -9.631  11.798  68.737  1.00  0.00    -0.053 C  
HETATM   15  C   UNL     1     -11.170  10.325  70.002  1.00  0.00    -0.376 C  
HETATM   16  C   UNL     1     -11.386   9.269  70.808  1.00  0.00    -0.349 C  
HETATM   17  C   UNL     1      -9.847  10.723  69.564  1.00  0.00    -0.049 C  
HETATM   18  O   UNL     1     -10.629   7.452  72.060  1.00  0.00    -0.203 OA 
HETATM   19  C   UNL     1      -8.673   9.922  70.121  1.00  0.00    -0.142 C  
HETATM   20  C   UNL     1      -8.900   8.686  70.986  1.00  0.00    -0.235 C  
HETATM   21  C   UNL     1     -10.325   8.398  71.337  1.00  0.00    -0.222 C  
ENDROOT
BRANCH   4  22
HETATM   22  C   UNL     1      -9.917  15.186  66.101  1.00  0.00    -0.317 C  
HETATM   23  C   UNL     1     -10.774  15.514  65.175  1.00  0.00    -0.460 C  
HETATM   24  C   UNL     1     -11.772  15.896  64.094  1.00  0.00    -0.028 C  
ENDBRANCH   4  22
BRANCH  13  25
HETATM   25  C   UNL     1      -7.690  11.729  67.002  1.00  0.00    -0.158 A  
HETATM   26  C   UNL     1      -6.067  10.648  65.548  1.00  0.00    -0.105 A  
HETATM   27  C   UNL     1      -8.379  10.532  65.010  1.00  0.00    -0.140 A  
HETATM   28  C   UNL     1      -8.690  11.340  66.113  1.00  0.00    -0.179 A  
HETATM   29  C   UNL     1      -6.362  11.476  66.630  1.00  0.00    -0.103 A  
HETATM   30  C   UNL     1      -7.071  10.091  64.753  1.00  0.00    -0.137 A  
BRANCH  30  31
HETATM   31  N   UNL     1      -6.775   9.138  63.799  1.00  0.00    -0.089 NA 
HETATM   32  C   UNL     1      -6.757   9.433  62.377  1.00  0.00    -0.094 C  
HETATM   33  C   UNL     1      -6.548   7.744  64.170  1.00  0.00    -0.057 C  
ENDBRANCH  30  31
ENDBRANCH  13  25
TORSDOF 3
ENDMDL
MODEL       30
REMARK 921   NORMALIZED FREE ENERGY PREDICTED BY IDOCK:   -4.78 KCAL/MOL
REMARK 922        TOTAL FREE ENERGY PREDICTED BY IDOCK:   -6.25 KCAL/MOL
REMARK 923 INTER-LIGAND FREE ENERGY PREDICTED BY IDOCK:   -5.42 KCAL/MOL
REMARK 924 INTRA-LIGAND FREE ENERGY PREDICTED BY IDOCK:   -0.83 KCAL/MOL
REMARK 927      BINDING AFFINITY PREDICTED BY RF-SCORE:    0.00 PKD
ROOT
HETATM    1  C   UNL     1      -8.867   9.442  68.759  1.00  0.00    -0.132 C  
HETATM    2  C   UNL     1      -9.399   8.653  67.707  1.00  0.00    -0.157 C  
HETATM    3  C   UNL     1      -8.349   9.658  67.373  1.00  0.00    -0.114 C  
HETATM    4  C   UNL     1      -7.290  10.461  68.965  1.00  0.00    -0.097 C  
HETATM    5  O   UNL     1      -5.957  11.016  68.933  1.00  0.00    -0.040 OA 
HETATM    6  C   UNL     1      -9.676  11.088  68.675  1.00  0.00    -0.198 C  
HETATM    7  C   UNL     1      -7.039   9.456  68.077  1.00  0.00    -0.081 C  
HETATM    8  C   UNL     1      -6.642  10.831  66.815  1.00  0.00    -0.105 C  
HETATM    9  C   UNL     1      -6.170   8.223  68.120  1.00  0.00    -0.051 C  
HETATM   10  C   UNL     1     -11.202  10.903  68.814  1.00  0.00    -0.329 C  
HETATM   11  H   UNL     1      -5.472  11.384  69.663  1.00  0.00     0.000 HD 
HETATM   12  C   UNL     1     -12.135  11.674  67.878  1.00  0.00     0.040 C  
HETATM   13  C   UNL     1      -7.630  12.270  67.111  1.00  0.00    -0.118 C  
HETATM   14  C   UNL     1      -9.236  12.115  67.462  1.00  0.00    -0.182 C  
HETATM   15  C   UNL     1     -11.583  12.580  66.817  1.00  0.00    -0.446 C  
HETATM   16  C   UNL     1     -12.483  13.198  66.029  1.00  0.00    -0.330 C  
HETATM   17  C   UNL     1     -10.152  12.742  66.654  1.00  0.00    -0.248 C  
HETATM   18  O   UNL     1     -13.035  14.623  64.268  1.00  0.00    -0.508 OA 
HETATM   19  C   UNL     1      -9.692  13.606  65.482  1.00  0.00    -0.086 C  
HETATM   20  C   UNL     1     -10.695  14.362  64.616  1.00  0.00    -0.357 C  
HETATM   21  C   UNL     1     -12.135  14.102  64.923  1.00  0.00    -0.428 C  
ENDROOT
BRANCH   4  22
HETATM   22  C   UNL     1      -7.151   9.876  70.487  1.00  0.00    -0.110 C  
HETATM   23  C   UNL     1      -6.697   9.217  71.515  1.00  0.00    -0.020 C  
HETATM   24  C   UNL     1      -6.169   8.447  72.715  1.00  0.00    -0.085 C  
ENDBRANCH   4  22
BRANCH  13  25
HETATM   25  C   UNL     1      -6.997  13.308  68.053  1.00  0.00    -0.120 A  
HETATM   26  C   UNL     1      -5.303  15.006  68.454  1.00  0.00    -0.109 A  
HETATM   27  C   UNL     1      -7.359  15.103  69.641  1.00  0.00    -0.191 A  
HETATM   28  C   UNL     1      -7.781  13.911  69.035  1.00  0.00     0.026 A  
HETATM   29  C   UNL     1      -5.700  13.805  67.868  1.00  0.00    -0.116 A  
HETATM   30  C   UNL     1      -6.150  15.727  69.298  1.00  0.00    -0.133 A  
BRANCH  30  31
HETATM   31  N   UNL     1      -5.811  16.995  69.728  1.00  0.00    -0.211 NA 
HETATM   32  C   UNL     1      -5.272  17.254  71.052  1.00  0.00    -0.171 C  
HETATM   33  C   UNL     1      -6.064  18.168  68.895  1.00  0.00    -0.209 C  
ENDBRANCH  30  31
ENDBRANCH  13  25
TORSDOF 3
ENDMDL
MODEL       31
REMARK 921   NORMALIZED FREE ENERGY PREDICTED BY IDOCK:   -4.74 KCAL/MOL
REMARK 922        TOTAL FREE ENERGY PREDICTED BY IDOCK:   -6.21 KCAL/MOL
REMARK 923 INTER-LIGAND FREE ENERGY PREDICTED BY IDOCK:   -5.71 KCAL/MOL
REMARK 924 INTRA-LIGAND FREE ENERGY PREDICTED BY IDOCK:   -0.50 KCAL/MOL
REMARK 927      BINDING AFFINITY PREDICTED BY RF-SCORE:    0.00 PKD
ROOT
HETATM    1  C   UNL     1     -10.857  12.852  64.620  1.00  0.00    -0.365 C  
HETATM    2  C   UNL     1     -11.946  12.085  64.133  1.00  0.00    -0.461 C  
HETATM    3  C   UNL     1     -11.380  11.737  65.468  1.00  0.00    -0.283 C  
HETATM    4  C   UNL     1     -10.114  13.133  66.334  1.00  0.00    -0.281 C  
HETATM    5  O   UNL     1      -9.848  13.313  67.743  1.00  0.00    -0.212 OA 
HETATM    6  C   UNL     1      -9.327  11.875  64.342  1.00  0.00     0.186 C  
HETATM    7  C   UNL     1     -11.438  12.842  66.482  1.00  0.00    -0.390 C  
HETATM    8  C   UNL     1     -10.871  11.340  67.514  1.00  0.00    -0.292 C  
HETATM    9  C   UNL     1     -12.634  13.641  66.942  1.00  0.00    -0.012 C  
HETATM   10  C   UNL     1      -9.190  11.581  62.833  1.00  0.00    -0.229 C  
HETATM   11  H   UNL     1      -9.268  13.952  68.139  1.00  0.00     0.000 HD 
HETATM   12  C   UNL     1      -8.797  10.173  62.381  1.00  0.00    -0.261 C  
HETATM   13  C   UNL     1      -9.323  10.715  66.927  1.00  0.00    -0.180 C  
HETATM   14  C   UNL     1      -9.049  10.566  65.305  1.00  0.00    -0.220 C  
HETATM   15  C   UNL     1      -8.573   9.078  63.382  1.00  0.00    -0.145 C  
HETATM   16  C   UNL     1      -8.252   7.869  62.885  1.00  0.00    -0.067 C  
HETATM   17  C   UNL     1      -8.727   9.330  64.801  1.00  0.00    -0.220 C  
HETATM   18  O   UNL     1      -7.721   5.613  63.152  1.00  0.00    -0.071 OA 
HETATM   19  C   UNL     1      -8.576   8.127  65.729  1.00  0.00    -0.175 C  
HETATM   20  C   UNL     1      -8.154   6.763  65.191  1.00  0.00    -0.132 C  
HETATM   21  C   UNL     1      -8.019   6.670  63.705  1.00  0.00    -0.072 C  
ENDROOT
BRANCH   4  22
HETATM   22  C   UNL     1      -9.954  14.720  65.968  1.00  0.00    -0.336 C  
HETATM   23  C   UNL     1     -10.031  16.017  66.058  1.00  0.00    -0.365 C  
HETATM   24  C   UNL     1     -10.122  17.532  66.161  1.00  0.00    -0.317 C  
ENDBRANCH   4  22
BRANCH  13  25
HETATM   25  C   UNL     1      -8.081  11.321  67.602  1.00  0.00    -0.119 A  
HETATM   26  C   UNL     1      -6.429  13.101  67.722  1.00  0.00    -0.153 A  
HETATM   27  C   UNL     1      -6.949  11.857  69.678  1.00  0.00     0.132 A  
HETATM   28  C   UNL     1      -7.825  11.043  68.944  1.00  0.00    -0.138 A  
HETATM   29  C   UNL     1      -7.274  12.281  66.977  1.00  0.00    -0.039 A  
HETATM   30  C   UNL     1      -6.300  12.962  69.106  1.00  0.00    -0.105 A  
BRANCH  30  31
HETATM   31  N   UNL     1      -5.600  13.889  69.851  1.00  0.00    -0.102 NA 
HETATM   32  C   UNL     1      -5.344  13.719  71.271  1.00  0.00    -0.191 C  
HETATM   33  C   UNL     1      -5.151  15.148  69.262  1.00  0.00    -0.091 C  
ENDBRANCH  30  31
ENDBRANCH  13  25
TORSDOF 3
ENDMDL
MODEL       32
REMARK 921   NORMALIZED FREE ENERGY PREDICTED BY IDOCK:   -4.72 KCAL/MOL
REMARK 922        TOTAL FREE ENERGY PREDICTED BY IDOCK:   -6.18 KCAL/MOL
REMARK 923 INTER-LIGAND FREE ENERGY PREDICTED BY IDOCK:   -5.49 KCAL/MOL
REMARK 924 INTRA-LIGAND FREE ENERGY PREDICTED BY IDOCK:   -0.69 KCAL/MOL
REMARK 927      BINDING AFFINITY PREDICTED BY RF-SCORE:    0.00 PKD
ROOT
HETATM    1  C   UNL     1     -10.284  15.036  70.251  1.00  0.00     0.061 C  
HETATM    2  C   UNL     1     -10.293  16.137  71.146  1.00  0.00     1.253 C  
HETATM    3  C   UNL     1     -10.938  16.308  69.812  1.00  0.00    -0.354 C  
HETATM    4  C   UNL     1     -11.301  14.579  68.725  1.00  0.00    -0.274 C  
HETATM    5  O   UNL     1     -12.313  14.382  67.713  1.00  0.00    -0.620 OA 
HETATM    6  C   UNL     1      -8.954  15.338  69.021  1.00  0.00    -0.225 C  
HETATM    7  C   UNL     1     -12.070  15.362  69.535  1.00  0.00    -0.332 C  
HETATM    8  C   UNL     1     -12.160  16.582  68.070  1.00  0.00     1.026 C  
HETATM    9  C   UNL     1     -13.310  15.107  70.357  1.00  0.00    -0.080 C  
HETATM   10  C   UNL     1      -7.609  15.480  69.765  1.00  0.00    -0.065 C  
HETATM   11  H   UNL     1     -12.478  13.590  67.216  1.00  0.00     0.000 HD 
HETATM   12  C   UNL     1      -6.653  16.606  69.366  1.00  0.00    -0.222 C  
HETATM   13  C   UNL     1     -10.672  16.536  67.113  1.00  0.00    -0.220 C  
HETATM   14  C   UNL     1      -9.203  16.487  67.866  1.00  0.00    -0.211 C  
HETATM   15  C   UNL     1      -7.019  17.581  68.286  1.00  0.00    -0.210 C  
HETATM   16  C   UNL     1      -6.121  18.548  68.021  1.00  0.00    -0.192 C  
HETATM   17  C   UNL     1      -8.291  17.478  67.597  1.00  0.00    -0.215 C  
HETATM   18  O   UNL     1      -5.424  20.438  66.846  1.00  0.00    -0.167 OA 
HETATM   19  C   UNL     1      -8.611  18.577  66.587  1.00  0.00    -0.295 C  
HETATM   20  C   UNL     1      -7.582  19.645  66.230  1.00  0.00    -0.319 C  
HETATM   21  C   UNL     1      -6.312  19.605  67.017  1.00  0.00    -0.187 C  
ENDROOT
BRANCH   4  22
HETATM   22  C   UNL     1     -11.356  13.036  69.266  1.00  0.00    -0.310 C  
HETATM   23  C   UNL     1     -11.825  11.892  69.677  1.00  0.00    -0.406 C  
HETATM   24  C   UNL     1     -12.372  10.557  70.159  1.00  0.00    -0.339 C  
ENDBRANCH   4  22
BRANCH  13  25
HETATM   25  C   UNL     1     -10.683  15.535  65.945  1.00  0.00    -0.346 A  
HETATM   26  C   UNL     1     -10.037  13.372  65.043  1.00  0.00    -0.261 A  
HETATM   27  C   UNL     1     -11.975  14.457  64.200  1.00  0.00    -0.373 A  
HETATM   28  C   UNL     1     -11.732  15.563  65.027  1.00  0.00    -0.041 A  
HETATM   29  C   UNL     1      -9.769  14.478  65.848  1.00  0.00    -0.324 A  
HETATM   30  C   UNL     1     -11.186  13.298  64.254  1.00  0.00    -0.387 A  
BRANCH  30  31
HETATM   31  N   UNL     1     -11.525  12.129  63.601  1.00  0.00    -0.451 NA 
HETATM   32  C   UNL     1     -12.892  11.812  63.224  1.00  0.00    -0.085 C  
HETATM   33  C   UNL     1     -10.528  11.096  63.333  1.00  0.00    -0.317 C  
ENDBRANCH  30  31
ENDBRANCH  13  25
TORSDOF 3
ENDMDL
MODEL       33
REMARK 921   NORMALIZED FREE ENERGY PREDICTED BY IDOCK:   -4.65 KCAL/MOL
REMARK 922        TOTAL FREE ENERGY PREDICTED BY IDOCK:   -6.09 KCAL/MOL
REMARK 923 INTER-LIGAND FREE ENERGY PREDICTED BY IDOCK:   -5.45 KCAL/MOL
REMARK 924 INTRA-LIGAND FREE ENERGY PREDICTED BY IDOCK:   -0.64 KCAL/MOL
REMARK 927      BINDING AFFINITY PREDICTED BY RF-SCORE:    0.00 PKD
ROOT
HETATM    1  C   UNL     1      -8.682  10.915  66.358  1.00  0.00    -0.174 C  
HETATM    2  C   UNL     1      -9.522  11.002  65.218  1.00  0.00    -0.259 C  
HETATM    3  C   UNL     1     -10.078  10.388  66.458  1.00  0.00    -0.285 C  
HETATM    4  C   UNL     1      -9.000  10.679  68.205  1.00  0.00    -0.143 C  
HETATM    5  O   UNL     1      -9.509  10.663  69.557  1.00  0.00    -0.395 OA 
HETATM    6  C   UNL     1      -8.062   9.188  66.453  1.00  0.00    -0.107 C  
HETATM    7  C   UNL     1     -10.088  11.290  67.657  1.00  0.00    -0.201 C  
HETATM    8  C   UNL     1     -11.089   9.777  68.249  1.00  0.00    -0.158 C  
HETATM    9  C   UNL     1     -10.688  12.669  67.797  1.00  0.00    -0.239 C  
HETATM   10  C   UNL     1      -7.298   8.860  65.153  1.00  0.00    -0.092 C  
HETATM   11  H   UNL     1      -9.015  10.797  70.357  1.00  0.00     0.000 HD 
HETATM   12  C   UNL     1      -7.543   7.516  64.464  1.00  0.00    -0.110 C  
HETATM   13  C   UNL     1     -10.100   8.309  68.215  1.00  0.00    -0.231 C  
HETATM   14  C   UNL     1      -9.109   8.007  66.929  1.00  0.00    -0.182 C  
HETATM   15  C   UNL     1      -8.532   6.534  65.021  1.00  0.00    -0.017 C  
HETATM   16  C   UNL     1      -8.692   5.389  64.332  1.00  0.00    -0.002 C  
HETATM   17  C   UNL     1      -9.279   6.840  66.225  1.00  0.00    -0.161 C  
HETATM   18  O   UNL     1      -9.695   3.308  64.013  1.00  0.00    -0.136 OA 
HETATM   19  C   UNL     1     -10.332   5.820  66.653  1.00  0.00    -0.300 C  
HETATM   20  C   UNL     1     -10.487   4.491  65.921  1.00  0.00    -0.262 C  
HETATM   21  C   UNL     1      -9.630   4.320  64.707  1.00  0.00    -0.166 C  
ENDROOT
BRANCH   4  22
HETATM   22  C   UNL     1      -7.853  11.805  68.512  1.00  0.00    -0.144 C  
HETATM   23  C   UNL     1      -7.286  12.904  68.923  1.00  0.00    -0.042 C  
HETATM   24  C   UNL     1      -6.624  14.187  69.400  1.00  0.00    -0.121 C  
ENDBRANCH   4  22
BRANCH  13  25
HETATM   25  C   UNL     1      -9.351   8.002  69.522  1.00  0.00    -0.156 A  
HETATM   26  C   UNL     1      -7.265   7.947  70.771  1.00  0.00    -0.053 A  
HETATM   27  C   UNL     1      -9.321   8.173  71.940  1.00  0.00    -0.251 A  
HETATM   28  C   UNL     1     -10.032   8.070  70.736  1.00  0.00    -0.202 A  
HETATM   29  C   UNL     1      -7.963   7.814  69.572  1.00  0.00    -0.117 A  
HETATM   30  C   UNL     1      -7.918   8.206  71.978  1.00  0.00    -0.124 A  
BRANCH  30  31
HETATM   31  N   UNL     1      -7.205   8.509  73.121  1.00  0.00    -0.312 NA 
HETATM   32  C   UNL     1      -5.816   8.935  73.085  1.00  0.00    -0.066 C  
HETATM   33  C   UNL     1      -7.790   8.330  74.447  1.00  0.00    -0.244 C  
ENDBRANCH  30  31
ENDBRANCH  13  25
TORSDOF 3
ENDMDL
MODEL       34
REMARK 921   NORMALIZED FREE ENERGY PREDICTED BY IDOCK:   -4.64 KCAL/MOL
REMARK 922        TOTAL FREE ENERGY PREDICTED BY IDOCK:   -6.09 KCAL/MOL
REMARK 923 INTER-LIGAND FREE ENERGY PREDICTED BY IDOCK:   -5.13 KCAL/MOL
REMARK 924 INTRA-LIGAND FREE ENERGY PREDICTED BY IDOCK:   -0.96 KCAL/MOL
REMARK 927      BINDING AFFINITY PREDICTED BY RF-SCORE:    0.00 PKD
ROOT
HETATM    1  C   UNL     1      -8.549   7.047  71.925  1.00  0.00    -0.122 C  
HETATM    2  C   UNL     1      -8.587   8.340  72.508  1.00  0.00    -0.273 C  
HETATM    3  C   UNL     1      -9.472   8.068  71.339  1.00  0.00    -0.194 C  
HETATM    4  C   UNL     1      -9.723   6.080  70.805  1.00  0.00    -0.175 C  
HETATM    5  O   UNL     1     -10.847   5.500  70.107  1.00  0.00    -0.306 OA 
HETATM    6  C   UNL     1      -7.521   7.159  70.407  1.00  0.00    -0.084 C  
HETATM    7  C   UNL     1     -10.460   6.957  71.544  1.00  0.00    -0.231 C  
HETATM    8  C   UNL     1     -11.005   7.717  69.880  1.00  0.00    -0.208 C  
HETATM    9  C   UNL     1     -11.479   6.790  72.646  1.00  0.00    -0.218 C  
HETATM   10  C   UNL     1      -6.111   7.653  70.794  1.00  0.00    -0.034 C  
HETATM   11  H   UNL     1     -10.961   4.589  69.862  1.00  0.00     0.000 HD 
HETATM   12  C   UNL     1      -5.440   8.732  69.942  1.00  0.00    -0.029 C  
HETATM   13  C   UNL     1      -9.719   7.588  68.672  1.00  0.00    -0.154 C  
HETATM   14  C   UNL     1      -8.154   7.916  69.087  1.00  0.00    -0.124 C  
HETATM   15  C   UNL     1      -6.146   9.329  68.760  1.00  0.00    -0.044 C  
HETATM   16  C   UNL     1      -5.482  10.287  68.087  1.00  0.00    -0.034 C  
HETATM   17  C   UNL     1      -7.482   8.896  68.401  1.00  0.00    -0.086 C  
HETATM   18  O   UNL     1      -5.325  11.857  66.369  1.00  0.00    -0.324 OA 
HETATM   19  C   UNL     1      -8.151   9.637  67.245  1.00  0.00    -0.110 C  
HETATM   20  C   UNL     1      -7.394  10.681  66.432  1.00  0.00    -0.138 C  
HETATM   21  C   UNL     1      -6.018  11.004  66.920  1.00  0.00    -0.088 C  
ENDROOT
BRANCH   4  22
HETATM   22  C   UNL     1      -9.424   4.744  71.702  1.00  0.00    -0.206 C  
HETATM   23  C   UNL     1      -9.311   3.492  72.046  1.00  0.00    -0.185 C  
HETATM   24  C   UNL     1      -9.179   2.032  72.448  1.00  0.00    -0.121 C  
ENDBRANCH   4  22
BRANCH  13  25
HETATM   25  C   UNL     1      -9.764   6.314  67.810  1.00  0.00    -0.122 A  
HETATM   26  C   UNL     1     -10.753   5.073  65.967  1.00  0.00    -0.241 A  
HETATM   27  C   UNL     1      -8.510   4.623  66.610  1.00  0.00    -0.105 A  
HETATM   28  C   UNL     1      -8.612   5.545  67.661  1.00  0.00    -0.108 A  
HETATM   29  C   UNL     1     -10.874   5.971  67.027  1.00  0.00    -0.413 A  
HETATM   30  C   UNL     1      -9.546   4.431  65.683  1.00  0.00    -0.187 A  
BRANCH  30  31
HETATM   31  N   UNL     1      -9.393   3.685  64.531  1.00  0.00    -0.139 NA 
HETATM   32  C   UNL     1     -10.516   3.313  63.686  1.00  0.00    -0.244 C  
HETATM   33  C   UNL     1      -8.091   3.147  64.145  1.00  0.00    -0.082 C  
ENDBRANCH  30  31
ENDBRANCH  13  25
TORSDOF 3
ENDMDL
MODEL       35
REMARK 921   NORMALIZED FREE ENERGY PREDICTED BY IDOCK:   -4.64 KCAL/MOL
REMARK 922        TOTAL FREE ENERGY PREDICTED BY IDOCK:   -6.09 KCAL/MOL
REMARK 923 INTER-LIGAND FREE ENERGY PREDICTED BY IDOCK:   -5.20 KCAL/MOL
REMARK 924 INTRA-LIGAND FREE ENERGY PREDICTED BY IDOCK:   -0.88 KCAL/MOL
REMARK 927      BINDING AFFINITY PREDICTED BY RF-SCORE:    0.00 PKD
ROOT
HETATM    1  C   UNL     1      -8.928  11.138  69.417  1.00  0.00     0.301 C  
HETATM    2  C   UNL     1      -9.035  12.441  68.865  1.00  0.00     0.292 C  
HETATM    3  C   UNL     1      -9.786  11.332  68.207  1.00  0.00    -0.199 C  
HETATM    4  C   UNL     1      -9.968   9.567  69.279  1.00  0.00    -0.187 C  
HETATM    5  O   UNL     1     -11.007   8.572  69.148  1.00  0.00    -0.422 OA 
HETATM    6  C   UNL     1      -7.740  10.197  68.380  1.00  0.00    -0.089 C  
HETATM    7  C   UNL     1     -10.786  10.642  69.087  1.00  0.00    -0.264 C  
HETATM    8  C   UNL     1     -11.148   9.907  67.363  1.00  0.00    -0.101 C  
HETATM    9  C   UNL     1     -11.919  11.243  69.883  1.00  0.00    -0.440 C  
HETATM   10  C   UNL     1      -6.383  10.933  68.383  1.00  0.00    -0.053 C  
HETATM   11  H   UNL     1     -11.090   7.763  69.640  1.00  0.00     0.000 HD 
HETATM   12  C   UNL     1      -5.627  11.106  67.064  1.00  0.00    -0.076 C  
HETATM   13  C   UNL     1      -9.737   9.048  66.730  1.00  0.00    -0.279 C  
HETATM   14  C   UNL     1      -8.228   9.703  66.884  1.00  0.00    -0.113 C  
HETATM   15  C   UNL     1      -6.201  10.597  65.775  1.00  0.00    -0.126 C  
HETATM   16  C   UNL     1      -5.471  10.816  64.666  1.00  0.00    -0.045 C  
HETATM   17  C   UNL     1      -7.488   9.930  65.751  1.00  0.00    -0.110 C  
HETATM   18  O   UNL     1      -5.133  10.654  62.363  1.00  0.00    -0.105 OA 
HETATM   19  C   UNL     1      -8.029   9.540  64.377  1.00  0.00    -0.135 C  
HETATM   20  C   UNL     1      -7.191   9.725  63.116  1.00  0.00    -0.119 C  
HETATM   21  C   UNL     1      -5.878  10.413  63.311  1.00  0.00    -0.144 C  
ENDROOT
BRANCH   4  22
HETATM   22  C   UNL     1      -9.765   9.332  70.886  1.00  0.00    -0.346 C  
HETATM   23  C   UNL     1      -9.378   8.806  72.014  1.00  0.00    -0.322 C  
HETATM   24  C   UNL     1      -8.928   8.192  73.329  1.00  0.00    -0.332 C  
ENDBRANCH   4  22
BRANCH  13  25
HETATM   25  C   UNL     1      -9.682   7.549  67.073  1.00  0.00    -0.257 A  
HETATM   26  C   UNL     1     -10.558   5.302  66.762  1.00  0.00    -0.309 A  
HETATM   27  C   UNL     1      -8.298   5.592  67.434  1.00  0.00    -0.100 A  
HETATM   28  C   UNL     1      -8.477   6.982  67.482  1.00  0.00    -0.122 A  
HETATM   29  C   UNL     1     -10.755   6.680  66.836  1.00  0.00    -0.401 A  
HETATM   30  C   UNL     1      -9.306   4.726  66.985  1.00  0.00    -0.134 A  
BRANCH  30  31
HETATM   31  N   UNL     1      -9.088   3.385  66.737  1.00  0.00    -0.156 NA 
HETATM   32  C   UNL     1      -8.901   2.859  65.395  1.00  0.00    -0.130 C  
HETATM   33  C   UNL     1      -9.123   2.401  67.815  1.00  0.00    -0.182 C  
ENDBRANCH  30  31
ENDBRANCH  13  25
TORSDOF 3
ENDMDL
MODEL       36
REMARK 921   NORMALIZED FREE ENERGY PREDICTED BY IDOCK:   -4.59 KCAL/MOL
REMARK 922        TOTAL FREE ENERGY PREDICTED BY IDOCK:   -6.03 KCAL/MOL
REMARK 923 INTER-LIGAND FREE ENERGY PREDICTED BY IDOCK:   -7.92 KCAL/MOL
REMARK 924 INTRA-LIGAND FREE ENERGY PREDICTED BY IDOCK:    1.89 KCAL/MOL
REMARK 927      BINDING AFFINITY PREDICTED BY RF-SCORE:    0.00 PKD
ROOT
HETATM    1  C   UNL     1      -7.972  10.389  67.936  1.00  0.00    -0.102 C  
HETATM    2  C   UNL     1      -7.601   9.061  67.602  1.00  0.00    -0.093 C  
HETATM    3  C   UNL     1      -9.054   9.376  67.736  1.00  0.00    -0.134 C  
HETATM    4  C   UNL     1      -9.571  11.383  67.777  1.00  0.00    -0.172 C  
HETATM    5  O   UNL     1     -10.836  11.965  67.393  1.00  0.00    -0.222 OA 
HETATM    6  C   UNL     1      -8.377  10.413  69.728  1.00  0.00    -0.018 C  
HETATM    7  C   UNL     1      -9.556  10.434  66.798  1.00  0.00    -0.209 C  
HETATM    8  C   UNL     1     -11.158   9.764  67.589  1.00  0.00    -0.118 C  
HETATM    9  C   UNL     1      -9.446  10.493  65.293  1.00  0.00    -0.281 C  
HETATM   10  C   UNL     1      -7.141   9.946  70.525  1.00  0.00    -0.110 C  
HETATM   11  H   UNL     1     -11.072  12.885  67.413  1.00  0.00     0.000 HD 
HETATM   12  C   UNL     1      -7.327   8.949  71.671  1.00  0.00    -0.053 C  
HETATM   13  C   UNL     1     -11.156  10.016  69.340  1.00  0.00    -0.265 C  
HETATM   14  C   UNL     1      -9.790   9.719  70.220  1.00  0.00    -0.296 C  
HETATM   15  C   UNL     1      -8.684   8.404  72.004  1.00  0.00    -0.267 C  
HETATM   16  C   UNL     1      -8.742   7.516  73.015  1.00  0.00    -0.195 C  
HETATM   17  C   UNL     1      -9.851   8.810  71.246  1.00  0.00    -0.336 C  
HETATM   18  O   UNL     1      -9.921   6.066  74.410  1.00  0.00    -0.225 OA 
HETATM   19  C   UNL     1     -11.168   8.122  71.599  1.00  0.00    -0.314 C  
HETATM   20  C   UNL     1     -11.265   7.159  72.778  1.00  0.00    -0.314 C  
HETATM   21  C   UNL     1      -9.975   6.857  73.470  1.00  0.00    -0.262 C  
ENDROOT
BRANCH   4  22
HETATM   22  C   UNL     1      -8.683  12.668  67.289  1.00  0.00    -0.198 C  
HETATM   23  C   UNL     1      -8.142  13.854  67.267  1.00  0.00    -0.162 C  
HETATM   24  C   UNL     1      -7.512  15.237  67.241  1.00  0.00    -0.236 C  
ENDBRANCH   4  22
BRANCH  13  25
HETATM   25  C   UNL     1     -11.787  11.340  69.804  1.00  0.00    -0.437 A  
HETATM   26  C   UNL     1     -12.977  12.602  71.509  1.00  0.00    -0.380 A  
HETATM   27  C   UNL     1     -11.571  13.748  69.975  1.00  0.00    -0.265 A  
HETATM   28  C   UNL     1     -11.295  12.546  69.308  1.00  0.00    -0.307 A  
HETATM   29  C   UNL     1     -12.732  11.406  70.836  1.00  0.00    -0.397 A  
HETATM   30  C   UNL     1     -12.345  13.792  71.144  1.00  0.00    -0.345 A  
BRANCH  30  31
HETATM   31  N   UNL     1     -12.461  14.925  71.926  1.00  0.00    -0.318 NA 
HETATM   32  C   UNL     1     -13.168  14.931  73.195  1.00  0.00    -0.461 C  
HETATM   33  C   UNL     1     -11.949  16.214  71.468  1.00  0.00    -0.430 C  
ENDBRANCH  30  31
ENDBRANCH  13  25
TORSDOF 3
ENDMDL
MODEL       37
REMARK 921   NORMALIZED FREE ENERGY PREDICTED BY IDOCK:   -4.56 KCAL/MOL
REMARK 922        TOTAL FREE ENERGY PREDICTED BY IDOCK:   -5.99 KCAL/MOL
REMARK 923 INTER-LIGAND FREE ENERGY PREDICTED BY IDOCK:   -5.36 KCAL/MOL
REMARK 924 INTRA-LIGAND FREE ENERGY PREDICTED BY IDOCK:   -0.63 KCAL/MOL
REMARK 927      BINDING AFFINITY PREDICTED BY RF-SCORE:    0.00 PKD
ROOT
HETATM    1  C   UNL     1     -11.094   7.299  70.432  1.00  0.00    -0.291 C  
HETATM    2  C   UNL     1     -11.059   5.930  70.804  1.00  0.00    -0.324 C  
HETATM    3  C   UNL     1      -9.798   6.721  70.904  1.00  0.00    -0.197 C  
HETATM    4  C   UNL     1      -9.982   8.783  70.788  1.00  0.00    -0.213 C  
HETATM    5  O   UNL     1      -9.083   9.771  71.339  1.00  0.00    -0.194 OA 
HETATM    6  C   UNL     1     -10.380   7.428  68.744  1.00  0.00    -0.209 C  
HETATM    7  C   UNL     1      -9.870   7.904  71.824  1.00  0.00    -0.223 C  
HETATM    8  C   UNL     1      -8.014   7.810  71.388  1.00  0.00    -0.097 C  
HETATM    9  C   UNL     1     -10.283   7.948  73.276  1.00  0.00    -0.297 C  
HETATM   10  C   UNL     1     -11.210   6.552  67.782  1.00  0.00    -0.261 C  
HETATM   11  H   UNL     1      -9.168  10.715  71.286  1.00  0.00     0.000 HD 
HETATM   12  C   UNL     1     -10.484   5.659  66.774  1.00  0.00    -0.353 C  
HETATM   13  C   UNL     1      -7.760   8.016  69.649  1.00  0.00    -0.102 C  
HETATM   14  C   UNL     1      -8.750   7.253  68.569  1.00  0.00    -0.123 C  
HETATM   15  C   UNL     1      -8.985   5.606  66.732  1.00  0.00    -0.116 C  
HETATM   16  C   UNL     1      -8.440   4.775  65.825  1.00  0.00    -0.119 C  
HETATM   17  C   UNL     1      -8.191   6.401  67.648  1.00  0.00    -0.118 C  
HETATM   18  O   UNL     1      -6.598   3.792  64.785  1.00  0.00    -0.040 OA 
HETATM   19  C   UNL     1      -6.678   6.200  67.592  1.00  0.00    -0.058 C  
HETATM   20  C   UNL     1      -6.039   5.309  66.533  1.00  0.00    -0.027 C  
HETATM   21  C   UNL     1      -6.994   4.570  65.651  1.00  0.00    -0.062 C  
ENDROOT
BRANCH   4  22
HETATM   22  C   UNL     1     -11.324   9.694  71.003  1.00  0.00    -0.444 C  
HETATM   23  C   UNL     1     -12.135  10.599  71.475  1.00  0.00    -0.261 C  
HETATM   24  C   UNL     1     -13.081  11.653  72.026  1.00  0.00    -0.433 C  
ENDBRANCH   4  22
BRANCH  13  25
HETATM   25  C   UNL     1      -7.529   9.467  69.195  1.00  0.00    -0.073 A  
HETATM   26  C   UNL     1      -8.328  11.440  68.020  1.00  0.00    -0.143 A  
HETATM   27  C   UNL     1      -6.762  11.688  69.789  1.00  0.00    -0.013 A  
HETATM   28  C   UNL     1      -6.696  10.296  69.944  1.00  0.00    -0.125 A  
HETATM   29  C   UNL     1      -8.249  10.054  68.146  1.00  0.00    -0.109 A  
HETATM   30  C   UNL     1      -7.647  12.297  68.886  1.00  0.00     0.021 A  
BRANCH  30  31
HETATM   31  N   UNL     1      -7.873  13.659  68.860  1.00  0.00    -0.031 NA 
HETATM   32  C   UNL     1      -8.929  14.261  68.064  1.00  0.00    -0.183 C  
HETATM   33  C   UNL     1      -6.996  14.585  69.572  1.00  0.00    -0.147 C  
ENDBRANCH  30  31
ENDBRANCH  13  25
TORSDOF 3
ENDMDL
MODEL       38
REMARK 921   NORMALIZED FREE ENERGY PREDICTED BY IDOCK:   -4.52 KCAL/MOL
REMARK 922        TOTAL FREE ENERGY PREDICTED BY IDOCK:   -5.95 KCAL/MOL
REMARK 923 INTER-LIGAND FREE ENERGY PREDICTED BY IDOCK:   -5.16 KCAL/MOL
REMARK 924 INTRA-LIGAND FREE ENERGY PREDICTED BY IDOCK:   -0.78 KCAL/MOL
REMARK 927      BINDING AFFINITY PREDICTED BY RF-SCORE:    0.00 PKD
ROOT
HETATM    1  C   UNL     1      -8.901   7.821  71.109  1.00  0.00    -0.143 C  
HETATM    2  C   UNL     1      -9.128   8.601  72.272  1.00  0.00    -0.267 C  
HETATM    3  C   UNL     1      -9.786   9.022  71.001  1.00  0.00    -0.352 C  
HETATM    4  C   UNL     1      -9.801   7.637  69.458  1.00  0.00    -0.178 C  
HETATM    5  O   UNL     1     -10.750   7.552  68.372  1.00  0.00    -0.340 OA 
HETATM    6  C   UNL     1      -7.647   8.699  70.094  1.00  0.00    -0.069 C  
HETATM    7  C   UNL     1     -10.712   8.002  70.405  1.00  0.00    -0.233 C  
HETATM    8  C   UNL     1     -11.028   9.549  69.334  1.00  0.00    -0.192 C  
HETATM    9  C   UNL     1     -11.884   7.300  71.048  1.00  0.00    -0.352 C  
HETATM   10  C   UNL     1      -6.360   8.869  70.928  1.00  0.00    -0.054 C  
HETATM   11  H   UNL     1     -10.756   6.917  67.665  1.00  0.00     0.000 HD 
HETATM   12  C   UNL     1      -5.637  10.218  70.915  1.00  0.00    -0.089 C  
HETATM   13  C   UNL     1      -9.554  10.052  68.493  1.00  0.00    -0.157 C  
HETATM   14  C   UNL     1      -8.107  10.063  69.290  1.00  0.00    -0.141 C  
HETATM   15  C   UNL     1      -6.180  11.374  70.128  1.00  0.00    -0.138 C  
HETATM   16  C   UNL     1      -5.484  12.525  70.196  1.00  0.00    -0.126 C  
HETATM   17  C   UNL     1      -7.403  11.239  69.362  1.00  0.00    -0.027 C  
HETATM   18  O   UNL     1      -5.160  14.766  69.636  1.00  0.00    -0.089 OA 
HETATM   19  C   UNL     1      -7.924  12.501  68.679  1.00  0.00    -0.029 C  
HETATM   20  C   UNL     1      -7.120  13.797  68.695  1.00  0.00    -0.104 C  
HETATM   21  C   UNL     1      -5.871  13.770  69.515  1.00  0.00    -0.101 C  
ENDROOT
BRANCH   4  22
HETATM   22  C   UNL     1      -9.559   6.021  69.545  1.00  0.00    -0.171 C  
HETATM   23  C   UNL     1      -9.402   4.778  69.184  1.00  0.00    -0.195 C  
HETATM   24  C   UNL     1      -9.221   3.329  68.763  1.00  0.00    -0.228 C  
ENDBRANCH   4  22
BRANCH  13  25
HETATM   25  C   UNL     1      -9.365   9.439  67.095  1.00  0.00    -0.172 A  
HETATM   26  C   UNL     1      -9.634   9.613  64.684  1.00  0.00    -0.147 A  
HETATM   27  C   UNL     1      -7.893   8.261  65.571  1.00  0.00    -0.107 A  
HETATM   28  C   UNL     1      -8.326   8.537  66.876  1.00  0.00    -0.109 A  
HETATM   29  C   UNL     1     -10.090   9.870  65.976  1.00  0.00    -0.314 A  
HETATM   30  C   UNL     1      -8.480   8.864  64.448  1.00  0.00    -0.153 A  
BRANCH  30  31
HETATM   31  N   UNL     1      -7.945   8.766  63.178  1.00  0.00    -0.151 NA 
HETATM   32  C   UNL     1      -7.681   7.490  62.537  1.00  0.00    -0.120 C  
HETATM   33  C   UNL     1      -7.528   9.956  62.441  1.00  0.00    -0.115 C  
ENDBRANCH  30  31
ENDBRANCH  13  25
TORSDOF 3
ENDMDL
MODEL       39
REMARK 921   NORMALIZED FREE ENERGY PREDICTED BY IDOCK:   -4.49 KCAL/MOL
REMARK 922        TOTAL FREE ENERGY PREDICTED BY IDOCK:   -5.91 KCAL/MOL
REMARK 923 INTER-LIGAND FREE ENERGY PREDICTED BY IDOCK:   -5.68 KCAL/MOL
REMARK 924 INTRA-LIGAND FREE ENERGY PREDICTED BY IDOCK:   -0.23 KCAL/MOL
REMARK 927      BINDING AFFINITY PREDICTED BY RF-SCORE:    0.00 PKD
ROOT
HETATM    1  C   UNL     1      -6.923  16.968  68.240  1.00  0.00    -0.180 C  
HETATM    2  C   UNL     1      -5.801  16.652  67.432  1.00  0.00    -0.187 C  
HETATM    3  C   UNL     1      -7.096  15.972  67.138  1.00  0.00    -0.248 C  
HETATM    4  C   UNL     1      -8.790  16.773  68.026  1.00  0.00    -0.216 C  
HETATM    5  O   UNL     1     -10.151  16.674  67.553  1.00  0.00    -0.260 OA 
HETATM    6  C   UNL     1      -7.126  15.605  69.454  1.00  0.00    -0.198 C  
HETATM    7  C   UNL     1      -8.226  16.896  66.790  1.00  0.00    -0.275 C  
HETATM    8  C   UNL     1      -8.950  15.170  66.419  1.00  0.00    -0.314 C  
HETATM    9  C   UNL     1      -8.281  17.963  65.723  1.00  0.00     0.193 C  
HETATM   10  C   UNL     1      -5.834  15.484  70.290  1.00  0.00    -0.132 C  
HETATM   11  H   UNL     1     -10.927  17.041  67.961  1.00  0.00     0.000 HD 
HETATM   12  C   UNL     1      -5.251  14.096  70.562  1.00  0.00    -0.109 C  
HETATM   13  C   UNL     1      -8.997  14.173  67.880  1.00  0.00    -0.185 C  
HETATM   14  C   UNL     1      -7.712  14.160  68.917  1.00  0.00    -0.091 C  
HETATM   15  C   UNL     1      -5.902  12.864  70.005  1.00  0.00    -0.142 C  
HETATM   16  C   UNL     1      -5.301  11.692  70.281  1.00  0.00    -0.111 C  
HETATM   17  C   UNL     1      -7.099  12.963  69.193  1.00  0.00     0.033 C  
HETATM   18  O   UNL     1      -5.158   9.369  70.121  1.00  0.00    -0.028 OA 
HETATM   19  C   UNL     1      -7.625  11.662  68.590  1.00  0.00    -0.133 C  
HETATM   20  C   UNL     1      -6.995  10.318  68.940  1.00  0.00    -0.065 C  
HETATM   21  C   UNL     1      -5.776  10.384  69.804  1.00  0.00    -0.046 C  
ENDROOT
BRANCH   4  22
HETATM   22  C   UNL     1      -8.985  18.263  68.674  1.00  0.00    -0.303 C  
HETATM   23  C   UNL     1      -9.553  19.362  69.083  1.00  0.00    -0.368 C  
HETATM   24  C   UNL     1     -10.215  20.646  69.558  1.00  0.00     0.460 C  
ENDBRANCH   4  22
BRANCH  13  25
HETATM   25  C   UNL     1     -10.305  14.264  68.685  1.00  0.00    -0.246 A  
HETATM   26  C   UNL     1     -12.361  13.218  69.455  1.00  0.00    -0.122 A  
HETATM   27  C   UNL     1     -11.387  14.966  70.737  1.00  0.00    -0.266 A  
HETATM   28  C   UNL     1     -10.381  15.130  69.774  1.00  0.00    -0.225 A  
HETATM   29  C   UNL     1     -11.382  13.393  68.478  1.00  0.00    -0.324 A  
HETATM   30  C   UNL     1     -12.347  13.947  70.647  1.00  0.00    -0.381 A  
BRANCH  30  31
HETATM   31  N   UNL     1     -13.216  13.640  71.676  1.00  0.00    -0.366 NA 
HETATM   32  C   UNL     1     -13.951  14.658  72.407  1.00  0.00    -0.476 C  
HETATM   33  C   UNL     1     -13.374  12.267  72.147  1.00  0.00    -0.368 C  
ENDBRANCH  30  31
ENDBRANCH  13  25
TORSDOF 3
ENDMDL
MODEL       40
REMARK 921   NORMALIZED FREE ENERGY PREDICTED BY IDOCK:   -4.48 KCAL/MOL
REMARK 922        TOTAL FREE ENERGY PREDICTED BY IDOCK:   -5.90 KCAL/MOL
REMARK 923 INTER-LIGAND FREE ENERGY PREDICTED BY IDOCK:   -6.02 KCAL/MOL
REMARK 924 INTRA-LIGAND FREE ENERGY PREDICTED BY IDOCK:    0.12 KCAL/MOL
REMARK 927      BINDING AFFINITY PREDICTED BY RF-SCORE:    0.00 PKD
ROOT
HETATM    1  C   UNL     1      -9.777  14.212  65.920  1.00  0.00    -0.267 C  
HETATM    2  C   UNL     1      -9.682  13.356  64.793  1.00  0.00     0.151 C  
HETATM    3  C   UNL     1     -10.708  13.045  65.830  1.00  0.00    -0.291 C  
HETATM    4  C   UNL     1     -11.120  14.538  67.208  1.00  0.00    -0.312 C  
HETATM    5  O   UNL     1     -12.344  14.724  67.951  1.00  0.00    -0.582 OA 
HETATM    6  C   UNL     1      -8.925  13.379  67.317  1.00  0.00    -0.221 C  
HETATM    7  C   UNL     1     -11.722  14.128  66.055  1.00  0.00    -0.389 C  
HETATM    8  C   UNL     1     -12.414  12.671  67.075  1.00  0.00     0.598 C  
HETATM    9  C   UNL     1     -12.615  14.811  65.048  1.00  0.00    -0.074 C  
HETATM   10  C   UNL     1      -7.456  13.116  66.921  1.00  0.00     0.356 C  
HETATM   11  H   UNL     1     -12.533  15.409  68.583  1.00  0.00     0.000 HD 
HETATM   12  C   UNL     1      -6.833  11.754  67.234  1.00  0.00    -0.134 C  
HETATM   13  C   UNL     1     -11.283  12.194  68.349  1.00  0.00    -0.314 C  
HETATM   14  C   UNL     1      -9.666  12.089  68.028  1.00  0.00    -0.198 C  
HETATM   15  C   UNL     1      -7.638  10.672  67.891  1.00  0.00    -0.091 C  
HETATM   16  C   UNL     1      -7.007   9.502  68.106  1.00  0.00    -0.078 C  
HETATM   17  C   UNL     1      -9.027  10.893  68.243  1.00  0.00    -0.150 C  
HETATM   18  O   UNL     1      -6.968   7.300  68.874  1.00  0.00    -0.073 OA 
HETATM   19  C   UNL     1      -9.785   9.697  68.814  1.00  0.00    -0.167 C  
HETATM   20  C   UNL     1      -9.073   8.383  69.120  1.00  0.00    -0.147 C  
HETATM   21  C   UNL     1      -7.636   8.320  68.714  1.00  0.00    -0.101 C  
ENDROOT
BRANCH   4  22
HETATM   22  C   UNL     1     -10.789  16.137  67.099  1.00  0.00    -0.216 C  
HETATM   23  C   UNL     1     -10.410  17.340  67.424  1.00  0.00    -0.338 C  
HETATM   24  C   UNL     1      -9.968  18.745  67.804  1.00  0.00    -0.396 C  
ENDBRANCH   4  22
BRANCH  13  25
HETATM   25  C   UNL     1     -11.492  12.901  69.699  1.00  0.00    -0.251 A  
HETATM   26  C   UNL     1     -11.383  14.933  71.031  1.00  0.00    -0.259 A  
HETATM   27  C   UNL     1     -12.923  13.224  71.628  1.00  0.00    -0.441 A  
HETATM   28  C   UNL     1     -12.445  12.412  70.590  1.00  0.00    -0.320 A  
HETATM   29  C   UNL     1     -10.881  14.122  70.015  1.00  0.00     0.179 A  
HETATM   30  C   UNL     1     -12.468  14.538  71.817  1.00  0.00    -0.348 A  
BRANCH  30  31
HETATM   31  N   UNL     1     -13.065  15.420  72.697  1.00  0.00    -0.398 NA 
HETATM   32  C   UNL     1     -12.454  15.796  73.961  1.00  0.00    -0.645 C  
HETATM   33  C   UNL     1     -14.398  15.958  72.441  1.00  0.00    -0.100 C  
ENDBRANCH  30  31
ENDBRANCH  13  25
TORSDOF 3
ENDMDL
MODEL       41
REMARK 921   NORMALIZED FREE ENERGY PREDICTED BY IDOCK:   -4.44 KCAL/MOL
REMARK 922        TOTAL FREE ENERGY PREDICTED BY IDOCK:   -5.85 KCAL/MOL
REMARK 923 INTER-LIGAND FREE ENERGY PREDICTED BY IDOCK:   -4.89 KCAL/MOL
REMARK 924 INTRA-LIGAND FREE ENERGY PREDICTED BY IDOCK:   -0.97 KCAL/MOL
REMARK 927      BINDING AFFINITY PREDICTED BY RF-SCORE:    0.00 PKD
ROOT
HETATM    1  C   UNL     1     -10.121   7.995  71.706  1.00  0.00    -0.249 C  
HETATM    2  C   UNL     1     -10.705   9.273  71.512  1.00  0.00    -0.425 C  
HETATM    3  C   UNL     1     -10.862   8.255  70.434  1.00  0.00    -0.241 C  
HETATM    4  C   UNL     1     -10.396   6.296  70.929  1.00  0.00    -0.205 C  
HETATM    5  O   UNL     1     -10.910   5.095  70.312  1.00  0.00    -0.169 OA 
HETATM    6  C   UNL     1      -8.556   7.955  70.745  1.00  0.00    -0.132 C  
HETATM    7  C   UNL     1     -11.564   6.997  70.854  1.00  0.00    -0.370 C  
HETATM    8  C   UNL     1     -11.422   6.799  68.961  1.00  0.00    -0.072 C  
HETATM    9  C   UNL     1     -12.914   6.843  71.512  1.00  0.00    -0.362 C  
HETATM   10  C   UNL     1      -7.634   9.088  71.243  1.00  0.00    -0.104 C  
HETATM   11  H   UNL     1     -10.696   4.198  70.539  1.00  0.00     0.000 HD 
HETATM   12  C   UNL     1      -6.897   9.953  70.219  1.00  0.00    -0.138 C  
HETATM   13  C   UNL     1      -9.729   6.777  68.450  1.00  0.00    -0.128 C  
HETATM   14  C   UNL     1      -8.650   7.844  69.102  1.00  0.00    -0.138 C  
HETATM   15  C   UNL     1      -7.082   9.730  68.747  1.00  0.00    -0.067 C  
HETATM   16  C   UNL     1      -6.407  10.555  67.926  1.00  0.00    -0.059 C  
HETATM   17  C   UNL     1      -7.967   8.689  68.263  1.00  0.00    -0.110 C  
HETATM   18  O   UNL     1      -5.816  11.304  65.797  1.00  0.00    -0.107 OA 
HETATM   19  C   UNL     1      -8.165   8.610  66.750  1.00  0.00    -0.108 C  
HETATM   20  C   UNL     1      -7.364   9.496  65.802  1.00  0.00    -0.097 C  
HETATM   21  C   UNL     1      -6.480  10.508  66.458  1.00  0.00    -0.099 C  
ENDROOT
BRANCH   4  22
HETATM   22  C   UNL     1     -10.267   5.631  72.419  1.00  0.00    -0.232 C  
HETATM   23  C   UNL     1     -10.303   4.755  73.383  1.00  0.00    -0.239 C  
HETATM   24  C   UNL     1     -10.346   3.734  74.509  1.00  0.00    -0.261 C  
ENDBRANCH   4  22
BRANCH  13  25
HETATM   25  C   UNL     1      -9.090   5.379  68.384  1.00  0.00    -0.119 A  
HETATM   26  C   UNL     1      -8.827   3.255  67.231  1.00  0.00    -0.153 A  
HETATM   27  C   UNL     1      -7.082   4.045  68.636  1.00  0.00    -0.054 A  
HETATM   28  C   UNL     1      -7.854   5.160  68.991  1.00  0.00    -0.081 A  
HETATM   29  C   UNL     1      -9.614   4.344  67.599  1.00  0.00    -0.212 A  
HETATM   30  C   UNL     1      -7.512   3.113  67.679  1.00  0.00    -0.061 A  
BRANCH  30  31
HETATM   31  N   UNL     1      -6.690   2.128  67.169  1.00  0.00    -0.038 NA 
HETATM   32  C   UNL     1      -6.936   1.492  65.885  1.00  0.00    -0.038 C  
HETATM   33  C   UNL     1      -5.568   1.604  67.942  1.00  0.00    -0.018 C  
ENDBRANCH  30  31
ENDBRANCH  13  25
TORSDOF 3
ENDMDL
MODEL       42
REMARK 921   NORMALIZED FREE ENERGY PREDICTED BY IDOCK:   -4.43 KCAL/MOL
REMARK 922        TOTAL FREE ENERGY PREDICTED BY IDOCK:   -5.84 KCAL/MOL
REMARK 923 INTER-LIGAND FREE ENERGY PREDICTED BY IDOCK:   -4.95 KCAL/MOL
REMARK 924 INTRA-LIGAND FREE ENERGY PREDICTED BY IDOCK:   -0.89 KCAL/MOL
REMARK 927      BINDING AFFINITY PREDICTED BY RF-SCORE:    0.00 PKD
ROOT
HETATM    1  C   UNL     1      -7.357  10.669  67.269  1.00  0.00    -0.092 C  
HETATM    2  C   UNL     1      -6.692  10.873  66.032  1.00  0.00    -0.073 C  
HETATM    3  C   UNL     1      -7.173  12.071  66.780  1.00  0.00     0.036 C  
HETATM    4  C   UNL     1      -7.725  11.773  68.757  1.00  0.00    -0.091 C  
HETATM    5  O   UNL     1      -7.727  12.754  69.818  1.00  0.00     0.295 OA 
HETATM    6  C   UNL     1      -9.159  10.836  66.959  1.00  0.00    -0.155 C  
HETATM    7  C   UNL     1      -6.589  12.229  68.154  1.00  0.00    -0.067 C  
HETATM    8  C   UNL     1      -7.530  13.869  67.893  1.00  0.00    -0.155 C  
HETATM    9  C   UNL     1      -5.137  12.271  68.565  1.00  0.00    -0.051 C  
HETATM   10  C   UNL     1      -9.583   9.792  65.903  1.00  0.00    -0.313 C  
HETATM   11  H   UNL     1      -7.980  12.617  70.724  1.00  0.00     0.000 HD 
HETATM   12  C   UNL     1     -10.515  10.219  64.767  1.00  0.00     0.064 C  
HETATM   13  C   UNL     1      -9.260  13.580  67.660  1.00  0.00    -0.214 C  
HETATM   14  C   UNL     1      -9.771  12.343  66.691  1.00  0.00    -0.229 C  
HETATM   15  C   UNL     1     -10.994  11.637  64.655  1.00  0.00    -0.363 C  
HETATM   16  C   UNL     1     -11.793  11.918  63.609  1.00  0.00    -0.573 C  
HETATM   17  C   UNL     1     -10.582  12.635  65.622  1.00  0.00    -0.299 C  
HETATM   18  O   UNL     1     -13.070  13.402  62.341  1.00  0.00     0.986 OA 
HETATM   19  C   UNL     1     -11.042  14.068  65.362  1.00  0.00    -0.318 C  
HETATM   20  C   UNL     1     -11.995  14.396  64.218  1.00  0.00    -0.433 C  
HETATM   21  C   UNL     1     -12.341  13.252  63.319  1.00  0.00    -0.238 C  
ENDROOT
BRANCH   4  22
HETATM   22  C   UNL     1      -7.341  10.521  69.738  1.00  0.00    -0.139 C  
HETATM   23  C   UNL     1      -7.439   9.605  70.660  1.00  0.00    -0.106 C  
HETATM   24  C   UNL     1      -7.552   8.538  71.737  1.00  0.00    -0.147 C  
ENDBRANCH   4  22
BRANCH  13  25
HETATM   25  C   UNL     1     -10.100  13.602  68.948  1.00  0.00    -0.049 A  
HETATM   26  C   UNL     1     -11.393  14.862  70.577  1.00  0.00    -0.280 A  
HETATM   27  C   UNL     1     -11.853  12.554  70.253  1.00  0.00    -0.305 A  
HETATM   28  C   UNL     1     -10.803  12.460  69.328  1.00  0.00    -0.073 A  
HETATM   29  C   UNL     1     -10.329  14.774  69.681  1.00  0.00    -0.084 A  
HETATM   30  C   UNL     1     -12.232  13.775  70.831  1.00  0.00    -0.349 A  
BRANCH  30  31
HETATM   31  N   UNL     1     -13.381  13.926  71.581  1.00  0.00    -0.356 NA 
HETATM   32  C   UNL     1     -14.148  15.160  71.597  1.00  0.00    -0.549 C  
HETATM   33  C   UNL     1     -13.842  12.870  72.479  1.00  0.00    -0.229 C  
ENDBRANCH  30  31
ENDBRANCH  13  25
TORSDOF 3
ENDMDL
MODEL       43
REMARK 921   NORMALIZED FREE ENERGY PREDICTED BY IDOCK:   -4.42 KCAL/MOL
REMARK 922        TOTAL FREE ENERGY PREDICTED BY IDOCK:   -5.83 KCAL/MOL
REMARK 923 INTER-LIGAND FREE ENERGY PREDICTED BY IDOCK:   -5.20 KCAL/MOL
REMARK 924 INTRA-LIGAND FREE ENERGY PREDICTED BY IDOCK:   -0.64 KCAL/MOL
REMARK 927      BINDING AFFINITY PREDICTED BY RF-SCORE:    0.00 PKD
ROOT
HETATM    1  C   UNL     1      -9.264   9.091  70.306  1.00  0.00    -0.229 C  
HETATM    2  C   UNL     1     -10.423   9.799  70.716  1.00  0.00    -0.339 C  
HETATM    3  C   UNL     1     -10.549   8.839  69.582  1.00  0.00    -0.220 C  
HETATM    4  C   UNL     1      -8.978   7.513  69.307  1.00  0.00    -0.136 C  
HETATM    5  O   UNL     1      -9.034   6.214  68.678  1.00  0.00    -0.126 OA 
HETATM    6  C   UNL     1      -8.619   9.918  68.798  1.00  0.00    -0.130 C  
HETATM    7  C   UNL     1     -10.194   7.420  69.918  1.00  0.00    -0.212 C  
HETATM    8  C   UNL     1     -10.931   7.275  68.164  1.00  0.00    -0.058 C  
HETATM    9  C   UNL     1     -10.740   6.545  71.021  1.00  0.00    -0.289 C  
HETATM   10  C   UNL     1      -8.300  11.390  69.134  1.00  0.00     0.126 C  
HETATM   11  H   UNL     1      -8.314   5.607  68.552  1.00  0.00     0.000 HD 
HETATM   12  C   UNL     1      -8.728  12.486  68.157  1.00  0.00    -0.190 C  
HETATM   13  C   UNL     1      -9.981   8.206  66.997  1.00  0.00    -0.329 C  
HETATM   14  C   UNL     1      -9.442   9.719  67.384  1.00  0.00    -0.178 C  
HETATM   15  C   UNL     1      -9.475  12.149  66.900  1.00  0.00    -0.210 C  
HETATM   16  C   UNL     1      -9.827  13.184  66.115  1.00  0.00    -0.284 C  
HETATM   17  C   UNL     1      -9.807  10.774  66.584  1.00  0.00    -0.241 C  
HETATM   18  O   UNL     1     -10.845  14.065  64.211  1.00  0.00    -0.313 OA 
HETATM   19  C   UNL     1     -10.655  10.546  65.335  1.00  0.00    -0.143 C  
HETATM   20  C   UNL     1     -11.012  11.698  64.402  1.00  0.00    -0.399 C  
HETATM   21  C   UNL     1     -10.581  13.055  64.859  1.00  0.00    -0.337 C  
ENDROOT
BRANCH   4  22
HETATM   22  C   UNL     1      -7.811   7.090  70.374  1.00  0.00    -0.108 C  
HETATM   23  C   UNL     1      -7.222   6.556  71.406  1.00  0.00    -0.079 C  
HETATM   24  C   UNL     1      -6.535   5.934  72.611  1.00  0.00    -0.063 C  
ENDBRANCH   4  22
BRANCH  13  25
HETATM   25  C   UNL     1      -8.852   7.421  66.308  1.00  0.00    -0.182 A  
HETATM   26  C   UNL     1      -8.158   5.568  64.894  1.00  0.00    -0.124 A  
HETATM   27  C   UNL     1      -6.800   7.514  65.021  1.00  0.00    -0.047 A  
HETATM   28  C   UNL     1      -7.671   8.076  65.965  1.00  0.00    -0.088 A  
HETATM   29  C   UNL     1      -9.014   6.105  65.854  1.00  0.00    -0.133 A  
HETATM   30  C   UNL     1      -7.069   6.287  64.395  1.00  0.00    -0.057 A  
BRANCH  30  31
HETATM   31  N   UNL     1      -6.338   5.814  63.323  1.00  0.00    -0.024 NA 
HETATM   32  C   UNL     1      -5.421   6.654  62.572  1.00  0.00    -0.031 C  
HETATM   33  C   UNL     1      -6.517   4.452  62.828  1.00  0.00    -0.026 C  
ENDBRANCH  30  31
ENDBRANCH  13  25
TORSDOF 3
ENDMDL
MODEL       44
REMARK 921   NORMALIZED FREE ENERGY PREDICTED BY IDOCK:   -4.32 KCAL/MOL
REMARK 922        TOTAL FREE ENERGY PREDICTED BY IDOCK:   -5.71 KCAL/MOL
REMARK 923 INTER-LIGAND FREE ENERGY PREDICTED BY IDOCK:   -5.28 KCAL/MOL
REMARK 924 INTRA-LIGAND FREE ENERGY PREDICTED BY IDOCK:   -0.43 KCAL/MOL
REMARK 927      BINDING AFFINITY PREDICTED BY RF-SCORE:    0.00 PKD
ROOT
HETATM    1  C   UNL     1      -8.131   3.520  70.646  1.00  0.00    -0.062 C  
HETATM    2  C   UNL     1      -6.884   3.000  70.213  1.00  0.00    -0.033 C  
HETATM    3  C   UNL     1      -7.057   4.481  70.246  1.00  0.00    -0.048 C  
HETATM    4  C   UNL     1      -8.697   5.203  71.290  1.00  0.00    -0.128 C  
HETATM    5  O   UNL     1      -8.835   6.502  71.905  1.00  0.00    -0.134 OA 
HETATM    6  C   UNL     1      -9.074   4.005  69.146  1.00  0.00    -0.197 C  
HETATM    7  C   UNL     1      -7.378   5.046  71.598  1.00  0.00    -0.075 C  
HETATM    8  C   UNL     1      -7.068   6.605  70.542  1.00  0.00    -0.068 C  
HETATM    9  C   UNL     1      -6.626   4.876  72.896  1.00  0.00    -0.060 C  
HETATM   10  C   UNL     1      -9.253   2.764  68.245  1.00  0.00    -0.250 C  
HETATM   11  H   UNL     1      -9.587   6.833  72.383  1.00  0.00     0.000 HD 
HETATM   12  C   UNL     1      -9.019   2.898  66.739  1.00  0.00    -0.174 C  
HETATM   13  C   UNL     1      -8.226   6.708  69.207  1.00  0.00    -0.124 C  
HETATM   14  C   UNL     1      -8.605   5.360  68.332  1.00  0.00    -0.095 C  
HETATM   15  C   UNL     1      -8.595   4.206  66.139  1.00  0.00    -0.113 C  
HETATM   16  C   UNL     1      -8.394   4.218  64.808  1.00  0.00    -0.106 C  
HETATM   17  C   UNL     1      -8.394   5.373  66.975  1.00  0.00    -0.107 C  
HETATM   18  O   UNL     1      -7.808   5.303  62.828  1.00  0.00    -0.068 OA 
HETATM   19  C   UNL     1      -7.865   6.627  66.282  1.00  0.00    -0.105 C  
HETATM   20  C   UNL     1      -7.689   6.678  64.768  1.00  0.00    -0.111 C  
HETATM   21  C   UNL     1      -7.953   5.396  64.046  1.00  0.00    -0.111 C  
ENDROOT
BRANCH   4  22
HETATM   22  C   UNL     1      -9.603   4.430  72.412  1.00  0.00    -0.198 C  
HETATM   23  C   UNL     1     -10.427   3.579  72.956  1.00  0.00    -0.251 C  
HETATM   24  C   UNL     1     -11.389   2.588  73.590  1.00  0.00    -0.300 C  
ENDBRANCH   4  22
BRANCH  13  25
HETATM   25  C   UNL     1      -9.511   7.492  69.523  1.00  0.00    -0.156 A  
HETATM   26  C   UNL     1     -11.783   7.515  70.391  1.00  0.00    -0.116 A  
HETATM   27  C   UNL     1     -10.492   9.510  70.441  1.00  0.00    -0.336 A  
HETATM   28  C   UNL     1      -9.435   8.857  69.791  1.00  0.00    -0.174 A  
HETATM   29  C   UNL     1     -10.750   6.865  69.718  1.00  0.00    -0.276 A  
HETATM   30  C   UNL     1     -11.655   8.832  70.838  1.00  0.00    -0.277 A  
BRANCH  30  31
HETATM   31  N   UNL     1     -12.614   9.401  71.653  1.00  0.00    -0.349 NA 
HETATM   32  C   UNL     1     -12.867  10.832  71.681  1.00  0.00    -0.457 C  
HETATM   33  C   UNL     1     -13.372   8.595  72.605  1.00  0.00    -0.223 C  
ENDBRANCH  30  31
ENDBRANCH  13  25
TORSDOF 3
ENDMDL
MODEL       45
REMARK 921   NORMALIZED FREE ENERGY PREDICTED BY IDOCK:   -4.30 KCAL/MOL
REMARK 922        TOTAL FREE ENERGY PREDICTED BY IDOCK:   -5.68 KCAL/MOL
REMARK 923 INTER-LIGAND FREE ENERGY PREDICTED BY IDOCK:   -5.08 KCAL/MOL
REMARK 924 INTRA-LIGAND FREE ENERGY PREDICTED BY IDOCK:   -0.61 KCAL/MOL
REMARK 927      BINDING AFFINITY PREDICTED BY RF-SCORE:    0.00 PKD
ROOT
HETATM    1  C   UNL     1      -9.538   5.703  69.338  1.00  0.00    -0.187 C  
HETATM    2  C   UNL     1      -8.685   4.614  69.654  1.00  0.00    -0.111 C  
HETATM    3  C   UNL     1      -8.059   5.910  69.259  1.00  0.00    -0.106 C  
HETATM    4  C   UNL     1      -9.296   7.574  69.243  1.00  0.00    -0.151 C  
HETATM    5  O   UNL     1      -8.903   8.954  69.408  1.00  0.00    -0.138 OA 
HETATM    6  C   UNL     1      -9.616   5.826  67.507  1.00  0.00    -0.118 C  
HETATM    7  C   UNL     1      -8.405   7.070  70.145  1.00  0.00    -0.138 C  
HETATM    8  C   UNL     1      -7.041   7.782  69.016  1.00  0.00    -0.074 C  
HETATM    9  C   UNL     1      -8.259   7.193  71.643  1.00  0.00    -0.103 C  
HETATM   10  C   UNL     1     -10.153   4.495  66.939  1.00  0.00    -0.200 C  
HETATM   11  H   UNL     1      -9.470   9.716  69.401  1.00  0.00     0.000 HD 
HETATM   12  C   UNL     1      -9.467   3.876  65.719  1.00  0.00    -0.178 C  
HETATM   13  C   UNL     1      -7.539   7.745  67.318  1.00  0.00    -0.104 C  
HETATM   14  C   UNL     1      -8.300   6.412  66.706  1.00  0.00    -0.111 C  
HETATM   15  C   UNL     1      -8.271   4.532  65.093  1.00  0.00    -0.112 C  
HETATM   16  C   UNL     1      -7.726   3.900  64.037  1.00  0.00    -0.083 C  
HETATM   17  C   UNL     1      -7.738   5.767  65.632  1.00  0.00    -0.093 C  
HETATM   18  O   UNL     1      -6.125   3.725  62.350  1.00  0.00    -0.016 OA 
HETATM   19  C   UNL     1      -6.460   6.298  64.986  1.00  0.00    -0.038 C  
HETATM   20  C   UNL     1      -5.862   5.630  63.753  1.00  0.00    -0.021 C  
HETATM   21  C   UNL     1      -6.539   4.374  63.308  1.00  0.00    -0.034 C  
ENDROOT
BRANCH   4  22
HETATM   22  C   UNL     1     -10.747   7.764  69.976  1.00  0.00    -0.245 C  
HETATM   23  C   UNL     1     -11.649   8.122  70.846  1.00  0.00    -0.283 C  
HETATM   24  C   UNL     1     -12.702   8.537  71.861  1.00  0.00    -0.401 C  
ENDBRANCH   4  22
BRANCH  13  25
HETATM   25  C   UNL     1      -8.252   9.014  66.823  1.00  0.00    -0.115 A  
HETATM   26  C   UNL     1     -10.319  10.247  66.473  1.00  0.00    -0.276 A  
HETATM   27  C   UNL     1      -8.282  11.437  66.755  1.00  0.00    -0.160 A  
HETATM   28  C   UNL     1      -7.571  10.230  66.829  1.00  0.00    -0.107 A  
HETATM   29  C   UNL     1      -9.619   9.042  66.516  1.00  0.00    -0.286 A  
HETATM   30  C   UNL     1      -9.682  11.474  66.667  1.00  0.00    -0.199 A  
BRANCH  30  31
HETATM   31  N   UNL     1     -10.411  12.640  66.796  1.00  0.00    -0.239 NA 
HETATM   32  C   UNL     1     -11.791  12.752  66.355  1.00  0.00    -0.408 C  
HETATM   33  C   UNL     1      -9.798  13.862  67.309  1.00  0.00    -0.244 C  
ENDBRANCH  30  31
ENDBRANCH  13  25
TORSDOF 3
ENDMDL
MODEL       46
REMARK 921   NORMALIZED FREE ENERGY PREDICTED BY IDOCK:   -4.29 KCAL/MOL
REMARK 922        TOTAL FREE ENERGY PREDICTED BY IDOCK:   -5.67 KCAL/MOL
REMARK 923 INTER-LIGAND FREE ENERGY PREDICTED BY IDOCK:   -4.78 KCAL/MOL
REMARK 924 INTRA-LIGAND FREE ENERGY PREDICTED BY IDOCK:   -0.89 KCAL/MOL
REMARK 927      BINDING AFFINITY PREDICTED BY RF-SCORE:    0.00 PKD
ROOT
HETATM    1  C   UNL     1      -9.691   7.320  68.121  1.00  0.00    -0.155 C  
HETATM    2  C   UNL     1     -11.025   6.904  67.875  1.00  0.00    -0.260 C  
HETATM    3  C   UNL     1     -10.573   8.205  67.300  1.00  0.00    -0.344 C  
HETATM    4  C   UNL     1      -8.531   8.561  67.296  1.00  0.00    -0.123 C  
HETATM    5  O   UNL     1      -7.798   9.424  66.399  1.00  0.00    -0.099 OA 
HETATM    6  C   UNL     1      -9.745   8.572  69.463  1.00  0.00    -0.176 C  
HETATM    7  C   UNL     1      -9.409   8.105  66.358  1.00  0.00    -0.269 C  
HETATM    8  C   UNL     1      -9.964   9.921  66.167  1.00  0.00    -0.331 C  
HETATM    9  C   UNL     1      -9.262   7.247  65.125  1.00  0.00     0.680 C  
HETATM   10  C   UNL     1     -10.387   7.937  70.715  1.00  0.00    -0.211 C  
HETATM   11  H   UNL     1      -6.862   9.587  66.398  1.00  0.00     0.000 HD 
HETATM   12  C   UNL     1     -11.434   8.730  71.499  1.00  0.00    -0.375 C  
HETATM   13  C   UNL     1      -9.829  10.791  67.702  1.00  0.00    -0.193 C  
HETATM   14  C   UNL     1     -10.322  10.075  69.107  1.00  0.00    -0.233 C  
HETATM   15  C   UNL     1     -11.859  10.098  71.051  1.00  0.00    -0.475 C  
HETATM   16  C   UNL     1     -12.801  10.707  71.794  1.00  0.00    -0.549 C  
HETATM   17  C   UNL     1     -11.286  10.697  69.861  1.00  0.00    -0.386 C  
HETATM   18  O   UNL     1     -14.213  12.507  72.250  1.00  0.00    -0.068 OA 
HETATM   19  C   UNL     1     -11.858  12.047  69.433  1.00  0.00    -0.384 C  
HETATM   20  C   UNL     1     -12.882  12.779  70.295  1.00  0.00     0.241 C  
HETATM   21  C   UNL     1     -13.360  12.035  71.500  1.00  0.00    -0.028 C  
ENDROOT
BRANCH   4  22
HETATM   22  C   UNL     1      -7.313   7.479  67.458  1.00  0.00    -0.102 C  
HETATM   23  C   UNL     1      -6.315   6.817  67.972  1.00  0.00    -0.045 C  
HETATM   24  C   UNL     1      -5.150   6.046  68.570  1.00  0.00    -0.007 C  
ENDBRANCH   4  22
BRANCH  13  25
HETATM   25  C   UNL     1      -8.482  11.496  67.932  1.00  0.00    -0.142 A  
HETATM   26  C   UNL     1      -7.032  13.409  67.539  1.00  0.00    -0.153 A  
HETATM   27  C   UNL     1      -6.750  12.114  69.511  1.00  0.00    -0.017 A  
HETATM   28  C   UNL     1      -7.759  11.234  69.094  1.00  0.00    -0.047 A  
HETATM   29  C   UNL     1      -8.015  12.524  67.100  1.00  0.00    -0.140 A  
HETATM   30  C   UNL     1      -6.425  13.273  68.789  1.00  0.00    -0.099 A  
BRANCH  30  31
HETATM   31  N   UNL     1      -5.585  14.253  69.281  1.00  0.00    -0.081 NA 
HETATM   32  C   UNL     1      -5.171  14.302  70.673  1.00  0.00    -0.116 C  
HETATM   33  C   UNL     1      -5.135  15.355  68.436  1.00  0.00    -0.098 C  
ENDBRANCH  30  31
ENDBRANCH  13  25
TORSDOF 3
ENDMDL
MODEL       47
REMARK 921   NORMALIZED FREE ENERGY PREDICTED BY IDOCK:   -4.29 KCAL/MOL
REMARK 922        TOTAL FREE ENERGY PREDICTED BY IDOCK:   -5.67 KCAL/MOL
REMARK 923 INTER-LIGAND FREE ENERGY PREDICTED BY IDOCK:   -4.97 KCAL/MOL
REMARK 924 INTRA-LIGAND FREE ENERGY PREDICTED BY IDOCK:   -0.70 KCAL/MOL
REMARK 927      BINDING AFFINITY PREDICTED BY RF-SCORE:    0.00 PKD
ROOT
HETATM    1  C   UNL     1     -10.058  11.921  65.121  1.00  0.00    -0.293 C  
HETATM    2  C   UNL     1     -11.127  11.461  64.310  1.00  0.00    -0.356 C  
HETATM    3  C   UNL     1     -10.902  10.795  65.626  1.00  0.00    -0.065 C  
HETATM    4  C   UNL     1      -9.645  11.766  66.958  1.00  0.00    -0.187 C  
HETATM    5  O   UNL     1      -9.648  11.654  68.398  1.00  0.00    -0.189 OA 
HETATM    6  C   UNL     1      -8.666  10.740  64.919  1.00  0.00    -0.135 C  
HETATM    7  C   UNL     1     -11.001  11.704  66.815  1.00  0.00    -0.341 C  
HETATM    8  C   UNL     1     -10.884   9.971  67.606  1.00  0.00    -0.336 C  
HETATM    9  C   UNL     1     -12.132  12.620  67.214  1.00  0.00    -0.184 C  
HETATM   10  C   UNL     1      -8.271  10.685  63.428  1.00  0.00    -0.038 C  
HETATM   11  H   UNL     1      -9.072  12.099  69.009  1.00  0.00     0.000 HD 
HETATM   12  C   UNL     1      -8.008   9.326  62.777  1.00  0.00    -0.135 C  
HETATM   13  C   UNL     1      -9.360   9.179  67.180  1.00  0.00    -0.178 C  
HETATM   14  C   UNL     1      -8.788   9.259  65.632  1.00  0.00    -0.216 C  
HETATM   15  C   UNL     1      -8.158   8.055  63.560  1.00  0.00    -0.097 C  
HETATM   16  C   UNL     1      -7.926   6.909  62.894  1.00  0.00    -0.083 C  
HETATM   17  C   UNL     1      -8.557   8.088  64.954  1.00  0.00     0.000 C  
HETATM   18  O   UNL     1      -7.802   4.582  62.790  1.00  0.00    -0.063 OA 
HETATM   19  C   UNL     1      -8.779   6.738  65.633  1.00  0.00    -0.086 C  
HETATM   20  C   UNL     1      -8.464   5.431  64.913  1.00  0.00    -0.148 C  
HETATM   21  C   UNL     1      -8.045   5.567  63.484  1.00  0.00    -0.113 C  
ENDROOT
BRANCH   4  22
HETATM   22  C   UNL     1      -9.180  13.335  66.951  1.00  0.00    -0.242 C  
HETATM   23  C   UNL     1      -8.421  14.394  66.993  1.00  0.00    -0.206 C  
HETATM   24  C   UNL     1      -7.537  15.630  67.044  1.00  0.00    -0.245 C  
ENDBRANCH   4  22
BRANCH  13  25
HETATM   25  C   UNL     1      -8.205   9.424  68.166  1.00  0.00    -0.118 A  
HETATM   26  C   UNL     1      -6.180  10.635  68.752  1.00  0.00    -0.043 A  
HETATM   27  C   UNL     1      -7.526   9.707  70.476  1.00  0.00    -0.147 A  
HETATM   28  C   UNL     1      -8.391   9.153  69.521  1.00  0.00    -0.126 A  
HETATM   29  C   UNL     1      -7.016  10.065  67.794  1.00  0.00    -0.085 A  
HETATM   30  C   UNL     1      -6.452  10.537  70.118  1.00  0.00    -0.144 A  
BRANCH  30  31
HETATM   31  N   UNL     1      -5.716  11.252  71.042  1.00  0.00    -0.350 NA 
HETATM   32  C   UNL     1      -5.144  10.640  72.229  1.00  0.00     0.118 C  
HETATM   33  C   UNL     1      -5.548  12.697  70.918  1.00  0.00    -0.139 C  
ENDBRANCH  30  31
ENDBRANCH  13  25
TORSDOF 3
ENDMDL
MODEL       48
REMARK 921   NORMALIZED FREE ENERGY PREDICTED BY IDOCK:   -4.28 KCAL/MOL
REMARK 922        TOTAL FREE ENERGY PREDICTED BY IDOCK:   -5.66 KCAL/MOL
REMARK 923 INTER-LIGAND FREE ENERGY PREDICTED BY IDOCK:   -4.88 KCAL/MOL
REMARK 924 INTRA-LIGAND FREE ENERGY PREDICTED BY IDOCK:   -0.78 KCAL/MOL
REMARK 927      BINDING AFFINITY PREDICTED BY RF-SCORE:    0.00 PKD
ROOT
HETATM    1  C   UNL     1      -9.864   9.307  70.564  1.00  0.00    -0.310 C  
HETATM    2  C   UNL     1     -10.721  10.260  69.955  1.00  0.00    -0.345 C  
HETATM    3  C   UNL     1     -10.776   8.851  69.471  1.00  0.00    -0.206 C  
HETATM    4  C   UNL     1      -9.859   7.421  70.660  1.00  0.00    -0.179 C  
HETATM    5  O   UNL     1     -10.174   6.013  70.729  1.00  0.00    -0.189 OA 
HETATM    6  C   UNL     1      -8.439   9.049  69.434  1.00  0.00    -0.117 C  
HETATM    7  C   UNL     1     -11.149   7.841  70.516  1.00  0.00    -0.265 C  
HETATM    8  C   UNL     1     -11.175   6.821  68.903  1.00  0.00    -0.196 C  
HETATM    9  C   UNL     1     -12.358   7.819  71.420  1.00  0.00    -0.346 C  
HETATM   10  C   UNL     1      -7.726  10.400  69.211  1.00  0.00    -0.140 C  
HETATM   11  H   UNL     1      -9.754   5.358  71.275  1.00  0.00     0.000 HD 
HETATM   12  C   UNL     1      -7.302  10.793  67.795  1.00  0.00    -0.093 C  
HETATM   13  C   UNL     1      -9.580   6.802  68.138  1.00  0.00    -0.122 C  
HETATM   14  C   UNL     1      -8.685   8.187  68.050  1.00  0.00    -0.128 C  
HETATM   15  C   UNL     1      -7.595   9.898  66.627  1.00  0.00    -0.103 C  
HETATM   16  C   UNL     1      -7.201  10.341  65.419  1.00  0.00    -0.143 C  
HETATM   17  C   UNL     1      -8.289   8.639  66.815  1.00  0.00    -0.108 C  
HETATM   18  O   UNL     1      -7.012  10.107  63.106  1.00  0.00    -0.131 OA 
HETATM   19  C   UNL     1      -8.628   7.851  65.552  1.00  0.00    -0.139 C  
HETATM   20  C   UNL     1      -8.138   8.306  64.182  1.00  0.00    -0.136 C  
HETATM   21  C   UNL     1      -7.420   9.618  64.157  1.00  0.00    -0.128 C  
ENDROOT
BRANCH   4  22
HETATM   22  C   UNL     1      -9.434   7.536  72.236  1.00  0.00    -0.195 C  
HETATM   23  C   UNL     1      -8.762   7.842  73.310  1.00  0.00    -0.295 C  
HETATM   24  C   UNL     1      -7.979   8.198  74.564  1.00  0.00    -0.293 C  
ENDBRANCH   4  22
BRANCH  13  25
HETATM   25  C   UNL     1      -8.673   5.633  68.559  1.00  0.00    -0.110 A  
HETATM   26  C   UNL     1      -8.144   3.261  68.464  1.00  0.00    -0.070 A  
HETATM   27  C   UNL     1      -6.411   4.829  68.892  1.00  0.00    -0.036 A  
HETATM   28  C   UNL     1      -7.340   5.879  68.879  1.00  0.00    -0.084 A  
HETATM   29  C   UNL     1      -9.080   4.294  68.478  1.00  0.00    -0.175 A  
HETATM   30  C   UNL     1      -6.776   3.507  68.595  1.00  0.00    -0.045 A  
BRANCH  30  31
HETATM   31  N   UNL     1      -5.852   2.498  68.403  1.00  0.00    -0.023 NA 
HETATM   32  C   UNL     1      -5.321   1.705  69.499  1.00  0.00    -0.012 C  
HETATM   33  C   UNL     1      -5.287   2.232  67.083  1.00  0.00    -0.016 C  
ENDBRANCH  30  31
ENDBRANCH  13  25
TORSDOF 3
ENDMDL
MODEL       49
REMARK 921   NORMALIZED FREE ENERGY PREDICTED BY IDOCK:   -4.27 KCAL/MOL
REMARK 922        TOTAL FREE ENERGY PREDICTED BY IDOCK:   -5.66 KCAL/MOL
REMARK 923 INTER-LIGAND FREE ENERGY PREDICTED BY IDOCK:   -4.92 KCAL/MOL
REMARK 924 INTRA-LIGAND FREE ENERGY PREDICTED BY IDOCK:   -0.73 KCAL/MOL
REMARK 927      BINDING AFFINITY PREDICTED BY RF-SCORE:    0.00 PKD
ROOT
HETATM    1  C   UNL     1     -11.690  15.253  68.261  1.00  0.00    -0.320 C  
HETATM    2  C   UNL     1     -12.371  14.228  68.968  1.00  0.00    -0.147 C  
HETATM    3  C   UNL     1     -10.913  14.413  69.224  1.00  0.00    -0.281 C  
HETATM    4  C   UNL     1     -10.062  16.172  68.530  1.00  0.00    -0.241 C  
HETATM    5  O   UNL     1      -8.885  16.833  69.045  1.00  0.00    -0.253 OA 
HETATM    6  C   UNL     1     -10.775  14.455  66.882  1.00  0.00    -0.292 C  
HETATM    7  C   UNL     1     -10.533  15.768  69.745  1.00  0.00    -0.318 C  
HETATM    8  C   UNL     1      -8.912  14.773  69.909  1.00  0.00     0.468 C  
HETATM    9  C   UNL     1     -11.071  16.502  70.949  1.00  0.00     0.050 C  
HETATM   10  C   UNL     1     -11.782  13.709  65.981  1.00  0.00    -0.383 C  
HETATM   11  H   UNL     1      -8.496  17.639  68.727  1.00  0.00     0.000 HD 
HETATM   12  C   UNL     1     -11.444  12.298  65.496  1.00  0.00    -0.408 C  
HETATM   13  C   UNL     1      -8.351  14.208  68.329  1.00  0.00    -0.157 C  
HETATM   14  C   UNL     1      -9.425  13.580  67.243  1.00  0.00    -0.230 C  
HETATM   15  C   UNL     1     -10.166  11.628  65.908  1.00  0.00    -0.277 C  
HETATM   16  C   UNL     1      -9.969  10.379  65.448  1.00  0.00    -0.362 C  
HETATM   17  C   UNL     1      -9.224  12.303  66.779  1.00  0.00    -0.210 C  
HETATM   18  O   UNL     1      -8.704   8.426  65.282  1.00  0.00    -0.170 OA 
HETATM   19  C   UNL     1      -8.004  11.498  67.221  1.00  0.00    -0.153 C  
HETATM   20  C   UNL     1      -7.733  10.105  66.662  1.00  0.00    -0.106 C  
HETATM   21  C   UNL     1      -8.793   9.554  65.763  1.00  0.00    -0.162 C  
ENDROOT
BRANCH   4  22
HETATM   22  C   UNL     1     -10.814  17.560  68.101  1.00  0.00    -0.246 C  
HETATM   23  C   UNL     1     -11.029  18.728  67.565  1.00  0.00    -0.273 C  
HETATM   24  C   UNL     1     -11.281  20.092  66.940  1.00  0.00     0.328 C  
ENDBRANCH   4  22
BRANCH  13  25
HETATM   25  C   UNL     1      -7.389  15.163  67.603  1.00  0.00    -0.205 A  
HETATM   26  C   UNL     1      -7.034  16.920  65.959  1.00  0.00     0.177 A  
HETATM   27  C   UNL     1      -5.531  16.710  67.787  1.00  0.00    -0.141 A  
HETATM   28  C   UNL     1      -6.220  15.576  68.241  1.00  0.00    -0.123 A  
HETATM   29  C   UNL     1      -7.708  15.777  66.385  1.00  0.00     0.179 A  
HETATM   30  C   UNL     1      -5.974  17.462  66.689  1.00  0.00    -0.200 A  
BRANCH  30  31
HETATM   31  N   UNL     1      -5.433  18.687  66.352  1.00  0.00    -0.144 NA 
HETATM   32  C   UNL     1      -5.200  19.735  67.331  1.00  0.00    -0.160 C  
HETATM   33  C   UNL     1      -5.148  19.030  64.961  1.00  0.00    -0.164 C  
ENDBRANCH  30  31
ENDBRANCH  13  25
TORSDOF 3
ENDMDL
MODEL       50
REMARK 921   NORMALIZED FREE ENERGY PREDICTED BY IDOCK:   -4.26 KCAL/MOL
REMARK 922        TOTAL FREE ENERGY PREDICTED BY IDOCK:   -5.65 KCAL/MOL
REMARK 923 INTER-LIGAND FREE ENERGY PREDICTED BY IDOCK:   -4.94 KCAL/MOL
REMARK 924 INTRA-LIGAND FREE ENERGY PREDICTED BY IDOCK:   -0.70 KCAL/MOL
REMARK 927      BINDING AFFINITY PREDICTED BY RF-SCORE:    0.00 PKD
ROOT
HETATM    1  C   UNL     1      -7.530  10.344  65.750  1.00  0.00    -0.147 C  
HETATM    2  C   UNL     1      -7.666   9.905  64.408  1.00  0.00    -0.142 C  
HETATM    3  C   UNL     1      -8.753   9.572  65.373  1.00  0.00    -0.190 C  
HETATM    4  C   UNL     1      -8.742  10.594  67.177  1.00  0.00    -0.130 C  
HETATM    5  O   UNL     1      -9.873  10.861  68.034  1.00  0.00    -0.165 OA 
HETATM    6  C   UNL     1      -6.971   8.906  66.745  1.00  0.00    -0.077 C  
HETATM    7  C   UNL     1      -9.419  10.759  66.004  1.00  0.00    -0.230 C  
HETATM    8  C   UNL     1     -10.513   9.301  66.569  1.00  0.00    -0.204 C  
HETATM    9  C   UNL     1     -10.065  11.948  65.334  1.00  0.00    -0.285 C  
HETATM   10  C   UNL     1      -5.633   8.391  66.173  1.00  0.00    -0.039 C  
HETATM   11  H   UNL     1      -9.867  11.330  68.861  1.00  0.00     0.000 HD 
HETATM   12  C   UNL     1      -5.430   6.885  65.995  1.00  0.00    -0.023 C  
HETATM   13  C   UNL     1      -9.584   8.148  67.538  1.00  0.00    -0.196 C  
HETATM   14  C   UNL     1      -8.060   7.712  67.074  1.00  0.00    -0.117 C  
HETATM   15  C   UNL     1      -6.520   5.914  66.343  1.00  0.00    -0.043 C  
HETATM   16  C   UNL     1      -6.252   4.613  66.131  1.00  0.00    -0.032 C  
HETATM   17  C   UNL     1      -7.792   6.384  66.854  1.00  0.00    -0.104 C  
HETATM   18  O   UNL     1      -6.854   2.359  66.168  1.00  0.00    -0.041 OA 
HETATM   19  C   UNL     1      -8.869   5.325  67.081  1.00  0.00    -0.109 C  
HETATM   20  C   UNL     1      -8.567   3.841  66.904  1.00  0.00    -0.109 C  
HETATM   21  C   UNL     1      -7.201   3.518  66.388  1.00  0.00    -0.064 C  
ENDROOT
BRANCH   4  22
HETATM   22  C   UNL     1      -7.967  11.988  67.546  1.00  0.00    -0.159 C  
HETATM   23  C   UNL     1      -7.608  13.240  67.522  1.00  0.00    -0.169 C  
HETATM   24  C   UNL     1      -7.188  14.701  67.493  1.00  0.00    -0.216 C  
ENDBRANCH   4  22
BRANCH  13  25
HETATM   25  C   UNL     1      -9.602   8.412  69.053  1.00  0.00    -0.160 A  
HETATM   26  C   UNL     1     -10.628   8.040  71.226  1.00  0.00    -0.245 A  
HETATM   27  C   UNL     1      -8.322   8.596  71.103  1.00  0.00    -0.201 A  
HETATM   28  C   UNL     1      -8.413   8.724  69.709  1.00  0.00    -0.129 A  
HETATM   29  C   UNL     1     -10.737   8.194  69.845  1.00  0.00    -0.241 A  
HETATM   30  C   UNL     1      -9.403   8.162  71.885  1.00  0.00    -0.190 A  
BRANCH  30  31
HETATM   31  N   UNL     1      -9.280   7.836  73.221  1.00  0.00    -0.230 NA 
HETATM   32  C   UNL     1     -10.278   7.053  73.930  1.00  0.00    -0.350 C  
HETATM   33  C   UNL     1      -8.170   8.341  74.024  1.00  0.00    -0.207 C  
ENDBRANCH  30  31
ENDBRANCH  13  25
TORSDOF 3
ENDMDL
MODEL       51
REMARK 921   NORMALIZED FREE ENERGY PREDICTED BY IDOCK:   -4.26 KCAL/MOL
REMARK 922        TOTAL FREE ENERGY PREDICTED BY IDOCK:   -5.64 KCAL/MOL
REMARK 923 INTER-LIGAND FREE ENERGY PREDICTED BY IDOCK:   -4.81 KCAL/MOL
REMARK 924 INTRA-LIGAND FREE ENERGY PREDICTED BY IDOCK:   -0.83 KCAL/MOL
REMARK 927      BINDING AFFINITY PREDICTED BY RF-SCORE:    0.00 PKD
ROOT
HETATM    1  C   UNL     1      -6.187  13.989  68.269  1.00  0.00    -0.116 C  
HETATM    2  C   UNL     1      -5.617  14.280  67.003  1.00  0.00     1.270 C  
HETATM    3  C   UNL     1      -6.766  15.111  67.467  1.00  0.00    -0.189 C  
HETATM    4  C   UNL     1      -7.274  14.959  69.472  1.00  0.00    -0.184 C  
HETATM    5  O   UNL     1      -7.944  15.952  70.279  1.00  0.00     0.671 OA 
HETATM    6  C   UNL     1      -7.726  13.031  67.972  1.00  0.00    -0.145 C  
HETATM    7  C   UNL     1      -6.530  15.847  68.753  1.00  0.00    -0.116 C  
HETATM    8  C   UNL     1      -8.190  16.564  68.144  1.00  0.00    -0.181 C  
HETATM    9  C   UNL     1      -5.407  16.792  69.109  1.00  0.00    -0.131 C  
HETATM   10  C   UNL     1      -7.371  11.745  67.195  1.00  0.00    -0.146 C  
HETATM   11  H   UNL     1      -8.177  15.882  71.197  1.00  0.00     0.000 HD 
HETATM   12  C   UNL     1      -8.247  11.324  66.013  1.00  0.00    -0.045 C  
HETATM   13  C   UNL     1      -9.423  15.300  68.025  1.00  0.00    -0.198 C  
HETATM   14  C   UNL     1      -9.041  13.828  67.379  1.00  0.00    -0.221 C  
HETATM   15  C   UNL     1      -9.421  12.157  65.590  1.00  0.00    -0.117 C  
HETATM   16  C   UNL     1     -10.118  11.714  64.526  1.00  0.00    -0.321 C  
HETATM   17  C   UNL     1      -9.750  13.382  66.291  1.00  0.00    -0.280 C  
HETATM   18  O   UNL     1     -11.854  11.910  62.981  1.00  0.00    -0.230 OA 
HETATM   19  C   UNL     1     -10.901  14.208  65.720  1.00  0.00    -0.297 C  
HETATM   20  C   UNL     1     -11.739  13.694  64.554  1.00  0.00    -0.429 C  
HETATM   21  C   UNL     1     -11.281  12.405  63.951  1.00  0.00    -0.422 C  
ENDROOT
BRANCH   4  22
HETATM   22  C   UNL     1      -6.369  14.378  70.705  1.00  0.00    -0.035 C  
HETATM   23  C   UNL     1      -5.831  14.256  71.886  1.00  0.00    -0.053 C  
HETATM   24  C   UNL     1      -5.202  14.115  73.263  1.00  0.00    -0.336 C  
ENDBRANCH   4  22
BRANCH  13  25
HETATM   25  C   UNL     1     -10.269  15.098  69.293  1.00  0.00    -0.251 A  
HETATM   26  C   UNL     1     -11.881  15.975  70.890  1.00  0.00    -0.409 A  
HETATM   27  C   UNL     1     -11.723  13.628  70.558  1.00  0.00    -0.175 A  
HETATM   28  C   UNL     1     -10.663  13.812  69.658  1.00  0.00     0.171 A  
HETATM   29  C   UNL     1     -10.809  16.168  70.020  1.00  0.00    -0.349 A  
HETATM   30  C   UNL     1     -12.417  14.707  71.126  1.00  0.00    -0.332 A  
BRANCH  30  31
HETATM   31  N   UNL     1     -13.583  14.553  71.849  1.00  0.00    -0.362 NA 
HETATM   32  C   UNL     1     -14.402  15.681  72.262  1.00  0.00    -0.390 C  
HETATM   33  C   UNL     1     -14.013  13.239  72.318  1.00  0.00    -0.461 C  
ENDBRANCH  30  31
ENDBRANCH  13  25
TORSDOF 3
ENDMDL
MODEL       52
REMARK 921   NORMALIZED FREE ENERGY PREDICTED BY IDOCK:   -4.24 KCAL/MOL
REMARK 922        TOTAL FREE ENERGY PREDICTED BY IDOCK:   -5.62 KCAL/MOL
REMARK 923 INTER-LIGAND FREE ENERGY PREDICTED BY IDOCK:   -4.78 KCAL/MOL
REMARK 924 INTRA-LIGAND FREE ENERGY PREDICTED BY IDOCK:   -0.83 KCAL/MOL
REMARK 927      BINDING AFFINITY PREDICTED BY RF-SCORE:    0.00 PKD
ROOT
HETATM    1  C   UNL     1     -10.965  16.616  69.949  1.00  0.00    -0.194 C  
HETATM    2  C   UNL     1     -10.553  16.537  71.304  1.00  0.00     1.317 C  
HETATM    3  C   UNL     1      -9.885  15.647  70.312  1.00  0.00     0.201 C  
HETATM    4  C   UNL     1     -10.183  16.097  68.309  1.00  0.00    -0.248 C  
HETATM    5  O   UNL     1      -9.312  15.772  67.204  1.00  0.00    -0.207 OA 
HETATM    6  C   UNL     1     -12.083  15.194  69.631  1.00  0.00    -0.336 C  
HETATM    7  C   UNL     1      -9.182  16.365  69.197  1.00  0.00    -0.216 C  
HETATM    8  C   UNL     1      -8.640  14.552  68.950  1.00  0.00    -0.103 C  
HETATM    9  C   UNL     1      -8.129  17.443  69.282  1.00  0.00     0.154 C  
HETATM   10  C   UNL     1     -13.283  15.276  70.599  1.00  0.00    -0.370 C  
HETATM   11  H   UNL     1      -9.449  15.979  66.287  1.00  0.00     0.000 HD 
HETATM   12  C   UNL     1     -13.752  14.007  71.312  1.00  0.00    -0.227 C  
HETATM   13  C   UNL     1     -10.034  13.509  68.635  1.00  0.00    -0.149 C  
HETATM   14  C   UNL     1     -11.421  13.689  69.514  1.00  0.00    -0.324 C  
HETATM   15  C   UNL     1     -13.046  12.700  71.102  1.00  0.00    -0.144 C  
HETATM   16  C   UNL     1     -13.520  11.645  71.790  1.00  0.00    -0.190 C  
HETATM   17  C   UNL     1     -11.899  12.612  70.219  1.00  0.00    -0.295 C  
HETATM   18  O   UNL     1     -13.461   9.393  72.396  1.00  0.00    -0.457 OA 
HETATM   19  C   UNL     1     -11.190  11.261  70.152  1.00  0.00    -0.151 C  
HETATM   20  C   UNL     1     -11.748  10.040  70.876  1.00  0.00    -0.462 C  
HETATM   21  C   UNL     1     -12.946  10.291  71.734  1.00  0.00    -0.469 C  
ENDROOT
BRANCH   4  22
HETATM   22  C   UNL     1     -10.707  17.502  67.654  1.00  0.00    -0.306 C  
HETATM   23  C   UNL     1     -10.695  18.676  67.089  1.00  0.00    -0.433 C  
HETATM   24  C   UNL     1     -10.681  20.047  66.431  1.00  0.00    -0.353 C  
ENDBRANCH   4  22
BRANCH  13  25
HETATM   25  C   UNL     1     -10.390  13.335  67.148  1.00  0.00    -0.248 A  
HETATM   26  C   UNL     1      -9.820  12.454  64.954  1.00  0.00    -0.122 A  
HETATM   27  C   UNL     1     -12.101  12.818  65.511  1.00  0.00    -0.517 A  
HETATM   28  C   UNL     1     -11.727  13.342  66.757  1.00  0.00    -0.429 A  
HETATM   29  C   UNL     1      -9.436  13.001  66.177  1.00  0.00    -0.159 A  
HETATM   30  C   UNL     1     -11.164  12.277  64.618  1.00  0.00    -0.315 A  
BRANCH  30  31
HETATM   31  N   UNL     1     -11.525  11.576  63.484  1.00  0.00    -0.346 NA 
HETATM   32  C   UNL     1     -10.583  10.762  62.735  1.00  0.00     0.649 C  
HETATM   33  C   UNL     1     -12.868  11.688  62.922  1.00  0.00     0.670 C  
ENDBRANCH  30  31
ENDBRANCH  13  25
TORSDOF 3
ENDMDL
MODEL       53
REMARK 921   NORMALIZED FREE ENERGY PREDICTED BY IDOCK:   -4.21 KCAL/MOL
REMARK 922        TOTAL FREE ENERGY PREDICTED BY IDOCK:   -5.58 KCAL/MOL
REMARK 923 INTER-LIGAND FREE ENERGY PREDICTED BY IDOCK:   -4.85 KCAL/MOL
REMARK 924 INTRA-LIGAND FREE ENERGY PREDICTED BY IDOCK:   -0.74 KCAL/MOL
REMARK 927      BINDING AFFINITY PREDICTED BY RF-SCORE:    0.00 PKD
ROOT
HETATM    1  C   UNL     1     -11.203  13.602  68.228  1.00  0.00    -0.302 C  
HETATM    2  C   UNL     1     -11.880  14.413  67.281  1.00  0.00    -0.434 C  
HETATM    3  C   UNL     1     -10.585  13.792  66.879  1.00  0.00    -0.276 C  
HETATM    4  C   UNL     1      -9.861  12.279  68.098  1.00  0.00    -0.212 C  
HETATM    5  O   UNL     1      -8.975  11.203  67.719  1.00  0.00    -0.135 OA 
HETATM    6  C   UNL     1      -9.850  14.613  68.950  1.00  0.00    -0.211 C  
HETATM    7  C   UNL     1     -10.566  12.292  66.930  1.00  0.00    -0.249 C  
HETATM    8  C   UNL     1      -8.912  12.716  66.077  1.00  0.00     0.201 C  
HETATM    9  C   UNL     1     -11.504  11.311  66.270  1.00  0.00     0.076 C  
HETATM   10  C   UNL     1     -10.461  15.869  69.606  1.00  0.00    -0.295 C  
HETATM   11  H   UNL     1      -8.644  10.510  68.278  1.00  0.00     0.000 HD 
HETATM   12  C   UNL     1      -9.797  17.227  69.374  1.00  0.00     0.024 C  
HETATM   13  C   UNL     1      -7.879  13.683  67.139  1.00  0.00    -0.028 C  
HETATM   14  C   UNL     1      -8.524  14.922  68.021  1.00  0.00    -0.151 C  
HETATM   15  C   UNL     1      -8.585  17.353  68.499  1.00  0.00    -0.270 C  
HETATM   16  C   UNL     1      -8.087  18.592  68.339  1.00  0.00    -0.360 C  
HETATM   17  C   UNL     1      -8.017  16.186  67.852  1.00  0.00    -0.150 C  
HETATM   18  O   UNL     1      -6.540  20.083  67.430  1.00  0.00    -0.204 OA 
HETATM   19  C   UNL     1      -6.846  16.435  66.902  1.00  0.00    -0.231 C  
HETATM   20  C   UNL     1      -6.230  17.822  66.755  1.00  0.00    -0.198 C  
HETATM   21  C   UNL     1      -6.921  18.917  67.502  1.00  0.00    -0.202 C  
ENDROOT
BRANCH   4  22
HETATM   22  C   UNL     1     -10.678  11.391  69.204  1.00  0.00    -0.229 C  
HETATM   23  C   UNL     1     -11.042  10.386  69.950  1.00  0.00    -0.367 C  
HETATM   24  C   UNL     1     -11.468   9.213  70.819  1.00  0.00    -0.337 C  
ENDBRANCH   4  22
BRANCH  13  25
HETATM   25  C   UNL     1      -6.918  12.871  68.023  1.00  0.00    -0.108 A  
HETATM   26  C   UNL     1      -6.341  11.982  70.212  1.00  0.00     0.107 A  
HETATM   27  C   UNL     1      -5.563  10.875  68.259  1.00  0.00    -0.043 A  
HETATM   28  C   UNL     1      -6.145  11.862  67.451  1.00  0.00    -0.119 A  
HETATM   29  C   UNL     1      -6.898  12.985  69.420  1.00  0.00     0.038 A  
HETATM   30  C   UNL     1      -5.724  10.861  69.653  1.00  0.00    -0.046 A  
BRANCH  30  31
HETATM   31  N   UNL     1      -5.337   9.796  70.443  1.00  0.00    -0.036 NA 
HETATM   32  C   UNL     1      -5.191   8.448  69.922  1.00  0.00    -0.026 C  
HETATM   33  C   UNL     1      -5.136   9.956  71.881  1.00  0.00    -0.075 C  
ENDBRANCH  30  31
ENDBRANCH  13  25
TORSDOF 3
ENDMDL
MODEL       54
REMARK 921   NORMALIZED FREE ENERGY PREDICTED BY IDOCK:   -4.07 KCAL/MOL
REMARK 922        TOTAL FREE ENERGY PREDICTED BY IDOCK:   -5.42 KCAL/MOL
REMARK 923 INTER-LIGAND FREE ENERGY PREDICTED BY IDOCK:   -4.73 KCAL/MOL
REMARK 924 INTRA-LIGAND FREE ENERGY PREDICTED BY IDOCK:   -0.69 KCAL/MOL
REMARK 927      BINDING AFFINITY PREDICTED BY RF-SCORE:    0.00 PKD
ROOT
HETATM    1  C   UNL     1      -9.478   9.501  70.229  1.00  0.00    -0.307 C  
HETATM    2  C   UNL     1     -10.188  10.418  69.414  1.00  0.00    -0.257 C  
HETATM    3  C   UNL     1     -10.509   8.967  69.286  1.00  0.00    -0.238 C  
HETATM    4  C   UNL     1      -9.792   7.722  70.782  1.00  0.00    -0.180 C  
HETATM    5  O   UNL     1     -10.339   6.450  71.193  1.00  0.00    -0.199 OA 
HETATM    6  C   UNL     1      -8.177   8.731  69.186  1.00  0.00    -0.119 C  
HETATM    7  C   UNL     1     -10.996   8.318  70.549  1.00  0.00    -0.253 C  
HETATM    8  C   UNL     1     -11.277   6.965  69.232  1.00  0.00    -0.188 C  
HETATM    9  C   UNL     1     -12.144   8.728  71.440  1.00  0.00    -0.361 C  
HETATM   10  C   UNL     1      -7.255   9.841  68.637  1.00  0.00    -0.073 C  
HETATM   11  H   UNL     1     -10.010   5.880  71.878  1.00  0.00     0.000 HD 
HETATM   12  C   UNL     1      -6.842   9.803  67.165  1.00  0.00    -0.083 C  
HETATM   13  C   UNL     1      -9.749   6.480  68.484  1.00  0.00    -0.129 C  
HETATM   14  C   UNL     1      -8.636   7.623  68.055  1.00  0.00    -0.123 C  
HETATM   15  C   UNL     1      -7.341   8.723  66.251  1.00  0.00    -0.087 C  
HETATM   16  C   UNL     1      -6.938   8.788  64.969  1.00  0.00    -0.076 C  
HETATM   17  C   UNL     1      -8.231   7.690  66.745  1.00  0.00    -0.124 C  
HETATM   18  O   UNL     1      -6.909   7.981  62.781  1.00  0.00    -0.084 OA 
HETATM   19  C   UNL     1      -8.763   6.697  65.714  1.00  0.00    -0.126 C  
HETATM   20  C   UNL     1      -8.271   6.718  64.270  1.00  0.00     0.036 C  
HETATM   21  C   UNL     1      -7.342   7.836  63.923  1.00  0.00    -0.096 C  
ENDROOT
BRANCH   4  22
HETATM   22  C   UNL     1      -9.274   8.131  72.279  1.00  0.00    -0.266 C  
HETATM   23  C   UNL     1      -8.491   8.301  73.307  1.00  0.00    -0.267 C  
HETATM   24  C   UNL     1      -7.579   8.498  74.507  1.00  0.00    -0.230 C  
ENDBRANCH   4  22
BRANCH  13  25
HETATM   25  C   UNL     1      -9.036   5.303  69.169  1.00  0.00    -0.136 A  
HETATM   26  C   UNL     1      -7.307   4.502  70.680  1.00  0.00    -0.049 A  
HETATM   27  C   UNL     1      -9.257   3.188  70.334  1.00  0.00    -0.215 A  
HETATM   28  C   UNL     1      -9.733   4.118  69.398  1.00  0.00    -0.233 A  
HETATM   29  C   UNL     1      -7.757   5.416  69.730  1.00  0.00    -0.077 A  
HETATM   30  C   UNL     1      -8.078   3.402  71.065  1.00  0.00    -0.062 A  
BRANCH  30  31
HETATM   31  N   UNL     1      -7.700   2.607  72.129  1.00  0.00    -0.052 NA 
HETATM   32  C   UNL     1      -8.636   2.170  73.150  1.00  0.00    -0.066 C  
HETATM   33  C   UNL     1      -6.303   2.234  72.334  1.00  0.00    -0.014 C  
ENDBRANCH  30  31
ENDBRANCH  13  25
TORSDOF 3
ENDMDL
MODEL       55
REMARK 921   NORMALIZED FREE ENERGY PREDICTED BY IDOCK:   -4.04 KCAL/MOL
REMARK 922        TOTAL FREE ENERGY PREDICTED BY IDOCK:   -5.38 KCAL/MOL
REMARK 923 INTER-LIGAND FREE ENERGY PREDICTED BY IDOCK:   -4.69 KCAL/MOL
REMARK 924 INTRA-LIGAND FREE ENERGY PREDICTED BY IDOCK:   -0.69 KCAL/MOL
REMARK 927      BINDING AFFINITY PREDICTED BY RF-SCORE:    0.00 PKD
ROOT
HETATM    1  C   UNL     1      -7.848   9.730  66.364  1.00  0.00    -0.106 C  
HETATM    2  C   UNL     1      -8.302  10.011  65.050  1.00  0.00    -0.158 C  
HETATM    3  C   UNL     1      -9.295   9.521  66.050  1.00  0.00    -0.273 C  
HETATM    4  C   UNL     1      -8.706   9.551  68.038  1.00  0.00    -0.120 C  
HETATM    5  O   UNL     1      -9.561   9.635  69.199  1.00  0.00    -0.161 OA 
HETATM    6  C   UNL     1      -7.652   7.908  66.500  1.00  0.00    -0.092 C  
HETATM    7  C   UNL     1      -9.448  10.392  67.262  1.00  0.00    -0.176 C  
HETATM    8  C   UNL     1     -10.865   9.130  67.457  1.00  0.00    -0.151 C  
HETATM    9  C   UNL     1      -9.762  11.867  67.332  1.00  0.00    -0.189 C  
HETATM   10  C   UNL     1      -6.644   7.433  65.433  1.00  0.00    -0.044 C  
HETATM   11  H   UNL     1      -9.290   9.649  70.109  1.00  0.00     0.000 HD 
HETATM   12  C   UNL     1      -6.963   6.182  64.611  1.00  0.00    -0.051 C  
HETATM   13  C   UNL     1     -10.234   7.481  67.587  1.00  0.00    -0.275 C  
HETATM   14  C   UNL     1      -9.012   6.981  66.595  1.00  0.00    -0.157 C  
HETATM   15  C   UNL     1      -8.250   5.436  64.813  1.00  0.00    -0.132 C  
HETATM   16  C   UNL     1      -8.448   4.361  64.028  1.00  0.00    -0.116 C  
HETATM   17  C   UNL     1      -9.220   5.887  65.792  1.00  0.00    -0.059 C  
HETATM   18  O   UNL     1      -9.734   2.554  63.308  1.00  0.00    -0.095 OA 
HETATM   19  C   UNL     1     -10.538   5.119  65.849  1.00  0.00    -0.164 C  
HETATM   20  C   UNL     1     -10.758   3.864  65.012  1.00  0.00     0.033 C  
HETATM   21  C   UNL     1      -9.655   3.521  64.063  1.00  0.00    -0.153 C  
ENDROOT
BRANCH   4  22
HETATM   22  C   UNL     1      -7.479  10.395  68.718  1.00  0.00    -0.093 C  
HETATM   23  C   UNL     1      -6.639  10.844  69.607  1.00  0.00    -0.123 C  
HETATM   24  C   UNL     1      -5.659  11.369  70.644  1.00  0.00    -0.135 C  
ENDBRANCH   4  22
BRANCH  13  25
HETATM   25  C   UNL     1      -9.957   7.004  69.022  1.00  0.00    -0.164 A  
HETATM   26  C   UNL     1      -8.405   6.758  70.878  1.00  0.00    -0.128 A  
HETATM   27  C   UNL     1     -10.738   6.884  71.314  1.00  0.00    -0.249 A  
HETATM   28  C   UNL     1     -11.005   6.940  69.939  1.00  0.00    -0.318 A  
HETATM   29  C   UNL     1      -8.661   6.784  69.508  1.00  0.00    -0.133 A  
HETATM   30  C   UNL     1      -9.429   6.883  71.820  1.00  0.00    -0.153 A  
BRANCH  30  31
HETATM   31  N   UNL     1      -9.143   7.033  73.163  1.00  0.00    -0.131 NA 
HETATM   32  C   UNL     1     -10.151   6.881  74.198  1.00  0.00    -0.316 C  
HETATM   33  C   UNL     1      -7.816   7.444  73.612  1.00  0.00    -0.112 C  
ENDBRANCH  30  31
ENDBRANCH  13  25
TORSDOF 3
ENDMDL
MODEL       56
REMARK 921   NORMALIZED FREE ENERGY PREDICTED BY IDOCK:   -3.89 KCAL/MOL
REMARK 922        TOTAL FREE ENERGY PREDICTED BY IDOCK:   -5.20 KCAL/MOL
REMARK 923 INTER-LIGAND FREE ENERGY PREDICTED BY IDOCK:   -5.04 KCAL/MOL
REMARK 924 INTRA-LIGAND FREE ENERGY PREDICTED BY IDOCK:   -0.16 KCAL/MOL
REMARK 927      BINDING AFFINITY PREDICTED BY RF-SCORE:    0.00 PKD
ROOT
HETATM    1  C   UNL     1      -7.829  17.287  67.347  1.00  0.00    -0.198 C  
HETATM    2  C   UNL     1      -6.953  17.306  66.231  1.00  0.00    -0.299 C  
HETATM    3  C   UNL     1      -8.234  16.551  66.109  1.00  0.00    -0.279 C  
HETATM    4  C   UNL     1      -9.667  16.911  67.565  1.00  0.00    -0.249 C  
HETATM    5  O   UNL     1     -11.097  16.749  67.438  1.00  0.00    -0.156 OA 
HETATM    6  C   UNL     1      -7.608  15.670  68.191  1.00  0.00    -0.124 C  
HETATM    7  C   UNL     1      -9.471  17.380  66.299  1.00  0.00    -0.247 C  
HETATM    8  C   UNL     1     -10.161  15.704  65.699  1.00  0.00    -0.402 C  
HETATM    9  C   UNL     1      -9.881  18.643  65.582  1.00  0.00     0.384 C  
HETATM   10  C   UNL     1      -6.132  15.528  68.620  1.00  0.00    -0.097 C  
HETATM   11  H   UNL     1     -11.753  16.914  68.105  1.00  0.00     0.000 HD 
HETATM   12  C   UNL     1      -5.412  14.200  68.380  1.00  0.00    -0.107 C  
HETATM   13  C   UNL     1      -9.746  14.406  66.828  1.00  0.00    -0.278 C  
HETATM   14  C   UNL     1      -8.228  14.322  67.473  1.00  0.00    -0.201 C  
HETATM   15  C   UNL     1      -6.113  13.053  67.712  1.00  0.00    -0.151 C  
HETATM   16  C   UNL     1      -5.388  11.934  67.527  1.00  0.00    -0.084 C  
HETATM   17  C   UNL     1      -7.490  13.181  67.278  1.00  0.00    -0.076 C  
HETATM   18  O   UNL     1      -5.151   9.745  66.758  1.00  0.00    -0.039 OA 
HETATM   19  C   UNL     1      -8.079  11.994  66.519  1.00  0.00     0.054 C  
HETATM   20  C   UNL     1      -7.295  10.696  66.352  1.00  0.00    -0.138 C  
HETATM   21  C   UNL     1      -5.893  10.719  66.871  1.00  0.00    -0.068 C  
ENDROOT
BRANCH   4  22
HETATM   22  C   UNL     1      -9.770  18.179  68.594  1.00  0.00    -0.367 C  
HETATM   23  C   UNL     1     -10.036  19.366  69.061  1.00  0.00    -0.477 C  
HETATM   24  C   UNL     1     -10.345  20.751  69.607  1.00  0.00     0.657 C  
ENDBRANCH   4  22
BRANCH  13  25
HETATM   25  C   UNL     1     -10.786  14.148  67.930  1.00  0.00    -0.253 A  
HETATM   26  C   UNL     1     -12.504  12.717  68.888  1.00  0.00     0.437 A  
HETATM   27  C   UNL     1     -11.298  14.200  70.299  1.00  0.00    -0.093 A  
HETATM   28  C   UNL     1     -10.602  14.708  69.193  1.00  0.00    -0.247 A  
HETATM   29  C   UNL     1     -11.838  13.235  67.778  1.00  0.00    -0.394 A  
HETATM   30  C   UNL     1     -12.199  13.130  70.186  1.00  0.00    -0.290 A  
BRANCH  30  31
HETATM   31  N   UNL     1     -12.738  12.484  71.282  1.00  0.00    -0.324 NA 
HETATM   32  C   UNL     1     -12.611  11.051  71.485  1.00  0.00    -0.356 C  
HETATM   33  C   UNL     1     -13.551  13.203  72.258  1.00  0.00    -0.581 C  
ENDBRANCH  30  31
ENDBRANCH  13  25
TORSDOF 3
ENDMDL
MODEL       57
REMARK 921   NORMALIZED FREE ENERGY PREDICTED BY IDOCK:   -3.86 KCAL/MOL
REMARK 922        TOTAL FREE ENERGY PREDICTED BY IDOCK:   -5.17 KCAL/MOL
REMARK 923 INTER-LIGAND FREE ENERGY PREDICTED BY IDOCK:   -4.64 KCAL/MOL
REMARK 924 INTRA-LIGAND FREE ENERGY PREDICTED BY IDOCK:   -0.53 KCAL/MOL
REMARK 927      BINDING AFFINITY PREDICTED BY RF-SCORE:    0.00 PKD
ROOT
HETATM    1  C   UNL     1     -10.871  10.009  68.277  1.00  0.00    -0.286 C  
HETATM    2  C   UNL     1     -11.331  10.147  69.612  1.00  0.00    -0.289 C  
HETATM    3  C   UNL     1      -9.895  10.434  69.328  1.00  0.00    -0.243 C  
HETATM    4  C   UNL     1      -9.368  10.659  67.335  1.00  0.00    -0.143 C  
HETATM    5  O   UNL     1      -8.251  11.408  66.808  1.00  0.00    -0.151 OA 
HETATM    6  C   UNL     1      -9.991   8.401  68.163  1.00  0.00    -0.224 C  
HETATM    7  C   UNL     1      -9.659  11.537  68.337  1.00  0.00    -0.195 C  
HETATM    8  C   UNL     1      -7.908  11.173  69.002  1.00  0.00    -0.103 C  
HETATM    9  C   UNL     1     -10.176  12.955  68.361  1.00  0.00    -0.238 C  
HETATM   10  C   UNL     1     -10.966   7.269  68.551  1.00  0.00    -0.029 C  
HETATM   11  H   UNL     1      -8.011  11.511  65.894  1.00  0.00     0.000 HD 
HETATM   12  C   UNL     1     -10.483   6.159  69.486  1.00  0.00    -0.315 C  
HETATM   13  C   UNL     1      -7.428   9.507  68.650  1.00  0.00    -0.079 C  
HETATM   14  C   UNL     1      -8.504   8.271  68.862  1.00  0.00    -0.128 C  
HETATM   15  C   UNL     1      -9.091   6.175  70.046  1.00  0.00    -0.151 C  
HETATM   16  C   UNL     1      -8.767   5.166  70.876  1.00  0.00    -0.142 C  
HETATM   17  C   UNL     1      -8.172   7.246  69.714  1.00  0.00    -0.130 C  
HETATM   18  O   UNL     1      -7.264   4.059  72.275  1.00  0.00    -0.053 OA 
HETATM   19  C   UNL     1      -6.815   7.225  70.414  1.00  0.00    -0.053 C  
HETATM   20  C   UNL     1      -6.408   6.060  71.310  1.00  0.00    -0.044 C  
HETATM   21  C   UNL     1      -7.462   5.025  71.540  1.00  0.00    -0.087 C  
ENDROOT
BRANCH   4  22
HETATM   22  C   UNL     1     -10.345  10.965  66.057  1.00  0.00    -0.304 C  
HETATM   23  C   UNL     1     -11.275  11.503  65.321  1.00  0.00    -0.203 C  
HETATM   24  C   UNL     1     -12.361  12.130  64.461  1.00  0.00    -0.395 C  
ENDBRANCH   4  22
BRANCH  13  25
HETATM   25  C   UNL     1      -6.683   9.314  67.319  1.00  0.00    -0.069 A  
HETATM   26  C   UNL     1      -6.691   8.541  65.013  1.00  0.00    -0.064 A  
HETATM   27  C   UNL     1      -5.198  10.272  65.660  1.00  0.00    -0.067 A  
HETATM   28  C   UNL     1      -5.635  10.172  66.988  1.00  0.00    -0.045 A  
HETATM   29  C   UNL     1      -7.112   8.413  66.336  1.00  0.00    -0.071 A  
HETATM   30  C   UNL     1      -5.779   9.524  64.625  1.00  0.00    -0.071 A  
BRANCH  30  31
HETATM   31  N   UNL     1      -5.507   9.752  63.290  1.00  0.00    -0.085 NA 
HETATM   32  C   UNL     1      -5.362  11.089  62.739  1.00  0.00    -0.106 C  
HETATM   33  C   UNL     1      -5.438   8.650  62.334  1.00  0.00    -0.072 C  
ENDBRANCH  30  31
ENDBRANCH  13  25
TORSDOF 3
ENDMDL
MODEL       58
REMARK 921   NORMALIZED FREE ENERGY PREDICTED BY IDOCK:   -3.83 KCAL/MOL
REMARK 922        TOTAL FREE ENERGY PREDICTED BY IDOCK:   -5.14 KCAL/MOL
REMARK 923 INTER-LIGAND FREE ENERGY PREDICTED BY IDOCK:   -4.22 KCAL/MOL
REMARK 924 INTRA-LIGAND FREE ENERGY PREDICTED BY IDOCK:   -0.92 KCAL/MOL
REMARK 927      BINDING AFFINITY PREDICTED BY RF-SCORE:    0.00 PKD
ROOT
HETATM    1  C   UNL     1     -10.807   9.795  69.285  1.00  0.00    -0.240 C  
HETATM    2  C   UNL     1     -10.987  10.401  70.555  1.00  0.00    -0.270 C  
HETATM    3  C   UNL     1      -9.625   9.909  70.194  1.00  0.00    -0.237 C  
HETATM    4  C   UNL     1      -9.300   9.449  68.199  1.00  0.00    -0.133 C  
HETATM    5  O   UNL     1      -8.037   9.455  67.498  1.00  0.00    -0.108 OA 
HETATM    6  C   UNL     1     -10.784   7.976  69.542  1.00  0.00    -0.185 C  
HETATM    7  C   UNL     1      -9.033  10.542  68.970  1.00  0.00    -0.183 C  
HETATM    8  C   UNL     1      -7.577   9.534  69.682  1.00  0.00    -0.103 C  
HETATM    9  C   UNL     1      -8.834  12.007  68.665  1.00  0.00    -0.024 C  
HETATM   10  C   UNL     1     -12.114   7.548  70.197  1.00  0.00     0.303 C  
HETATM   11  H   UNL     1      -7.889   9.244  66.583  1.00  0.00     0.000 HD 
HETATM   12  C   UNL     1     -12.084   6.556  71.362  1.00  0.00    -0.344 C  
HETATM   13  C   UNL     1      -7.961   7.808  69.727  1.00  0.00    -0.115 C  
HETATM   14  C   UNL     1      -9.449   7.302  70.236  1.00  0.00    -0.165 C  
HETATM   15  C   UNL     1     -10.783   6.023  71.887  1.00  0.00    -0.282 C  
HETATM   16  C   UNL     1     -10.860   5.173  72.927  1.00  0.00    -0.324 C  
HETATM   17  C   UNL     1      -9.524   6.438  71.301  1.00  0.00    -0.175 C  
HETATM   18  O   UNL     1      -9.875   3.794  74.530  1.00  0.00    -0.118 OA 
HETATM   19  C   UNL     1      -8.254   5.918  71.971  1.00  0.00    -0.112 C  
HETATM   20  C   UNL     1      -8.321   4.908  73.112  1.00  0.00    -0.104 C  
HETATM   21  C   UNL     1      -9.696   4.567  73.591  1.00  0.00    -0.131 C  
ENDROOT
BRANCH   4  22
HETATM   22  C   UNL     1     -10.174   9.915  66.896  1.00  0.00    -0.302 C  
HETATM   23  C   UNL     1     -10.471  10.379  65.715  1.00  0.00    -0.187 C  
HETATM   24  C   UNL     1     -10.817  10.921  64.338  1.00  0.00    -0.137 C  
ENDBRANCH   4  22
BRANCH  13  25
HETATM   25  C   UNL     1      -7.554   7.020  68.470  1.00  0.00    -0.115 A  
HETATM   26  C   UNL     1      -5.860   5.789  67.234  1.00  0.00    -0.017 A  
HETATM   27  C   UNL     1      -8.158   5.324  66.847  1.00  0.00    -0.104 A  
HETATM   28  C   UNL     1      -8.528   6.336  67.744  1.00  0.00    -0.116 A  
HETATM   29  C   UNL     1      -6.217   6.817  68.105  1.00  0.00    -0.033 A  
HETATM   30  C   UNL     1      -6.817   4.965  66.638  1.00  0.00    -0.062 A  
BRANCH  30  31
HETATM   31  N   UNL     1      -6.443   3.846  65.921  1.00  0.00    -0.033 NA 
HETATM   32  C   UNL     1      -5.723   2.736  66.522  1.00  0.00    -0.022 C  
HETATM   33  C   UNL     1      -6.675   3.759  64.482  1.00  0.00    -0.044 C  
ENDBRANCH  30  31
ENDBRANCH  13  25
TORSDOF 3
ENDMDL
MODEL       59
REMARK 921   NORMALIZED FREE ENERGY PREDICTED BY IDOCK:   -3.82 KCAL/MOL
REMARK 922        TOTAL FREE ENERGY PREDICTED BY IDOCK:   -5.13 KCAL/MOL
REMARK 923 INTER-LIGAND FREE ENERGY PREDICTED BY IDOCK:   -4.40 KCAL/MOL
REMARK 924 INTRA-LIGAND FREE ENERGY PREDICTED BY IDOCK:   -0.73 KCAL/MOL
REMARK 927      BINDING AFFINITY PREDICTED BY RF-SCORE:    0.00 PKD
ROOT
HETATM    1  C   UNL     1      -8.684   9.448  70.322  1.00  0.00    -0.261 C  
HETATM    2  C   UNL     1      -8.262   8.943  71.579  1.00  0.00    -0.143 C  
HETATM    3  C   UNL     1      -7.377   8.724  70.398  1.00  0.00    -0.063 C  
HETATM    4  C   UNL     1      -7.796   9.842  68.702  1.00  0.00    -0.086 C  
HETATM    5  O   UNL     1      -6.873  10.218  67.656  1.00  0.00    -0.074 OA 
HETATM    6  C   UNL     1      -9.369   8.037  69.366  1.00  0.00    -0.155 C  
HETATM    7  C   UNL     1      -6.904   9.979  69.725  1.00  0.00    -0.094 C  
HETATM    8  C   UNL     1      -5.885   8.617  68.861  1.00  0.00    -0.040 C  
HETATM    9  C   UNL     1      -6.189  11.163  70.330  1.00  0.00    -0.134 C  
HETATM   10  C   UNL     1     -10.541   7.419  70.157  1.00  0.00    -0.240 C  
HETATM   11  H   UNL     1      -7.065  10.730  66.880  1.00  0.00     0.000 HD 
HETATM   12  C   UNL     1     -10.640   5.897  70.274  1.00  0.00    -0.354 C  
HETATM   13  C   UNL     1      -6.939   7.470  68.023  1.00  0.00    -0.072 C  
HETATM   14  C   UNL     1      -8.318   6.925  68.751  1.00  0.00    -0.121 C  
HETATM   15  C   UNL     1      -9.601   5.008  69.655  1.00  0.00    -0.240 C  
HETATM   16  C   UNL     1      -9.764   3.684  69.830  1.00  0.00    -0.166 C  
HETATM   17  C   UNL     1      -8.479   5.574  68.933  1.00  0.00    -0.101 C  
HETATM   18  O   UNL     1      -9.085   1.473  69.529  1.00  0.00    -0.077 OA 
HETATM   19  C   UNL     1      -7.425   4.590  68.429  1.00  0.00    -0.065 C  
HETATM   20  C   UNL     1      -7.622   3.084  68.565  1.00  0.00    -0.048 C  
HETATM   21  C   UNL     1      -8.840   2.659  69.321  1.00  0.00    -0.096 C  
ENDROOT
BRANCH   4  22
HETATM   22  C   UNL     1      -8.689  11.209  68.585  1.00  0.00    -0.153 C  
HETATM   23  C   UNL     1      -9.454  12.140  68.090  1.00  0.00    -0.205 C  
HETATM   24  C   UNL     1     -10.345  13.228  67.512  1.00  0.00    -0.229 C  
ENDBRANCH   4  22
BRANCH  13  25
HETATM   25  C   UNL     1      -7.238   7.817  66.555  1.00  0.00    -0.086 A  
HETATM   26  C   UNL     1      -8.760   8.732  64.893  1.00  0.00    -0.161 A  
HETATM   27  C   UNL     1      -6.420   8.768  64.481  1.00  0.00    -0.067 A  
HETATM   28  C   UNL     1      -6.183   8.092  65.686  1.00  0.00    -0.045 A  
HETATM   29  C   UNL     1      -8.538   8.034  66.079  1.00  0.00    -0.162 A  
HETATM   30  C   UNL     1      -7.704   9.185  64.099  1.00  0.00    -0.121 A  
BRANCH  30  31
HETATM   31  N   UNL     1      -7.933  10.023  63.025  1.00  0.00    -0.137 NA 
HETATM   32  C   UNL     1      -9.253  10.211  62.447  1.00  0.00    -0.297 C  
HETATM   33  C   UNL     1      -6.832  10.704  62.350  1.00  0.00    -0.103 C  
ENDBRANCH  30  31
ENDBRANCH  13  25
TORSDOF 3
ENDMDL
MODEL       60
REMARK 921   NORMALIZED FREE ENERGY PREDICTED BY IDOCK:   -3.79 KCAL/MOL
REMARK 922        TOTAL FREE ENERGY PREDICTED BY IDOCK:   -5.09 KCAL/MOL
REMARK 923 INTER-LIGAND FREE ENERGY PREDICTED BY IDOCK:   -4.37 KCAL/MOL
REMARK 924 INTRA-LIGAND FREE ENERGY PREDICTED BY IDOCK:   -0.71 KCAL/MOL
REMARK 927      BINDING AFFINITY PREDICTED BY RF-SCORE:    0.00 PKD
ROOT
HETATM    1  C   UNL     1     -10.860   9.858  70.988  1.00  0.00    -0.300 C  
HETATM    2  C   UNL     1     -12.101  10.485  70.705  1.00  0.00    -0.470 C  
HETATM    3  C   UNL     1     -11.762   9.230  69.973  1.00  0.00     0.079 C  
HETATM    4  C   UNL     1     -10.180   8.116  70.720  1.00  0.00    -0.194 C  
HETATM    5  O   UNL     1      -9.964   6.697  70.563  1.00  0.00    -0.179 OA 
HETATM    6  C   UNL     1      -9.702  10.298  69.632  1.00  0.00    -0.216 C  
HETATM    7  C   UNL     1     -11.536   8.033  70.850  1.00  0.00    -0.291 C  
HETATM    8  C   UNL     1     -11.539   7.287  69.093  1.00  0.00     0.424 C  
HETATM    9  C   UNL     1     -12.446   7.446  71.901  1.00  0.00    -0.334 C  
HETATM   10  C   UNL     1      -9.566  11.834  69.570  1.00  0.00     0.936 C  
HETATM   11  H   UNL     1      -9.239   6.187  70.906  1.00  0.00     0.000 HD 
HETATM   12  C   UNL     1      -9.608  12.531  68.208  1.00  0.00    -0.209 C  
HETATM   13  C   UNL     1     -10.232   7.966  68.112  1.00  0.00    -0.248 C  
HETATM   14  C   UNL     1      -9.914   9.586  68.160  1.00  0.00    -0.191 C  
HETATM   15  C   UNL     1      -9.806  11.743  66.946  1.00  0.00    -0.221 C  
HETATM   16  C   UNL     1      -9.850  12.448  65.801  1.00  0.00    -0.253 C  
HETATM   17  C   UNL     1      -9.964  10.303  66.991  1.00  0.00    -0.249 C  
HETATM   18  O   UNL     1     -10.076  12.591  63.483  1.00  0.00    -0.393 OA 
HETATM   19  C   UNL     1     -10.262   9.608  65.664  1.00  0.00    -0.104 C  
HETATM   20  C   UNL     1     -10.256  10.380  64.349  1.00  0.00    -0.245 C  
HETATM   21  C   UNL     1     -10.061  11.858  64.470  1.00  0.00    -0.271 C  
ENDROOT
BRANCH   4  22
HETATM   22  C   UNL     1      -9.505   8.188  72.208  1.00  0.00    -0.312 C  
HETATM   23  C   UNL     1      -8.608   8.188  73.154  1.00  0.00    -0.299 C  
HETATM   24  C   UNL     1      -7.563   8.186  74.259  1.00  0.00    -0.262 C  
ENDBRANCH   4  22
BRANCH  13  25
HETATM   25  C   UNL     1      -8.909   7.183  68.164  1.00  0.00    -0.126 A  
HETATM   26  C   UNL     1      -6.678   6.909  69.092  1.00  0.00    -0.053 A  
HETATM   27  C   UNL     1      -7.829   5.014  68.238  1.00  0.00    -0.086 A  
HETATM   28  C   UNL     1      -8.902   5.826  67.844  1.00  0.00    -0.108 A  
HETATM   29  C   UNL     1      -7.726   7.730  68.679  1.00  0.00    -0.118 A  
HETATM   30  C   UNL     1      -6.732   5.521  68.953  1.00  0.00    -0.053 A  
BRANCH  30  31
HETATM   31  N   UNL     1      -5.770   4.712  69.524  1.00  0.00    -0.016 NA 
HETATM   32  C   UNL     1      -5.145   3.614  68.806  1.00  0.00    -0.011 C  
HETATM   33  C   UNL     1      -5.390   4.864  70.926  1.00  0.00    -0.004 C  
ENDBRANCH  30  31
ENDBRANCH  13  25
TORSDOF 3
ENDMDL
MODEL       61
REMARK 921   NORMALIZED FREE ENERGY PREDICTED BY IDOCK:   -3.75 KCAL/MOL
REMARK 922        TOTAL FREE ENERGY PREDICTED BY IDOCK:   -5.04 KCAL/MOL
REMARK 923 INTER-LIGAND FREE ENERGY PREDICTED BY IDOCK:   -4.36 KCAL/MOL
REMARK 924 INTRA-LIGAND FREE ENERGY PREDICTED BY IDOCK:   -0.68 KCAL/MOL
REMARK 927      BINDING AFFINITY PREDICTED BY RF-SCORE:    0.00 PKD
ROOT
HETATM    1  C   UNL     1      -6.602   5.563  69.624  1.00  0.00    -0.050 C  
HETATM    2  C   UNL     1      -5.264   5.752  69.192  1.00  0.00    -0.004 C  
HETATM    3  C   UNL     1      -6.052   6.954  69.591  1.00  0.00    -0.033 C  
HETATM    4  C   UNL     1      -7.816   6.608  70.626  1.00  0.00    -0.106 C  
HETATM    5  O   UNL     1      -8.479   7.507  71.541  1.00  0.00    -0.113 OA 
HETATM    6  C   UNL     1      -7.700   6.004  68.219  1.00  0.00    -0.102 C  
HETATM    7  C   UNL     1      -6.548   6.937  71.007  1.00  0.00    -0.053 C  
HETATM    8  C   UNL     1      -6.961   8.708  70.426  1.00  0.00    -0.043 C  
HETATM    9  C   UNL     1      -5.762   6.745  72.282  1.00  0.00    -0.038 C  
HETATM   10  C   UNL     1      -7.355   5.103  67.014  1.00  0.00    -0.082 C  
HETATM   11  H   UNL     1      -9.287   7.348  72.015  1.00  0.00     0.000 HD 
HETATM   12  C   UNL     1      -7.240   5.731  65.624  1.00  0.00    -0.075 C  
HETATM   13  C   UNL     1      -8.086   8.682  69.061  1.00  0.00    -0.121 C  
HETATM   14  C   UNL     1      -7.875   7.597  67.833  1.00  0.00    -0.117 C  
HETATM   15  C   UNL     1      -7.430   7.206  65.427  1.00  0.00    -0.087 C  
HETATM   16  C   UNL     1      -7.288   7.666  64.170  1.00  0.00    -0.094 C  
HETATM   17  C   UNL     1      -7.726   8.070  66.553  1.00  0.00    -0.093 C  
HETATM   18  O   UNL     1      -7.272   9.396  62.605  1.00  0.00    -0.101 OA 
HETATM   19  C   UNL     1      -7.800   9.568  66.263  1.00  0.00    -0.100 C  
HETATM   20  C   UNL     1      -7.702  10.102  64.838  1.00  0.00    -0.143 C  
HETATM   21  C   UNL     1      -7.412   9.080  63.785  1.00  0.00    -0.107 C  
ENDROOT
BRANCH   4  22
HETATM   22  C   UNL     1      -8.276   5.252  71.418  1.00  0.00    -0.116 C  
HETATM   23  C   UNL     1      -9.012   4.262  71.838  1.00  0.00    -0.152 C  
HETATM   24  C   UNL     1      -9.871   3.108  72.330  1.00  0.00    -0.233 C  
ENDBRANCH   4  22
BRANCH  13  25
HETATM   25  C   UNL     1      -9.574   8.738  69.445  1.00  0.00    -0.163 A  
HETATM   26  C   UNL     1     -11.643   7.569  69.960  1.00  0.00     0.029 A  
HETATM   27  C   UNL     1     -11.279   9.745  70.843  1.00  0.00    -0.429 A  
HETATM   28  C   UNL     1     -10.058   9.832  70.160  1.00  0.00    -0.317 A  
HETATM   29  C   UNL     1     -10.445   7.657  69.254  1.00  0.00    -0.220 A  
HETATM   30  C   UNL     1     -12.058   8.577  70.833  1.00  0.00    -0.139 A  
BRANCH  30  31
HETATM   31  N   UNL     1     -13.153   8.399  71.656  1.00  0.00    -0.335 NA 
HETATM   32  C   UNL     1     -14.000   7.221  71.583  1.00  0.00    -0.363 C  
HETATM   33  C   UNL     1     -13.573   9.438  72.591  1.00  0.00    -0.266 C  
ENDBRANCH  30  31
ENDBRANCH  13  25
TORSDOF 3
ENDMDL
MODEL       62
REMARK 921   NORMALIZED FREE ENERGY PREDICTED BY IDOCK:   -3.72 KCAL/MOL
REMARK 922        TOTAL FREE ENERGY PREDICTED BY IDOCK:   -5.01 KCAL/MOL
REMARK 923 INTER-LIGAND FREE ENERGY PREDICTED BY IDOCK:   -4.55 KCAL/MOL
REMARK 924 INTRA-LIGAND FREE ENERGY PREDICTED BY IDOCK:   -0.46 KCAL/MOL
REMARK 927      BINDING AFFINITY PREDICTED BY RF-SCORE:    0.00 PKD
ROOT
HETATM    1  C   UNL     1      -6.150  14.109  68.104  1.00  0.00    -0.133 C  
HETATM    2  C   UNL     1      -5.671  14.769  69.264  1.00  0.00    -0.097 C  
HETATM    3  C   UNL     1      -7.119  14.413  69.202  1.00  0.00    -0.127 C  
HETATM    4  C   UNL     1      -7.684  13.075  67.722  1.00  0.00    -0.151 C  
HETATM    5  O   UNL     1      -8.828  12.194  67.735  1.00  0.00    -0.157 OA 
HETATM    6  C   UNL     1      -6.990  15.367  67.063  1.00  0.00     0.066 C  
HETATM    7  C   UNL     1      -7.399  12.947  69.050  1.00  0.00     0.057 C  
HETATM    8  C   UNL     1      -9.129  13.686  69.371  1.00  0.00     0.878 C  
HETATM    9  C   UNL     1      -6.919  11.799  69.905  1.00  0.00     0.310 C  
HETATM   10  C   UNL     1      -5.980  16.481  66.712  1.00  0.00     0.003 C  
HETATM   11  H   UNL     1      -9.087  11.580  67.057  1.00  0.00     0.000 HD 
HETATM   12  C   UNL     1      -6.419  17.943  66.813  1.00  0.00    -0.218 C  
HETATM   13  C   UNL     1      -9.572  14.840  68.104  1.00  0.00    -0.209 C  
HETATM   14  C   UNL     1      -8.461  15.929  67.550  1.00  0.00    -0.181 C  
HETATM   15  C   UNL     1      -7.801  18.302  67.273  1.00  0.00    -0.233 C  
HETATM   16  C   UNL     1      -8.085  19.615  67.350  1.00  0.00    -0.323 C  
HETATM   17  C   UNL     1      -8.752  17.268  67.634  1.00  0.00    -0.219 C  
HETATM   18  O   UNL     1      -9.535  21.379  67.826  1.00  0.00     0.032 OA 
HETATM   19  C   UNL     1     -10.096  17.740  68.185  1.00  0.00    -0.362 C  
HETATM   20  C   UNL     1     -10.459  19.221  68.223  1.00  0.00    -0.399 C  
HETATM   21  C   UNL     1      -9.375  20.160  67.801  1.00  0.00    -0.336 C  
ENDROOT
BRANCH   4  22
HETATM   22  C   UNL     1      -6.738  12.046  66.871  1.00  0.00    -0.041 C  
HETATM   23  C   UNL     1      -6.357  11.004  66.189  1.00  0.00    -0.096 C  
HETATM   24  C   UNL     1      -5.911   9.786  65.394  1.00  0.00    -0.072 C  
ENDBRANCH   4  22
BRANCH  13  25
HETATM   25  C   UNL     1     -10.334  14.234  66.913  1.00  0.00    -0.268 A  
HETATM   26  C   UNL     1     -10.423  13.705  64.542  1.00  0.00    -0.411 A  
HETATM   27  C   UNL     1     -11.680  12.400  66.078  1.00  0.00    -0.469 A  
HETATM   28  C   UNL     1     -11.261  13.218  67.137  1.00  0.00    -0.327 A  
HETATM   29  C   UNL     1     -10.024  14.542  65.582  1.00  0.00    -0.376 A  
HETATM   30  C   UNL     1     -11.200  12.567  64.770  1.00  0.00    -0.306 A  
BRANCH  30  31
HETATM   31  N   UNL     1     -11.438  11.656  63.760  1.00  0.00    -0.401 NA 
HETATM   32  C   UNL     1     -10.405  10.775  63.243  1.00  0.00    -0.071 C  
HETATM   33  C   UNL     1     -12.734  11.592  63.090  1.00  0.00     0.090 C  
ENDBRANCH  30  31
ENDBRANCH  13  25
TORSDOF 3
ENDMDL
MODEL       63
REMARK 921   NORMALIZED FREE ENERGY PREDICTED BY IDOCK:   -3.70 KCAL/MOL
REMARK 922        TOTAL FREE ENERGY PREDICTED BY IDOCK:   -4.98 KCAL/MOL
REMARK 923 INTER-LIGAND FREE ENERGY PREDICTED BY IDOCK:   -4.50 KCAL/MOL
REMARK 924 INTRA-LIGAND FREE ENERGY PREDICTED BY IDOCK:   -0.48 KCAL/MOL
REMARK 927      BINDING AFFINITY PREDICTED BY RF-SCORE:    0.00 PKD
ROOT
HETATM    1  C   UNL     1     -10.699   9.941  70.571  1.00  0.00    -0.382 C  
HETATM    2  C   UNL     1     -12.074  10.208  70.795  1.00  0.00    -0.438 C  
HETATM    3  C   UNL     1     -11.700   9.375  69.615  1.00  0.00     0.279 C  
HETATM    4  C   UNL     1      -9.761   8.641  69.573  1.00  0.00    -0.179 C  
HETATM    5  O   UNL     1      -9.291   7.460  68.886  1.00  0.00    -0.145 OA 
HETATM    6  C   UNL     1     -10.127  11.076  69.245  1.00  0.00    -0.121 C  
HETATM    7  C   UNL     1     -10.961   8.112  69.947  1.00  0.00    -0.168 C  
HETATM    8  C   UNL     1     -11.323   7.922  68.083  1.00  0.00     0.771 C  
HETATM    9  C   UNL     1     -11.360   7.004  70.891  1.00  0.00    -0.334 C  
HETATM   10  C   UNL     1     -10.362  12.533  69.699  1.00  0.00     0.879 C  
HETATM   11  H   UNL     1      -8.402   7.124  68.867  1.00  0.00     0.000 HD 
HETATM   12  C   UNL     1     -10.963  13.533  68.710  1.00  0.00    -0.291 C  
HETATM   13  C   UNL     1     -10.555   9.216  67.151  1.00  0.00    -0.286 C  
HETATM   14  C   UNL     1     -10.606  10.774  67.697  1.00  0.00    -0.271 C  
HETATM   15  C   UNL     1     -11.350  13.108  67.324  1.00  0.00    -0.344 C  
HETATM   16  C   UNL     1     -11.890  14.055  66.535  1.00  0.00    -0.439 C  
HETATM   17  C   UNL     1     -11.163  11.737  66.892  1.00  0.00    -0.387 C  
HETATM   18  O   UNL     1     -12.825  14.761  64.518  1.00  0.00    -0.525 OA 
HETATM   19  C   UNL     1     -11.681  11.383  65.500  1.00  0.00     0.319 C  
HETATM   20  C   UNL     1     -12.241  12.454  64.570  1.00  0.00    -0.509 C  
HETATM   21  C   UNL     1     -12.352  13.824  65.158  1.00  0.00    -0.448 C  
ENDROOT
BRANCH   4  22
HETATM   22  C   UNL     1      -8.704   8.499  70.814  1.00  0.00    -0.183 C  
HETATM   23  C   UNL     1      -8.212   8.201  71.984  1.00  0.00    -0.192 C  
HETATM   24  C   UNL     1      -7.638   7.855  73.348  1.00  0.00    -0.184 C  
ENDBRANCH   4  22
BRANCH  13  25
HETATM   25  C   UNL     1      -9.138   8.896  66.645  1.00  0.00    -0.192 A  
HETATM   26  C   UNL     1      -7.652   7.457  65.368  1.00  0.00    -0.096 A  
HETATM   27  C   UNL     1      -7.083   9.743  65.678  1.00  0.00    -0.105 A  
HETATM   28  C   UNL     1      -8.220   9.931  66.477  1.00  0.00    -0.121 A  
HETATM   29  C   UNL     1      -8.769   7.626  66.184  1.00  0.00    -0.176 A  
HETATM   30  C   UNL     1      -6.819   8.526  65.030  1.00  0.00    -0.071 A  
BRANCH  30  31
HETATM   31  N   UNL     1      -5.824   8.380  64.084  1.00  0.00    -0.064 NA 
HETATM   32  C   UNL     1      -5.302   7.081  63.694  1.00  0.00    -0.028 C  
HETATM   33  C   UNL     1      -5.175   9.542  63.484  1.00  0.00    -0.066 C  
ENDBRANCH  30  31
ENDBRANCH  13  25
TORSDOF 3
ENDMDL
MODEL       64
REMARK 921   NORMALIZED FREE ENERGY PREDICTED BY IDOCK:   -3.66 KCAL/MOL
REMARK 922        TOTAL FREE ENERGY PREDICTED BY IDOCK:   -4.94 KCAL/MOL
REMARK 923 INTER-LIGAND FREE ENERGY PREDICTED BY IDOCK:   -4.28 KCAL/MOL
REMARK 924 INTRA-LIGAND FREE ENERGY PREDICTED BY IDOCK:   -0.65 KCAL/MOL
REMARK 927      BINDING AFFINITY PREDICTED BY RF-SCORE:    0.00 PKD
ROOT
HETATM    1  C   UNL     1     -10.738  12.441  69.927  1.00  0.00     0.785 C  
HETATM    2  C   UNL     1     -11.898  13.165  70.305  1.00  0.00    -0.299 C  
HETATM    3  C   UNL     1     -11.897  12.476  68.982  1.00  0.00    -0.344 C  
HETATM    4  C   UNL     1     -10.396  11.081  68.662  1.00  0.00    -0.193 C  
HETATM    5  O   UNL     1     -10.433   9.952  67.762  1.00  0.00    -0.208 OA 
HETATM    6  C   UNL     1      -9.794  13.490  68.752  1.00  0.00    -0.050 C  
HETATM    7  C   UNL     1     -11.700  10.989  69.048  1.00  0.00    -0.402 C  
HETATM    8  C   UNL     1     -12.141  11.284  67.215  1.00  0.00     0.737 C  
HETATM    9  C   UNL     1     -12.482   9.967  69.838  1.00  0.00     0.174 C  
HETATM   10  C   UNL     1      -9.437  14.821  69.446  1.00  0.00     0.004 C  
HETATM   11  H   UNL     1      -9.745   9.313  67.615  1.00  0.00     0.000 HD 
HETATM   12  C   UNL     1      -9.620  16.133  68.680  1.00  0.00    -0.226 C  
HETATM   13  C   UNL     1     -10.947  12.333  66.436  1.00  0.00    -0.326 C  
HETATM   14  C   UNL     1     -10.380  13.671  67.221  1.00  0.00    -0.249 C  
HETATM   15  C   UNL     1     -10.165  16.139  67.282  1.00  0.00    -0.277 C  
HETATM   16  C   UNL     1     -10.309  17.344  66.700  1.00  0.00    -0.306 C  
HETATM   17  C   UNL     1     -10.533  14.899  66.627  1.00  0.00    -0.292 C  
HETATM   18  O   UNL     1     -10.931  18.696  64.904  1.00  0.00    -0.494 OA 
HETATM   19  C   UNL     1     -11.172  15.020  65.245  1.00  0.00    -0.368 C  
HETATM   20  C   UNL     1     -11.288  16.370  64.545  1.00  0.00    -0.120 C  
HETATM   21  C   UNL     1     -10.849  17.553  65.348  1.00  0.00     0.059 C  
ENDROOT
BRANCH   4  22
HETATM   22  C   UNL     1      -9.456  10.332  69.772  1.00  0.00    -0.128 C  
HETATM   23  C   UNL     1      -8.502   9.613  70.293  1.00  0.00    -0.221 C  
HETATM   24  C   UNL     1      -7.390   8.774  70.901  1.00  0.00    -0.087 C  
ENDBRANCH   4  22
BRANCH  13  25
HETATM   25  C   UNL     1      -9.774  11.595  65.768  1.00  0.00    -0.262 A  
HETATM   26  C   UNL     1      -7.529  10.671  65.920  1.00  0.00    -0.131 A  
HETATM   27  C   UNL     1      -9.064   9.761  64.351  1.00  0.00    -0.296 A  
HETATM   28  C   UNL     1     -10.026  10.713  64.719  1.00  0.00    -0.391 A  
HETATM   29  C   UNL     1      -8.467  11.640  66.273  1.00  0.00    -0.066 A  
HETATM   30  C   UNL     1      -7.827   9.659  65.006  1.00  0.00    -0.118 A  
BRANCH  30  31
HETATM   31  N   UNL     1      -6.954   8.609  64.800  1.00  0.00    -0.072 NA 
HETATM   32  C   UNL     1      -6.734   7.570  65.792  1.00  0.00    -0.045 C  
HETATM   33  C   UNL     1      -6.129   8.536  63.597  1.00  0.00    -0.073 C  
ENDBRANCH  30  31
ENDBRANCH  13  25
TORSDOF 3
ENDMDL
MODEL       65
REMARK 921   NORMALIZED FREE ENERGY PREDICTED BY IDOCK:   -3.62 KCAL/MOL
REMARK 922        TOTAL FREE ENERGY PREDICTED BY IDOCK:   -4.88 KCAL/MOL
REMARK 923 INTER-LIGAND FREE ENERGY PREDICTED BY IDOCK:   -4.57 KCAL/MOL
REMARK 924 INTRA-LIGAND FREE ENERGY PREDICTED BY IDOCK:   -0.32 KCAL/MOL
REMARK 927      BINDING AFFINITY PREDICTED BY RF-SCORE:    0.00 PKD
ROOT
HETATM    1  C   UNL     1      -9.461   8.504  68.308  1.00  0.00    -0.143 C  
HETATM    2  C   UNL     1     -10.215   7.929  67.253  1.00  0.00    -0.343 C  
HETATM    3  C   UNL     1      -8.996   8.714  66.902  1.00  0.00    -0.161 C  
HETATM    4  C   UNL     1      -7.692   9.151  68.454  1.00  0.00    -0.094 C  
HETATM    5  O   UNL     1      -6.276   9.415  68.354  1.00  0.00    -0.051 OA 
HETATM    6  C   UNL     1      -9.902  10.286  68.390  1.00  0.00    -0.168 C  
HETATM    7  C   UNL     1      -7.719   8.188  67.489  1.00  0.00    -0.102 C  
HETATM    8  C   UNL     1      -7.115   9.543  66.288  1.00  0.00    -0.092 C  
HETATM    9  C   UNL     1      -7.134   6.800  67.387  1.00  0.00    -0.084 C  
HETATM   10  C   UNL     1     -11.420  10.414  68.635  1.00  0.00    -0.238 C  
HETATM   11  H   UNL     1      -5.679   9.615  69.066  1.00  0.00     0.000 HD 
HETATM   12  C   UNL     1     -12.221  11.434  67.824  1.00  0.00     0.493 C  
HETATM   13  C   UNL     1      -7.751  11.129  66.749  1.00  0.00    -0.153 C  
HETATM   14  C   UNL     1      -9.328  11.288  67.213  1.00  0.00    -0.173 C  
HETATM   15  C   UNL     1     -11.556  12.283  66.782  1.00  0.00    -0.434 C  
HETATM   16  C   UNL     1     -12.349  13.135  66.106  1.00  0.00    -0.385 C  
HETATM   17  C   UNL     1     -10.136  12.154  66.519  1.00  0.00    -0.229 C  
HETATM   18  O   UNL     1     -12.691  14.777  64.485  1.00  0.00    -0.569 OA 
HETATM   19  C   UNL     1      -9.575  12.990  65.371  1.00  0.00     0.079 C  
HETATM   20  C   UNL     1     -10.444  14.004  64.635  1.00  0.00    -0.398 C  
HETATM   21  C   UNL     1     -11.885  14.029  65.035  1.00  0.00    -0.378 C  
ENDROOT
BRANCH   4  22
HETATM   22  C   UNL     1      -7.588   8.434  69.921  1.00  0.00    -0.076 C  
HETATM   23  C   UNL     1      -7.789   8.177  71.183  1.00  0.00    -0.096 C  
HETATM   24  C   UNL     1      -8.021   7.879  72.656  1.00  0.00    -0.162 C  
ENDBRANCH   4  22
BRANCH  13  25
HETATM   25  C   UNL     1      -6.852  11.935  67.702  1.00  0.00    -0.112 A  
HETATM   26  C   UNL     1      -5.310  13.781  68.057  1.00  0.00    -0.109 A  
HETATM   27  C   UNL     1      -6.611  12.979  69.876  1.00  0.00     0.129 A  
HETATM   28  C   UNL     1      -7.158  11.978  69.061  1.00  0.00    -0.077 A  
HETATM   29  C   UNL     1      -5.825  12.772  67.245  1.00  0.00    -0.019 A  
HETATM   30  C   UNL     1      -5.744  13.961  69.372  1.00  0.00    -0.089 A  
BRANCH  30  31
HETATM   31  N   UNL     1      -5.357  15.067  70.102  1.00  0.00    -0.110 NA 
HETATM   32  C   UNL     1      -5.241  15.047  71.550  1.00  0.00    -0.100 C  
HETATM   33  C   UNL     1      -5.128  16.357  69.456  1.00  0.00    -0.126 C  
ENDBRANCH  30  31
ENDBRANCH  13  25
TORSDOF 3
ENDMDL
MODEL       66
REMARK 921   NORMALIZED FREE ENERGY PREDICTED BY IDOCK:   -3.60 KCAL/MOL
REMARK 922        TOTAL FREE ENERGY PREDICTED BY IDOCK:   -4.86 KCAL/MOL
REMARK 923 INTER-LIGAND FREE ENERGY PREDICTED BY IDOCK:   -4.57 KCAL/MOL
REMARK 924 INTRA-LIGAND FREE ENERGY PREDICTED BY IDOCK:   -0.29 KCAL/MOL
REMARK 927      BINDING AFFINITY PREDICTED BY RF-SCORE:    0.00 PKD
ROOT
HETATM    1  C   UNL     1      -8.237   8.469  69.228  1.00  0.00    -0.115 C  
HETATM    2  C   UNL     1      -7.543   8.536  70.463  1.00  0.00    -0.074 C  
HETATM    3  C   UNL     1      -8.772   9.364  70.299  1.00  0.00    -0.261 C  
HETATM    4  C   UNL     1      -9.992   8.911  68.684  1.00  0.00    -0.177 C  
HETATM    5  O   UNL     1     -11.410   9.160  68.566  1.00  0.00    -0.379 OA 
HETATM    6  C   UNL     1      -7.780   9.961  68.259  1.00  0.00    -0.085 C  
HETATM    7  C   UNL     1     -10.021   8.585  70.009  1.00  0.00    -0.191 C  
HETATM    8  C   UNL     1     -10.676  10.352  70.307  1.00  0.00    -0.249 C  
HETATM    9  C   UNL     1     -10.621   7.437  70.784  1.00  0.00    -0.234 C  
HETATM   10  C   UNL     1      -6.251   9.975  68.055  1.00  0.00    -0.053 C  
HETATM   11  H   UNL     1     -11.968   8.952  67.826  1.00  0.00     0.000 HD 
HETATM   12  C   UNL     1      -5.484  11.283  68.260  1.00  0.00    -0.042 C  
HETATM   13  C   UNL     1     -10.006  11.486  69.124  1.00  0.00     0.050 C  
HETATM   14  C   UNL     1      -8.406  11.414  68.720  1.00  0.00    -0.096 C  
HETATM   15  C   UNL     1      -6.197  12.535  68.681  1.00  0.00    -0.069 C  
HETATM   16  C   UNL     1      -5.433  13.629  68.856  1.00  0.00    -0.074 C  
HETATM   17  C   UNL     1      -7.629  12.531  68.905  1.00  0.00     0.047 C  
HETATM   18  O   UNL     1      -5.163  15.879  69.410  1.00  0.00    -0.108 OA 
HETATM   19  C   UNL     1      -8.242  13.828  69.428  1.00  0.00     0.623 C  
HETATM   20  C   UNL     1      -7.404  15.094  69.575  1.00  0.00    -0.210 C  
HETATM   21  C   UNL     1      -5.945  14.938  69.289  1.00  0.00    -0.104 C  
ENDROOT
BRANCH   4  22
HETATM   22  C   UNL     1     -10.026   7.537  67.796  1.00  0.00    -0.214 C  
HETATM   23  C   UNL     1      -9.878   6.288  67.454  1.00  0.00    -0.154 C  
HETATM   24  C   UNL     1      -9.704   4.832  67.054  1.00  0.00    -0.205 C  
ENDBRANCH   4  22
BRANCH  13  25
HETATM   25  C   UNL     1     -10.849  11.666  67.850  1.00  0.00    -0.255 A  
HETATM   26  C   UNL     1     -12.400  13.009  66.545  1.00  0.00    -0.175 A  
HETATM   27  C   UNL     1     -10.951  11.487  65.435  1.00  0.00    -0.288 A  
HETATM   28  C   UNL     1     -10.445  11.050  66.667  1.00  0.00    -0.307 A  
HETATM   29  C   UNL     1     -11.925  12.561  67.776  1.00  0.00    -0.286 A  
HETATM   30  C   UNL     1     -11.874  12.540  65.339  1.00  0.00    -0.428 A  
BRANCH  30  31
HETATM   31  N   UNL     1     -12.229  13.119  64.137  1.00  0.00    -0.521 NA 
HETATM   32  C   UNL     1     -12.686  12.340  62.998  1.00  0.00     0.167 C  
HETATM   33  C   UNL     1     -12.078  14.554  63.915  1.00  0.00    -0.100 C  
ENDBRANCH  30  31
ENDBRANCH  13  25
TORSDOF 3
ENDMDL
MODEL       67
REMARK 921   NORMALIZED FREE ENERGY PREDICTED BY IDOCK:   -3.36 KCAL/MOL
REMARK 922        TOTAL FREE ENERGY PREDICTED BY IDOCK:   -4.58 KCAL/MOL
REMARK 923 INTER-LIGAND FREE ENERGY PREDICTED BY IDOCK:   -3.99 KCAL/MOL
REMARK 924 INTRA-LIGAND FREE ENERGY PREDICTED BY IDOCK:   -0.59 KCAL/MOL
REMARK 927      BINDING AFFINITY PREDICTED BY RF-SCORE:    0.00 PKD
ROOT
HETATM    1  C   UNL     1     -11.019  10.714  70.521  1.00  0.00    -0.059 C  
HETATM    2  C   UNL     1     -12.365  11.143  70.656  1.00  0.00    -0.482 C  
HETATM    3  C   UNL     1     -12.044  10.152  69.588  1.00  0.00     0.012 C  
HETATM    4  C   UNL     1     -10.194   9.224  69.705  1.00  0.00    -0.211 C  
HETATM    5  O   UNL     1      -9.830   7.934  69.167  1.00  0.00    -0.168 OA 
HETATM    6  C   UNL     1     -10.290  11.634  69.108  1.00  0.00    -0.045 C  
HETATM    7  C   UNL     1     -11.454   8.864  70.082  1.00  0.00    -0.047 C  
HETATM    8  C   UNL     1     -11.776   8.510  68.234  1.00  0.00     1.970 C  
HETATM    9  C   UNL     1     -11.998   7.912  71.119  1.00  0.00    -0.304 C  
HETATM   10  C   UNL     1     -10.382  13.147  69.396  1.00  0.00     0.409 C  
HETATM   11  H   UNL     1      -8.982   7.509  69.221  1.00  0.00     0.000 HD 
HETATM   12  C   UNL     1     -10.843  14.090  68.282  1.00  0.00    -0.268 C  
HETATM   13  C   UNL     1     -10.847   9.609  67.205  1.00  0.00    -0.212 C  
HETATM   14  C   UNL     1     -10.749  11.215  67.581  1.00  0.00    -0.273 C  
HETATM   15  C   UNL     1     -11.229  13.558  66.934  1.00  0.00    -0.329 C  
HETATM   16  C   UNL     1     -11.642  14.464  66.028  1.00  0.00    -0.364 C  
HETATM   17  C   UNL     1     -11.176  12.136  66.657  1.00  0.00    -0.375 C  
HETATM   18  O   UNL     1     -12.433  15.037  63.910  1.00  0.00    -0.790 OA 
HETATM   19  C   UNL     1     -11.685  11.687  65.289  1.00  0.00    -0.016 C  
HETATM   20  C   UNL     1     -12.099  12.702  64.228  1.00  0.00    -0.502 C  
HETATM   21  C   UNL     1     -12.082  14.132  64.664  1.00  0.00    -0.452 C  
ENDROOT
BRANCH   4  22
HETATM   22  C   UNL     1      -9.197   9.111  70.998  1.00  0.00    -0.321 C  
HETATM   23  C   UNL     1      -8.295   8.655  71.821  1.00  0.00    -0.203 C  
HETATM   24  C   UNL     1      -7.245   8.122  72.782  1.00  0.00    -0.134 C  
ENDBRANCH   4  22
BRANCH  13  25
HETATM   25  C   UNL     1      -9.457   9.094  66.796  1.00  0.00    -0.230 A  
HETATM   26  C   UNL     1      -7.087   8.861  67.290  1.00  0.00    -0.083 A  
HETATM   27  C   UNL     1      -8.150   7.268  65.883  1.00  0.00    -0.125 A  
HETATM   28  C   UNL     1      -9.355   7.980  65.964  1.00  0.00    -0.158 A  
HETATM   29  C   UNL     1      -8.272   9.592  67.354  1.00  0.00    -0.114 A  
HETATM   30  C   UNL     1      -7.012   7.640  66.616  1.00  0.00    -0.078 A  
BRANCH  30  31
HETATM   31  N   UNL     1      -5.887   6.845  66.710  1.00  0.00    -0.021 NA 
HETATM   32  C   UNL     1      -5.382   6.069  65.590  1.00  0.00    -0.013 C  
HETATM   33  C   UNL     1      -5.188   6.671  67.981  1.00  0.00    -0.008 C  
ENDBRANCH  30  31
ENDBRANCH  13  25
TORSDOF 3
ENDMDL
MODEL       68
REMARK 921   NORMALIZED FREE ENERGY PREDICTED BY IDOCK:   -3.28 KCAL/MOL
REMARK 922        TOTAL FREE ENERGY PREDICTED BY IDOCK:   -4.49 KCAL/MOL
REMARK 923 INTER-LIGAND FREE ENERGY PREDICTED BY IDOCK:   -3.86 KCAL/MOL
REMARK 924 INTRA-LIGAND FREE ENERGY PREDICTED BY IDOCK:   -0.63 KCAL/MOL
REMARK 927      BINDING AFFINITY PREDICTED BY RF-SCORE:    0.00 PKD
ROOT
HETATM    1  C   UNL     1     -11.185  10.371  68.984  1.00  0.00    -0.289 C  
HETATM    2  C   UNL     1     -11.310  10.702  70.358  1.00  0.00    -0.389 C  
HETATM    3  C   UNL     1      -9.941  10.638  69.770  1.00  0.00    -0.002 C  
HETATM    4  C   UNL     1      -9.818  10.598  67.700  1.00  0.00    -0.167 C  
HETATM    5  O   UNL     1      -8.710  11.037  66.885  1.00  0.00    -0.141 OA 
HETATM    6  C   UNL     1     -10.701   8.602  68.887  1.00  0.00    -0.109 C  
HETATM    7  C   UNL     1      -9.700  11.587  68.633  1.00  0.00    -0.172 C  
HETATM    8  C   UNL     1      -7.961  10.885  68.984  1.00  0.00    -0.131 C  
HETATM    9  C   UNL     1      -9.895  13.083  68.593  1.00  0.00    -0.075 C  
HETATM   10  C   UNL     1     -11.783   7.750  69.584  1.00  0.00     0.535 C  
HETATM   11  H   UNL     1      -8.654  11.019  65.936  1.00  0.00     0.000 HD 
HETATM   12  C   UNL     1     -11.350   6.627  70.529  1.00  0.00    -0.413 C  
HETATM   13  C   UNL     1      -7.922   9.133  68.740  1.00  0.00    -0.100 C  
HETATM   14  C   UNL     1      -9.158   8.190  69.296  1.00  0.00    -0.151 C  
HETATM   15  C   UNL     1      -9.898   6.368  70.804  1.00  0.00    -0.206 C  
HETATM   16  C   UNL     1      -9.619   5.372  71.666  1.00  0.00    -0.190 C  
HETATM   17  C   UNL     1      -8.871   7.178  70.179  1.00  0.00    -0.145 C  
HETATM   18  O   UNL     1      -8.114   4.055  72.865  1.00  0.00    -0.085 OA 
HETATM   19  C   UNL     1      -7.430   6.900  70.601  1.00  0.00    -0.082 C  
HETATM   20  C   UNL     1      -7.090   5.738  71.529  1.00  0.00    -0.077 C  
HETATM   21  C   UNL     1      -8.261   4.986  72.076  1.00  0.00    -0.116 C  
ENDROOT
BRANCH   4  22
HETATM   22  C   UNL     1     -10.960  11.027  66.609  1.00  0.00    -0.253 C  
HETATM   23  C   UNL     1     -11.523  11.560  65.563  1.00  0.00    -0.074 C  
HETATM   24  C   UNL     1     -12.181  12.184  64.342  1.00  0.00    -0.435 C  
ENDBRANCH   4  22
BRANCH  13  25
HETATM   25  C   UNL     1      -7.534   8.684  67.320  1.00  0.00    -0.089 A  
HETATM   26  C   UNL     1      -5.848   7.843  65.783  1.00  0.00    -0.038 A  
HETATM   27  C   UNL     1      -8.144   7.411  65.350  1.00  0.00    -0.133 A  
HETATM   28  C   UNL     1      -8.512   8.165  66.474  1.00  0.00    -0.132 A  
HETATM   29  C   UNL     1      -6.204   8.619  66.885  1.00  0.00    -0.059 A  
HETATM   30  C   UNL     1      -6.802   7.156  65.029  1.00  0.00    -0.047 A  
BRANCH  30  31
HETATM   31  N   UNL     1      -6.422   6.256  64.053  1.00  0.00    -0.030 NA 
HETATM   32  C   UNL     1      -7.287   5.893  62.944  1.00  0.00    -0.056 C  
HETATM   33  C   UNL     1      -5.149   5.545  64.136  1.00  0.00    -0.009 C  
ENDBRANCH  30  31
ENDBRANCH  13  25
TORSDOF 3
ENDMDL
MODEL       69
REMARK 921   NORMALIZED FREE ENERGY PREDICTED BY IDOCK:   -3.15 KCAL/MOL
REMARK 922        TOTAL FREE ENERGY PREDICTED BY IDOCK:   -4.33 KCAL/MOL
REMARK 923 INTER-LIGAND FREE ENERGY PREDICTED BY IDOCK:   -3.56 KCAL/MOL
REMARK 924 INTRA-LIGAND FREE ENERGY PREDICTED BY IDOCK:   -0.77 KCAL/MOL
REMARK 927      BINDING AFFINITY PREDICTED BY RF-SCORE:    0.00 PKD
ROOT
HETATM    1  C   UNL     1      -6.392  14.323  68.079  1.00  0.00    -0.159 C  
HETATM    2  C   UNL     1      -6.062  14.912  66.831  1.00  0.00     1.318 C  
HETATM    3  C   UNL     1      -7.503  14.688  67.146  1.00  0.00    -0.035 C  
HETATM    4  C   UNL     1      -7.966  14.253  69.120  1.00  0.00     0.046 C  
HETATM    5  O   UNL     1      -9.222  14.490  69.793  1.00  0.00    -0.273 OA 
HETATM    6  C   UNL     1      -6.763  12.551  67.769  1.00  0.00    -0.123 C  
HETATM    7  C   UNL     1      -7.994  15.395  68.375  1.00  0.00    -0.131 C  
HETATM    8  C   UNL     1      -9.599  14.709  67.602  1.00  0.00    -0.212 C  
HETATM    9  C   UNL     1      -7.911  16.863  68.717  1.00  0.00    -0.254 C  
HETATM   10  C   UNL     1      -5.524  11.885  67.132  1.00  0.00    -0.128 C  
HETATM   11  H   UNL     1      -9.434  14.290  70.698  1.00  0.00     0.000 HD 
HETATM   12  C   UNL     1      -5.715  10.947  65.939  1.00  0.00    -0.142 C  
HETATM   13  C   UNL     1      -9.558  12.942  67.517  1.00  0.00    -0.200 C  
HETATM   14  C   UNL     1      -8.184  12.167  67.027  1.00  0.00    -0.164 C  
HETATM   15  C   UNL     1      -7.080  10.691  65.370  1.00  0.00    -0.011 C  
HETATM   16  C   UNL     1      -7.143   9.867  64.308  1.00  0.00    -0.131 C  
HETATM   17  C   UNL     1      -8.250  11.331  65.940  1.00  0.00     0.012 C  
HETATM   18  O   UNL     1      -8.333   8.746  62.645  1.00  0.00    -0.185 OA 
HETATM   19  C   UNL     1      -9.578  11.085  65.227  1.00  0.00    -0.270 C  
HETATM   20  C   UNL     1      -9.678  10.109  64.060  1.00  0.00    -0.273 C  
HETATM   21  C   UNL     1      -8.384   9.517  63.602  1.00  0.00    -0.176 C  
ENDROOT
BRANCH   4  22
HETATM   22  C   UNL     1      -7.054  14.509  70.455  1.00  0.00     0.348 C  
HETATM   23  C   UNL     1      -6.179  14.320  71.402  1.00  0.00     0.142 C  
HETATM   24  C   UNL     1      -5.159  14.100  72.508  1.00  0.00    -0.227 C  
ENDBRANCH   4  22
BRANCH  13  25
HETATM   25  C   UNL     1     -10.145  12.220  68.741  1.00  0.00    -0.082 A  
HETATM   26  C   UNL     1     -12.079  11.645  70.098  1.00  0.00    -0.414 A  
HETATM   27  C   UNL     1     -10.188  10.206  70.090  1.00  0.00    -0.235 A  
HETATM   28  C   UNL     1      -9.502  11.091  69.245  1.00  0.00     0.020 A  
HETATM   29  C   UNL     1     -11.395  12.545  69.283  1.00  0.00    -0.307 A  
HETATM   30  C   UNL     1     -11.524  10.416  70.463  1.00  0.00    -0.345 A  
BRANCH  30  31
HETATM   31  N   UNL     1     -12.278   9.465  71.121  1.00  0.00    -0.316 NA 
HETATM   32  C   UNL     1     -11.955   8.049  71.085  1.00  0.00    -0.277 C  
HETATM   33  C   UNL     1     -13.506   9.827  71.823  1.00  0.00    -0.376 C  
ENDBRANCH  30  31
ENDBRANCH  13  25
TORSDOF 3
ENDMDL
MODEL       70
REMARK 921   NORMALIZED FREE ENERGY PREDICTED BY IDOCK:   -2.95 KCAL/MOL
REMARK 922        TOTAL FREE ENERGY PREDICTED BY IDOCK:   -4.10 KCAL/MOL
REMARK 923 INTER-LIGAND FREE ENERGY PREDICTED BY IDOCK:   -3.47 KCAL/MOL
REMARK 924 INTRA-LIGAND FREE ENERGY PREDICTED BY IDOCK:   -0.63 KCAL/MOL
REMARK 927      BINDING AFFINITY PREDICTED BY RF-SCORE:    0.00 PKD
ROOT
HETATM    1  C   UNL     1      -5.779   8.438  68.346  1.00  0.00    -0.038 C  
HETATM    2  C   UNL     1      -5.193   7.182  68.042  1.00  0.00    -0.020 C  
HETATM    3  C   UNL     1      -6.631   7.390  67.703  1.00  0.00    -0.061 C  
HETATM    4  C   UNL     1      -7.323   9.345  67.742  1.00  0.00    -0.083 C  
HETATM    5  O   UNL     1      -8.439   9.889  67.005  1.00  0.00    -0.120 OA 
HETATM    6  C   UNL     1      -6.753   8.231  69.889  1.00  0.00    -0.043 C  
HETATM    7  C   UNL     1      -6.894   8.516  66.747  1.00  0.00    -0.069 C  
HETATM    8  C   UNL     1      -8.596   7.664  66.886  1.00  0.00    -0.123 C  
HETATM    9  C   UNL     1      -6.300   8.754  65.379  1.00  0.00    -0.062 C  
HETATM   10  C   UNL     1      -5.811   7.753  71.014  1.00  0.00    -0.034 C  
HETATM   11  H   UNL     1      -8.756  10.784  67.024  1.00  0.00     0.000 HD 
HETATM   12  C   UNL     1      -6.269   6.621  71.937  1.00  0.00    -0.042 C  
HETATM   13  C   UNL     1      -9.197   7.714  68.550  1.00  0.00    -0.143 C  
HETATM   14  C   UNL     1      -8.176   7.402  69.811  1.00  0.00    -0.129 C  
HETATM   15  C   UNL     1      -7.601   5.960  71.742  1.00  0.00    -0.096 C  
HETATM   16  C   UNL     1      -7.904   4.960  72.591  1.00  0.00    -0.094 C  
HETATM   17  C   UNL     1      -8.485   6.378  70.672  1.00  0.00    -0.135 C  
HETATM   18  O   UNL     1      -9.333   3.291  73.372  1.00  0.00    -0.095 OA 
HETATM   19  C   UNL     1      -9.772   5.575  70.496  1.00  0.00    -0.241 C  
HETATM   20  C   UNL     1     -10.161   4.480  71.484  1.00  0.00    -0.239 C  
HETATM   21  C   UNL     1      -9.149   4.179  72.543  1.00  0.00    -0.110 C  
ENDROOT
BRANCH   4  22
HETATM   22  C   UNL     1      -6.451  10.729  67.698  1.00  0.00    -0.056 C  
HETATM   23  C   UNL     1      -6.056  11.944  67.956  1.00  0.00    -0.055 C  
HETATM   24  C   UNL     1      -5.597  13.362  68.255  1.00  0.00    -0.098 C  
ENDBRANCH   4  22
BRANCH  13  25
HETATM   25  C   UNL     1     -10.069   8.935  68.887  1.00  0.00    -0.209 A  
HETATM   26  C   UNL     1     -10.342  11.045  70.064  1.00  0.00     0.414 A  
HETATM   27  C   UNL     1     -11.572  10.651  68.070  1.00  0.00    -0.182 A  
HETATM   28  C   UNL     1     -11.038   9.358  67.980  1.00  0.00    -0.004 A  
HETATM   29  C   UNL     1      -9.828   9.752  70.000  1.00  0.00    -0.295 A  
HETATM   30  C   UNL     1     -11.169  11.558  69.062  1.00  0.00    -0.262 A  
BRANCH  30  31
HETATM   31  N   UNL     1     -11.525  12.892  69.049  1.00  0.00    -0.289 NA 
HETATM   32  C   UNL     1     -11.640  13.682  70.263  1.00  0.00    -0.092 C  
HETATM   33  C   UNL     1     -11.897  13.563  67.807  1.00  0.00    -0.362 C  
ENDBRANCH  30  31
ENDBRANCH  13  25
TORSDOF 3
ENDMDL
MODEL       71
REMARK 921   NORMALIZED FREE ENERGY PREDICTED BY IDOCK:   -2.82 KCAL/MOL
REMARK 922        TOTAL FREE ENERGY PREDICTED BY IDOCK:   -3.94 KCAL/MOL
REMARK 923 INTER-LIGAND FREE ENERGY PREDICTED BY IDOCK:   -3.70 KCAL/MOL
REMARK 924 INTRA-LIGAND FREE ENERGY PREDICTED BY IDOCK:   -0.24 KCAL/MOL
REMARK 927      BINDING AFFINITY PREDICTED BY RF-SCORE:    0.00 PKD
ROOT
HETATM    1  C   UNL     1      -9.013   9.723  68.512  1.00  0.00    -0.124 C  
HETATM    2  C   UNL     1      -8.654  10.457  69.672  1.00  0.00    -0.060 C  
HETATM    3  C   UNL     1      -7.602   9.639  69.002  1.00  0.00    -0.076 C  
HETATM    4  C   UNL     1      -8.032   8.953  67.093  1.00  0.00    -0.096 C  
HETATM    5  O   UNL     1      -7.086   8.612  66.056  1.00  0.00    -0.081 OA 
HETATM    6  C   UNL     1      -9.255   7.975  69.022  1.00  0.00    -0.148 C  
HETATM    7  C   UNL     1      -7.327  10.016  67.576  1.00  0.00    -0.090 C  
HETATM    8  C   UNL     1      -5.939   8.765  67.967  1.00  0.00    -0.046 C  
HETATM    9  C   UNL     1      -6.961  11.367  67.009  1.00  0.00    -0.135 C  
HETATM   10  C   UNL     1     -10.359   7.917  70.099  1.00  0.00    -0.215 C  
HETATM   11  H   UNL     1      -7.284   8.298  65.181  1.00  0.00     0.000 HD 
HETATM   12  C   UNL     1     -10.145   7.044  71.337  1.00  0.00    -0.197 C  
HETATM   13  C   UNL     1      -6.610   7.181  68.383  1.00  0.00    -0.048 C  
HETATM   14  C   UNL     1      -7.922   7.073  69.381  1.00  0.00    -0.118 C  
HETATM   15  C   UNL     1      -8.871   6.273  71.526  1.00  0.00    -0.138 C  
HETATM   16  C   UNL     1      -8.769   5.552  72.658  1.00  0.00    -0.123 C  
HETATM   17  C   UNL     1      -7.813   6.340  70.537  1.00  0.00    -0.106 C  
HETATM   18  O   UNL     1      -7.602   4.122  74.084  1.00  0.00    -0.077 OA 
HETATM   19  C   UNL     1      -6.519   5.601  70.871  1.00  0.00    -0.036 C  
HETATM   20  C   UNL     1      -6.406   4.731  72.118  1.00  0.00    -0.030 C  
HETATM   21  C   UNL     1      -7.591   4.754  73.029  1.00  0.00    -0.092 C  
ENDROOT
BRANCH   4  22
HETATM   22  C   UNL     1      -9.173   9.498  66.054  1.00  0.00    -0.248 C  
HETATM   23  C   UNL     1      -9.898  10.309  65.338  1.00  0.00    -0.362 C  
HETATM   24  C   UNL     1     -10.745  11.256  64.502  1.00  0.00    -0.390 C  
ENDBRANCH   4  22
BRANCH  13  25
HETATM   25  C   UNL     1      -6.789   6.221  67.196  1.00  0.00    -0.066 A  
HETATM   26  C   UNL     1      -8.262   4.903  65.778  1.00  0.00    -0.113 A  
HETATM   27  C   UNL     1      -6.186   5.670  64.913  1.00  0.00    -0.032 A  
HETATM   28  C   UNL     1      -5.862   6.235  66.155  1.00  0.00    -0.024 A  
HETATM   29  C   UNL     1      -7.937   5.436  67.025  1.00  0.00    -0.101 A  
HETATM   30  C   UNL     1      -7.431   5.071  64.668  1.00  0.00    -0.075 A  
BRANCH  30  31
HETATM   31  N   UNL     1      -7.846   4.693  63.407  1.00  0.00    -0.075 NA 
HETATM   32  C   UNL     1      -7.884   3.304  62.979  1.00  0.00    -0.068 C  
HETATM   33  C   UNL     1      -8.189   5.687  62.394  1.00  0.00    -0.106 C  
ENDBRANCH  30  31
ENDBRANCH  13  25
TORSDOF 3
ENDMDL
MODEL       72
REMARK 921   NORMALIZED FREE ENERGY PREDICTED BY IDOCK:   -2.57 KCAL/MOL
REMARK 922        TOTAL FREE ENERGY PREDICTED BY IDOCK:   -3.65 KCAL/MOL
REMARK 923 INTER-LIGAND FREE ENERGY PREDICTED BY IDOCK:   -2.70 KCAL/MOL
REMARK 924 INTRA-LIGAND FREE ENERGY PREDICTED BY IDOCK:   -0.95 KCAL/MOL
REMARK 927      BINDING AFFINITY PREDICTED BY RF-SCORE:    0.00 PKD
ROOT
HETATM    1  C   UNL     1      -7.934   9.165  70.995  1.00  0.00    -0.166 C  
HETATM    2  C   UNL     1      -7.791   8.947  72.390  1.00  0.00     0.215 C  
HETATM    3  C   UNL     1      -6.848   8.251  71.467  1.00  0.00    -0.066 C  
HETATM    4  C   UNL     1      -6.794   8.929  69.508  1.00  0.00    -0.048 C  
HETATM    5  O   UNL     1      -5.693   8.824  68.579  1.00  0.00    -0.037 OA 
HETATM    6  C   UNL     1      -8.808   7.707  70.298  1.00  0.00    -0.145 C  
HETATM    7  C   UNL     1      -6.023   9.164  70.607  1.00  0.00    -0.044 C  
HETATM    8  C   UNL     1      -5.249   7.450  70.283  1.00  0.00    -0.023 C  
HETATM    9  C   UNL     1      -5.130  10.307  71.028  1.00  0.00    -0.072 C  
HETATM   10  C   UNL     1     -10.176   7.563  70.999  1.00  0.00    -0.194 C  
HETATM   11  H   UNL     1      -5.669   9.135  67.681  1.00  0.00     0.000 HD 
HETATM   12  C   UNL     1     -10.635   6.176  71.455  1.00  0.00    -0.288 C  
HETATM   13  C   UNL     1      -6.432   6.343  69.572  1.00  0.00    -0.043 C  
HETATM   14  C   UNL     1      -7.976   6.291  70.158  1.00  0.00    -0.108 C  
HETATM   15  C   UNL     1      -9.764   4.972  71.255  1.00  0.00    -0.235 C  
HETATM   16  C   UNL     1     -10.247   3.801  71.710  1.00  0.00    -0.098 C  
HETATM   17  C   UNL     1      -8.464   5.095  70.626  1.00  0.00    -0.118 C  
HETATM   18  O   UNL     1     -10.064   1.502  72.066  1.00  0.00    -0.129 OA 
HETATM   19  C   UNL     1      -7.613   3.829  70.561  1.00  0.00    -0.041 C  
HETATM   20  C   UNL     1      -8.166   2.482  71.015  1.00  0.00    -0.070 C  
HETATM   21  C   UNL     1      -9.530   2.519  71.627  1.00  0.00    -0.136 C  
ENDROOT
BRANCH   4  22
HETATM   22  C   UNL     1      -7.328  10.358  68.915  1.00  0.00    -0.094 C  
HETATM   23  C   UNL     1      -7.698  11.280  68.071  1.00  0.00    -0.108 C  
HETATM   24  C   UNL     1      -8.128  12.355  67.087  1.00  0.00    -0.167 C  
ENDBRANCH   4  22
BRANCH  13  25
HETATM   25  C   UNL     1      -6.468   6.332  68.034  1.00  0.00    -0.052 A  
HETATM   26  C   UNL     1      -5.449   5.675  65.926  1.00  0.00    -0.013 A  
HETATM   27  C   UNL     1      -7.797   6.025  66.031  1.00  0.00    -0.105 A  
HETATM   28  C   UNL     1      -7.694   6.408  67.375  1.00  0.00    -0.104 A  
HETATM   29  C   UNL     1      -5.331   6.083  67.254  1.00  0.00    -0.005 A  
HETATM   30  C   UNL     1      -6.692   5.562  65.300  1.00  0.00    -0.044 A  
BRANCH  30  31
HETATM   31  N   UNL     1      -6.806   4.991  64.047  1.00  0.00    -0.046 NA 
HETATM   32  C   UNL     1      -5.653   4.707  63.210  1.00  0.00    -0.016 C  
HETATM   33  C   UNL     1      -8.114   4.722  63.456  1.00  0.00    -0.101 C  
ENDBRANCH  30  31
ENDBRANCH  13  25
TORSDOF 3
ENDMDL
MODEL       73
REMARK 921   NORMALIZED FREE ENERGY PREDICTED BY IDOCK:   -2.47 KCAL/MOL
REMARK 922        TOTAL FREE ENERGY PREDICTED BY IDOCK:   -3.53 KCAL/MOL
REMARK 923 INTER-LIGAND FREE ENERGY PREDICTED BY IDOCK:   -2.63 KCAL/MOL
REMARK 924 INTRA-LIGAND FREE ENERGY PREDICTED BY IDOCK:   -0.90 KCAL/MOL
REMARK 927      BINDING AFFINITY PREDICTED BY RF-SCORE:    0.00 PKD
ROOT
HETATM    1  C   UNL     1     -10.756   6.110  70.246  1.00  0.00    -0.355 C  
HETATM    2  C   UNL     1     -12.147   5.844  70.158  1.00  0.00     1.308 C  
HETATM    3  C   UNL     1     -11.546   6.790  69.174  1.00  0.00    -0.016 C  
HETATM    4  C   UNL     1      -9.476   6.809  69.046  1.00  0.00    -0.133 C  
HETATM    5  O   UNL     1      -8.677   7.198  67.907  1.00  0.00    -0.126 OA 
HETATM    6  C   UNL     1     -10.558   7.733  71.082  1.00  0.00    -0.235 C  
HETATM    7  C   UNL     1     -10.460   6.203  68.320  1.00  0.00    -0.284 C  
HETATM    8  C   UNL     1     -10.759   7.911  67.523  1.00  0.00    -0.252 C  
HETATM    9  C   UNL     1     -10.503   4.968  67.453  1.00  0.00    -0.121 C  
HETATM   10  C   UNL     1     -11.216   7.661  72.476  1.00  0.00    -0.399 C  
HETATM   11  H   UNL     1      -7.729   7.206  67.848  1.00  0.00     0.000 HD 
HETATM   12  C   UNL     1     -12.096   8.822  72.945  1.00  0.00     0.252 C  
HETATM   13  C   UNL     1     -10.419   9.215  68.670  1.00  0.00    -0.235 C  
HETATM   14  C   UNL     1     -10.933   9.098  70.236  1.00  0.00    -0.279 C  
HETATM   15  C   UNL     1     -12.344  10.007  72.058  1.00  0.00    -0.222 C  
HETATM   16  C   UNL     1     -13.148  10.967  72.552  1.00  0.00     0.582 C  
HETATM   17  C   UNL     1     -11.757  10.076  70.735  1.00  0.00    -0.437 C  
HETATM   18  O   UNL     1     -14.263  13.008  72.370  1.00  0.00    -0.504 OA 
HETATM   19  C   UNL     1     -12.153  11.274  69.874  1.00  0.00    -0.414 C  
HETATM   20  C   UNL     1     -13.013  12.401  70.437  1.00  0.00     0.361 C  
HETATM   21  C   UNL     1     -13.527  12.187  71.824  1.00  0.00    -0.114 C  
ENDROOT
BRANCH   4  22
HETATM   22  C   UNL     1      -8.419   5.672  69.564  1.00  0.00    -0.110 C  
HETATM   23  C   UNL     1      -7.327   5.121  70.012  1.00  0.00    -0.060 C  
HETATM   24  C   UNL     1      -6.052   4.476  70.534  1.00  0.00    -0.021 C  
ENDBRANCH   4  22
BRANCH  13  25
HETATM   25  C   UNL     1      -8.975   9.743  68.643  1.00  0.00    -0.130 A  
HETATM   26  C   UNL     1      -7.219  10.966  67.487  1.00  0.00    -0.095 A  
HETATM   27  C   UNL     1      -7.180  10.827  69.859  1.00  0.00    -0.059 A  
HETATM   28  C   UNL     1      -8.318  10.008  69.843  1.00  0.00    -0.169 A  
HETATM   29  C   UNL     1      -8.333  10.129  67.459  1.00  0.00    -0.118 A  
HETATM   30  C   UNL     1      -6.657  11.400  68.690  1.00  0.00    -0.062 A  
BRANCH  30  31
HETATM   31  N   UNL     1      -5.669  12.365  68.704  1.00  0.00    -0.053 NA 
HETATM   32  C   UNL     1      -5.135  12.920  69.936  1.00  0.00    -0.085 C  
HETATM   33  C   UNL     1      -5.165  12.949  67.464  1.00  0.00    -0.046 C  
ENDBRANCH  30  31
ENDBRANCH  13  25
TORSDOF 3
ENDMDL
MODEL       74
REMARK 921   NORMALIZED FREE ENERGY PREDICTED BY IDOCK:   -2.15 KCAL/MOL
REMARK 922        TOTAL FREE ENERGY PREDICTED BY IDOCK:   -3.16 KCAL/MOL
REMARK 923 INTER-LIGAND FREE ENERGY PREDICTED BY IDOCK:   -2.50 KCAL/MOL
REMARK 924 INTRA-LIGAND FREE ENERGY PREDICTED BY IDOCK:   -0.66 KCAL/MOL
REMARK 927      BINDING AFFINITY PREDICTED BY RF-SCORE:    0.00 PKD
ROOT
HETATM    1  C   UNL     1      -9.439  11.952  64.631  1.00  0.00     0.050 C  
HETATM    2  C   UNL     1      -9.251  10.785  63.847  1.00  0.00    -0.258 C  
HETATM    3  C   UNL     1     -10.126  10.692  65.051  1.00  0.00    -0.388 C  
HETATM    4  C   UNL     1     -10.732  12.484  65.901  1.00  0.00    -0.264 C  
HETATM    5  O   UNL     1     -11.918  12.717  66.692  1.00  0.00    -0.470 OA 
HETATM    6  C   UNL     1      -8.350  11.807  66.102  1.00  0.00     0.102 C  
HETATM    7  C   UNL     1     -11.316  11.607  65.035  1.00  0.00    -0.237 C  
HETATM    8  C   UNL     1     -11.640  10.504  66.559  1.00  0.00     1.055 C  
HETATM    9  C   UNL     1     -12.390  11.742  63.983  1.00  0.00    -0.341 C  
HETATM   10  C   UNL     1      -6.888  11.664  65.630  1.00  0.00     1.118 C  
HETATM   11  H   UNL     1     -12.195  13.538  67.081  1.00  0.00     0.000 HD 
HETATM   12  C   UNL     1      -5.990  10.617  66.291  1.00  0.00    -0.106 C  
HETATM   13  C   UNL     1     -10.357  10.691  67.763  1.00  0.00    -0.239 C  
HETATM   14  C   UNL     1      -8.775  10.743  67.288  1.00  0.00    -0.130 C  
HETATM   15  C   UNL     1      -6.522   9.716  67.367  1.00  0.00    -0.069 C  
HETATM   16  C   UNL     1      -5.661   8.813  67.872  1.00  0.00    -0.035 C  
HETATM   17  C   UNL     1      -7.901   9.818  67.802  1.00  0.00    -0.094 C  
HETATM   18  O   UNL     1      -5.140   7.053  69.312  1.00  0.00    -0.013 OA 
HETATM   19  C   UNL     1      -8.371   8.789  68.828  1.00  0.00    -0.124 C  
HETATM   20  C   UNL     1      -7.397   7.798  69.456  1.00  0.00    -0.088 C  
HETATM   21  C   UNL     1      -6.004   7.831  68.912  1.00  0.00    -0.038 C  
ENDROOT
BRANCH   4  22
HETATM   22  C   UNL     1     -10.729  13.976  65.228  1.00  0.00    -0.367 C  
HETATM   23  C   UNL     1     -11.009  15.231  65.017  1.00  0.00    -0.450 C  
HETATM   24  C   UNL     1     -11.337  16.695  64.768  1.00  0.00     0.021 C  
ENDBRANCH   4  22
BRANCH  13  25
HETATM   25  C   UNL     1     -10.611  11.780  68.818  1.00  0.00    -0.234 A  
HETATM   26  C   UNL     1     -10.399  14.098  69.520  1.00  0.00     0.159 A  
HETATM   27  C   UNL     1     -12.174  12.774  70.382  1.00  0.00    -0.371 A  
HETATM   28  C   UNL     1     -11.695  11.655  69.686  1.00  0.00    -0.418 A  
HETATM   29  C   UNL     1      -9.898  12.985  68.848  1.00  0.00     0.132 A  
HETATM   30  C   UNL     1     -11.592  14.044  70.244  1.00  0.00    -0.171 A  
BRANCH  30  31
HETATM   31  N   UNL     1     -12.165  15.192  70.756  1.00  0.00    -0.310 NA 
HETATM   32  C   UNL     1     -11.860  16.515  70.239  1.00  0.00     0.450 C  
HETATM   33  C   UNL     1     -13.050  15.142  71.916  1.00  0.00    -0.369 C  
ENDBRANCH  30  31
ENDBRANCH  13  25
TORSDOF 3
ENDMDL
MODEL       75
REMARK 921   NORMALIZED FREE ENERGY PREDICTED BY IDOCK:   -2.10 KCAL/MOL
REMARK 922        TOTAL FREE ENERGY PREDICTED BY IDOCK:   -3.10 KCAL/MOL
REMARK 923 INTER-LIGAND FREE ENERGY PREDICTED BY IDOCK:   -2.81 KCAL/MOL
REMARK 924 INTRA-LIGAND FREE ENERGY PREDICTED BY IDOCK:   -0.30 KCAL/MOL
REMARK 927      BINDING AFFINITY PREDICTED BY RF-SCORE:    0.00 PKD
ROOT
HETATM    1  C   UNL     1     -10.221  14.112  70.181  1.00  0.00     0.996 C  
HETATM    2  C   UNL     1     -10.678  15.109  71.081  1.00  0.00     0.063 C  
HETATM    3  C   UNL     1     -11.445  14.891  69.821  1.00  0.00    -0.328 C  
HETATM    4  C   UNL     1     -11.025  13.158  68.763  1.00  0.00    -0.262 C  
HETATM    5  O   UNL     1     -11.904  12.454  67.858  1.00  0.00    -0.351 OA 
HETATM    6  C   UNL     1      -9.323  14.966  68.825  1.00  0.00    -0.203 C  
HETATM    7  C   UNL     1     -11.998  13.506  69.653  1.00  0.00    -0.397 C  
HETATM    8  C   UNL     1     -12.803  14.468  68.215  1.00  0.00     1.301 C  
HETATM    9  C   UNL     1     -12.878  12.719  70.595  1.00  0.00    -0.034 C  
HETATM   10  C   UNL     1      -8.153  15.770  69.431  1.00  0.00    -0.209 C  
HETATM   11  H   UNL     1     -11.711  11.660  67.374  1.00  0.00     0.000 HD 
HETATM   12  C   UNL     1      -7.902  17.199  68.945  1.00  0.00    -0.217 C  
HETATM   13  C   UNL     1     -11.575  15.105  67.111  1.00  0.00    -0.206 C  
HETATM   14  C   UNL     1     -10.202  15.802  67.710  1.00  0.00    -0.251 C  
HETATM   15  C   UNL     1      -8.793  17.830  67.915  1.00  0.00    -0.251 C  
HETATM   16  C   UNL     1      -8.504  19.098  67.568  1.00  0.00    -0.317 C  
HETATM   17  C   UNL     1      -9.913  17.098  67.358  1.00  0.00    -0.280 C  
HETATM   18  O   UNL     1      -8.921  21.039  66.343  1.00  0.00     0.427 OA 
HETATM   19  C   UNL     1     -10.817  17.862  66.394  1.00  0.00     0.042 C  
HETATM   20  C   UNL     1     -10.473  19.278  65.943  1.00  0.00    -0.534 C  
HETATM   21  C   UNL     1      -9.275  19.889  66.597  1.00  0.00    -0.385 C  
ENDROOT
BRANCH   4  22
HETATM   22  C   UNL     1     -10.276  11.803  69.295  1.00  0.00     0.153 C  
HETATM   23  C   UNL     1      -9.913  10.556  69.394  1.00  0.00    -0.220 C  
HETATM   24  C   UNL     1      -9.492   9.099  69.511  1.00  0.00    -0.170 C  
ENDBRANCH   4  22
BRANCH  13  25
HETATM   25  C   UNL     1     -11.208  14.174  65.943  1.00  0.00    -0.313 A  
HETATM   26  C   UNL     1      -9.526  12.891  64.743  1.00  0.00     0.430 A  
HETATM   27  C   UNL     1     -11.805  12.230  64.624  1.00  0.00    -0.435 A  
HETATM   28  C   UNL     1     -12.180  13.334  65.403  1.00  0.00    -0.501 A  
HETATM   29  C   UNL     1      -9.891  14.007  65.494  1.00  0.00    -0.229 A  
HETATM   30  C   UNL     1     -10.461  11.931  64.351  1.00  0.00    -0.311 A  
BRANCH  30  31
HETATM   31  N   UNL     1     -10.060  10.748  63.763  1.00  0.00    -0.340 NA 
HETATM   32  C   UNL     1     -10.252  10.473  62.349  1.00  0.00     0.639 C  
HETATM   33  C   UNL     1      -9.496   9.661  64.559  1.00  0.00    -0.113 C  
ENDBRANCH  30  31
ENDBRANCH  13  25
TORSDOF 3
ENDMDL
MODEL       76
REMARK 921   NORMALIZED FREE ENERGY PREDICTED BY IDOCK:   -1.92 KCAL/MOL
REMARK 922        TOTAL FREE ENERGY PREDICTED BY IDOCK:   -2.89 KCAL/MOL
REMARK 923 INTER-LIGAND FREE ENERGY PREDICTED BY IDOCK:   -2.27 KCAL/MOL
REMARK 924 INTRA-LIGAND FREE ENERGY PREDICTED BY IDOCK:   -0.62 KCAL/MOL
REMARK 927      BINDING AFFINITY PREDICTED BY RF-SCORE:    0.00 PKD
ROOT
HETATM    1  C   UNL     1      -9.802   5.944  69.665  1.00  0.00    -0.215 C  
HETATM    2  C   UNL     1     -11.025   5.501  70.229  1.00  0.00    -0.206 C  
HETATM    3  C   UNL     1     -11.074   6.253  68.942  1.00  0.00    -0.434 C  
HETATM    4  C   UNL     1      -9.277   6.488  67.933  1.00  0.00    -0.110 C  
HETATM    5  O   UNL     1      -9.093   6.690  66.515  1.00  0.00    -0.141 OA 
HETATM    6  C   UNL     1      -9.632   7.731  70.055  1.00  0.00    -0.161 C  
HETATM    7  C   UNL     1     -10.318   5.616  67.813  1.00  0.00    -0.260 C  
HETATM    8  C   UNL     1     -11.256   7.039  66.954  1.00  0.00     0.065 C  
HETATM    9  C   UNL     1     -10.444   4.215  67.263  1.00  0.00     0.696 C  
HETATM   10  C   UNL     1      -9.654   7.912  71.588  1.00  0.00    -0.206 C  
HETATM   11  H   UNL     1      -8.270   6.798  66.053  1.00  0.00     0.000 HD 
HETATM   12  C   UNL     1     -10.496   9.037  72.193  1.00  0.00    -0.198 C  
HETATM   13  C   UNL     1     -10.769   8.608  67.612  1.00  0.00    -0.194 C  
HETATM   14  C   UNL     1     -10.584   8.803  69.242  1.00  0.00    -0.210 C  
HETATM   15  C   UNL     1     -11.315   9.941  71.319  1.00  0.00    -0.404 C  
HETATM   16  C   UNL     1     -12.038  10.886  71.946  1.00  0.00     0.526 C  
HETATM   17  C   UNL     1     -11.328   9.765  69.880  1.00  0.00    -0.238 C  
HETATM   18  O   UNL     1     -13.531  12.679  71.930  1.00  0.00    -0.444 OA 
HETATM   19  C   UNL     1     -12.271  10.670  69.090  1.00  0.00    -0.041 C  
HETATM   20  C   UNL     1     -13.052  11.787  69.775  1.00  0.00     1.067 C  
HETATM   21  C   UNL     1     -12.918  11.847  71.263  1.00  0.00    -0.236 C  
ENDROOT
BRANCH   4  22
HETATM   22  C   UNL     1      -7.890   5.641  68.125  1.00  0.00    -0.096 C  
HETATM   23  C   UNL     1      -6.883   4.854  67.868  1.00  0.00    -0.060 C  
HETATM   24  C   UNL     1      -5.709   3.935  67.570  1.00  0.00    -0.022 C  
ENDBRANCH   4  22
BRANCH  13  25
HETATM   25  C   UNL     1      -9.597   9.283  66.880  1.00  0.00    -0.229 A  
HETATM   26  C   UNL     1      -7.265   9.972  66.862  1.00  0.00    -0.091 A  
HETATM   27  C   UNL     1      -8.373   9.545  64.804  1.00  0.00    -0.155 A  
HETATM   28  C   UNL     1      -9.572   9.292  65.487  1.00  0.00    -0.291 A  
HETATM   29  C   UNL     1      -8.457   9.752  67.548  1.00  0.00    -0.122 A  
HETATM   30  C   UNL     1      -7.170   9.802  65.479  1.00  0.00    -0.108 A  
BRANCH  30  31
HETATM   31  N   UNL     1      -5.947   9.852  64.840  1.00  0.00    -0.088 NA 
HETATM   32  C   UNL     1      -5.243   8.658  64.404  1.00  0.00    -0.043 C  
HETATM   33  C   UNL     1      -5.247  11.119  64.645  1.00  0.00     0.377 C  
ENDBRANCH  30  31
ENDBRANCH  13  25
TORSDOF 3
ENDMDL
MODEL       77
REMARK 921   NORMALIZED FREE ENERGY PREDICTED BY IDOCK:   -1.69 KCAL/MOL
REMARK 922        TOTAL FREE ENERGY PREDICTED BY IDOCK:   -2.62 KCAL/MOL
REMARK 923 INTER-LIGAND FREE ENERGY PREDICTED BY IDOCK:   -2.91 KCAL/MOL
REMARK 924 INTRA-LIGAND FREE ENERGY PREDICTED BY IDOCK:    0.29 KCAL/MOL
REMARK 927      BINDING AFFINITY PREDICTED BY RF-SCORE:    0.00 PKD
ROOT
HETATM    1  C   UNL     1     -11.410  13.197  63.905  1.00  0.00    -0.420 C  
HETATM    2  C   UNL     1     -12.402  12.310  63.415  1.00  0.00    -0.624 C  
HETATM    3  C   UNL     1     -11.990  12.187  64.843  1.00  0.00    -0.356 C  
HETATM    4  C   UNL     1     -10.890  13.758  65.632  1.00  0.00    -0.287 C  
HETATM    5  O   UNL     1     -10.803  14.150  67.020  1.00  0.00    -0.289 OA 
HETATM    6  C   UNL     1      -9.822  12.274  63.950  1.00  0.00    -0.205 C  
HETATM    7  C   UNL     1     -12.211  13.420  65.670  1.00  0.00    -0.510 C  
HETATM    8  C   UNL     1     -11.717  12.112  66.969  1.00  0.00    -0.373 C  
HETATM    9  C   UNL     1     -13.482  14.210  65.867  1.00  0.00     1.176 C  
HETATM   10  C   UNL     1      -9.493  11.776  62.527  1.00  0.00     0.483 C  
HETATM   11  H   UNL     1     -10.299  14.870  67.381  1.00  0.00     0.000 HD 
HETATM   12  C   UNL     1      -8.996  10.342  62.336  1.00  0.00    -0.288 C  
HETATM   13  C   UNL     1     -10.087  11.495  66.662  1.00  0.00    -0.242 C  
HETATM   14  C   UNL     1      -9.614  11.132  65.122  1.00  0.00    -0.273 C  
HETATM   15  C   UNL     1      -8.855   9.414  63.506  1.00  0.00    -0.198 C  
HETATM   16  C   UNL     1      -8.431   8.166  63.234  1.00  0.00     0.088 C  
HETATM   17  C   UNL     1      -9.188   9.857  64.846  1.00  0.00    -0.301 C  
HETATM   18  O   UNL     1      -7.853   6.003  63.890  1.00  0.00    -0.105 OA 
HETATM   19  C   UNL     1      -9.106   8.807  65.952  1.00  0.00    -0.271 C  
HETATM   20  C   UNL     1      -8.571   7.406  65.674  1.00  0.00    -0.128 C  
HETATM   21  C   UNL     1      -8.255   7.110  64.243  1.00  0.00     0.038 C  
ENDROOT
BRANCH   4  22
HETATM   22  C   UNL     1     -10.745  15.283  65.056  1.00  0.00    -0.461 C  
HETATM   23  C   UNL     1     -10.733  16.585  65.011  1.00  0.00    -0.228 C  
HETATM   24  C   UNL     1     -10.720  18.104  64.957  1.00  0.00     1.032 C  
ENDBRANCH   4  22
BRANCH  13  25
HETATM   25  C   UNL     1      -8.960  12.258  67.378  1.00  0.00    -0.183 A  
HETATM   26  C   UNL     1      -8.174  13.476  69.330  1.00  0.00     0.770 A  
HETATM   27  C   UNL     1      -6.605  12.347  67.948  1.00  0.00    -0.097 A  
HETATM   28  C   UNL     1      -7.632  11.965  67.072  1.00  0.00    -0.134 A  
HETATM   29  C   UNL     1      -9.197  13.127  68.451  1.00  0.00    -0.141 A  
HETATM   30  C   UNL     1      -6.862  13.033  69.145  1.00  0.00    -0.058 A  
BRANCH  30  31
HETATM   31  N   UNL     1      -5.900  13.239  70.113  1.00  0.00    -0.138 NA 
HETATM   32  C   UNL     1      -5.513  12.209  71.062  1.00  0.00    -0.089 C  
HETATM   33  C   UNL     1      -5.277  14.548  70.294  1.00  0.00    -0.099 C  
ENDBRANCH  30  31
ENDBRANCH  13  25
TORSDOF 3
ENDMDL
MODEL       78
REMARK 921   NORMALIZED FREE ENERGY PREDICTED BY IDOCK:   -1.62 KCAL/MOL
REMARK 922        TOTAL FREE ENERGY PREDICTED BY IDOCK:   -2.53 KCAL/MOL
REMARK 923 INTER-LIGAND FREE ENERGY PREDICTED BY IDOCK:   -1.66 KCAL/MOL
REMARK 924 INTRA-LIGAND FREE ENERGY PREDICTED BY IDOCK:   -0.87 KCAL/MOL
REMARK 927      BINDING AFFINITY PREDICTED BY RF-SCORE:    0.00 PKD
ROOT
HETATM    1  C   UNL     1     -10.306  16.496  68.252  1.00  0.00    -0.293 C  
HETATM    2  C   UNL     1     -11.682  16.840  68.254  1.00  0.00     0.449 C  
HETATM    3  C   UNL     1     -11.296  15.477  68.720  1.00  0.00    -0.339 C  
HETATM    4  C   UNL     1      -9.286  15.168  69.126  1.00  0.00    -0.215 C  
HETATM    5  O   UNL     1      -8.719  14.193  70.028  1.00  0.00     0.497 OA 
HETATM    6  C   UNL     1     -10.000  15.463  66.765  1.00  0.00    -0.256 C  
HETATM    7  C   UNL     1     -10.371  15.456  69.901  1.00  0.00    -0.298 C  
HETATM    8  C   UNL     1     -10.853  13.621  69.698  1.00  0.00     0.117 C  
HETATM    9  C   UNL     1     -10.541  16.118  71.247  1.00  0.00     0.863 C  
HETATM   10  C   UNL     1     -10.389  16.270  65.508  1.00  0.00    -0.363 C  
HETATM   11  H   UNL     1      -7.798  14.052  70.214  1.00  0.00     0.000 HD 
HETATM   12  C   UNL     1     -11.196  15.584  64.404  1.00  0.00    -0.232 C  
HETATM   13  C   UNL     1     -10.342  13.000  68.122  1.00  0.00    -0.244 C  
HETATM   14  C   UNL     1     -10.557  13.911  66.762  1.00  0.00    -0.277 C  
HETATM   15  C   UNL     1     -11.633  14.155  64.543  1.00  0.00    -0.400 C  
HETATM   16  C   UNL     1     -12.356  13.647  63.528  1.00  0.00    -0.265 C  
HETATM   17  C   UNL     1     -11.300  13.393  65.731  1.00  0.00    -0.322 C  
HETATM   18  O   UNL     1     -13.536  11.909  62.514  1.00  0.00     0.454 OA 
HETATM   19  C   UNL     1     -11.876  11.981  65.820  1.00  0.00    -0.236 C  
HETATM   20  C   UNL     1     -12.647  11.368  64.656  1.00  0.00     1.192 C  
HETATM   21  C   UNL     1     -12.893  12.278  63.495  1.00  0.00    -0.283 C  
ENDROOT
BRANCH   4  22
HETATM   22  C   UNL     1      -8.124  16.288  69.397  1.00  0.00    -0.048 C  
HETATM   23  C   UNL     1      -7.116  17.089  69.196  1.00  0.00    -0.221 C  
HETATM   24  C   UNL     1      -5.939  18.023  68.963  1.00  0.00    -0.217 C  
ENDBRANCH   4  22
BRANCH  13  25
HETATM   25  C   UNL     1      -8.940  12.367  68.099  1.00  0.00    -0.196 A  
HETATM   26  C   UNL     1      -7.490  10.483  68.613  1.00  0.00    -0.095 A  
HETATM   27  C   UNL     1      -6.917  11.948  66.832  1.00  0.00    -0.072 A  
HETATM   28  C   UNL     1      -8.030  12.752  67.117  1.00  0.00    -0.112 A  
HETATM   29  C   UNL     1      -8.583  11.291  68.923  1.00  0.00    -0.056 A  
HETATM   30  C   UNL     1      -6.671  10.746  67.513  1.00  0.00    -0.073 A  
BRANCH  30  31
HETATM   31  N   UNL     1      -5.704   9.843  67.116  1.00  0.00    -0.046 NA 
HETATM   32  C   UNL     1      -5.179   9.804  65.762  1.00  0.00    -0.039 C  
HETATM   33  C   UNL     1      -5.218   8.808  68.025  1.00  0.00    -0.035 C  
ENDBRANCH  30  31
ENDBRANCH  13  25
TORSDOF 3
ENDMDL
MODEL       79
REMARK 921   NORMALIZED FREE ENERGY PREDICTED BY IDOCK:   -1.27 KCAL/MOL
REMARK 922        TOTAL FREE ENERGY PREDICTED BY IDOCK:   -2.12 KCAL/MOL
REMARK 923 INTER-LIGAND FREE ENERGY PREDICTED BY IDOCK:   -2.47 KCAL/MOL
REMARK 924 INTRA-LIGAND FREE ENERGY PREDICTED BY IDOCK:    0.35 KCAL/MOL
REMARK 927      BINDING AFFINITY PREDICTED BY RF-SCORE:    0.00 PKD
ROOT
HETATM    1  C   UNL     1      -8.673  10.748  66.463  1.00  0.00    -0.154 C  
HETATM    2  C   UNL     1      -8.154  10.183  65.270  1.00  0.00    -0.151 C  
HETATM    3  C   UNL     1      -9.288   9.487  65.944  1.00  0.00    -0.285 C  
HETATM    4  C   UNL     1     -10.300  10.557  67.404  1.00  0.00    -0.224 C  
HETATM    5  O   UNL     1     -11.667  10.370  67.831  1.00  0.00    -0.714 OA 
HETATM    6  C   UNL     1      -7.984   9.789  67.870  1.00  0.00    -0.104 C  
HETATM    7  C   UNL     1     -10.535  10.310  66.084  1.00  0.00    -0.200 C  
HETATM    8  C   UNL     1     -11.101   8.572  66.633  1.00  0.00     0.999 C  
HETATM    9  C   UNL     1     -11.315  11.033  65.012  1.00  0.00     0.234 C  
HETATM   10  C   UNL     1      -6.443   9.869  67.822  1.00  0.00    -0.063 C  
HETATM   11  H   UNL     1     -12.130  10.861  68.500  1.00  0.00     0.000 HD 
HETATM   12  C   UNL     1      -5.624   8.597  68.049  1.00  0.00    -0.035 C  
HETATM   13  C   UNL     1     -10.197   8.029  68.054  1.00  0.00    -0.260 C  
HETATM   14  C   UNL     1      -8.565   8.270  68.141  1.00  0.00    -0.132 C  
HETATM   15  C   UNL     1      -6.299   7.279  68.288  1.00  0.00    -0.040 C  
HETATM   16  C   UNL     1      -5.493   6.214  68.456  1.00  0.00    -0.008 C  
HETATM   17  C   UNL     1      -7.746   7.182  68.307  1.00  0.00    -0.120 C  
HETATM   18  O   UNL     1      -5.148   3.937  68.827  1.00  0.00    -0.006 OA 
HETATM   19  C   UNL     1      -8.334   5.780  68.457  1.00  0.00    -0.107 C  
HETATM   20  C   UNL     1      -7.439   4.571  68.708  1.00  0.00    -0.060 C  
HETATM   21  C   UNL     1      -5.969   4.840  68.676  1.00  0.00    -0.026 C  
ENDROOT
BRANCH   4  22
HETATM   22  C   UNL     1     -10.306  12.175  67.653  1.00  0.00    -0.215 C  
HETATM   23  C   UNL     1     -10.375  13.326  68.259  1.00  0.00    -0.252 C  
HETATM   24  C   UNL     1     -10.457  14.670  68.966  1.00  0.00    -0.248 C  
ENDBRANCH   4  22
BRANCH  13  25
HETATM   25  C   UNL     1     -10.840   8.384  69.406  1.00  0.00    -0.094 A  
HETATM   26  C   UNL     1     -11.552  10.077  71.000  1.00  0.00    -0.476 A  
HETATM   27  C   UNL     1     -12.634   7.961  70.980  1.00  0.00    -0.111 A  
HETATM   28  C   UNL     1     -11.765   7.511  69.976  1.00  0.00     0.116 A  
HETATM   29  C   UNL     1     -10.665   9.630  70.022  1.00  0.00    -0.298 A  
HETATM   30  C   UNL     1     -12.608   9.283  71.452  1.00  0.00    -0.336 A  
BRANCH  30  31
HETATM   31  N   UNL     1     -13.579   9.801  72.287  1.00  0.00    -0.389 NA 
HETATM   32  C   UNL     1     -13.851  11.225  72.380  1.00  0.00     0.625 C  
HETATM   33  C   UNL     1     -14.331   8.941  73.196  1.00  0.00     0.666 C  
ENDBRANCH  30  31
ENDBRANCH  13  25
TORSDOF 3
ENDMDL
MODEL       80
REMARK 921   NORMALIZED FREE ENERGY PREDICTED BY IDOCK:   -0.59 KCAL/MOL
REMARK 922        TOTAL FREE ENERGY PREDICTED BY IDOCK:   -1.32 KCAL/MOL
REMARK 923 INTER-LIGAND FREE ENERGY PREDICTED BY IDOCK:   -2.73 KCAL/MOL
REMARK 924 INTRA-LIGAND FREE ENERGY PREDICTED BY IDOCK:    1.40 KCAL/MOL
REMARK 927      BINDING AFFINITY PREDICTED BY RF-SCORE:    0.00 PKD
ROOT
HETATM    1  C   UNL     1      -7.397  15.655  67.412  1.00  0.00    -0.235 C  
HETATM    2  C   UNL     1      -7.123  15.783  66.026  1.00  0.00     2.398 C  
HETATM    3  C   UNL     1      -8.337  16.458  66.571  1.00  0.00    -0.337 C  
HETATM    4  C   UNL     1      -8.461  16.626  68.634  1.00  0.00    -0.253 C  
HETATM    5  O   UNL     1      -9.195  17.618  69.384  1.00  0.00     0.116 OA 
HETATM    6  C   UNL     1      -8.707  14.382  67.597  1.00  0.00    -0.191 C  
HETATM    7  C   UNL     1      -8.064  17.473  67.641  1.00  0.00    -0.211 C  
HETATM    8  C   UNL     1      -9.921  17.722  67.274  1.00  0.00    -0.324 C  
HETATM    9  C   UNL     1      -7.140  18.666  67.599  1.00  0.00    -0.219 C  
HETATM   10  C   UNL     1      -8.205  13.055  66.988  1.00  0.00    -0.071 C  
HETATM   11  H   UNL     1      -9.252  17.695  70.330  1.00  0.00     0.000 HD 
HETATM   12  C   UNL     1      -9.146  12.242  66.097  1.00  0.00    -0.076 C  
HETATM   13  C   UNL     1     -10.839  16.249  67.620  1.00  0.00    -0.293 C  
HETATM   14  C   UNL     1     -10.248  14.776  67.162  1.00  0.00    -0.245 C  
HETATM   15  C   UNL     1     -10.531  12.732  65.790  1.00  0.00    -0.294 C  
HETATM   16  C   UNL     1     -11.275  11.957  64.979  1.00  0.00    -0.350 C  
HETATM   17  C   UNL     1     -11.007  13.990  66.331  1.00  0.00    -0.308 C  
HETATM   18  O   UNL     1     -13.241  11.499  63.810  1.00  0.00    -0.188 OA 
HETATM   19  C   UNL     1     -12.392  14.447  65.878  1.00  0.00    -0.342 C  
HETATM   20  C   UNL     1     -13.273  13.556  65.009  1.00  0.00     0.161 C  
HETATM   21  C   UNL     1     -12.643  12.281  64.547  1.00  0.00    -0.327 C  
ENDROOT
BRANCH   4  22
HETATM   22  C   UNL     1      -7.258  16.493  69.735  1.00  0.00     0.270 C  
HETATM   23  C   UNL     1      -6.309  15.979  70.465  1.00  0.00     0.375 C  
HETATM   24  C   UNL     1      -5.202  15.379  71.317  1.00  0.00    -0.091 C  
ENDBRANCH   4  22
BRANCH  13  25
HETATM   25  C   UNL     1     -11.398  16.154  69.049  1.00  0.00    -0.340 A  
HETATM   26  C   UNL     1     -13.233  15.586  70.541  1.00  0.00    -0.183 A  
HETATM   27  C   UNL     1     -11.001  15.512  71.353  1.00  0.00    -0.190 A  
HETATM   28  C   UNL     1     -10.523  15.975  70.119  1.00  0.00    -0.198 A  
HETATM   29  C   UNL     1     -12.771  16.074  69.320  1.00  0.00     0.911 A  
HETATM   30  C   UNL     1     -12.357  15.219  71.565  1.00  0.00    -0.352 A  
BRANCH  30  31
HETATM   31  N   UNL     1     -12.817  14.574  72.696  1.00  0.00    -0.401 NA 
HETATM   32  C   UNL     1     -13.599  13.351  72.635  1.00  0.00    -0.431 C  
HETATM   33  C   UNL     1     -12.617  15.144  74.025  1.00  0.00    -0.507 C  
ENDBRANCH  30  31
ENDBRANCH  13  25
TORSDOF 3
ENDMDL
MODEL       81
REMARK 921   NORMALIZED FREE ENERGY PREDICTED BY IDOCK:   -0.12 KCAL/MOL
REMARK 922        TOTAL FREE ENERGY PREDICTED BY IDOCK:   -0.77 KCAL/MOL
REMARK 923 INTER-LIGAND FREE ENERGY PREDICTED BY IDOCK:   -0.18 KCAL/MOL
REMARK 924 INTRA-LIGAND FREE ENERGY PREDICTED BY IDOCK:   -0.60 KCAL/MOL
REMARK 927      BINDING AFFINITY PREDICTED BY RF-SCORE:    0.00 PKD
ROOT
HETATM    1  C   UNL     1      -9.305  11.606  66.800  1.00  0.00    -0.193 C  
HETATM    2  C   UNL     1      -9.683  10.713  67.835  1.00  0.00    -0.177 C  
HETATM    3  C   UNL     1     -10.120  12.136  67.936  1.00  0.00    -0.199 C  
HETATM    4  C   UNL     1      -9.941  13.288  66.221  1.00  0.00    -0.291 C  
HETATM    5  O   UNL     1     -10.710  14.460  65.875  1.00  0.00    -0.291 OA 
HETATM    6  C   UNL     1      -7.877  12.585  67.414  1.00  0.00    -0.175 C  
HETATM    7  C   UNL     1     -10.975  12.613  66.800  1.00  0.00    -0.296 C  
HETATM    8  C   UNL     1     -11.066  14.058  68.043  1.00  0.00    -0.282 C  
HETATM    9  C   UNL     1     -12.257  12.018  66.267  1.00  0.00     0.383 C  
HETATM   10  C   UNL     1      -6.731  11.620  67.784  1.00  0.00    -0.072 C  
HETATM   11  H   UNL     1     -10.628  14.988  65.089  1.00  0.00     0.000 HD 
HETATM   12  C   UNL     1      -5.970  11.837  69.093  1.00  0.00    -0.070 C  
HETATM   13  C   UNL     1      -9.462  14.746  68.335  1.00  0.00    -0.213 C  
HETATM   14  C   UNL     1      -8.158  13.754  68.543  1.00  0.00    -0.128 C  
HETATM   15  C   UNL     1      -6.341  12.953  70.025  1.00  0.00     0.014 C  
HETATM   16  C   UNL     1      -5.626  13.049  71.161  1.00  0.00    -0.120 C  
HETATM   17  C   UNL     1      -7.434  13.851  69.705  1.00  0.00     0.393 C  
HETATM   18  O   UNL     1      -5.141  14.066  73.203  1.00  0.00    -0.221 OA 
HETATM   19  C   UNL     1      -7.798  14.889  70.764  1.00  0.00     1.656 C  
HETATM   20  C   UNL     1      -6.962  15.052  72.029  1.00  0.00     2.506 C  
HETATM   21  C   UNL     1      -5.858  14.059  72.204  1.00  0.00     0.070 C  
ENDROOT
BRANCH   4  22
HETATM   22  C   UNL     1      -9.771  12.781  64.674  1.00  0.00     0.088 C  
HETATM   23  C   UNL     1      -9.498  12.023  63.651  1.00  0.00     0.023 C  
HETATM   24  C   UNL     1      -9.177  11.139  62.456  1.00  0.00    -0.317 C  
ENDBRANCH   4  22
BRANCH  13  25
HETATM   25  C   UNL     1      -9.078  15.910  67.406  1.00  0.00    -0.205 A  
HETATM   26  C   UNL     1      -9.485  18.173  66.613  1.00  0.00    -0.303 A  
HETATM   27  C   UNL     1      -7.298  17.255  66.458  1.00  0.00    -0.312 A  
HETATM   28  C   UNL     1      -7.759  16.035  66.973  1.00  0.00    -0.264 A  
HETATM   29  C   UNL     1      -9.959  16.955  67.098  1.00  0.00    -0.276 A  
HETATM   30  C   UNL     1      -8.129  18.381  66.351  1.00  0.00    -0.260 A  
BRANCH  30  31
HETATM   31  N   UNL     1      -7.652  19.640  66.041  1.00  0.00    -0.313 NA 
HETATM   32  C   UNL     1      -6.689  19.871  64.978  1.00  0.00    -0.227 C  
HETATM   33  C   UNL     1      -8.027  20.807  66.834  1.00  0.00    -0.102 C  
ENDBRANCH  30  31
ENDBRANCH  13  25
TORSDOF 3
ENDMDL
MODEL       82
REMARK 921   NORMALIZED FREE ENERGY PREDICTED BY IDOCK:    0.08 KCAL/MOL
REMARK 922        TOTAL FREE ENERGY PREDICTED BY IDOCK:   -0.54 KCAL/MOL
REMARK 923 INTER-LIGAND FREE ENERGY PREDICTED BY IDOCK:   -0.48 KCAL/MOL
REMARK 924 INTRA-LIGAND FREE ENERGY PREDICTED BY IDOCK:   -0.06 KCAL/MOL
REMARK 927      BINDING AFFINITY PREDICTED BY RF-SCORE:    0.00 PKD
ROOT
HETATM    1  C   UNL     1     -11.881   8.739  69.637  1.00  0.00     0.758 C  
HETATM    2  C   UNL     1     -12.671   8.431  70.775  1.00  0.00     0.246 C  
HETATM    3  C   UNL     1     -11.320   9.026  70.993  1.00  0.00    -0.362 C  
HETATM    4  C   UNL     1     -10.395   9.866  69.339  1.00  0.00    -0.222 C  
HETATM    5  O   UNL     1      -9.396  10.909  69.335  1.00  0.00    -0.404 OA 
HETATM    6  C   UNL     1     -10.643   7.397  69.448  1.00  0.00    -0.231 C  
HETATM    7  C   UNL     1     -11.121  10.378  70.374  1.00  0.00    -0.371 C  
HETATM    8  C   UNL     1      -9.549  10.153  71.432  1.00  0.00     2.269 C  
HETATM    9  C   UNL     1     -11.951  11.627  70.545  1.00  0.00    -0.413 C  
HETATM   10  C   UNL     1     -11.384   6.053  69.283  1.00  0.00    -0.245 C  
HETATM   11  H   UNL     1      -8.972  11.294  68.577  1.00  0.00     0.000 HD 
HETATM   12  C   UNL     1     -10.891   4.831  70.061  1.00  0.00     0.807 C  
HETATM   13  C   UNL     1      -8.615   8.751  70.892  1.00  0.00    -0.229 C  
HETATM   14  C   UNL     1      -9.383   7.339  70.510  1.00  0.00    -0.158 C  
HETATM   15  C   UNL     1      -9.722   4.933  70.996  1.00  0.00    -0.252 C  
HETATM   16  C   UNL     1      -9.378   3.809  71.651  1.00  0.00    -0.198 C  
HETATM   17  C   UNL     1      -9.033   6.195  71.184  1.00  0.00    -0.144 C  
HETATM   18  O   UNL     1      -8.040   2.639  73.161  1.00  0.00    -0.057 OA 
HETATM   19  C   UNL     1      -7.922   6.218  72.231  1.00  0.00    -0.104 C  
HETATM   20  C   UNL     1      -7.478   4.942  72.939  1.00  0.00    -0.091 C  
HETATM   21  C   UNL     1      -8.278   3.718  72.623  1.00  0.00    -0.089 C  
ENDROOT
BRANCH   4  22
HETATM   22  C   UNL     1     -11.076  10.334  67.926  1.00  0.00    -0.341 C  
HETATM   23  C   UNL     1     -11.237  10.912  66.769  1.00  0.00    -0.109 C  
HETATM   24  C   UNL     1     -11.425  11.587  65.420  1.00  0.00    -0.080 C  
ENDBRANCH   4  22
BRANCH  13  25
HETATM   25  C   UNL     1      -7.545   9.055  69.829  1.00  0.00    -0.075 A  
HETATM   26  C   UNL     1      -6.577   8.590  67.648  1.00  0.00    -0.062 A  
HETATM   27  C   UNL     1      -6.310  10.747  68.609  1.00  0.00    -0.050 A  
HETATM   28  C   UNL     1      -6.982  10.328  69.767  1.00  0.00    -0.129 A  
HETATM   29  C   UNL     1      -7.220   8.156  68.805  1.00  0.00    -0.083 A  
HETATM   30  C   UNL     1      -6.171   9.917  67.486  1.00  0.00    -0.059 A  
BRANCH  30  31
HETATM   31  N   UNL     1      -5.697  10.371  66.271  1.00  0.00    -0.066 NA 
HETATM   32  C   UNL     1      -5.137  11.701  66.098  1.00  0.00     0.132 C  
HETATM   33  C   UNL     1      -5.818   9.561  65.062  1.00  0.00    -0.066 C  
ENDBRANCH  30  31
ENDBRANCH  13  25
TORSDOF 3
ENDMDL
MODEL       83
REMARK 921   NORMALIZED FREE ENERGY PREDICTED BY IDOCK:    1.58 KCAL/MOL
REMARK 922        TOTAL FREE ENERGY PREDICTED BY IDOCK:    1.23 KCAL/MOL
REMARK 923 INTER-LIGAND FREE ENERGY PREDICTED BY IDOCK:   -1.12 KCAL/MOL
REMARK 924 INTRA-LIGAND FREE ENERGY PREDICTED BY IDOCK:    2.35 KCAL/MOL
REMARK 927      BINDING AFFINITY PREDICTED BY RF-SCORE:    0.00 PKD
ROOT
HETATM    1  C   UNL     1      -9.219   8.124  68.958  1.00  0.00    -0.148 C  
HETATM    2  C   UNL     1      -8.471   7.014  69.428  1.00  0.00    -0.133 C  
HETATM    3  C   UNL     1      -7.764   8.050  68.619  1.00  0.00    -0.105 C  
HETATM    4  C   UNL     1      -8.758   9.847  68.337  1.00  0.00    -0.120 C  
HETATM    5  O   UNL     1      -8.166  11.138  68.071  1.00  0.00    -0.116 OA 
HETATM    6  C   UNL     1      -9.609   7.814  67.190  1.00  0.00    -0.220 C  
HETATM    7  C   UNL     1      -7.792   9.431  69.205  1.00  0.00    -0.080 C  
HETATM    8  C   UNL     1      -6.574   9.606  67.746  1.00  0.00    -0.065 C  
HETATM    9  C   UNL     1      -7.363   9.884  70.580  1.00  0.00    -0.085 C  
HETATM   10  C   UNL     1     -10.407   6.498  67.078  1.00  0.00    -0.319 C  
HETATM   11  H   UNL     1      -8.622  11.962  67.942  1.00  0.00     0.000 HD 
HETATM   12  C   UNL     1     -10.038   5.496  65.982  1.00  0.00    -0.067 C  
HETATM   13  C   UNL     1      -7.370   9.246  66.207  1.00  0.00    -0.092 C  
HETATM   14  C   UNL     1      -8.394   7.956  66.085  1.00  0.00    -0.127 C  
HETATM   15  C   UNL     1      -8.900   5.766  65.042  1.00  0.00     0.023 C  
HETATM   16  C   UNL     1      -8.641   4.815  64.126  1.00  0.00    -0.137 C  
HETATM   17  C   UNL     1      -8.123   6.985  65.153  1.00  0.00    -0.124 C  
HETATM   18  O   UNL     1      -7.406   3.967  62.337  1.00  0.00    -0.042 OA 
HETATM   19  C   UNL     1      -6.925   7.118  64.215  1.00  0.00    -0.055 C  
HETATM   20  C   UNL     1      -6.651   6.080  63.132  1.00  0.00    -0.036 C  
HETATM   21  C   UNL     1      -7.554   4.889  63.138  1.00  0.00    -0.063 C  
ENDROOT
BRANCH   4  22
HETATM   22  C   UNL     1     -10.017  10.454  69.189  1.00  0.00    -0.237 C  
HETATM   23  C   UNL     1     -11.098  10.512  69.914  1.00  0.00    -0.371 C  
HETATM   24  C   UNL     1     -12.361  10.581  70.758  1.00  0.00    -0.474 C  
ENDBRANCH   4  22
BRANCH  13  25
HETATM   25  C   UNL     1      -7.990  10.462  65.499  1.00  0.00    -0.153 A  
HETATM   26  C   UNL     1      -9.462  11.350  63.778  1.00  0.00    -0.189 A  
HETATM   27  C   UNL     1      -9.029  12.640  65.727  1.00  0.00     0.397 A  
HETATM   28  C   UNL     1      -8.146  11.658  66.197  1.00  0.00     0.128 A  
HETATM   29  C   UNL     1      -8.564  10.382  64.222  1.00  0.00    -0.190 A  
HETATM   30  C   UNL     1      -9.778  12.469  64.552  1.00  0.00     0.063 A  
BRANCH  30  31
HETATM   31  N   UNL     1     -10.796  13.325  64.180  1.00  0.00    -0.388 NA 
HETATM   32  C   UNL     1     -10.545  14.625  63.581  1.00  0.00     2.807 C  
HETATM   33  C   UNL     1     -12.193  13.001  64.454  1.00  0.00    -0.406 C  
ENDBRANCH  30  31
ENDBRANCH  13  25
TORSDOF 3
ENDMDL
MODEL       84
REMARK 921   NORMALIZED FREE ENERGY PREDICTED BY IDOCK:    2.59 KCAL/MOL
REMARK 922        TOTAL FREE ENERGY PREDICTED BY IDOCK:    2.41 KCAL/MOL
REMARK 923 INTER-LIGAND FREE ENERGY PREDICTED BY IDOCK:    3.21 KCAL/MOL
REMARK 924 INTRA-LIGAND FREE ENERGY PREDICTED BY IDOCK:   -0.80 KCAL/MOL
REMARK 927      BINDING AFFINITY PREDICTED BY RF-SCORE:    0.00 PKD
ROOT
HETATM    1  C   UNL     1     -11.300  12.307  67.006  1.00  0.00    -0.395 C  
HETATM    2  C   UNL     1     -11.552  12.450  65.617  1.00  0.00    -0.441 C  
HETATM    3  C   UNL     1     -10.142  12.550  66.092  1.00  0.00    -0.265 C  
HETATM    4  C   UNL     1      -9.762  11.898  68.024  1.00  0.00    -0.191 C  
HETATM    5  O   UNL     1      -8.508  11.409  68.548  1.00  0.00    -0.149 OA 
HETATM    6  C   UNL     1     -11.061  13.991  67.698  1.00  0.00    -0.298 C  
HETATM    7  C   UNL     1      -9.627  11.327  66.793  1.00  0.00    -0.214 C  
HETATM    8  C   UNL     1      -8.062  12.401  66.597  1.00  0.00     0.096 C  
HETATM    9  C   UNL     1      -9.604   9.898  66.306  1.00  0.00    -0.265 C  
HETATM   10  C   UNL     1     -12.331  14.826  67.431  1.00  0.00     0.197 C  
HETATM   11  H   UNL     1      -8.335  11.110  69.433  1.00  0.00     0.000 HD 
HETATM   12  C   UNL     1     -12.185  16.262  66.924  1.00  0.00     1.976 C  
HETATM   13  C   UNL     1      -8.239  13.941  67.451  1.00  0.00    -0.198 C  
HETATM   14  C   UNL     1      -9.656  14.784  67.358  1.00  0.00    -0.210 C  
HETATM   15  C   UNL     1     -10.830  16.852  66.661  1.00  0.00     0.023 C  
HETATM   16  C   UNL     1     -10.807  18.115  66.197  1.00  0.00     0.019 C  
HETATM   17  C   UNL     1      -9.629  16.070  66.879  1.00  0.00    -0.239 C  
HETATM   18  O   UNL     1      -9.666  20.007  65.449  1.00  0.00    -0.208 OA 
HETATM   19  C   UNL     1      -8.307  16.726  66.486  1.00  0.00    -0.320 C  
HETATM   20  C   UNL     1      -8.254  18.176  66.016  1.00  0.00    -0.087 C  
HETATM   21  C   UNL     1      -9.579  18.851  65.858  1.00  0.00     0.057 C  
ENDROOT
BRANCH   4  22
HETATM   22  C   UNL     1     -10.684  10.928  68.965  1.00  0.00    -0.262 C  
HETATM   23  C   UNL     1     -11.306  10.454  70.008  1.00  0.00    -0.384 C  
HETATM   24  C   UNL     1     -12.030   9.901  71.225  1.00  0.00    -0.489 C  
ENDBRANCH   4  22
BRANCH  13  25
HETATM   25  C   UNL     1      -7.740  13.937  68.906  1.00  0.00    -0.041 A  
HETATM   26  C   UNL     1      -5.898  13.742  70.482  1.00  0.00    -0.169 A  
HETATM   27  C   UNL     1      -7.835  14.976  71.094  1.00  0.00     2.585 A  
HETATM   28  C   UNL     1      -8.446  14.646  69.876  1.00  0.00     0.544 A  
HETATM   29  C   UNL     1      -6.508  13.384  69.281  1.00  0.00    -0.111 A  
HETATM   30  C   UNL     1      -6.513  14.609  71.388  1.00  0.00     0.592 A  
BRANCH  30  31
HETATM   31  N   UNL     1      -5.826  15.092  72.485  1.00  0.00     0.553 NA 
HETATM   32  C   UNL     1      -5.447  16.488  72.617  1.00  0.00     1.813 C  
HETATM   33  C   UNL     1      -5.362  14.196  73.541  1.00  0.00    -0.307 C  
ENDBRANCH  30  31
ENDBRANCH  13  25
TORSDOF 3
ENDMDL
MODEL       85
REMARK 921   NORMALIZED FREE ENERGY PREDICTED BY IDOCK:    3.19 KCAL/MOL
REMARK 922        TOTAL FREE ENERGY PREDICTED BY IDOCK:    3.11 KCAL/MOL
REMARK 923 INTER-LIGAND FREE ENERGY PREDICTED BY IDOCK:    3.75 KCAL/MOL
REMARK 924 INTRA-LIGAND FREE ENERGY PREDICTED BY IDOCK:   -0.64 KCAL/MOL
REMARK 927      BINDING AFFINITY PREDICTED BY RF-SCORE:    0.00 PKD
ROOT
HETATM    1  C   UNL     1      -9.251  12.907  69.535  1.00  0.00     1.570 C  
HETATM    2  C   UNL     1      -8.496  11.713  69.671  1.00  0.00     1.196 C  
HETATM    3  C   UNL     1      -7.963  12.788  68.784  1.00  0.00     0.069 C  
HETATM    4  C   UNL     1      -8.842  14.658  68.958  1.00  0.00    -0.090 C  
HETATM    5  O   UNL     1      -8.244  15.935  68.645  1.00  0.00    -0.160 OA 
HETATM    6  C   UNL     1     -10.150  12.809  67.937  1.00  0.00    -0.231 C  
HETATM    7  C   UNL     1      -7.708  14.099  69.469  1.00  0.00     0.286 C  
HETATM    8  C   UNL     1      -6.943  14.360  67.741  1.00  0.00    -0.191 C  
HETATM    9  C   UNL     1      -6.871  14.378  70.695  1.00  0.00     0.367 C  
HETATM   10  C   UNL     1     -11.054  11.558  67.947  1.00  0.00    -0.317 C  
HETATM   11  H   UNL     1      -8.647  16.792  68.725  1.00  0.00     0.000 HD 
HETATM   12  C   UNL     1     -11.096  10.660  66.710  1.00  0.00    -0.103 C  
HETATM   13  C   UNL     1      -8.169  14.212  66.474  1.00  0.00     0.529 C  
HETATM   14  C   UNL     1      -9.291  13.001  66.543  1.00  0.00    -0.220 C  
HETATM   15  C   UNL     1     -10.253  10.966  65.507  1.00  0.00    -0.332 C  
HETATM   16  C   UNL     1     -10.344  10.105  64.477  1.00  0.00     0.208 C  
HETATM   17  C   UNL     1      -9.377  12.121  65.493  1.00  0.00     0.007 C  
HETATM   18  O   UNL     1      -9.742   9.386  62.341  1.00  0.00     0.307 OA 
HETATM   19  C   UNL     1      -8.486  12.287  64.263  1.00  0.00     2.338 C  
HETATM   20  C   UNL     1      -8.618  11.357  63.061  1.00  0.00     0.114 C  
HETATM   21  C   UNL     1      -9.579  10.224  63.226  1.00  0.00    -0.256 C  
ENDROOT
BRANCH   4  22
HETATM   22  C   UNL     1      -9.752  15.239  70.188  1.00  0.00     0.117 C  
HETATM   23  C   UNL     1     -10.792  15.586  70.892  1.00  0.00    -0.248 C  
HETATM   24  C   UNL     1     -12.006  15.993  71.713  1.00  0.00    -0.592 C  
ENDBRANCH   4  22
BRANCH  13  25
HETATM   25  C   UNL     1      -8.861  15.529  66.083  1.00  0.00    -0.273 A  
HETATM   26  C   UNL     1     -10.786  17.005  66.248  1.00  0.00    -0.086 A  
HETATM   27  C   UNL     1      -8.648  17.921  65.759  1.00  0.00     0.316 A  
HETATM   28  C   UNL     1      -8.086  16.637  65.746  1.00  0.00     0.456 A  
HETATM   29  C   UNL     1     -10.243  15.722  66.208  1.00  0.00    -0.317 A  
HETATM   30  C   UNL     1      -9.991  18.144  66.100  1.00  0.00    -0.299 A  
BRANCH  30  31
HETATM   31  N   UNL     1     -10.511  19.405  66.316  1.00  0.00    -0.470 NA 
HETATM   32  C   UNL     1     -11.023  20.236  65.239  1.00  0.00     0.391 C  
HETATM   33  C   UNL     1     -10.492  20.013  67.644  1.00  0.00    -0.335 C  
ENDBRANCH  30  31
ENDBRANCH  13  25
TORSDOF 3
ENDMDL
MODEL       86
REMARK 921   NORMALIZED FREE ENERGY PREDICTED BY IDOCK:    3.44 KCAL/MOL
REMARK 922        TOTAL FREE ENERGY PREDICTED BY IDOCK:    3.42 KCAL/MOL
REMARK 923 INTER-LIGAND FREE ENERGY PREDICTED BY IDOCK:    2.21 KCAL/MOL
REMARK 924 INTRA-LIGAND FREE ENERGY PREDICTED BY IDOCK:    1.20 KCAL/MOL
REMARK 927      BINDING AFFINITY PREDICTED BY RF-SCORE:    0.00 PKD
ROOT
HETATM    1  C   UNL     1      -8.663  12.198  65.356  1.00  0.00     0.691 C  
HETATM    2  C   UNL     1      -8.084  11.919  64.092  1.00  0.00     2.265 C  
HETATM    3  C   UNL     1      -9.247  11.095  64.533  1.00  0.00    -0.126 C  
HETATM    4  C   UNL     1     -10.333  11.809  66.149  1.00  0.00    -0.230 C  
HETATM    5  O   UNL     1     -11.718  11.538  66.456  1.00  0.00    -0.455 OA 
HETATM    6  C   UNL     1      -8.039  10.937  66.537  1.00  0.00    -0.154 C  
HETATM    7  C   UNL     1     -10.503  11.873  64.797  1.00  0.00    -0.333 C  
HETATM    8  C   UNL     1     -11.088  10.059  64.905  1.00  0.00     2.198 C  
HETATM    9  C   UNL     1     -11.233  12.828  63.884  1.00  0.00    -0.491 C  
HETATM   10  C   UNL     1      -6.498  11.016  66.583  1.00  0.00    -0.129 C  
HETATM   11  H   UNL     1     -12.215  11.866  67.196  1.00  0.00     0.000 HD 
HETATM   12  C   UNL     1      -5.686   9.719  66.551  1.00  0.00    -0.053 C  
HETATM   13  C   UNL     1     -10.251   9.198  66.205  1.00  0.00    -0.257 C  
HETATM   14  C   UNL     1      -8.627   9.401  66.424  1.00  0.00    -0.144 C  
HETATM   15  C   UNL     1      -6.366   8.386  66.448  1.00  0.00    -0.057 C  
HETATM   16  C   UNL     1      -5.565   7.306  66.405  1.00  0.00    -0.024 C  
HETATM   17  C   UNL     1      -7.811   8.298  66.374  1.00  0.00    -0.095 C  
HETATM   18  O   UNL     1      -5.228   5.002  66.259  1.00  0.00    -0.008 OA 
HETATM   19  C   UNL     1      -8.400   6.904  66.169  1.00  0.00    -0.130 C  
HETATM   20  C   UNL     1      -7.514   5.663  66.179  1.00  0.00    -0.082 C  
HETATM   21  C   UNL     1      -6.045   5.921  66.281  1.00  0.00    -0.029 C  
ENDROOT
BRANCH   4  22
HETATM   22  C   UNL     1     -10.357  13.326  66.762  1.00  0.00    -0.257 C  
HETATM   23  C   UNL     1     -10.557  14.318  67.583  1.00  0.00    -0.253 C  
HETATM   24  C   UNL     1     -10.791  15.477  68.539  1.00  0.00    -0.272 C  
ENDBRANCH   4  22
BRANCH  13  25
HETATM   25  C   UNL     1     -10.960   9.238  67.569  1.00  0.00    -0.047 A  
HETATM   26  C   UNL     1     -11.659   8.086  69.594  1.00  0.00     0.472 A  
HETATM   27  C   UNL     1     -11.313  10.436  69.647  1.00  0.00    -0.333 A  
HETATM   28  C   UNL     1     -11.027  10.438  68.274  1.00  0.00    -0.321 A  
HETATM   29  C   UNL     1     -11.405   8.081  68.224  1.00  0.00     0.812 A  
HETATM   30  C   UNL     1     -11.546   9.249  70.358  1.00  0.00    -0.173 A  
BRANCH  30  31
HETATM   31  N   UNL     1     -11.628   9.204  71.736  1.00  0.00    -0.371 NA 
HETATM   32  C   UNL     1     -10.453   9.120  72.586  1.00  0.00     1.000 C  
HETATM   33  C   UNL     1     -12.919   9.147  72.416  1.00  0.00    -0.398 C  
ENDBRANCH  30  31
ENDBRANCH  13  25
TORSDOF 3
ENDMDL
MODEL       87
REMARK 921   NORMALIZED FREE ENERGY PREDICTED BY IDOCK:    3.80 KCAL/MOL
REMARK 922        TOTAL FREE ENERGY PREDICTED BY IDOCK:    3.83 KCAL/MOL
REMARK 923 INTER-LIGAND FREE ENERGY PREDICTED BY IDOCK:    4.36 KCAL/MOL
REMARK 924 INTRA-LIGAND FREE ENERGY PREDICTED BY IDOCK:   -0.52 KCAL/MOL
REMARK 927      BINDING AFFINITY PREDICTED BY RF-SCORE:    0.00 PKD
ROOT
HETATM    1  C   UNL     1      -9.200  14.210  67.509  1.00  0.00    -0.192 C  
HETATM    2  C   UNL     1      -9.673  13.812  68.786  1.00  0.00    -0.069 C  
HETATM    3  C   UNL     1     -10.038  15.171  68.290  1.00  0.00    -0.223 C  
HETATM    4  C   UNL     1      -9.718  15.543  66.276  1.00  0.00    -0.302 C  
HETATM    5  O   UNL     1     -10.407  16.506  65.447  1.00  0.00    -0.558 OA 
HETATM    6  C   UNL     1      -7.753  15.309  67.778  1.00  0.00    -0.164 C  
HETATM    7  C   UNL     1     -10.813  15.184  67.005  1.00  0.00    -0.314 C  
HETATM    8  C   UNL     1     -10.886  17.005  67.571  1.00  0.00    -0.203 C  
HETATM    9  C   UNL     1     -12.098  14.466  66.669  1.00  0.00    -0.392 C  
HETATM   10  C   UNL     1      -6.679  14.536  68.572  1.00  0.00    -0.096 C  
HETATM   11  H   UNL     1     -10.260  16.676  64.524  1.00  0.00     0.000 HD 
HETATM   12  C   UNL     1      -5.969  15.231  69.735  1.00  0.00    -0.134 C  
HETATM   13  C   UNL     1      -9.264  17.705  67.671  1.00  0.00    -0.245 C  
HETATM   14  C   UNL     1      -8.025  16.837  68.336  1.00  0.00    -0.224 C  
HETATM   15  C   UNL     1      -6.325  16.635  70.127  1.00  0.00     0.133 C  
HETATM   16  C   UNL     1      -5.660  17.151  71.177  1.00  0.00     0.310 C  
HETATM   17  C   UNL     1      -7.352  17.364  69.410  1.00  0.00     0.050 C  
HETATM   18  O   UNL     1      -5.218  18.878  72.681  1.00  0.00     0.040 OA 
HETATM   19  C   UNL     1      -7.710  18.747  69.950  1.00  0.00     0.819 C  
HETATM   20  C   UNL     1      -6.927  19.373  71.099  1.00  0.00     1.353 C  
HETATM   21  C   UNL     1      -5.887  18.498  71.721  1.00  0.00     0.669 C  
ENDROOT
BRANCH   4  22
HETATM   22  C   UNL     1      -9.503  14.461  65.067  1.00  0.00     0.671 C  
HETATM   23  C   UNL     1      -9.577  13.361  64.373  1.00  0.00     0.816 C  
HETATM   24  C   UNL     1      -9.662  12.077  63.563  1.00  0.00    -0.226 C  
ENDBRANCH   4  22
BRANCH  13  25
HETATM   25  C   UNL     1      -8.774  18.393  66.386  1.00  0.00    -0.263 A  
HETATM   26  C   UNL     1      -8.481  20.429  65.088  1.00  0.00     1.066 A  
HETATM   27  C   UNL     1      -7.023  18.589  64.721  1.00  0.00     1.269 A  
HETATM   28  C   UNL     1      -7.735  17.821  65.654  1.00  0.00     0.232 A  
HETATM   29  C   UNL     1      -9.214  19.665  65.995  1.00  0.00    -0.303 A  
HETATM   30  C   UNL     1      -7.322  19.940  64.483  1.00  0.00     1.091 A  
BRANCH  30  31
HETATM   31  N   UNL     1      -6.513  20.765  63.727  1.00  0.00    -0.216 NA 
HETATM   32  C   UNL     1      -6.785  21.061  62.330  1.00  0.00     0.128 C  
HETATM   33  C   UNL     1      -5.278  21.320  64.273  1.00  0.00    -0.168 C  
ENDBRANCH  30  31
ENDBRANCH  13  25
TORSDOF 3
ENDMDL
MODEL       88
REMARK 921   NORMALIZED FREE ENERGY PREDICTED BY IDOCK:    4.03 KCAL/MOL
REMARK 922        TOTAL FREE ENERGY PREDICTED BY IDOCK:    4.10 KCAL/MOL
REMARK 923 INTER-LIGAND FREE ENERGY PREDICTED BY IDOCK:    3.70 KCAL/MOL
REMARK 924 INTRA-LIGAND FREE ENERGY PREDICTED BY IDOCK:    0.40 KCAL/MOL
REMARK 927      BINDING AFFINITY PREDICTED BY RF-SCORE:    0.00 PKD
ROOT
HETATM    1  C   UNL     1     -10.770  13.708  64.200  1.00  0.00    -0.141 C  
HETATM    2  C   UNL     1     -11.784  13.037  63.470  1.00  0.00    -0.532 C  
HETATM    3  C   UNL     1     -11.937  13.149  64.950  1.00  0.00    -0.431 C  
HETATM    4  C   UNL     1     -10.694  14.500  65.914  1.00  0.00    -0.305 C  
HETATM    5  O   UNL     1     -10.943  15.172  67.168  1.00  0.00    -0.315 OA 
HETATM    6  C   UNL     1      -9.706  12.425  64.970  1.00  0.00    -0.042 C  
HETATM    7  C   UNL     1     -11.983  14.555  65.472  1.00  0.00    -0.312 C  
HETATM    8  C   UNL     1     -12.428  13.511  67.006  1.00  0.00    -0.106 C  
HETATM    9  C   UNL     1     -12.895  15.686  65.062  1.00  0.00     1.188 C  
HETATM   10  C   UNL     1      -9.115  11.533  63.858  1.00  0.00     0.147 C  
HETATM   11  H   UNL     1     -10.373  15.791  67.609  1.00  0.00     0.000 HD 
HETATM   12  C   UNL     1      -9.107  10.015  64.048  1.00  0.00    -0.296 C  
HETATM   13  C   UNL     1     -11.105  12.417  67.435  1.00  0.00    -0.320 C  
HETATM   14  C   UNL     1     -10.303  11.583  66.256  1.00  0.00    -0.280 C  
HETATM   15  C   UNL     1      -9.688   9.389  65.281  1.00  0.00    -0.184 C  
HETATM   16  C   UNL     1      -9.653   8.045  65.345  1.00  0.00     0.679 C  
HETATM   17  C   UNL     1     -10.273  10.212  66.322  1.00  0.00    -0.288 C  
HETATM   18  O   UNL     1     -10.103   6.028  66.426  1.00  0.00    -0.157 OA 
HETATM   19  C   UNL     1     -10.928   9.474  67.488  1.00  0.00    -0.125 C  
HETATM   20  C   UNL     1     -10.845   7.956  67.608  1.00  0.00    -0.125 C  
HETATM   21  C   UNL     1     -10.194   7.253  66.461  1.00  0.00    -0.068 C  
ENDROOT
BRANCH   4  22
HETATM   22  C   UNL     1      -9.853  15.745  65.264  1.00  0.00    -0.095 C  
HETATM   23  C   UNL     1      -9.100  16.804  65.167  1.00  0.00     1.862 C  
HETATM   24  C   UNL     1      -8.222  18.040  65.054  1.00  0.00     3.054 C  
ENDBRANCH   4  22
BRANCH  13  25
HETATM   25  C   UNL     1     -10.089  12.989  68.438  1.00  0.00    -0.225 A  
HETATM   26  C   UNL     1      -7.775  13.345  69.094  1.00  0.00     0.260 A  
HETATM   27  C   UNL     1      -9.448  14.856  69.845  1.00  0.00     0.243 A  
HETATM   28  C   UNL     1     -10.441  14.089  69.219  1.00  0.00    -0.038 A  
HETATM   29  C   UNL     1      -8.757  12.560  68.493  1.00  0.00    -0.051 A  
HETATM   30  C   UNL     1      -8.083  14.555  69.722  1.00  0.00     0.395 A  
BRANCH  30  31
HETATM   31  N   UNL     1      -7.085  15.404  70.155  1.00  0.00     0.012 NA 
HETATM   32  C   UNL     1      -6.097  15.008  71.145  1.00  0.00     0.259 C  
HETATM   33  C   UNL     1      -7.022  16.791  69.703  1.00  0.00     0.036 C  
ENDBRANCH  30  31
ENDBRANCH  13  25
TORSDOF 3
ENDMDL
MODEL       89
REMARK 921   NORMALIZED FREE ENERGY PREDICTED BY IDOCK:    4.55 KCAL/MOL
REMARK 922        TOTAL FREE ENERGY PREDICTED BY IDOCK:    4.72 KCAL/MOL
REMARK 923 INTER-LIGAND FREE ENERGY PREDICTED BY IDOCK:    4.01 KCAL/MOL
REMARK 924 INTRA-LIGAND FREE ENERGY PREDICTED BY IDOCK:    0.71 KCAL/MOL
REMARK 927      BINDING AFFINITY PREDICTED BY RF-SCORE:    0.00 PKD
ROOT
HETATM    1  C   UNL     1      -9.947  11.255  65.302  1.00  0.00    -0.301 C  
HETATM    2  C   UNL     1     -10.158   9.855  65.219  1.00  0.00    -0.227 C  
HETATM    3  C   UNL     1     -10.636  10.570  66.438  1.00  0.00    -0.218 C  
HETATM    4  C   UNL     1     -10.717  12.639  66.332  1.00  0.00    -0.255 C  
HETATM    5  O   UNL     1     -11.571  13.518  67.097  1.00  0.00    -0.320 OA 
HETATM    6  C   UNL     1      -8.496  11.529  66.394  1.00  0.00    -0.138 C  
HETATM    7  C   UNL     1     -11.644  11.650  66.178  1.00  0.00    -0.105 C  
HETATM    8  C   UNL     1     -11.640  11.514  68.082  1.00  0.00    -0.378 C  
HETATM    9  C   UNL     1     -12.957  11.560  65.438  1.00  0.00     3.518 C  
HETATM   10  C   UNL     1      -7.275  10.800  65.794  1.00  0.00    -0.057 C  
HETATM   11  H   UNL     1     -11.608  14.466  67.048  1.00  0.00     0.000 HD 
HETATM   12  C   UNL     1      -6.366   9.985  66.717  1.00  0.00    -0.069 C  
HETATM   13  C   UNL     1     -10.041  11.891  68.742  1.00  0.00    -0.133 C  
HETATM   14  C   UNL     1      -8.683  11.295  68.016  1.00  0.00    -0.144 C  
HETATM   15  C   UNL     1      -6.665   9.866  68.182  1.00  0.00    -0.060 C  
HETATM   16  C   UNL     1      -5.820   9.110  68.907  1.00  0.00    -0.040 C  
HETATM   17  C   UNL     1      -7.825  10.520  68.756  1.00  0.00    -0.116 C  
HETATM   18  O   UNL     1      -5.127   8.156  70.920  1.00  0.00    -0.026 OA 
HETATM   19  C   UNL     1      -8.097  10.254  70.235  1.00  0.00     0.296 C  
HETATM   20  C   UNL     1      -7.118   9.450  71.086  1.00  0.00    -0.013 C  
HETATM   21  C   UNL     1      -5.961   8.856  70.349  1.00  0.00    -0.035 C  
ENDROOT
BRANCH   4  22
HETATM   22  C   UNL     1     -10.720  13.585  64.997  1.00  0.00    -0.366 C  
HETATM   23  C   UNL     1     -10.872  14.624  64.225  1.00  0.00     0.196 C  
HETATM   24  C   UNL     1     -11.051  15.836  63.324  1.00  0.00     3.900 C  
ENDBRANCH   4  22
BRANCH  13  25
HETATM   25  C   UNL     1      -9.822  13.369  69.104  1.00  0.00     0.351 A  
HETATM   26  C   UNL     1      -8.365  15.316  69.145  1.00  0.00    -0.233 A  
HETATM   27  C   UNL     1     -10.721  15.620  69.106  1.00  0.00    -0.243 A  
HETATM   28  C   UNL     1     -10.915  14.232  69.157  1.00  0.00    -0.286 A  
HETATM   29  C   UNL     1      -8.546  13.936  69.226  1.00  0.00     0.490 A  
HETATM   30  C   UNL     1      -9.443  16.192  69.006  1.00  0.00    -0.246 A  
BRANCH  30  31
HETATM   31  N   UNL     1      -9.239  17.534  68.751  1.00  0.00    -0.261 NA 
HETATM   32  C   UNL     1      -7.921  18.089  68.495  1.00  0.00    -0.303 C  
HETATM   33  C   UNL     1     -10.340  18.491  68.813  1.00  0.00    -0.170 C  
ENDBRANCH  30  31
ENDBRANCH  13  25
TORSDOF 3
ENDMDL
MODEL       90
REMARK 921   NORMALIZED FREE ENERGY PREDICTED BY IDOCK:    5.42 KCAL/MOL
REMARK 922        TOTAL FREE ENERGY PREDICTED BY IDOCK:    5.74 KCAL/MOL
REMARK 923 INTER-LIGAND FREE ENERGY PREDICTED BY IDOCK:    5.52 KCAL/MOL
REMARK 924 INTRA-LIGAND FREE ENERGY PREDICTED BY IDOCK:    0.21 KCAL/MOL
REMARK 927      BINDING AFFINITY PREDICTED BY RF-SCORE:    0.00 PKD
ROOT
HETATM    1  C   UNL     1      -9.728  10.424  67.469  1.00  0.00    -0.195 C  
HETATM    2  C   UNL     1      -8.811  10.428  66.387  1.00  0.00    -0.159 C  
HETATM    3  C   UNL     1      -8.726  11.531  67.387  1.00  0.00    -0.147 C  
HETATM    4  C   UNL     1      -9.760  11.257  69.164  1.00  0.00     0.031 C  
HETATM    5  O   UNL     1      -9.468  11.859  70.444  1.00  0.00     2.691 OA 
HETATM    6  C   UNL     1     -11.049  11.639  67.074  1.00  0.00    -0.359 C  
HETATM    7  C   UNL     1      -8.459  11.084  68.794  1.00  0.00    -0.144 C  
HETATM    8  C   UNL     1      -8.299  12.983  68.908  1.00  0.00     0.263 C  
HETATM    9  C   UNL     1      -7.336  10.219  69.314  1.00  0.00    -0.099 C  
HETATM   10  C   UNL     1     -11.725  11.228  65.748  1.00  0.00     0.539 C  
HETATM   11  H   UNL     1      -9.942  11.733  71.258  1.00  0.00     0.000 HD 
HETATM   12  C   UNL     1     -12.016  12.301  64.698  1.00  0.00    -0.437 C  
HETATM   13  C   UNL     1      -9.819  13.776  68.471  1.00  0.00    -0.204 C  
HETATM   14  C   UNL     1     -10.688  13.245  67.170  1.00  0.00    -0.264 C  
HETATM   15  C   UNL     1     -11.629  13.732  64.931  1.00  0.00    -0.362 C  
HETATM   16  C   UNL     1     -11.909  14.598  63.939  1.00  0.00     0.038 C  
HETATM   17  C   UNL     1     -10.967  14.129  66.158  1.00  0.00    -0.309 C  
HETATM   18  O   UNL     1     -11.891  16.740  63.016  1.00  0.00     2.850 OA 
HETATM   19  C   UNL     1     -10.524  15.587  66.254  1.00  0.00    -0.313 C  
HETATM   20  C   UNL     1     -10.885  16.595  65.168  1.00  0.00    -0.199 C  
HETATM   21  C   UNL     1     -11.584  16.032  63.973  1.00  0.00     0.196 C  
ENDROOT
BRANCH   4  22
HETATM   22  C   UNL     1     -10.325   9.860  69.802  1.00  0.00    -0.278 C  
HETATM   23  C   UNL     1     -10.638   8.944  70.674  1.00  0.00    -0.277 C  
HETATM   24  C   UNL     1     -11.003   7.874  71.690  1.00  0.00    -0.280 C  
ENDBRANCH   4  22
BRANCH  13  25
HETATM   25  C   UNL     1     -10.772  14.044  69.648  1.00  0.00     0.066 A  
HETATM   26  C   UNL     1     -11.089  14.659  71.979  1.00  0.00     0.818 A  
HETATM   27  C   UNL     1     -12.822  15.089  70.411  1.00  0.00    -0.332 A  
HETATM   28  C   UNL     1     -12.070  14.482  69.394  1.00  0.00    -0.328 A  
HETATM   29  C   UNL     1     -10.346  14.028  70.983  1.00  0.00     3.036 A  
HETATM   30  C   UNL     1     -12.313  15.274  71.706  1.00  0.00    -0.358 A  
BRANCH  30  31
HETATM   31  N   UNL     1     -12.949  16.044  72.659  1.00  0.00    -0.444 NA 
HETATM   32  C   UNL     1     -14.378  15.953  72.912  1.00  0.00     0.237 C  
HETATM   33  C   UNL     1     -12.227  17.066  73.411  1.00  0.00     0.248 C  
ENDBRANCH  30  31
ENDBRANCH  13  25
TORSDOF 3
ENDMDL
MODEL       91
REMARK 921   NORMALIZED FREE ENERGY PREDICTED BY IDOCK:    5.68 KCAL/MOL
REMARK 922        TOTAL FREE ENERGY PREDICTED BY IDOCK:    6.05 KCAL/MOL
REMARK 923 INTER-LIGAND FREE ENERGY PREDICTED BY IDOCK:    6.69 KCAL/MOL
REMARK 924 INTRA-LIGAND FREE ENERGY PREDICTED BY IDOCK:   -0.64 KCAL/MOL
REMARK 927      BINDING AFFINITY PREDICTED BY RF-SCORE:    0.00 PKD
ROOT
HETATM    1  C   UNL     1      -7.867  12.297  70.033  1.00  0.00     2.288 C  
HETATM    2  C   UNL     1      -7.147  11.144  70.439  1.00  0.00     0.878 C  
HETATM    3  C   UNL     1      -6.408  12.217  69.713  1.00  0.00    -0.091 C  
HETATM    4  C   UNL     1      -7.365  14.049  69.536  1.00  0.00     0.154 C  
HETATM    5  O   UNL     1      -6.745  15.343  69.367  1.00  0.00    -0.141 OA 
HETATM    6  C   UNL     1      -8.232  12.113  68.242  1.00  0.00    -0.168 C  
HETATM    7  C   UNL     1      -6.421  13.557  70.389  1.00  0.00     0.176 C  
HETATM    8  C   UNL     1      -5.175  13.805  68.965  1.00  0.00    -0.070 C  
HETATM    9  C   UNL     1      -6.008  13.909  71.798  1.00  0.00     0.108 C  
HETATM   10  C   UNL     1      -9.051  10.822  68.029  1.00  0.00    -0.150 C  
HETATM   11  H   UNL     1      -7.184  16.181  69.286  1.00  0.00     0.000 HD 
HETATM   12  C   UNL     1      -8.682   9.888  66.875  1.00  0.00    -0.135 C  
HETATM   13  C   UNL     1      -5.951  13.564  67.393  1.00  0.00     0.118 C  
HETATM   14  C   UNL     1      -6.996  12.305  67.168  1.00  0.00    -0.102 C  
HETATM   15  C   UNL     1      -7.524  10.199  65.973  1.00  0.00    -0.118 C  
HETATM   16  C   UNL     1      -7.265   9.306  65.000  1.00  0.00    -0.098 C  
HETATM   17  C   UNL     1      -6.727  11.393  66.178  1.00  0.00     0.140 C  
HETATM   18  O   UNL     1      -6.016   8.556  63.179  1.00  0.00    -0.076 OA 
HETATM   19  C   UNL     1      -5.510  11.565  65.271  1.00  0.00     1.041 C  
HETATM   20  C   UNL     1      -5.236  10.597  64.125  1.00  0.00    -0.145 C  
HETATM   21  C   UNL     1      -6.160   9.425  64.037  1.00  0.00    -0.091 C  
ENDROOT
BRANCH   4  22
HETATM   22  C   UNL     1      -8.626  14.621  70.407  1.00  0.00     1.552 C  
HETATM   23  C   UNL     1      -9.812  15.071  70.705  1.00  0.00     1.015 C  
HETATM   24  C   UNL     1     -11.195  15.598  71.054  1.00  0.00    -0.411 C  
ENDBRANCH   4  22
BRANCH  13  25
HETATM   25  C   UNL     1      -6.537  14.836  66.758  1.00  0.00     1.520 A  
HETATM   26  C   UNL     1      -8.484  16.161  66.150  1.00  0.00    -0.288 A  
HETATM   27  C   UNL     1      -6.404  17.246  66.531  1.00  0.00    -0.263 A  
HETATM   28  C   UNL     1      -5.782  16.007  66.744  1.00  0.00     0.565 A  
HETATM   29  C   UNL     1      -7.869  14.923  66.332  1.00  0.00     0.903 A  
HETATM   30  C   UNL     1      -7.787  17.359  66.319  1.00  0.00    -0.295 A  
BRANCH  30  31
HETATM   31  N   UNL     1      -8.447  18.572  66.310  1.00  0.00    -0.429 NA 
HETATM   32  C   UNL     1      -9.896  18.673  66.366  1.00  0.00    -0.367 C  
HETATM   33  C   UNL     1      -7.720  19.828  66.151  1.00  0.00    -0.332 C  
ENDBRANCH  30  31
ENDBRANCH  13  25
TORSDOF 3
ENDMDL
MODEL       92
REMARK 921   NORMALIZED FREE ENERGY PREDICTED BY IDOCK:    6.12 KCAL/MOL
REMARK 922        TOTAL FREE ENERGY PREDICTED BY IDOCK:    6.56 KCAL/MOL
REMARK 923 INTER-LIGAND FREE ENERGY PREDICTED BY IDOCK:    6.29 KCAL/MOL
REMARK 924 INTRA-LIGAND FREE ENERGY PREDICTED BY IDOCK:    0.27 KCAL/MOL
REMARK 927      BINDING AFFINITY PREDICTED BY RF-SCORE:    0.00 PKD
ROOT
HETATM    1  C   UNL     1     -11.751   9.150  69.146  1.00  0.00     0.808 C  
HETATM    2  C   UNL     1     -12.594   8.210  69.792  1.00  0.00     2.085 C  
HETATM    3  C   UNL     1     -11.427   8.749  70.550  1.00  0.00    -0.222 C  
HETATM    4  C   UNL     1     -10.497  10.424  69.756  1.00  0.00    -0.240 C  
HETATM    5  O   UNL     1      -9.735  11.420  70.473  1.00  0.00     1.786 OA 
HETATM    6  C   UNL     1     -10.253   8.248  68.581  1.00  0.00    -0.223 C  
HETATM    7  C   UNL     1     -11.431  10.239  70.732  1.00  0.00    -0.438 C  
HETATM    8  C   UNL     1      -9.986   9.672  71.842  1.00  0.00     1.108 C  
HETATM    9  C   UNL     1     -12.510  11.116  71.320  1.00  0.00    -0.466 C  
HETATM   10  C   UNL     1     -10.683   7.114  67.627  1.00  0.00    -0.314 C  
HETATM   11  H   UNL     1      -9.309  12.187  70.109  1.00  0.00     0.000 HD 
HETATM   12  C   UNL     1     -10.052   5.729  67.786  1.00  0.00    -0.196 C  
HETATM   13  C   UNL     1      -8.730   8.869  70.889  1.00  0.00    -0.256 C  
HETATM   14  C   UNL     1      -9.146   7.786  69.712  1.00  0.00    -0.147 C  
HETATM   15  C   UNL     1      -9.050   5.459  68.869  1.00  0.00    -0.138 C  
HETATM   16  C   UNL     1      -8.568   4.204  68.940  1.00  0.00    -0.110 C  
HETATM   17  C   UNL     1      -8.657   6.506  69.791  1.00  0.00    -0.136 C  
HETATM   18  O   UNL     1      -7.215   2.575  69.919  1.00  0.00    -0.039 OA 
HETATM   19  C   UNL     1      -7.708   6.103  70.918  1.00  0.00    -0.098 C  
HETATM   20  C   UNL     1      -7.106   4.704  70.980  1.00  0.00    -0.037 C  
HETATM   21  C   UNL     1      -7.599   3.743  69.946  1.00  0.00    -0.048 C  
ENDROOT
BRANCH   4  22
HETATM   22  C   UNL     1     -11.082  11.479  68.650  1.00  0.00    -0.291 C  
HETATM   23  C   UNL     1     -11.800  12.422  68.109  1.00  0.00    -0.372 C  
HETATM   24  C   UNL     1     -12.639  13.520  67.476  1.00  0.00     0.420 C  
ENDBRANCH   4  22
BRANCH  13  25
HETATM   25  C   UNL     1      -7.622   9.797  70.362  1.00  0.00    -0.165 A  
HETATM   26  C   UNL     1      -6.262  10.580  68.505  1.00  0.00    -0.046 A  
HETATM   27  C   UNL     1      -6.672  12.027  70.345  1.00  0.00     0.883 A  
HETATM   28  C   UNL     1      -7.384  11.012  71.001  1.00  0.00     2.958 A  
HETATM   29  C   UNL     1      -6.942   9.556  69.161  1.00  0.00    -0.057 A  
HETATM   30  C   UNL     1      -6.172  11.866  69.044  1.00  0.00    -0.077 A  
BRANCH  30  31
HETATM   31  N   UNL     1      -5.651  12.910  68.305  1.00  0.00    -0.067 NA 
HETATM   32  C   UNL     1      -5.232  12.757  66.922  1.00  0.00     0.513 C  
HETATM   33  C   UNL     1      -5.407  14.216  68.911  1.00  0.00    -0.083 C  
ENDBRANCH  30  31
ENDBRANCH  13  25
TORSDOF 3
ENDMDL
MODEL       93
REMARK 921   NORMALIZED FREE ENERGY PREDICTED BY IDOCK:    6.83 KCAL/MOL
REMARK 922        TOTAL FREE ENERGY PREDICTED BY IDOCK:    7.40 KCAL/MOL
REMARK 923 INTER-LIGAND FREE ENERGY PREDICTED BY IDOCK:    6.11 KCAL/MOL
REMARK 924 INTRA-LIGAND FREE ENERGY PREDICTED BY IDOCK:    1.29 KCAL/MOL
REMARK 927      BINDING AFFINITY PREDICTED BY RF-SCORE:    0.00 PKD
ROOT
HETATM    1  C   UNL     1     -12.015  10.800  68.619  1.00  0.00    -0.103 C  
HETATM    2  C   UNL     1     -12.743  11.246  67.486  1.00  0.00     3.494 C  
HETATM    3  C   UNL     1     -11.275  11.023  67.338  1.00  0.00    -0.355 C  
HETATM    4  C   UNL     1     -10.339   9.960  68.853  1.00  0.00    -0.205 C  
HETATM    5  O   UNL     1      -9.126   9.183  68.751  1.00  0.00    -0.135 OA 
HETATM    6  C   UNL     1     -11.154  12.259  69.328  1.00  0.00    -0.220 C  
HETATM    7  C   UNL     1     -10.822   9.621  67.623  1.00  0.00    -0.276 C  
HETATM    8  C   UNL     1      -9.254  10.446  66.913  1.00  0.00    -0.170 C  
HETATM    9  C   UNL     1     -11.312   8.328  67.018  1.00  0.00     1.360 C  
HETATM   10  C   UNL     1     -12.204  13.324  69.707  1.00  0.00    -0.285 C  
HETATM   11  H   UNL     1      -8.697   8.696  69.445  1.00  0.00     0.000 HD 
HETATM   12  C   UNL     1     -11.944  14.788  69.346  1.00  0.00    -0.339 C  
HETATM   13  C   UNL     1      -8.735  11.801  67.925  1.00  0.00    -0.164 C  
HETATM   14  C   UNL     1      -9.849  12.864  68.523  1.00  0.00    -0.147 C  
HETATM   15  C   UNL     1     -10.700  15.189  68.609  1.00  0.00    -0.239 C  
HETATM   16  C   UNL     1     -10.572  16.497  68.318  1.00  0.00    -0.326 C  
HETATM   17  C   UNL     1      -9.718  14.197  68.221  1.00  0.00    -0.227 C  
HETATM   18  O   UNL     1      -9.412  18.288  67.375  1.00  0.00    -0.262 OA 
HETATM   19  C   UNL     1      -8.538  14.693  67.387  1.00  0.00    -0.212 C  
HETATM   20  C   UNL     1      -8.344  16.178  67.099  1.00  0.00    -0.225 C  
HETATM   21  C   UNL     1      -9.438  17.076  67.582  1.00  0.00    -0.236 C  
ENDROOT
BRANCH   4  22
HETATM   22  C   UNL     1     -11.021   8.989  69.980  1.00  0.00    -0.230 C  
HETATM   23  C   UNL     1     -11.399   8.524  71.137  1.00  0.00    -0.319 C  
HETATM   24  C   UNL     1     -11.839   7.979  72.487  1.00  0.00    -0.419 C  
ENDBRANCH   4  22
BRANCH  13  25
HETATM   25  C   UNL     1      -7.729  11.437  69.030  1.00  0.00    -0.064 A  
HETATM   26  C   UNL     1      -6.837  11.837  71.256  1.00  0.00     3.586 A  
HETATM   27  C   UNL     1      -6.636   9.677  70.288  1.00  0.00    -0.091 A  
HETATM   28  C   UNL     1      -7.235  10.136  69.106  1.00  0.00    -0.081 A  
HETATM   29  C   UNL     1      -7.405  12.311  70.076  1.00  0.00     1.343 A  
HETATM   30  C   UNL     1      -6.506  10.491  71.424  1.00  0.00     0.895 A  
BRANCH  30  31
HETATM   31  N   UNL     1      -6.109  10.005  72.654  1.00  0.00     0.165 NA 
HETATM   32  C   UNL     1      -6.481   8.683  73.130  1.00  0.00    -0.032 C  
HETATM   33  C   UNL     1      -5.361  10.839  73.591  1.00  0.00     0.630 C  
ENDBRANCH  30  31
ENDBRANCH  13  25
TORSDOF 3
ENDMDL
MODEL       94
REMARK 921   NORMALIZED FREE ENERGY PREDICTED BY IDOCK:    7.44 KCAL/MOL
REMARK 922        TOTAL FREE ENERGY PREDICTED BY IDOCK:    8.11 KCAL/MOL
REMARK 923 INTER-LIGAND FREE ENERGY PREDICTED BY IDOCK:    8.39 KCAL/MOL
REMARK 924 INTRA-LIGAND FREE ENERGY PREDICTED BY IDOCK:   -0.28 KCAL/MOL
REMARK 927      BINDING AFFINITY PREDICTED BY RF-SCORE:    0.00 PKD
ROOT
HETATM    1  C   UNL     1     -10.413  15.084  65.208  1.00  0.00    -0.428 C  
HETATM    2  C   UNL     1     -11.605  14.511  64.694  1.00  0.00    -0.413 C  
HETATM    3  C   UNL     1     -11.556  14.856  66.145  1.00  0.00    -0.228 C  
HETATM    4  C   UNL     1     -10.000  16.081  66.758  1.00  0.00    -0.258 C  
HETATM    5  O   UNL     1      -9.981  16.956  67.907  1.00  0.00    -0.259 OA 
HETATM    6  C   UNL     1      -9.489  13.750  66.069  1.00  0.00    -0.125 C  
HETATM    7  C   UNL     1     -11.307  16.306  66.438  1.00  0.00     0.445 C  
HETATM    8  C   UNL     1     -11.728  15.586  68.155  1.00  0.00    -0.241 C  
HETATM    9  C   UNL     1     -12.063  17.514  65.942  1.00  0.00     4.295 C  
HETATM   10  C   UNL     1      -9.193  12.618  65.062  1.00  0.00     0.630 C  
HETATM   11  H   UNL     1      -9.268  17.518  68.188  1.00  0.00     0.000 HD 
HETATM   12  C   UNL     1      -9.411  11.165  65.489  1.00  0.00    -0.251 C  
HETATM   13  C   UNL     1     -10.561  14.341  68.625  1.00  0.00    -0.254 C  
HETATM   14  C   UNL     1     -10.056  13.218  67.523  1.00  0.00    -0.223 C  
HETATM   15  C   UNL     1      -9.934  10.835  66.857  1.00  0.00    -0.240 C  
HETATM   16  C   UNL     1     -10.113   9.530  67.131  1.00  0.00    -0.290 C  
HETATM   17  C   UNL     1     -10.245  11.888  67.803  1.00  0.00    -0.211 C  
HETATM   18  O   UNL     1     -10.755   7.799  68.557  1.00  0.00    -0.150 OA 
HETATM   19  C   UNL     1     -10.865  11.452  69.129  1.00  0.00    -0.260 C  
HETATM   20  C   UNL     1     -11.020   9.977  69.482  1.00  0.00    -0.289 C  
HETATM   21  C   UNL     1     -10.637   9.013  68.404  1.00  0.00    -0.154 C  
ENDROOT
BRANCH   4  22
HETATM   22  C   UNL     1      -9.051  17.049  65.842  1.00  0.00    -0.059 C  
HETATM   23  C   UNL     1      -8.059  17.811  65.476  1.00  0.00     0.771 C  
HETATM   24  C   UNL     1      -6.903  18.701  65.049  1.00  0.00     0.291 C  
ENDBRANCH   4  22
BRANCH  13  25
HETATM   25  C   UNL     1      -9.351  14.855  69.423  1.00  0.00    -0.054 A  
HETATM   26  C   UNL     1      -6.942  15.124  69.623  1.00  0.00    -0.192 A  
HETATM   27  C   UNL     1      -8.385  16.663  70.716  1.00  0.00     4.467 A  
HETATM   28  C   UNL     1      -9.506  15.943  70.280  1.00  0.00     0.730 A  
HETATM   29  C   UNL     1      -8.048  14.385  69.208  1.00  0.00     0.092 A  
HETATM   30  C   UNL     1      -7.081  16.324  70.323  1.00  0.00     0.974 A  
BRANCH  30  31
HETATM   31  N   UNL     1      -5.988  17.131  70.572  1.00  0.00     0.078 NA 
HETATM   32  C   UNL     1      -5.576  18.190  69.666  1.00  0.00    -0.218 C  
HETATM   33  C   UNL     1      -5.127  16.902  71.729  1.00  0.00     0.412 C  
ENDBRANCH  30  31
ENDBRANCH  13  25
TORSDOF 3
ENDMDL
MODEL       95
REMARK 921   NORMALIZED FREE ENERGY PREDICTED BY IDOCK:    8.10 KCAL/MOL
REMARK 922        TOTAL FREE ENERGY PREDICTED BY IDOCK:    8.89 KCAL/MOL
REMARK 923 INTER-LIGAND FREE ENERGY PREDICTED BY IDOCK:    9.57 KCAL/MOL
REMARK 924 INTRA-LIGAND FREE ENERGY PREDICTED BY IDOCK:   -0.68 KCAL/MOL
REMARK 927      BINDING AFFINITY PREDICTED BY RF-SCORE:    0.00 PKD
ROOT
HETATM    1  C   UNL     1      -8.216  18.687  68.868  1.00  0.00    -0.228 C  
HETATM    2  C   UNL     1      -7.560  18.942  67.636  1.00  0.00    -0.250 C  
HETATM    3  C   UNL     1      -8.891  18.268  67.601  1.00  0.00    -0.261 C  
HETATM    4  C   UNL     1     -10.005  18.317  69.349  1.00  0.00     0.076 C  
HETATM    5  O   UNL     1     -11.441  18.226  69.470  1.00  0.00     1.901 OA 
HETATM    6  C   UNL     1      -7.956  16.914  69.273  1.00  0.00     0.009 C  
HETATM    7  C   UNL     1     -10.012  19.061  68.206  1.00  0.00    -0.459 C  
HETATM    8  C   UNL     1     -10.915  17.588  67.395  1.00  0.00    -0.053 C  
HETATM    9  C   UNL     1     -10.459  20.466  67.881  1.00  0.00    -0.227 C  
HETATM   10  C   UNL     1      -6.440  16.640  69.364  1.00  0.00    -0.220 C  
HETATM   11  H   UNL     1     -11.951  18.248  70.272  1.00  0.00     0.000 HD 
HETATM   12  C   UNL     1      -5.869  15.385  68.700  1.00  0.00    -0.095 C  
HETATM   13  C   UNL     1     -10.390  16.054  68.104  1.00  0.00    -0.260 C  
HETATM   14  C   UNL     1      -8.788  15.784  68.407  1.00  0.00    -0.185 C  
HETATM   15  C   UNL     1      -6.758  14.442  67.943  1.00  0.00    -0.177 C  
HETATM   16  C   UNL     1      -6.159  13.379  67.377  1.00  0.00     0.056 C  
HETATM   17  C   UNL     1      -8.179  14.701  67.824  1.00  0.00    -0.169 C  
HETATM   18  O   UNL     1      -6.218  11.421  66.110  1.00  0.00    -0.080 OA 
HETATM   19  C   UNL     1      -8.978  13.737  66.950  1.00  0.00    -0.234 C  
HETATM   20  C   UNL     1      -8.330  12.494  66.349  1.00  0.00     0.260 C  
HETATM   21  C   UNL     1      -6.858  12.360  66.578  1.00  0.00     0.802 C  
ENDROOT
BRANCH   4  22
HETATM   22  C   UNL     1      -9.829  19.316  70.634  1.00  0.00     1.640 C  
HETATM   23  C   UNL     1      -9.319  19.886  71.689  1.00  0.00     2.774 C  
HETATM   24  C   UNL     1      -8.725  20.550  72.921  1.00  0.00     3.749 C  
ENDBRANCH   4  22
BRANCH  13  25
HETATM   25  C   UNL     1     -11.226  15.573  69.302  1.00  0.00    -0.312 A  
HETATM   26  C   UNL     1     -13.344  14.763  70.180  1.00  0.00     0.326 A  
HETATM   27  C   UNL     1     -11.323  14.199  71.297  1.00  0.00     0.672 A  
HETATM   28  C   UNL     1     -10.589  14.974  70.387  1.00  0.00    -0.079 A  
HETATM   29  C   UNL     1     -12.627  15.559  69.289  1.00  0.00     0.180 A  
HETATM   30  C   UNL     1     -12.706  14.001  71.162  1.00  0.00    -0.364 A  
BRANCH  30  31
HETATM   31  N   UNL     1     -13.410  13.086  71.919  1.00  0.00    -0.463 NA 
HETATM   32  C   UNL     1     -13.440  11.668  71.604  1.00  0.00     0.023 C  
HETATM   33  C   UNL     1     -14.245  13.514  73.038  1.00  0.00     1.216 C  
ENDBRANCH  30  31
ENDBRANCH  13  25
TORSDOF 3
ENDMDL
MODEL       96
REMARK 921   NORMALIZED FREE ENERGY PREDICTED BY IDOCK:    8.63 KCAL/MOL
REMARK 922        TOTAL FREE ENERGY PREDICTED BY IDOCK:    9.51 KCAL/MOL
REMARK 923 INTER-LIGAND FREE ENERGY PREDICTED BY IDOCK:    7.65 KCAL/MOL
REMARK 924 INTRA-LIGAND FREE ENERGY PREDICTED BY IDOCK:    1.85 KCAL/MOL
REMARK 927      BINDING AFFINITY PREDICTED BY RF-SCORE:    0.00 PKD
ROOT
HETATM    1  C   UNL     1      -8.333  18.376  69.557  1.00  0.00     0.590 C  
HETATM    2  C   UNL     1      -7.767  19.641  69.859  1.00  0.00     0.427 C  
HETATM    3  C   UNL     1      -8.956  19.596  68.958  1.00  0.00    -0.187 C  
HETATM    4  C   UNL     1     -10.012  17.813  68.900  1.00  0.00    -0.332 C  
HETATM    5  O   UNL     1     -11.405  17.636  68.561  1.00  0.00     0.003 OA 
HETATM    6  C   UNL     1      -7.748  17.898  67.883  1.00  0.00    -0.224 C  
HETATM    7  C   UNL     1     -10.184  18.989  69.569  1.00  0.00     0.268 C  
HETATM    8  C   UNL     1     -10.829  19.697  67.918  1.00  0.00    -0.276 C  
HETATM    9  C   UNL     1     -10.885  19.363  70.853  1.00  0.00     3.283 C  
HETATM   10  C   UNL     1      -6.205  17.848  67.888  1.00  0.00    -0.163 C  
HETATM   11  H   UNL     1     -11.889  16.819  68.534  1.00  0.00     0.000 HD 
HETATM   12  C   UNL     1      -5.436  18.473  66.722  1.00  0.00    -0.161 C  
HETATM   13  C   UNL     1     -10.018  18.936  66.542  1.00  0.00    -0.426 C  
HETATM   14  C   UNL     1      -8.387  18.678  66.578  1.00  0.00    -0.304 C  
HETATM   15  C   UNL     1      -6.161  19.152  65.597  1.00  0.00    -0.258 C  
HETATM   16  C   UNL     1      -5.396  19.689  64.629  1.00  0.00    -0.213 C  
HETATM   17  C   UNL     1      -7.609  19.232  65.592  1.00  0.00    -0.065 C  
HETATM   18  O   UNL     1      -5.137  20.859  62.627  1.00  0.00    -0.170 OA 
HETATM   19  C   UNL     1      -8.244  20.030  64.456  1.00  0.00     2.581 C  
HETATM   20  C   UNL     1      -7.400  20.594  63.318  1.00  0.00     1.574 C  
HETATM   21  C   UNL     1      -5.923  20.413  63.462  1.00  0.00    -0.222 C  
ENDROOT
BRANCH   4  22
HETATM   22  C   UNL     1      -9.985  16.584  69.980  1.00  0.00     0.392 C  
HETATM   23  C   UNL     1     -10.364  15.756  70.912  1.00  0.00     0.476 C  
HETATM   24  C   UNL     1     -10.805  14.791  72.001  1.00  0.00     1.099 C  
ENDBRANCH   4  22
BRANCH  13  25
HETATM   25  C   UNL     1     -10.721  17.687  65.984  1.00  0.00    -0.117 A  
HETATM   26  C   UNL     1     -11.247  16.257  64.089  1.00  0.00     0.264 A  
HETATM   27  C   UNL     1     -11.231  15.336  66.279  1.00  0.00    -0.223 A  
HETATM   28  C   UNL     1     -10.952  16.598  66.822  1.00  0.00     0.078 A  
HETATM   29  C   UNL     1     -10.999  17.521  64.621  1.00  0.00     1.289 A  
HETATM   30  C   UNL     1     -11.295  15.117  64.894  1.00  0.00    -0.399 A  
BRANCH  30  31
HETATM   31  N   UNL     1     -11.365  13.856  64.335  1.00  0.00    -0.364 NA 
HETATM   32  C   UNL     1     -12.509  13.407  63.561  1.00  0.00    -0.210 C  
HETATM   33  C   UNL     1     -10.319  12.865  64.572  1.00  0.00    -0.357 C  
ENDBRANCH  30  31
ENDBRANCH  13  25
TORSDOF 3
ENDMDL
MODEL       97
REMARK 921   NORMALIZED FREE ENERGY PREDICTED BY IDOCK:    8.68 KCAL/MOL
REMARK 922        TOTAL FREE ENERGY PREDICTED BY IDOCK:    9.57 KCAL/MOL
REMARK 923 INTER-LIGAND FREE ENERGY PREDICTED BY IDOCK:    9.62 KCAL/MOL
REMARK 924 INTRA-LIGAND FREE ENERGY PREDICTED BY IDOCK:   -0.04 KCAL/MOL
REMARK 927      BINDING AFFINITY PREDICTED BY RF-SCORE:    0.00 PKD
ROOT
HETATM    1  C   UNL     1     -12.188   8.196  71.596  1.00  0.00    -0.343 C  
HETATM    2  C   UNL     1     -13.601   8.312  71.553  1.00  0.00    -0.337 C  
HETATM    3  C   UNL     1     -12.840   8.469  70.279  1.00  0.00     1.164 C  
HETATM    4  C   UNL     1     -10.859   7.857  70.297  1.00  0.00    -0.241 C  
HETATM    5  O   UNL     1     -10.072   7.421  69.167  1.00  0.00    -0.179 OA 
HETATM    6  C   UNL     1     -11.495   9.896  71.565  1.00  0.00    -0.322 C  
HETATM    7  C   UNL     1     -12.022   7.275  69.885  1.00  0.00     0.237 C  
HETATM    8  C   UNL     1     -11.904   8.404  68.350  1.00  0.00     2.358 C  
HETATM    9  C   UNL     1     -12.464   5.842  69.712  1.00  0.00     4.059 C  
HETATM   10  C   UNL     1     -12.042  10.681  72.777  1.00  0.00     3.459 C  
HETATM   11  H   UNL     1      -9.165   7.140  69.175  1.00  0.00     0.000 HD 
HETATM   12  C   UNL     1     -12.535  12.115  72.574  1.00  0.00     1.714 C  
HETATM   13  C   UNL     1     -11.139   9.947  68.755  1.00  0.00    -0.179 C  
HETATM   14  C   UNL     1     -11.546  10.736  70.148  1.00  0.00    -0.424 C  
HETATM   15  C   UNL     1     -12.518  12.750  71.215  1.00  0.00    -0.284 C  
HETATM   16  C   UNL     1     -12.992  14.007  71.135  1.00  0.00    -0.402 C  
HETATM   17  C   UNL     1     -12.034  12.016  70.062  1.00  0.00    -0.400 C  
HETATM   18  O   UNL     1     -13.520  15.930  69.926  1.00  0.00     0.361 OA 
HETATM   19  C   UNL     1     -12.153  12.715  68.709  1.00  0.00    -0.155 C  
HETATM   20  C   UNL     1     -12.630  14.160  68.606  1.00  0.00     0.446 C  
HETATM   21  C   UNL     1     -13.078  14.784  69.889  1.00  0.00     0.322 C  
ENDROOT
BRANCH   4  22
HETATM   22  C   UNL     1     -10.115   6.865  71.365  1.00  0.00    -0.197 C  
HETATM   23  C   UNL     1      -9.911   5.883  72.196  1.00  0.00    -0.196 C  
HETATM   24  C   UNL     1      -9.674   4.738  73.167  1.00  0.00    -0.160 C  
ENDBRANCH   4  22
BRANCH  13  25
HETATM   25  C   UNL     1      -9.611   9.979  68.576  1.00  0.00    -0.157 A  
HETATM   26  C   UNL     1      -7.656   9.469  67.224  1.00  0.00    -0.091 A  
HETATM   27  C   UNL     1      -7.564  11.261  68.782  1.00  0.00    -0.130 A  
HETATM   28  C   UNL     1      -8.867  10.970  69.212  1.00  0.00     0.090 A  
HETATM   29  C   UNL     1      -8.939   9.153  67.665  1.00  0.00    -0.130 A  
HETATM   30  C   UNL     1      -6.961  10.576  67.715  1.00  0.00    -0.078 A  
BRANCH  30  31
HETATM   31  N   UNL     1      -5.769  10.977  67.145  1.00  0.00    -0.052 NA 
HETATM   32  C   UNL     1      -5.125  12.235  67.481  1.00  0.00    -0.097 C  
HETATM   33  C   UNL     1      -5.131  10.187  66.095  1.00  0.00    -0.037 C  
ENDBRANCH  30  31
ENDBRANCH  13  25
TORSDOF 3
ENDMDL
MODEL       98
REMARK 921   NORMALIZED FREE ENERGY PREDICTED BY IDOCK:    9.02 KCAL/MOL
REMARK 922        TOTAL FREE ENERGY PREDICTED BY IDOCK:    9.97 KCAL/MOL
REMARK 923 INTER-LIGAND FREE ENERGY PREDICTED BY IDOCK:   10.61 KCAL/MOL
REMARK 924 INTRA-LIGAND FREE ENERGY PREDICTED BY IDOCK:   -0.64 KCAL/MOL
REMARK 927      BINDING AFFINITY PREDICTED BY RF-SCORE:    0.00 PKD
ROOT
HETATM    1  C   UNL     1     -11.074  15.545  69.235  1.00  0.00    -0.285 C  
HETATM    2  C   UNL     1     -11.375  16.254  68.044  1.00  0.00    -0.205 C  
HETATM    3  C   UNL     1     -12.183  15.042  68.367  1.00  0.00    -0.009 C  
HETATM    4  C   UNL     1     -12.024  14.306  70.298  1.00  0.00    -0.329 C  
HETATM    5  O   UNL     1     -13.006  13.527  71.017  1.00  0.00    -0.280 OA 
HETATM    6  C   UNL     1     -10.085  14.071  68.763  1.00  0.00    -0.183 C  
HETATM    7  C   UNL     1     -12.926  15.112  69.668  1.00  0.00     0.291 C  
HETATM    8  C   UNL     1     -13.609  13.520  68.867  1.00  0.00     5.003 C  
HETATM    9  C   UNL     1     -13.893  16.167  70.150  1.00  0.00     3.073 C  
HETATM   10  C   UNL     1      -8.806  14.539  68.038  1.00  0.00    -0.175 C  
HETATM   11  H   UNL     1     -12.932  13.189  71.903  1.00  0.00     0.000 HD 
HETATM   12  C   UNL     1      -8.365  13.816  66.764  1.00  0.00     0.086 C  
HETATM   13  C   UNL     1     -12.320  12.335  68.609  1.00  0.00     0.310 C  
HETATM   14  C   UNL     1     -10.855  12.818  68.017  1.00  0.00    -0.254 C  
HETATM   15  C   UNL     1      -9.174  12.683  66.202  1.00  0.00    -0.052 C  
HETATM   16  C   UNL     1      -8.716  12.125  65.067  1.00  0.00     1.028 C  
HETATM   17  C   UNL     1     -10.393  12.251  66.856  1.00  0.00    -0.236 C  
HETATM   18  O   UNL     1      -8.875  10.578  63.328  1.00  0.00    -0.178 OA 
HETATM   19  C   UNL     1     -11.196  11.159  66.150  1.00  0.00    -0.059 C  
HETATM   20  C   UNL     1     -10.663  10.474  64.896  1.00  0.00     0.054 C  
HETATM   21  C   UNL     1      -9.382  11.024  64.356  1.00  0.00    -0.195 C  
ENDROOT
BRANCH   4  22
HETATM   22  C   UNL     1     -11.464  15.072  71.632  1.00  0.00    -0.377 C  
HETATM   23  C   UNL     1     -11.292  15.984  72.546  1.00  0.00     0.038 C  
HETATM   24  C   UNL     1     -11.091  17.049  73.612  1.00  0.00     2.358 C  
ENDBRANCH   4  22
BRANCH  13  25
HETATM   25  C   UNL     1     -12.104  11.350  69.770  1.00  0.00    -0.388 A  
HETATM   26  C   UNL     1     -12.601   9.210  70.813  1.00  0.00    -0.005 A  
HETATM   27  C   UNL     1     -10.523  10.273  71.258  1.00  0.00     1.067 A  
HETATM   28  C   UNL     1     -10.901  11.372  70.473  1.00  0.00     1.145 A  
HETATM   29  C   UNL     1     -12.999  10.310  70.055  1.00  0.00     0.160 A  
HETATM   30  C   UNL     1     -11.324   9.126  71.373  1.00  0.00    -0.344 A  
BRANCH  30  31
HETATM   31  N   UNL     1     -10.886   7.960  71.969  1.00  0.00    -0.240 NA 
HETATM   32  C   UNL     1     -11.411   7.485  73.237  1.00  0.00    -0.032 C  
HETATM   33  C   UNL     1      -9.794   7.181  71.391  1.00  0.00    -0.176 C  
ENDBRANCH  30  31
ENDBRANCH  13  25
TORSDOF 3
ENDMDL
MODEL       99
REMARK 921   NORMALIZED FREE ENERGY PREDICTED BY IDOCK:   10.71 KCAL/MOL
REMARK 922        TOTAL FREE ENERGY PREDICTED BY IDOCK:   11.96 KCAL/MOL
REMARK 923 INTER-LIGAND FREE ENERGY PREDICTED BY IDOCK:   12.47 KCAL/MOL
REMARK 924 INTRA-LIGAND FREE ENERGY PREDICTED BY IDOCK:   -0.51 KCAL/MOL
REMARK 927      BINDING AFFINITY PREDICTED BY RF-SCORE:    0.00 PKD
ROOT
HETATM    1  C   UNL     1     -11.773  10.173  66.060  1.00  0.00     2.770 C  
HETATM    2  C   UNL     1     -12.302  11.281  65.349  1.00  0.00     2.027 C  
HETATM    3  C   UNL     1     -10.855  11.300  65.711  1.00  0.00    -0.257 C  
HETATM    4  C   UNL     1     -10.028   9.504  66.337  1.00  0.00    -0.269 C  
HETATM    5  O   UNL     1      -8.642   9.108  66.255  1.00  0.00    -0.120 OA 
HETATM    6  C   UNL     1     -11.645  10.662  67.825  1.00  0.00    -0.063 C  
HETATM    7  C   UNL     1     -10.050  10.167  65.145  1.00  0.00    -0.329 C  
HETATM    8  C   UNL     1      -8.718  11.311  65.891  1.00  0.00    -0.146 C  
HETATM    9  C   UNL     1      -9.920   9.726  63.707  1.00  0.00     0.777 C  
HETATM   10  C   UNL     1     -13.047  11.055  68.338  1.00  0.00     4.059 C  
HETATM   11  H   UNL     1      -8.263   8.285  66.541  1.00  0.00     0.000 HD 
HETATM   12  C   UNL     1     -13.202  12.315  69.190  1.00  0.00     2.824 C  
HETATM   13  C   UNL     1      -8.942  11.493  67.637  1.00  0.00    -0.160 C  
HETATM   14  C   UNL     1     -10.456  11.718  68.260  1.00  0.00    -0.224 C  
HETATM   15  C   UNL     1     -12.019  13.181  69.507  1.00  0.00    -0.354 C  
HETATM   16  C   UNL     1     -12.261  14.280  70.246  1.00  0.00    -0.407 C  
HETATM   17  C   UNL     1     -10.700  12.842  69.009  1.00  0.00    -0.132 C  
HETATM   18  O   UNL     1     -11.560  16.227  71.322  1.00  0.00    -0.437 OA 
HETATM   19  C   UNL     1      -9.582  13.841  69.301  1.00  0.00     0.461 C  
HETATM   20  C   UNL     1      -9.823  15.059  70.187  1.00  0.00     0.186 C  
HETATM   21  C   UNL     1     -11.235  15.260  70.636  1.00  0.00    -0.321 C  
ENDROOT
BRANCH   4  22
HETATM   22  C   UNL     1     -10.610   7.991  66.117  1.00  0.00     1.072 C  
HETATM   23  C   UNL     1     -11.069   6.799  66.376  1.00  0.00     0.657 C  
HETATM   24  C   UNL     1     -11.603   5.408  66.678  1.00  0.00     1.609 C  
ENDBRANCH   4  22
BRANCH  13  25
HETATM   25  C   UNL     1      -8.181  10.472  68.499  1.00  0.00    -0.123 A  
HETATM   26  C   UNL     1      -8.229   8.590  70.039  1.00  0.00    -0.121 A  
HETATM   27  C   UNL     1      -6.327   8.918  68.653  1.00  0.00    -0.053 A  
HETATM   28  C   UNL     1      -6.890  10.093  68.134  1.00  0.00    -0.066 A  
HETATM   29  C   UNL     1      -8.785   9.772  69.552  1.00  0.00    -0.193 A  
HETATM   30  C   UNL     1      -7.021   8.090  69.549  1.00  0.00    -0.050 A  
BRANCH  30  31
HETATM   31  N   UNL     1      -6.572   6.835  69.912  1.00  0.00    -0.047 NA 
HETATM   32  C   UNL     1      -7.412   5.877  70.611  1.00  0.00    -0.087 C  
HETATM   33  C   UNL     1      -5.186   6.433  69.688  1.00  0.00    -0.013 C  
ENDBRANCH  30  31
ENDBRANCH  13  25
TORSDOF 3
ENDMDL
MODEL      100
REMARK 921   NORMALIZED FREE ENERGY PREDICTED BY IDOCK:   10.92 KCAL/MOL
REMARK 922        TOTAL FREE ENERGY PREDICTED BY IDOCK:   12.20 KCAL/MOL
REMARK 923 INTER-LIGAND FREE ENERGY PREDICTED BY IDOCK:   12.03 KCAL/MOL
REMARK 924 INTRA-LIGAND FREE ENERGY PREDICTED BY IDOCK:    0.17 KCAL/MOL
REMARK 927      BINDING AFFINITY PREDICTED BY RF-SCORE:    0.00 PKD
ROOT
HETATM    1  C   UNL     1      -9.340  17.515  66.873  1.00  0.00    -0.275 C  
HETATM    2  C   UNL     1      -9.596  18.060  65.589  1.00  0.00     0.484 C  
HETATM    3  C   UNL     1     -10.761  17.745  66.466  1.00  0.00    -0.111 C  
HETATM    4  C   UNL     1     -10.348  17.381  68.465  1.00  0.00    -0.378 C  
HETATM    5  O   UNL     1     -11.242  17.557  69.586  1.00  0.00     0.122 OA 
HETATM    6  C   UNL     1      -9.642  15.706  66.772  1.00  0.00    -0.257 C  
HETATM    7  C   UNL     1     -10.777  18.477  67.776  1.00  0.00    -0.378 C  
HETATM    8  C   UNL     1     -12.488  17.632  67.733  1.00  0.00     4.157 C  
HETATM    9  C   UNL     1     -10.697  19.963  68.029  1.00  0.00    -0.271 C  
HETATM   10  C   UNL     1      -8.711  15.104  65.698  1.00  0.00     1.042 C  
HETATM   11  H   UNL     1     -11.052  17.390  70.502  1.00  0.00     0.000 HD 
HETATM   12  C   UNL     1      -9.281  14.092  64.702  1.00  0.00     2.293 C  
HETATM   13  C   UNL     1     -12.325  15.871  67.669  1.00  0.00     1.272 C  
HETATM   14  C   UNL     1     -11.201  15.177  66.677  1.00  0.00    -0.274 C  
HETATM   15  C   UNL     1     -10.729  13.704  64.742  1.00  0.00    -0.420 C  
HETATM   16  C   UNL     1     -11.140  12.823  63.811  1.00  0.00    -0.475 C  
HETATM   17  C   UNL     1     -11.623  14.283  65.725  1.00  0.00    -0.346 C  
HETATM   18  O   UNL     1     -12.793  11.529  62.794  1.00  0.00    -0.044 OA 
HETATM   19  C   UNL     1     -13.098  13.900  65.617  1.00  0.00    -0.205 C  
HETATM   20  C   UNL     1     -13.571  12.858  64.609  1.00  0.00     1.387 C  
HETATM   21  C   UNL     1     -12.523  12.343  63.675  1.00  0.00    -0.508 C  
ENDROOT
BRANCH   4  22
HETATM   22  C   UNL     1      -9.002  17.775  69.310  1.00  0.00     0.264 C  
HETATM   23  C   UNL     1      -7.750  17.995  69.597  1.00  0.00     0.651 C  
HETATM   24  C   UNL     1      -6.290  18.251  69.934  1.00  0.00    -0.052 C  
ENDBRANCH   4  22
BRANCH  13  25
HETATM   25  C   UNL     1     -12.300  15.172  69.039  1.00  0.00    -0.050 A  
HETATM   26  C   UNL     1     -13.187  14.962  71.293  1.00  0.00    -0.476 A  
HETATM   27  C   UNL     1     -12.181  13.077  70.254  1.00  0.00    -0.368 A  
HETATM   28  C   UNL     1     -11.865  13.851  69.127  1.00  0.00    -0.401 A  
HETATM   29  C   UNL     1     -12.852  15.747  70.191  1.00  0.00     0.089 A  
HETATM   30  C   UNL     1     -12.930  13.590  71.325  1.00  0.00    -0.304 A  
BRANCH  30  31
HETATM   31  N   UNL     1     -13.424  12.798  72.342  1.00  0.00    -0.520 NA 
HETATM   32  C   UNL     1     -14.307  11.671  72.097  1.00  0.00     1.387 C  
HETATM   33  C   UNL     1     -13.152  13.111  73.743  1.00  0.00     5.002 C  
ENDBRANCH  30  31
ENDBRANCH  13  25
TORSDOF 3
ENDMDL
MODEL      101
REMARK 921   NORMALIZED FREE ENERGY PREDICTED BY IDOCK:   10.98 KCAL/MOL
REMARK 922        TOTAL FREE ENERGY PREDICTED BY IDOCK:   12.27 KCAL/MOL
REMARK 923 INTER-LIGAND FREE ENERGY PREDICTED BY IDOCK:   10.75 KCAL/MOL
REMARK 924 INTRA-LIGAND FREE ENERGY PREDICTED BY IDOCK:    1.52 KCAL/MOL
REMARK 927      BINDING AFFINITY PREDICTED BY RF-SCORE:    0.00 PKD
ROOT
HETATM    1  C   UNL     1     -12.357  14.108  69.366  1.00  0.00    -0.246 C  
HETATM    2  C   UNL     1     -12.809  15.302  68.747  1.00  0.00     0.970 C  
HETATM    3  C   UNL     1     -11.853  14.436  67.997  1.00  0.00    -0.361 C  
HETATM    4  C   UNL     1     -11.569  12.515  68.724  1.00  0.00    -0.322 C  
HETATM    5  O   UNL     1     -11.148  11.354  67.976  1.00  0.00    -0.219 OA 
HETATM    6  C   UNL     1     -10.673  14.434  70.024  1.00  0.00     0.120 C  
HETATM    7  C   UNL     1     -12.342  13.043  67.732  1.00  0.00     0.131 C  
HETATM    8  C   UNL     1     -10.740  13.141  66.699  1.00  0.00    -0.286 C  
HETATM    9  C   UNL     1     -13.622  12.601  67.064  1.00  0.00     7.235 C  
HETATM   10  C   UNL     1     -10.746  15.605  71.026  1.00  0.00    -0.027 C  
HETATM   11  H   UNL     1     -11.018  10.474  68.309  1.00  0.00     0.000 HD 
HETATM   12  C   UNL     1      -9.685  16.706  70.963  1.00  0.00     3.479 C  
HETATM   13  C   UNL     1      -9.335  13.438  67.733  1.00  0.00    -0.211 C  
HETATM   14  C   UNL     1      -9.424  14.547  68.954  1.00  0.00    -0.144 C  
HETATM   15  C   UNL     1      -8.600  16.671  69.928  1.00  0.00     1.177 C  
HETATM   16  C   UNL     1      -7.727  17.695  69.941  1.00  0.00     1.316 C  
HETATM   17  C   UNL     1      -8.535  15.593  68.961  1.00  0.00    -0.231 C  
HETATM   18  O   UNL     1      -5.866  18.819  69.095  1.00  0.00    -0.212 OA 
HETATM   19  C   UNL     1      -7.454  15.703  67.887  1.00  0.00    -0.147 C  
HETATM   20  C   UNL     1      -6.419  16.823  67.921  1.00  0.00    -0.151 C  
HETATM   21  C   UNL     1      -6.614  17.848  68.992  1.00  0.00    -0.247 C  
ENDROOT
BRANCH   4  22
HETATM   22  C   UNL     1     -12.522  11.670  69.751  1.00  0.00    -0.088 C  
HETATM   23  C   UNL     1     -13.097  11.272  70.851  1.00  0.00    -0.095 C  
HETATM   24  C   UNL     1     -13.767  10.807  72.134  1.00  0.00     0.037 C  
ENDBRANCH   4  22
BRANCH  13  25
HETATM   25  C   UNL     1      -8.624  12.172  68.240  1.00  0.00    -0.175 A  
HETATM   26  C   UNL     1      -8.265   9.773  68.081  1.00  0.00    -0.109 A  
HETATM   27  C   UNL     1      -6.546  11.156  68.962  1.00  0.00    -0.075 A  
HETATM   28  C   UNL     1      -7.371  12.283  68.839  1.00  0.00    -0.041 A  
HETATM   29  C   UNL     1      -9.104  10.881  67.982  1.00  0.00    -0.152 A  
HETATM   30  C   UNL     1      -6.939   9.890  68.501  1.00  0.00    -0.067 A  
BRANCH  30  31
HETATM   31  N   UNL     1      -6.073   8.816  68.426  1.00  0.00    -0.049 NA 
HETATM   32  C   UNL     1      -5.979   7.812  69.472  1.00  0.00    -0.030 C  
HETATM   33  C   UNL     1      -5.131   8.681  67.318  1.00  0.00    -0.033 C  
ENDBRANCH  30  31
ENDBRANCH  13  25
TORSDOF 3
ENDMDL
MODEL      102
REMARK 921   NORMALIZED FREE ENERGY PREDICTED BY IDOCK:   16.00 KCAL/MOL
REMARK 922        TOTAL FREE ENERGY PREDICTED BY IDOCK:   18.17 KCAL/MOL
REMARK 923 INTER-LIGAND FREE ENERGY PREDICTED BY IDOCK:   18.91 KCAL/MOL
REMARK 924 INTRA-LIGAND FREE ENERGY PREDICTED BY IDOCK:   -0.74 KCAL/MOL
REMARK 927      BINDING AFFINITY PREDICTED BY RF-SCORE:    0.00 PKD
ROOT
HETATM    1  C   UNL     1     -10.788  13.906  67.101  1.00  0.00    -0.288 C  
HETATM    2  C   UNL     1     -11.054  13.772  65.714  1.00  0.00    -0.290 C  
HETATM    3  C   UNL     1      -9.648  14.032  66.141  1.00  0.00    -0.263 C  
HETATM    4  C   UNL     1      -9.226  13.777  68.155  1.00  0.00    -0.199 C  
HETATM    5  O   UNL     1      -7.945  13.461  68.744  1.00  0.00    -0.284 OA 
HETATM    6  C   UNL     1     -10.636  15.701  67.461  1.00  0.00    -0.297 C  
HETATM    7  C   UNL     1      -9.066  12.991  67.052  1.00  0.00    -0.230 C  
HETATM    8  C   UNL     1      -7.562  14.090  66.634  1.00  0.00     1.050 C  
HETATM    9  C   UNL     1      -8.968  11.500  66.842  1.00  0.00    -0.179 C  
HETATM   10  C   UNL     1     -11.951  16.403  67.060  1.00  0.00     1.396 C  
HETATM   11  H   UNL     1      -7.752  13.345  69.667  1.00  0.00     0.000 HD 
HETATM   12  C   UNL     1     -11.884  17.724  66.290  1.00  0.00     3.010 C  
HETATM   13  C   UNL     1      -7.816  15.752  67.186  1.00  0.00    -0.247 C  
HETATM   14  C   UNL     1      -9.278  16.487  66.957  1.00  0.00    -0.233 C  
HETATM   15  C   UNL     1     -10.564  18.322  65.900  1.00  0.00    -0.274 C  
HETATM   16  C   UNL     1     -10.611  19.475  65.207  1.00  0.00     0.174 C  
HETATM   17  C   UNL     1      -9.322  17.660  66.244  1.00  0.00    -0.217 C  
HETATM   18  O   UNL     1      -9.577  21.249  64.099  1.00  0.00     2.210 OA 
HETATM   19  C   UNL     1      -8.039  18.297  65.715  1.00  0.00     0.180 C  
HETATM   20  C   UNL     1      -8.066  19.633  64.980  1.00  0.00     1.353 C  
HETATM   21  C   UNL     1      -9.426  20.197  64.718  1.00  0.00     2.388 C  
ENDROOT
BRANCH   4  22
HETATM   22  C   UNL     1     -10.090  12.955  69.276  1.00  0.00     0.478 C  
HETATM   23  C   UNL     1     -10.922  12.105  69.807  1.00  0.00     0.176 C  
HETATM   24  C   UNL     1     -11.894  11.114  70.428  1.00  0.00    -0.462 C  
ENDBRANCH   4  22
BRANCH  13  25
HETATM   25  C   UNL     1      -7.312  16.048  68.608  1.00  0.00    -0.159 A  
HETATM   26  C   UNL     1      -5.454  16.469  70.119  1.00  0.00    -0.200 A  
HETATM   27  C   UNL     1      -7.608  17.319  70.650  1.00  0.00     3.817 A  
HETATM   28  C   UNL     1      -8.146  16.707  69.509  1.00  0.00     0.295 A  
HETATM   29  C   UNL     1      -5.983  15.832  68.999  1.00  0.00    -0.108 A  
HETATM   30  C   UNL     1      -6.234  17.292  70.934  1.00  0.00     1.265 A  
BRANCH  30  31
HETATM   31  N   UNL     1      -5.659  18.054  71.933  1.00  0.00     0.180 NA 
HETATM   32  C   UNL     1      -5.423  19.480  71.790  1.00  0.00    -0.361 C  
HETATM   33  C   UNL     1      -5.170  17.440  73.164  1.00  0.00     5.226 C  
ENDBRANCH  30  31
ENDBRANCH  13  25
TORSDOF 3
ENDMDL
MODEL      103
REMARK 921   NORMALIZED FREE ENERGY PREDICTED BY IDOCK:   17.04 KCAL/MOL
REMARK 922        TOTAL FREE ENERGY PREDICTED BY IDOCK:   19.39 KCAL/MOL
REMARK 923 INTER-LIGAND FREE ENERGY PREDICTED BY IDOCK:   18.00 KCAL/MOL
REMARK 924 INTRA-LIGAND FREE ENERGY PREDICTED BY IDOCK:    1.39 KCAL/MOL
REMARK 927      BINDING AFFINITY PREDICTED BY RF-SCORE:    0.00 PKD
ROOT
HETATM    1  C   UNL     1     -12.144  13.252  69.419  1.00  0.00    -0.301 C  
HETATM    2  C   UNL     1     -12.511  13.780  68.154  1.00  0.00     0.279 C  
HETATM    3  C   UNL     1     -11.782  12.479  68.191  1.00  0.00    -0.400 C  
HETATM    4  C   UNL     1     -11.663  11.532  70.032  1.00  0.00    -0.332 C  
HETATM    5  O   UNL     1     -11.498  10.117  70.275  1.00  0.00    -0.265 OA 
HETATM    6  C   UNL     1     -10.362  13.617  69.671  1.00  0.00     0.560 C  
HETATM    7  C   UNL     1     -12.481  11.389  68.950  1.00  0.00     0.292 C  
HETATM    8  C   UNL     1     -11.026  10.473  68.121  1.00  0.00    -0.330 C  
HETATM    9  C   UNL     1     -13.883  10.860  68.768  1.00  0.00     7.331 C  
HETATM   10  C   UNL     1     -10.150  15.145  69.605  1.00  0.00    -0.202 C  
HETATM   11  H   UNL     1     -11.444   9.684  71.119  1.00  0.00     0.000 HD 
HETATM   12  C   UNL     1      -8.970  15.699  68.804  1.00  0.00    -0.205 C  
HETATM   13  C   UNL     1      -9.473  11.120  68.668  1.00  0.00    -0.196 C  
HETATM   14  C   UNL     1      -9.257  12.752  68.806  1.00  0.00     0.159 C  
HETATM   15  C   UNL     1      -8.042  14.781  68.065  1.00  0.00    -0.140 C  
HETATM   16  C   UNL     1      -7.047  15.365  67.373  1.00  0.00    -0.229 C  
HETATM   17  C   UNL     1      -8.244  13.345  68.094  1.00  0.00    -0.160 C  
HETATM   18  O   UNL     1      -5.178  15.264  65.980  1.00  0.00     3.045 OA 
HETATM   19  C   UNL     1      -7.306  12.507  67.229  1.00  0.00    -0.113 C  
HETATM   20  C   UNL     1      -6.136  13.144  66.485  1.00  0.00     2.337 C  
HETATM   21  C   UNL     1      -6.054  14.634  66.570  1.00  0.00     3.226 C  
ENDROOT
BRANCH   4  22
HETATM   22  C   UNL     1     -12.579  11.787  71.364  1.00  0.00    -0.367 C  
HETATM   23  C   UNL     1     -13.157  12.394  72.362  1.00  0.00    -0.091 C  
HETATM   24  C   UNL     1     -13.831  13.100  73.527  1.00  0.00     3.837 C  
ENDBRANCH   4  22
BRANCH  13  25
HETATM   25  C   UNL     1      -8.876  10.419  69.900  1.00  0.00     0.140 A  
HETATM   26  C   UNL     1      -8.808   8.486  71.374  1.00  0.00    -0.253 A  
HETATM   27  C   UNL     1      -6.879   9.856  71.153  1.00  0.00     0.229 A  
HETATM   28  C   UNL     1      -7.577  10.723  70.300  1.00  0.00     0.737 A  
HETATM   29  C   UNL     1      -9.519   9.357  70.551  1.00  0.00    -0.327 A  
HETATM   30  C   UNL     1      -7.449   8.668  71.638  1.00  0.00    -0.092 A  
BRANCH  30  31
HETATM   31  N   UNL     1      -6.721   7.705  72.308  1.00  0.00    -0.055 NA 
HETATM   32  C   UNL     1      -6.660   7.639  73.758  1.00  0.00    -0.084 C  
HETATM   33  C   UNL     1      -5.892   6.745  71.584  1.00  0.00    -0.037 C  
ENDBRANCH  30  31
ENDBRANCH  13  25
TORSDOF 3
ENDMDL
MODEL      104
REMARK 921   NORMALIZED FREE ENERGY PREDICTED BY IDOCK:   17.04 KCAL/MOL
REMARK 922        TOTAL FREE ENERGY PREDICTED BY IDOCK:   19.39 KCAL/MOL
REMARK 923 INTER-LIGAND FREE ENERGY PREDICTED BY IDOCK:   17.78 KCAL/MOL
REMARK 924 INTRA-LIGAND FREE ENERGY PREDICTED BY IDOCK:    1.62 KCAL/MOL
REMARK 927      BINDING AFFINITY PREDICTED BY RF-SCORE:    0.00 PKD
ROOT
HETATM    1  C   UNL     1      -9.368   9.597  67.407  1.00  0.00    -0.155 C  
HETATM    2  C   UNL     1      -9.549   9.041  66.115  1.00  0.00    -0.341 C  
HETATM    3  C   UNL     1      -8.609  10.190  66.263  1.00  0.00    -0.138 C  
HETATM    4  C   UNL     1      -8.033  10.677  68.195  1.00  0.00    -0.113 C  
HETATM    5  O   UNL     1      -6.818  11.344  68.600  1.00  0.00    -0.067 OA 
HETATM    6  C   UNL     1     -10.372  11.133  67.490  1.00  0.00    -0.228 C  
HETATM    7  C   UNL     1      -7.460   9.945  67.197  1.00  0.00    -0.091 C  
HETATM    8  C   UNL     1      -7.011  11.615  66.391  1.00  0.00     0.141 C  
HETATM    9  C   UNL     1      -6.449   8.824  67.179  1.00  0.00    -0.061 C  
HETATM   10  C   UNL     1     -11.850  10.779  67.221  1.00  0.00     0.756 C  
HETATM   11  H   UNL     1      -6.555  11.568  69.485  1.00  0.00     0.000 HD 
HETATM   12  C   UNL     1     -12.667  11.665  66.279  1.00  0.00     3.266 C  
HETATM   13  C   UNL     1      -8.236  12.842  66.746  1.00  0.00     0.058 C  
HETATM   14  C   UNL     1      -9.841  12.459  66.665  1.00  0.00    -0.231 C  
HETATM   15  C   UNL     1     -12.044  12.848  65.598  1.00  0.00    -0.511 C  
HETATM   16  C   UNL     1     -12.839  13.552  64.772  1.00  0.00    -0.196 C  
HETATM   17  C   UNL     1     -10.649  13.176  65.818  1.00  0.00    -0.293 C  
HETATM   18  O   UNL     1     -13.211  15.305  63.278  1.00  0.00     0.871 OA 
HETATM   19  C   UNL     1     -10.084  14.337  65.001  1.00  0.00    -0.324 C  
HETATM   20  C   UNL     1     -10.983  15.184  64.107  1.00  0.00     0.449 C  
HETATM   21  C   UNL     1     -12.402  14.725  64.000  1.00  0.00    -0.092 C  
ENDROOT
BRANCH   4  22
HETATM   22  C   UNL     1      -8.132   9.757  69.544  1.00  0.00    -0.141 C  
HETATM   23  C   UNL     1      -8.615   8.973  70.467  1.00  0.00    -0.229 C  
HETATM   24  C   UNL     1      -9.178   8.060  71.544  1.00  0.00    -0.188 C  
ENDBRANCH   4  22
BRANCH  13  25
HETATM   25  C   UNL     1      -7.972  13.675  68.012  1.00  0.00    -0.154 A  
HETATM   26  C   UNL     1      -8.838  14.976  69.875  1.00  0.00     0.256 A  
HETATM   27  C   UNL     1      -6.734  13.892  70.085  1.00  0.00     0.135 A  
HETATM   28  C   UNL     1      -6.820  13.439  68.760  1.00  0.00    -0.101 A  
HETATM   29  C   UNL     1      -8.920  14.557  68.548  1.00  0.00    -0.188 A  
HETATM   30  C   UNL     1      -7.781  14.593  70.703  1.00  0.00     1.459 A  
BRANCH  30  31
HETATM   31  N   UNL     1      -7.803  14.868  72.056  1.00  0.00     3.963 NA 
HETATM   32  C   UNL     1      -6.622  14.764  72.895  1.00  0.00     2.026 C  
HETATM   33  C   UNL     1      -9.051  15.196  72.740  1.00  0.00     8.239 C  
ENDBRANCH  30  31
ENDBRANCH  13  25
TORSDOF 3
ENDMDL
MODEL      105
REMARK 921   NORMALIZED FREE ENERGY PREDICTED BY IDOCK:   19.00 KCAL/MOL
REMARK 922        TOTAL FREE ENERGY PREDICTED BY IDOCK:   21.70 KCAL/MOL
REMARK 923 INTER-LIGAND FREE ENERGY PREDICTED BY IDOCK:   22.41 KCAL/MOL
REMARK 924 INTRA-LIGAND FREE ENERGY PREDICTED BY IDOCK:   -0.71 KCAL/MOL
REMARK 927      BINDING AFFINITY PREDICTED BY RF-SCORE:    0.00 PKD
ROOT
HETATM    1  C   UNL     1      -9.451  13.089  66.132  1.00  0.00    -0.159 C  
HETATM    2  C   UNL     1     -10.163  12.211  65.275  1.00  0.00    -0.304 C  
HETATM    3  C   UNL     1     -10.944  13.177  66.101  1.00  0.00    -0.299 C  
HETATM    4  C   UNL     1      -9.877  14.720  66.984  1.00  0.00    -0.239 C  
HETATM    5  O   UNL     1     -10.381  16.016  67.375  1.00  0.00    -0.281 OA 
HETATM    6  C   UNL     1      -9.562  12.407  67.834  1.00  0.00    -0.205 C  
HETATM    7  C   UNL     1     -10.625  14.621  65.848  1.00  0.00    -0.319 C  
HETATM    8  C   UNL     1     -12.152  14.711  66.988  1.00  0.00    -0.214 C  
HETATM    9  C   UNL     1     -10.637  15.377  64.540  1.00  0.00     0.092 C  
HETATM   10  C   UNL     1      -8.960  10.986  67.842  1.00  0.00    -0.144 C  
HETATM   11  H   UNL     1      -9.892  16.723  67.780  1.00  0.00     0.000 HD 
HETATM   12  C   UNL     1      -9.699   9.869  68.583  1.00  0.00    -0.163 C  
HETATM   13  C   UNL     1     -11.820  13.960  68.555  1.00  0.00    -0.401 C  
HETATM   14  C   UNL     1     -10.999  12.529  68.632  1.00  0.00    -0.291 C  
HETATM   15  C   UNL     1     -11.006  10.134  69.270  1.00  0.00    -0.279 C  
HETATM   16  C   UNL     1     -11.589   9.083  69.875  1.00  0.00     0.165 C  
HETATM   17  C   UNL     1     -11.599  11.457  69.246  1.00  0.00    -0.384 C  
HETATM   18  O   UNL     1     -13.322   8.123  71.106  1.00  0.00    -0.162 OA 
HETATM   19  C   UNL     1     -12.978  11.599  69.888  1.00  0.00     0.547 C  
HETATM   20  C   UNL     1     -13.626  10.435  70.630  1.00  0.00     0.325 C  
HETATM   21  C   UNL     1     -12.880   9.141  70.578  1.00  0.00     0.437 C  
ENDROOT
BRANCH   4  22
HETATM   22  C   UNL     1      -8.386  15.273  66.595  1.00  0.00    -0.216 C  
HETATM   23  C   UNL     1      -7.419  16.088  66.279  1.00  0.00     0.419 C  
HETATM   24  C   UNL     1      -6.291  17.037  65.909  1.00  0.00     0.517 C  
ENDBRANCH   4  22
BRANCH  13  25
HETATM   25  C   UNL     1     -11.281  14.918  69.632  1.00  0.00    -0.300 A  
HETATM   26  C   UNL     1      -9.384  15.878  70.813  1.00  0.00     2.066 A  
HETATM   27  C   UNL     1     -11.407  17.113  70.651  1.00  0.00     1.116 A  
HETATM   28  C   UNL     1     -12.021  16.047  69.979  1.00  0.00    -0.198 A  
HETATM   29  C   UNL     1      -9.993  14.801  70.171  1.00  0.00     0.363 A  
HETATM   30  C   UNL     1     -10.049  17.091  71.003  1.00  0.00     2.935 A  
BRANCH  30  31
HETATM   31  N   UNL     1      -9.379  18.201  71.479  1.00  0.00     7.510 NA 
HETATM   32  C   UNL     1      -8.163  18.704  70.861  1.00  0.00     4.879 C  
HETATM   33  C   UNL     1      -9.812  18.882  72.696  1.00  0.00     5.595 C  
ENDBRANCH  30  31
ENDBRANCH  13  25
TORSDOF 3
ENDMDL
MODEL      106
REMARK 921   NORMALIZED FREE ENERGY PREDICTED BY IDOCK:   19.48 KCAL/MOL
REMARK 922        TOTAL FREE ENERGY PREDICTED BY IDOCK:   22.27 KCAL/MOL
REMARK 923 INTER-LIGAND FREE ENERGY PREDICTED BY IDOCK:   22.47 KCAL/MOL
REMARK 924 INTRA-LIGAND FREE ENERGY PREDICTED BY IDOCK:   -0.20 KCAL/MOL
REMARK 927      BINDING AFFINITY PREDICTED BY RF-SCORE:    0.00 PKD
ROOT
HETATM    1  C   UNL     1     -11.360  14.284  71.641  1.00  0.00     0.858 C  
HETATM    2  C   UNL     1     -10.814  13.889  72.890  1.00  0.00     5.131 C  
HETATM    3  C   UNL     1     -10.268  13.263  71.651  1.00  0.00     8.964 C  
HETATM    4  C   UNL     1     -10.762  14.171  69.853  1.00  0.00     0.228 C  
HETATM    5  O   UNL     1     -10.015  14.122  68.618  1.00  0.00    -0.232 OA 
HETATM    6  C   UNL     1     -12.534  12.972  71.116  1.00  0.00    -0.364 C  
HETATM    7  C   UNL     1      -9.670  14.228  70.669  1.00  0.00     2.473 C  
HETATM    8  C   UNL     1      -9.192  12.527  69.948  1.00  0.00     2.929 C  
HETATM    9  C   UNL     1      -8.592  15.260  70.896  1.00  0.00     2.426 C  
HETATM   10  C   UNL     1     -13.626  12.817  72.196  1.00  0.00    -0.547 C  
HETATM   11  H   UNL     1     -10.241  14.539  67.795  1.00  0.00     0.000 HD 
HETATM   12  C   UNL     1     -14.044  11.412  72.634  1.00  0.00     1.260 C  
HETATM   13  C   UNL     1     -10.631  11.581  69.542  1.00  0.00     0.024 C  
HETATM   14  C   UNL     1     -11.916  11.541  70.579  1.00  0.00    -0.439 C  
HETATM   15  C   UNL     1     -13.389  10.195  72.050  1.00  0.00    -0.492 C  
HETATM   16  C   UNL     1     -13.811   9.005  72.515  1.00  0.00    -0.491 C  
HETATM   17  C   UNL     1     -12.341  10.325  71.056  1.00  0.00    -0.483 C  
HETATM   18  O   UNL     1     -13.735   6.675  72.565  1.00  0.00     0.298 OA 
HETATM   19  C   UNL     1     -11.669   9.032  70.599  1.00  0.00    -0.237 C  
HETATM   20  C   UNL     1     -12.174   7.672  71.070  1.00  0.00    -0.261 C  
HETATM   21  C   UNL     1     -13.273   7.707  72.082  1.00  0.00    -0.068 C  
ENDROOT
BRANCH   4  22
HETATM   22  C   UNL     1     -11.322  15.689  69.606  1.00  0.00    -0.331 C  
HETATM   23  C   UNL     1     -11.444  16.892  69.119  1.00  0.00     0.385 C  
HETATM   24  C   UNL     1     -11.587  18.295  68.552  1.00  0.00     2.116 C  
ENDBRANCH   4  22
BRANCH  13  25
HETATM   25  C   UNL     1     -11.140  11.761  68.102  1.00  0.00    -0.297 A  
HETATM   26  C   UNL     1     -12.309  13.114  66.453  1.00  0.00    -0.300 A  
HETATM   27  C   UNL     1     -10.665  11.556  65.734  1.00  0.00    -0.325 A  
HETATM   28  C   UNL     1     -10.477  11.124  67.055  1.00  0.00    -0.277 A  
HETATM   29  C   UNL     1     -12.151  12.672  67.766  1.00  0.00    -0.157 A  
HETATM   30  C   UNL     1     -11.518  12.623  65.412  1.00  0.00    -0.338 A  
BRANCH  30  31
HETATM   31  N   UNL     1     -11.564  13.194  64.156  1.00  0.00    -0.388 NA 
HETATM   32  C   UNL     1     -12.426  12.690  63.099  1.00  0.00    -0.104 C  
HETATM   33  C   UNL     1     -10.674  14.292  63.791  1.00  0.00     1.505 C  
ENDBRANCH  30  31
ENDBRANCH  13  25
TORSDOF 3
ENDMDL
MODEL      107
REMARK 921   NORMALIZED FREE ENERGY PREDICTED BY IDOCK:   19.58 KCAL/MOL
REMARK 922        TOTAL FREE ENERGY PREDICTED BY IDOCK:   22.38 KCAL/MOL
REMARK 923 INTER-LIGAND FREE ENERGY PREDICTED BY IDOCK:   23.05 KCAL/MOL
REMARK 924 INTRA-LIGAND FREE ENERGY PREDICTED BY IDOCK:   -0.67 KCAL/MOL
REMARK 927      BINDING AFFINITY PREDICTED BY RF-SCORE:    0.00 PKD
ROOT
HETATM    1  C   UNL     1     -13.222  14.269  67.647  1.00  0.00     3.258 C  
HETATM    2  C   UNL     1     -13.762  14.659  66.394  1.00  0.00     3.975 C  
HETATM    3  C   UNL     1     -12.368  14.129  66.427  1.00  0.00    -0.431 C  
HETATM    4  C   UNL     1     -11.780  13.165  68.166  1.00  0.00    -0.355 C  
HETATM    5  O   UNL     1     -10.754  12.157  68.300  1.00  0.00    -0.206 OA 
HETATM    6  C   UNL     1     -12.122  15.625  68.217  1.00  0.00     0.145 C  
HETATM    7  C   UNL     1     -12.240  12.731  66.957  1.00  0.00    -0.083 C  
HETATM    8  C   UNL     1     -10.490  13.102  66.293  1.00  0.00    -0.291 C  
HETATM    9  C   UNL     1     -12.950  11.479  66.502  1.00  0.00     5.350 C  
HETATM   10  C   UNL     1     -12.948  16.924  68.330  1.00  0.00     4.402 C  
HETATM   11  H   UNL     1     -10.485  11.715  69.097  1.00  0.00     0.000 HD 
HETATM   12  C   UNL     1     -12.361  18.228  67.786  1.00  0.00     4.336 C  
HETATM   13  C   UNL     1      -9.765  14.475  67.143  1.00  0.00    -0.240 C  
HETATM   14  C   UNL     1     -10.668  15.821  67.466  1.00  0.00    -0.317 C  
HETATM   15  C   UNL     1     -11.014  18.250  67.126  1.00  0.00    -0.085 C  
HETATM   16  C   UNL     1     -10.594  19.442  66.661  1.00  0.00    -0.566 C  
HETATM   17  C   UNL     1     -10.239  17.033  66.986  1.00  0.00    -0.303 C  
HETATM   18  O   UNL     1      -9.022  20.789  65.587  1.00  0.00     0.464 OA 
HETATM   19  C   UNL     1      -8.928  17.144  66.210  1.00  0.00    -0.262 C  
HETATM   20  C   UNL     1      -8.407  18.494  65.729  1.00  0.00     0.299 C  
HETATM   21  C   UNL     1      -9.316  19.657  65.965  1.00  0.00    -0.271 C  
ENDROOT
BRANCH   4  22
HETATM   22  C   UNL     1     -12.726  12.545  69.350  1.00  0.00     0.754 C  
HETATM   23  C   UNL     1     -13.355  11.684  70.098  1.00  0.00     1.241 C  
HETATM   24  C   UNL     1     -14.091  10.679  70.969  1.00  0.00     1.538 C  
ENDBRANCH   4  22
BRANCH  13  25
HETATM   25  C   UNL     1      -8.936  14.105  68.384  1.00  0.00    -0.189 A  
HETATM   26  C   UNL     1      -7.060  12.904  69.360  1.00  0.00     0.187 A  
HETATM   27  C   UNL     1      -7.870  14.869  70.422  1.00  0.00     0.868 A  
HETATM   28  C   UNL     1      -8.887  14.984  69.464  1.00  0.00    -0.060 A  
HETATM   29  C   UNL     1      -8.085  12.992  68.420  1.00  0.00    -0.131 A  
HETATM   30  C   UNL     1      -6.877  13.880  70.342  1.00  0.00     0.420 A  
BRANCH  30  31
HETATM   31  N   UNL     1      -5.758  13.872  71.151  1.00  0.00    -0.214 NA 
HETATM   32  C   UNL     1      -5.171  12.644  71.660  1.00  0.00    -0.051 C  
HETATM   33  C   UNL     1      -5.153  15.116  71.616  1.00  0.00    -0.129 C  
ENDBRANCH  30  31
ENDBRANCH  13  25
TORSDOF 3
ENDMDL
MODEL      108
REMARK 921   NORMALIZED FREE ENERGY PREDICTED BY IDOCK:   21.43 KCAL/MOL
REMARK 922        TOTAL FREE ENERGY PREDICTED BY IDOCK:   24.56 KCAL/MOL
REMARK 923 INTER-LIGAND FREE ENERGY PREDICTED BY IDOCK:   22.24 KCAL/MOL
REMARK 924 INTRA-LIGAND FREE ENERGY PREDICTED BY IDOCK:    2.31 KCAL/MOL
REMARK 927      BINDING AFFINITY PREDICTED BY RF-SCORE:    0.00 PKD
ROOT
HETATM    1  C   UNL     1     -12.339  11.298  69.237  1.00  0.00    -0.172 C  
HETATM    2  C   UNL     1     -13.236  10.679  70.145  1.00  0.00     0.225 C  
HETATM    3  C   UNL     1     -12.011  11.329  70.696  1.00  0.00    -0.435 C  
HETATM    4  C   UNL     1     -10.974  12.591  69.419  1.00  0.00     0.007 C  
HETATM    5  O   UNL     1     -10.118  13.694  69.790  1.00  0.00     0.054 OA 
HETATM    6  C   UNL     1     -10.932  10.146  68.982  1.00  0.00    -0.265 C  
HETATM    7  C   UNL     1     -11.894  12.796  70.405  1.00  0.00    -0.238 C  
HETATM    8  C   UNL     1     -10.469  12.485  71.636  1.00  0.00     9.306 C  
HETATM    9  C   UNL     1     -12.885  13.898  70.690  1.00  0.00    -0.291 C  
HETATM   10  C   UNL     1     -11.474   8.810  68.429  1.00  0.00     0.970 C  
HETATM   11  H   UNL     1      -9.643  14.272  69.205  1.00  0.00     0.000 HD 
HETATM   12  C   UNL     1     -10.950   7.496  69.012  1.00  0.00     0.004 C  
HETATM   13  C   UNL     1      -9.305  11.325  70.980  1.00  0.00     6.501 C  
HETATM   14  C   UNL     1      -9.835   9.969  70.200  1.00  0.00    -0.205 C  
HETATM   15  C   UNL     1      -9.944   7.494  70.124  1.00  0.00    -0.192 C  
HETATM   16  C   UNL     1      -9.560   6.289  70.583  1.00  0.00    -0.189 C  
HETATM   17  C   UNL     1      -9.446   8.740  70.674  1.00  0.00    -0.237 C  
HETATM   18  O   UNL     1      -8.314   4.939  72.021  1.00  0.00    -0.118 OA 
HETATM   19  C   UNL     1      -8.503   8.631  71.870  1.00  0.00    -0.210 C  
HETATM   20  C   UNL     1      -8.010   7.275  72.365  1.00  0.00    -0.105 C  
HETATM   21  C   UNL     1      -8.604   6.085  71.682  1.00  0.00    -0.131 C  
ENDROOT
BRANCH   4  22
HETATM   22  C   UNL     1     -11.503  13.295  68.040  1.00  0.00    -0.344 C  
HETATM   23  C   UNL     1     -11.718  13.512  66.773  1.00  0.00    -0.430 C  
HETATM   24  C   UNL     1     -11.968  13.767  65.295  1.00  0.00    -0.388 C  
ENDBRANCH   4  22
BRANCH  13  25
HETATM   25  C   UNL     1      -8.143  11.949  70.190  1.00  0.00     2.880 A  
HETATM   26  C   UNL     1      -6.235  11.666  68.709  1.00  0.00    -0.052 A  
HETATM   27  C   UNL     1      -7.400  13.736  68.730  1.00  0.00    -0.103 A  
HETATM   28  C   UNL     1      -8.241  13.267  69.750  1.00  0.00     1.803 A  
HETATM   29  C   UNL     1      -7.045  11.200  69.742  1.00  0.00    -0.008 A  
HETATM   30  C   UNL     1      -6.437  12.917  68.122  1.00  0.00    -0.096 A  
BRANCH  30  31
HETATM   31  N   UNL     1      -5.744  13.289  66.987  1.00  0.00    -0.054 NA 
HETATM   32  C   UNL     1      -5.203  14.626  66.805  1.00  0.00     2.055 C  
HETATM   33  C   UNL     1      -5.592  12.374  65.859  1.00  0.00     2.704 C  
ENDBRANCH  30  31
ENDBRANCH  13  25
TORSDOF 3
ENDMDL
MODEL      109
REMARK 921   NORMALIZED FREE ENERGY PREDICTED BY IDOCK:   22.23 KCAL/MOL
REMARK 922        TOTAL FREE ENERGY PREDICTED BY IDOCK:   25.50 KCAL/MOL
REMARK 923 INTER-LIGAND FREE ENERGY PREDICTED BY IDOCK:   23.27 KCAL/MOL
REMARK 924 INTRA-LIGAND FREE ENERGY PREDICTED BY IDOCK:    2.23 KCAL/MOL
REMARK 927      BINDING AFFINITY PREDICTED BY RF-SCORE:    0.00 PKD
ROOT
HETATM    1  C   UNL     1      -8.788  11.514  67.425  1.00  0.00    -0.157 C  
HETATM    2  C   UNL     1      -8.483  10.364  68.198  1.00  0.00    -0.121 C  
HETATM    3  C   UNL     1      -9.514  11.309  68.716  1.00  0.00    -0.147 C  
HETATM    4  C   UNL     1     -10.249  12.712  67.377  1.00  0.00    -0.217 C  
HETATM    5  O   UNL     1     -11.535  13.368  67.420  1.00  0.00    -0.300 OA 
HETATM    6  C   UNL     1      -7.911  12.937  68.186  1.00  0.00    -0.147 C  
HETATM    7  C   UNL     1     -10.699  11.501  67.816  1.00  0.00    -0.249 C  
HETATM    8  C   UNL     1     -11.219  12.409  69.413  1.00  0.00    -0.225 C  
HETATM    9  C   UNL     1     -11.620  10.458  67.230  1.00  0.00     0.583 C  
HETATM   10  C   UNL     1      -6.396  12.641  68.197  1.00  0.00    -0.080 C  
HETATM   11  H   UNL     1     -11.871  14.011  66.806  1.00  0.00     0.000 HD 
HETATM   12  C   UNL     1      -5.588  12.945  69.460  1.00  0.00    -0.089 C  
HETATM   13  C   UNL     1     -10.115  13.744  69.773  1.00  0.00     0.917 C  
HETATM   14  C   UNL     1      -8.484  13.539  69.610  1.00  0.00     1.449 C  
HETATM   15  C   UNL     1      -6.253  13.498  70.686  1.00  0.00     0.042 C  
HETATM   16  C   UNL     1      -5.461  13.712  71.753  1.00  0.00    -0.177 C  
HETATM   17  C   UNL     1      -7.680  13.754  70.701  1.00  0.00     2.854 C  
HETATM   18  O   UNL     1      -5.125  14.394  73.959  1.00  0.00    -0.177 OA 
HETATM   19  C   UNL     1      -8.276  14.219  72.028  1.00  0.00     6.940 C  
HETATM   20  C   UNL     1      -7.388  14.525  73.229  1.00  0.00     5.138 C  
HETATM   21  C   UNL     1      -5.934  14.225  73.048  1.00  0.00     0.388 C  
ENDROOT
BRANCH   4  22
HETATM   22  C   UNL     1     -10.169  12.690  65.743  1.00  0.00    -0.288 C  
HETATM   23  C   UNL     1      -9.802  12.974  64.525  1.00  0.00    -0.019 C  
HETATM   24  C   UNL     1      -9.377  13.306  63.103  1.00  0.00     5.147 C  
ENDBRANCH   4  22
BRANCH  13  25
HETATM   25  C   UNL     1     -10.523  15.101  69.176  1.00  0.00    -0.252 A  
HETATM   26  C   UNL     1      -9.948  17.399  68.626  1.00  0.00    -0.340 A  
HETATM   27  C   UNL     1     -11.625  16.282  67.368  1.00  0.00     0.384 A  
HETATM   28  C   UNL     1     -11.503  15.149  68.185  1.00  0.00    -0.356 A  
HETATM   29  C   UNL     1      -9.839  16.290  69.463  1.00  0.00    -0.159 A  
HETATM   30  C   UNL     1     -10.788  17.399  67.511  1.00  0.00    -0.203 A  
BRANCH  30  31
HETATM   31  N   UNL     1     -10.753  18.433  66.596  1.00  0.00    -0.296 NA 
HETATM   32  C   UNL     1     -11.957  19.079  66.101  1.00  0.00     3.507 C  
HETATM   33  C   UNL     1      -9.495  18.876  66.004  1.00  0.00    -0.081 C  
ENDBRANCH  30  31
ENDBRANCH  13  25
TORSDOF 3
ENDMDL
MODEL      110
REMARK 921   NORMALIZED FREE ENERGY PREDICTED BY IDOCK:   22.43 KCAL/MOL
REMARK 922        TOTAL FREE ENERGY PREDICTED BY IDOCK:   25.73 KCAL/MOL
REMARK 923 INTER-LIGAND FREE ENERGY PREDICTED BY IDOCK:   26.32 KCAL/MOL
REMARK 924 INTRA-LIGAND FREE ENERGY PREDICTED BY IDOCK:   -0.59 KCAL/MOL
REMARK 927      BINDING AFFINITY PREDICTED BY RF-SCORE:    0.00 PKD
ROOT
HETATM    1  C   UNL     1      -8.363  11.026  68.070  1.00  0.00    -0.125 C  
HETATM    2  C   UNL     1      -8.626  10.170  69.171  1.00  0.00    -0.167 C  
HETATM    3  C   UNL     1      -9.777  10.612  68.331  1.00  0.00    -0.172 C  
HETATM    4  C   UNL     1      -9.317  11.475  66.502  1.00  0.00    -0.197 C  
HETATM    5  O   UNL     1     -10.152  11.517  65.324  1.00  0.00    -0.245 OA 
HETATM    6  C   UNL     1      -8.806  12.733  68.582  1.00  0.00     0.058 C  
HETATM    7  C   UNL     1      -9.687  10.219  66.886  1.00  0.00    -0.229 C  
HETATM    8  C   UNL     1     -11.458  10.916  67.034  1.00  0.00     0.041 C  
HETATM    9  C   UNL     1      -9.484   8.847  66.290  1.00  0.00    -0.304 C  
HETATM   10  C   UNL     1      -7.965  13.117  69.818  1.00  0.00     1.604 C  
HETATM   11  H   UNL     1      -9.940  11.912  64.486  1.00  0.00     0.000 HD 
HETATM   12  C   UNL     1      -8.648  13.819  70.994  1.00  0.00     6.474 C  
HETATM   13  C   UNL     1     -11.432  12.616  67.525  1.00  0.00    -0.397 C  
HETATM   14  C   UNL     1     -10.403  13.121  68.714  1.00  0.00    -0.146 C  
HETATM   15  C   UNL     1     -10.120  14.110  70.968  1.00  0.00     3.239 C  
HETATM   16  C   UNL     1     -10.631  14.711  72.058  1.00  0.00     2.117 C  
HETATM   17  C   UNL     1     -10.928  13.729  69.827  1.00  0.00     0.067 C  
HETATM   18  O   UNL     1     -12.416  15.611  73.260  1.00  0.00    -0.392 OA 
HETATM   19  C   UNL     1     -12.431  13.978  69.941  1.00  0.00    -0.301 C  
HETATM   20  C   UNL     1     -13.020  14.712  71.141  1.00  0.00    -0.415 C  
HETATM   21  C   UNL     1     -12.051  15.054  72.227  1.00  0.00    -0.362 C  
ENDROOT
BRANCH   4  22
HETATM   22  C   UNL     1      -7.914  11.385  65.664  1.00  0.00     0.335 C  
HETATM   23  C   UNL     1      -7.022  11.002  64.794  1.00  0.00     0.655 C  
HETATM   24  C   UNL     1      -5.982  10.554  63.780  1.00  0.00    -0.056 C  
ENDBRANCH   4  22
BRANCH  13  25
HETATM   25  C   UNL     1     -11.409  13.625  66.365  1.00  0.00    -0.331 A  
HETATM   26  C   UNL     1     -12.606  15.164  64.910  1.00  0.00     0.198 A  
HETATM   27  C   UNL     1     -10.293  15.512  65.329  1.00  0.00    -0.416 A  
HETATM   28  C   UNL     1     -10.243  14.342  66.102  1.00  0.00    -0.317 A  
HETATM   29  C   UNL     1     -12.561  13.985  65.652  1.00  0.00    -0.542 A  
HETATM   30  C   UNL     1     -11.493  16.000  64.791  1.00  0.00    -0.201 A  
BRANCH  30  31
HETATM   31  N   UNL     1     -11.601  17.245  64.204  1.00  0.00     0.079 NA 
HETATM   32  C   UNL     1     -11.503  17.443  62.768  1.00  0.00    13.125 C  
HETATM   33  C   UNL     1     -11.731  18.453  65.013  1.00  0.00     3.644 C  
ENDBRANCH  30  31
ENDBRANCH  13  25
TORSDOF 3
ENDMDL
MODEL      111
REMARK 921   NORMALIZED FREE ENERGY PREDICTED BY IDOCK:   23.24 KCAL/MOL
REMARK 922        TOTAL FREE ENERGY PREDICTED BY IDOCK:   26.68 KCAL/MOL
REMARK 923 INTER-LIGAND FREE ENERGY PREDICTED BY IDOCK:   27.20 KCAL/MOL
REMARK 924 INTRA-LIGAND FREE ENERGY PREDICTED BY IDOCK:   -0.51 KCAL/MOL
REMARK 927      BINDING AFFINITY PREDICTED BY RF-SCORE:    0.00 PKD
ROOT
HETATM    1  C   UNL     1      -9.442  12.982  65.902  1.00  0.00    -0.047 C  
HETATM    2  C   UNL     1     -10.569  12.327  65.343  1.00  0.00    -0.309 C  
HETATM    3  C   UNL     1     -10.761  13.686  65.927  1.00  0.00    -0.281 C  
HETATM    4  C   UNL     1      -9.045  14.782  66.317  1.00  0.00    -0.196 C  
HETATM    5  O   UNL     1      -8.924  16.220  66.381  1.00  0.00    -0.251 OA 
HETATM    6  C   UNL     1      -9.547  12.798  67.726  1.00  0.00    -0.204 C  
HETATM    7  C   UNL     1      -9.938  14.766  65.287  1.00  0.00    -0.331 C  
HETATM    8  C   UNL     1     -11.105  15.740  66.442  1.00  0.00    -0.070 C  
HETATM    9  C   UNL     1      -9.854  15.152  63.830  1.00  0.00     4.814 C  
HETATM   10  C   UNL     1      -9.566  11.295  68.076  1.00  0.00    -0.182 C  
HETATM   11  H   UNL     1      -8.137  16.721  66.560  1.00  0.00     0.000 HD 
HETATM   12  C   UNL     1     -10.561  10.787  69.120  1.00  0.00    -0.254 C  
HETATM   13  C   UNL     1     -10.857  15.278  68.132  1.00  0.00    -0.273 C  
HETATM   14  C   UNL     1     -10.672  13.688  68.539  1.00  0.00    -0.269 C  
HETATM   15  C   UNL     1     -11.530  11.723  69.781  1.00  0.00    -0.320 C  
HETATM   16  C   UNL     1     -12.380  11.177  70.670  1.00  0.00    -0.482 C  
HETATM   17  C   UNL     1     -11.544  13.132  69.442  1.00  0.00    -0.360 C  
HETATM   18  O   UNL     1     -14.135  11.334  72.198  1.00  0.00     0.332 OA 
HETATM   19  C   UNL     1     -12.634  13.981  70.095  1.00  0.00    -0.310 C  
HETATM   20  C   UNL     1     -13.566  13.393  71.149  1.00  0.00     0.117 C  
HETATM   21  C   UNL     1     -13.414  11.927  71.399  1.00  0.00     0.295 C  
ENDROOT
BRANCH   4  22
HETATM   22  C   UNL     1      -7.538  14.551  65.720  1.00  0.00     4.852 C  
HETATM   23  C   UNL     1      -6.428  13.963  65.375  1.00  0.00    11.553 C  
HETATM   24  C   UNL     1      -5.132  13.277  64.974  1.00  0.00     9.842 C  
ENDBRANCH   4  22
BRANCH  13  25
HETATM   25  C   UNL     1      -9.821  16.124  68.890  1.00  0.00    -0.239 A  
HETATM   26  C   UNL     1      -7.535  16.427  69.663  1.00  0.00     0.158 A  
HETATM   27  C   UNL     1      -8.914  18.331  69.316  1.00  0.00     0.236 A  
HETATM   28  C   UNL     1      -9.995  17.504  68.981  1.00  0.00    -0.260 A  
HETATM   29  C   UNL     1      -8.611  15.595  69.360  1.00  0.00    -0.248 A  
HETATM   30  C   UNL     1      -7.634  17.818  69.577  1.00  0.00     0.375 A  
BRANCH  30  31
HETATM   31  N   UNL     1      -6.516  18.618  69.708  1.00  0.00    -0.179 NA 
HETATM   32  C   UNL     1      -6.553  19.908  70.377  1.00  0.00    -0.125 C  
HETATM   33  C   UNL     1      -5.244  18.246  69.096  1.00  0.00    -0.188 C  
ENDBRANCH  30  31
ENDBRANCH  13  25
TORSDOF 3
ENDMDL
MODEL      112
REMARK 921   NORMALIZED FREE ENERGY PREDICTED BY IDOCK:   24.22 KCAL/MOL
REMARK 922        TOTAL FREE ENERGY PREDICTED BY IDOCK:   27.83 KCAL/MOL
REMARK 923 INTER-LIGAND FREE ENERGY PREDICTED BY IDOCK:   26.49 KCAL/MOL
REMARK 924 INTRA-LIGAND FREE ENERGY PREDICTED BY IDOCK:    1.34 KCAL/MOL
REMARK 927      BINDING AFFINITY PREDICTED BY RF-SCORE:    0.00 PKD
ROOT
HETATM    1  C   UNL     1     -12.275  11.244  69.763  1.00  0.00    -0.343 C  
HETATM    2  C   UNL     1     -12.882  12.289  69.020  1.00  0.00     1.459 C  
HETATM    3  C   UNL     1     -11.765  11.529  68.387  1.00  0.00    -0.372 C  
HETATM    4  C   UNL     1     -11.214   9.751  69.301  1.00  0.00    -0.088 C  
HETATM    5  O   UNL     1     -10.577   8.613  68.681  1.00  0.00    -0.313 OA 
HETATM    6  C   UNL     1     -10.699  11.897  70.444  1.00  0.00     1.738 C  
HETATM    7  C   UNL     1     -12.012  10.056  68.238  1.00  0.00     1.157 C  
HETATM    8  C   UNL     1     -10.398  10.324  67.255  1.00  0.00    -0.284 C  
HETATM    9  C   UNL     1     -13.172   9.355  67.573  1.00  0.00    14.347 C  
HETATM   10  C   UNL     1     -11.007  13.124  71.328  1.00  0.00     3.833 C  
HETATM   11  H   UNL     1     -10.325   7.799  69.100  1.00  0.00     0.000 HD 
HETATM   12  C   UNL     1     -10.134  14.373  71.197  1.00  0.00     2.719 C  
HETATM   13  C   UNL     1      -9.111  10.936  68.303  1.00  0.00    -0.158 C  
HETATM   14  C   UNL     1      -9.434  12.118  69.411  1.00  0.00     0.971 C  
HETATM   15  C   UNL     1      -9.008  14.426  70.207  1.00  0.00     1.750 C  
HETATM   16  C   UNL     1      -8.311  15.576  70.152  1.00  0.00     0.655 C  
HETATM   17  C   UNL     1      -8.724  13.292  69.349  1.00  0.00     1.103 C  
HETATM   18  O   UNL     1      -6.614  16.909  69.267  1.00  0.00    -0.212 OA 
HETATM   19  C   UNL     1      -7.625  13.483  68.307  1.00  0.00    -0.135 C  
HETATM   20  C   UNL     1      -6.785  14.755  68.269  1.00  0.00    -0.114 C  
HETATM   21  C   UNL     1      -7.192  15.825  69.231  1.00  0.00    -0.211 C  
ENDROOT
BRANCH   4  22
HETATM   22  C   UNL     1     -12.068   8.855  70.371  1.00  0.00     0.184 C  
HETATM   23  C   UNL     1     -12.365   7.940  71.250  1.00  0.00    -0.300 C  
HETATM   24  C   UNL     1     -12.712   6.872  72.275  1.00  0.00     0.002 C  
ENDBRANCH   4  22
BRANCH  13  25
HETATM   25  C   UNL     1      -8.232   9.853  68.952  1.00  0.00    -0.118 A  
HETATM   26  C   UNL     1      -6.840   9.128  70.809  1.00  0.00    -0.087 A  
HETATM   27  C   UNL     1      -7.956   7.504  69.482  1.00  0.00    -0.126 A  
HETATM   28  C   UNL     1      -8.460   8.512  68.647  1.00  0.00    -0.131 A  
HETATM   29  C   UNL     1      -7.311  10.136  69.969  1.00  0.00    -0.172 A  
HETATM   30  C   UNL     1      -7.210   7.793  70.635  1.00  0.00    -0.061 A  
BRANCH  30  31
HETATM   31  N   UNL     1      -6.880   6.836  71.575  1.00  0.00    -0.064 NA 
HETATM   32  C   UNL     1      -7.734   5.697  71.864  1.00  0.00    -0.105 C  
HETATM   33  C   UNL     1      -5.683   6.970  72.401  1.00  0.00    -0.038 C  
ENDBRANCH  30  31
ENDBRANCH  13  25
TORSDOF 3
ENDMDL
MODEL      113
REMARK 921   NORMALIZED FREE ENERGY PREDICTED BY IDOCK:   24.71 KCAL/MOL
REMARK 922        TOTAL FREE ENERGY PREDICTED BY IDOCK:   28.41 KCAL/MOL
REMARK 923 INTER-LIGAND FREE ENERGY PREDICTED BY IDOCK:   29.33 KCAL/MOL
REMARK 924 INTRA-LIGAND FREE ENERGY PREDICTED BY IDOCK:   -0.92 KCAL/MOL
REMARK 927      BINDING AFFINITY PREDICTED BY RF-SCORE:    0.00 PKD
ROOT
HETATM    1  C   UNL     1      -9.370  12.843  65.088  1.00  0.00     0.470 C  
HETATM    2  C   UNL     1      -9.185  11.460  64.831  1.00  0.00    -0.074 C  
HETATM    3  C   UNL     1     -10.100  11.855  65.942  1.00  0.00    -0.265 C  
HETATM    4  C   UNL     1     -10.689  13.843  65.998  1.00  0.00    -0.287 C  
HETATM    5  O   UNL     1     -11.894  14.378  66.589  1.00  0.00    -0.389 OA 
HETATM    6  C   UNL     1      -8.331  13.276  66.539  1.00  0.00     0.383 C  
HETATM    7  C   UNL     1     -11.266  12.701  65.524  1.00  0.00    -0.337 C  
HETATM    8  C   UNL     1     -11.664  12.288  67.344  1.00  0.00    -0.405 C  
HETATM    9  C   UNL     1     -12.303  12.423  64.462  1.00  0.00    -0.519 C  
HETATM   10  C   UNL     1      -6.859  12.946  66.216  1.00  0.00     2.483 C  
HETATM   11  H   UNL     1     -12.164  15.288  66.615  1.00  0.00     0.000 HD 
HETATM   12  C   UNL     1      -6.007  12.234  67.268  1.00  0.00    -0.150 C  
HETATM   13  C   UNL     1     -10.415  12.919  68.426  1.00  0.00    -0.260 C  
HETATM   14  C   UNL     1      -8.819  12.767  68.029  1.00  0.00    -0.195 C  
HETATM   15  C   UNL     1      -6.594  11.832  68.590  1.00  0.00    -0.065 C  
HETATM   16  C   UNL     1      -5.770  11.191  69.440  1.00  0.00    -0.045 C  
HETATM   17  C   UNL     1      -7.983  12.109  68.897  1.00  0.00     0.096 C  
HETATM   18  O   UNL     1      -5.336  10.133  71.473  1.00  0.00    -0.076 OA 
HETATM   19  C   UNL     1      -8.509  11.570  70.226  1.00  0.00     3.203 C  
HETATM   20  C   UNL     1      -7.578  10.895  71.228  1.00  0.00     4.157 C  
HETATM   21  C   UNL     1      -6.169  10.699  70.768  1.00  0.00     0.016 C  
ENDROOT
BRANCH   4  22
HETATM   22  C   UNL     1     -10.631  14.951  64.796  1.00  0.00    -0.336 C  
HETATM   23  C   UNL     1     -10.533  16.096  64.181  1.00  0.00     1.960 C  
HETATM   24  C   UNL     1     -10.420  17.431  63.463  1.00  0.00     8.942 C  
ENDBRANCH   4  22
BRANCH  13  25
HETATM   25  C   UNL     1     -10.677  14.338  68.961  1.00  0.00    -0.259 A  
HETATM   26  C   UNL     1     -11.939  15.821  70.417  1.00  0.00    -0.385 A  
HETATM   27  C   UNL     1      -9.727  16.412  69.780  1.00  0.00     0.164 A  
HETATM   28  C   UNL     1      -9.640  15.269  68.973  1.00  0.00    -0.237 A  
HETATM   29  C   UNL     1     -11.873  14.697  69.595  1.00  0.00    -0.367 A  
HETATM   30  C   UNL     1     -10.843  16.668  70.592  1.00  0.00     0.249 A  
BRANCH  30  31
HETATM   31  N   UNL     1     -10.866  17.671  71.541  1.00  0.00     1.871 NA 
HETATM   32  C   UNL     1     -11.130  19.060  71.205  1.00  0.00     4.561 C  
HETATM   33  C   UNL     1     -10.533  17.399  72.937  1.00  0.00     5.426 C  
ENDBRANCH  30  31
ENDBRANCH  13  25
TORSDOF 3
ENDMDL
MODEL      114
REMARK 921   NORMALIZED FREE ENERGY PREDICTED BY IDOCK:   25.23 KCAL/MOL
REMARK 922        TOTAL FREE ENERGY PREDICTED BY IDOCK:   29.02 KCAL/MOL
REMARK 923 INTER-LIGAND FREE ENERGY PREDICTED BY IDOCK:   29.23 KCAL/MOL
REMARK 924 INTRA-LIGAND FREE ENERGY PREDICTED BY IDOCK:   -0.21 KCAL/MOL
REMARK 927      BINDING AFFINITY PREDICTED BY RF-SCORE:    0.00 PKD
ROOT
HETATM    1  C   UNL     1     -12.233   8.598  69.929  1.00  0.00     1.044 C  
HETATM    2  C   UNL     1     -13.278   8.533  68.971  1.00  0.00     7.627 C  
HETATM    3  C   UNL     1     -12.792   7.257  69.573  1.00  0.00     2.939 C  
HETATM    4  C   UNL     1     -11.603   7.420  71.264  1.00  0.00    -0.280 C  
HETATM    5  O   UNL     1     -11.428   6.433  72.304  1.00  0.00    -0.273 OA 
HETATM    6  C   UNL     1     -10.675   8.136  69.073  1.00  0.00    -0.099 C  
HETATM    7  C   UNL     1     -12.929   7.173  71.064  1.00  0.00    -0.231 C  
HETATM    8  C   UNL     1     -12.405   5.403  70.579  1.00  0.00     3.900 C  
HETATM    9  C   UNL     1     -14.163   7.368  71.912  1.00  0.00    -0.474 C  
HETATM   10  C   UNL     1     -10.440   9.114  67.902  1.00  0.00    -0.293 C  
HETATM   11  H   UNL     1     -10.883   6.508  73.079  1.00  0.00     0.000 HD 
HETATM   12  C   UNL     1      -9.999   8.558  66.546  1.00  0.00    -0.350 C  
HETATM   13  C   UNL     1     -10.814   5.402  69.804  1.00  0.00    -0.180 C  
HETATM   14  C   UNL     1     -10.438   6.553  68.680  1.00  0.00    -0.252 C  
HETATM   15  C   UNL     1      -9.821   7.082  66.340  1.00  0.00    -0.103 C  
HETATM   16  C   UNL     1      -9.451   6.690  65.106  1.00  0.00     0.974 C  
HETATM   17  C   UNL     1     -10.066   6.150  67.422  1.00  0.00    -0.190 C  
HETATM   18  O   UNL     1      -8.905   5.037  63.554  1.00  0.00    -0.120 OA 
HETATM   19  C   UNL     1      -9.956   4.665  67.081  1.00  0.00    -0.215 C  
HETATM   20  C   UNL     1      -9.480   4.203  65.708  1.00  0.00    -0.177 C  
HETATM   21  C   UNL     1      -9.252   5.289  64.706  1.00  0.00     0.133 C  
ENDROOT
BRANCH   4  22
HETATM   22  C   UNL     1     -11.443   8.700  72.270  1.00  0.00    -0.423 C  
HETATM   23  C   UNL     1     -11.750   9.706  73.040  1.00  0.00     2.920 C  
HETATM   24  C   UNL     1     -12.107  10.880  73.937  1.00  0.00    14.201 C  
ENDBRANCH   4  22
BRANCH  13  25
HETATM   25  C   UNL     1      -9.626   5.214  70.762  1.00  0.00    -0.241 A  
HETATM   26  C   UNL     1      -8.575   3.970  72.568  1.00  0.00    -0.107 A  
HETATM   27  C   UNL     1      -7.218   5.177  71.037  1.00  0.00    -0.068 A  
HETATM   28  C   UNL     1      -8.361   5.659  70.382  1.00  0.00    -0.119 A  
HETATM   29  C   UNL     1      -9.718   4.465  71.943  1.00  0.00    -0.233 A  
HETATM   30  C   UNL     1      -7.294   4.250  72.087  1.00  0.00    -0.063 A  
BRANCH  30  31
HETATM   31  N   UNL     1      -6.186   3.612  72.607  1.00  0.00    -0.009 NA 
HETATM   32  C   UNL     1      -5.411   2.646  71.847  1.00  0.00    -0.004 C  
HETATM   33  C   UNL     1      -5.782   3.810  73.997  1.00  0.00    -0.004 C  
ENDBRANCH  30  31
ENDBRANCH  13  25
TORSDOF 3
ENDMDL
MODEL      115
REMARK 921   NORMALIZED FREE ENERGY PREDICTED BY IDOCK:   25.32 KCAL/MOL
REMARK 922        TOTAL FREE ENERGY PREDICTED BY IDOCK:   29.12 KCAL/MOL
REMARK 923 INTER-LIGAND FREE ENERGY PREDICTED BY IDOCK:   28.71 KCAL/MOL
REMARK 924 INTRA-LIGAND FREE ENERGY PREDICTED BY IDOCK:    0.41 KCAL/MOL
REMARK 927      BINDING AFFINITY PREDICTED BY RF-SCORE:    0.00 PKD
ROOT
HETATM    1  C   UNL     1     -10.198  11.114  65.485  1.00  0.00    -0.319 C  
HETATM    2  C   UNL     1     -10.951   9.923  65.323  1.00  0.00     1.539 C  
HETATM    3  C   UNL     1     -11.333  10.854  66.423  1.00  0.00     0.193 C  
HETATM    4  C   UNL     1     -10.520  12.761  66.353  1.00  0.00    -0.250 C  
HETATM    5  O   UNL     1     -11.070  13.964  66.932  1.00  0.00    -0.292 OA 
HETATM    6  C   UNL     1      -9.032  10.842  66.877  1.00  0.00    -0.158 C  
HETATM    7  C   UNL     1     -11.719  12.233  65.973  1.00  0.00    -0.451 C  
HETATM    8  C   UNL     1     -12.174  12.241  67.827  1.00  0.00     0.233 C  
HETATM    9  C   UNL     1     -12.761  12.639  64.958  1.00  0.00    -0.403 C  
HETATM   10  C   UNL     1      -8.128   9.636  66.544  1.00  0.00    -0.119 C  
HETATM   11  H   UNL     1     -10.697  14.838  66.899  1.00  0.00     0.000 HD 
HETATM   12  C   UNL     1      -7.860   8.586  67.625  1.00  0.00    -0.103 C  
HETATM   13  C   UNL     1     -10.743  11.972  68.833  1.00  0.00    -0.222 C  
HETATM   14  C   UNL     1      -9.637  10.821  68.411  1.00  0.00    -0.177 C  
HETATM   15  C   UNL     1      -8.484   8.704  68.985  1.00  0.00    -0.124 C  
HETATM   16  C   UNL     1      -8.204   7.720  69.859  1.00  0.00    -0.125 C  
HETATM   17  C   UNL     1      -9.357   9.816  69.304  1.00  0.00    -0.198 C  
HETATM   18  O   UNL     1      -8.414   6.710  71.951  1.00  0.00    -0.114 OA 
HETATM   19  C   UNL     1     -10.021   9.790  70.679  1.00  0.00    -0.215 C  
HETATM   20  C   UNL     1      -9.670   8.717  71.705  1.00  0.00    -0.366 C  
HETATM   21  C   UNL     1      -8.740   7.649  71.227  1.00  0.00    -0.131 C  
ENDROOT
BRANCH   4  22
HETATM   22  C   UNL     1      -9.846  13.528  65.074  1.00  0.00    -0.084 C  
HETATM   23  C   UNL     1      -9.317  14.466  64.341  1.00  0.00     3.101 C  
HETATM   24  C   UNL     1      -8.701  15.561  63.484  1.00  0.00    16.461 C  
ENDBRANCH   4  22
BRANCH  13  25
HETATM   25  C   UNL     1     -10.010  13.251  69.272  1.00  0.00     0.491 A  
HETATM   26  C   UNL     1      -9.144  14.653  71.060  1.00  0.00     3.179 A  
HETATM   27  C   UNL     1      -8.143  14.754  68.908  1.00  0.00    -0.160 A  
HETATM   28  C   UNL     1      -9.086  13.841  68.412  1.00  0.00    -0.175 A  
HETATM   29  C   UNL     1     -10.103  13.768  70.571  1.00  0.00     2.836 A  
HETATM   30  C   UNL     1      -8.093  15.112  70.263  1.00  0.00     0.739 A  
BRANCH  30  31
HETATM   31  N   UNL     1      -7.057  15.845  70.808  1.00  0.00     1.394 NA 
HETATM   32  C   UNL     1      -6.440  15.501  72.079  1.00  0.00     2.232 C  
HETATM   33  C   UNL     1      -6.581  17.070  70.172  1.00  0.00     0.501 C  
ENDBRANCH  30  31
ENDBRANCH  13  25
TORSDOF 3
ENDMDL
MODEL      116
REMARK 921   NORMALIZED FREE ENERGY PREDICTED BY IDOCK:   26.27 KCAL/MOL
REMARK 922        TOTAL FREE ENERGY PREDICTED BY IDOCK:   30.25 KCAL/MOL
REMARK 923 INTER-LIGAND FREE ENERGY PREDICTED BY IDOCK:   30.80 KCAL/MOL
REMARK 924 INTRA-LIGAND FREE ENERGY PREDICTED BY IDOCK:   -0.55 KCAL/MOL
REMARK 927      BINDING AFFINITY PREDICTED BY RF-SCORE:    0.00 PKD
ROOT
HETATM    1  C   UNL     1     -11.919   7.406  67.081  1.00  0.00     3.250 C  
HETATM    2  C   UNL     1     -12.553   7.525  65.818  1.00  0.00    12.692 C  
HETATM    3  C   UNL     1     -11.065   7.424  65.854  1.00  0.00     3.356 C  
HETATM    4  C   UNL     1     -10.217   6.809  67.644  1.00  0.00    -0.179 C  
HETATM    5  O   UNL     1      -8.942   6.154  67.824  1.00  0.00    -0.117 OA 
HETATM    6  C   UNL     1     -11.257   9.062  67.522  1.00  0.00     0.521 C  
HETATM    7  C   UNL     1     -10.535   6.169  66.482  1.00  0.00    -0.195 C  
HETATM    8  C   UNL     1      -8.970   6.976  65.747  1.00  0.00    -0.037 C  
HETATM    9  C   UNL     1     -10.853   4.733  66.139  1.00  0.00    -0.013 C  
HETATM   10  C   UNL     1     -12.423  10.072  67.559  1.00  0.00     5.447 C  
HETATM   11  H   UNL     1      -8.554   5.872  68.645  1.00  0.00     0.000 HD 
HETATM   12  C   UNL     1     -12.241  11.444  66.906  1.00  0.00     1.345 C  
HETATM   13  C   UNL     1      -8.672   8.561  66.475  1.00  0.00    -0.149 C  
HETATM   14  C   UNL     1      -9.924   9.610  66.721  1.00  0.00    -0.289 C  
HETATM   15  C   UNL     1     -10.961  11.802  66.211  1.00  0.00    -0.346 C  
HETATM   16  C   UNL     1     -10.905  13.024  65.649  1.00  0.00    -0.293 C  
HETATM   17  C   UNL     1      -9.867  10.854  66.142  1.00  0.00    -0.268 C  
HETATM   18  O   UNL     1      -9.795  14.679  64.438  1.00  0.00     0.229 OA 
HETATM   19  C   UNL     1      -8.647  11.276  65.326  1.00  0.00     0.115 C  
HETATM   20  C   UNL     1      -8.541  12.678  64.733  1.00  0.00     2.402 C  
HETATM   21  C   UNL     1      -9.747  13.543  64.906  1.00  0.00     0.155 C  
ENDROOT
BRANCH   4  22
HETATM   22  C   UNL     1     -10.938   6.038  68.894  1.00  0.00    -0.395 C  
HETATM   23  C   UNL     1     -11.755   5.784  69.877  1.00  0.00     0.839 C  
HETATM   24  C   UNL     1     -12.707   5.488  71.025  1.00  0.00     3.218 C  
ENDBRANCH   4  22
BRANCH  13  25
HETATM   25  C   UNL     1      -7.766   8.544  67.718  1.00  0.00    -0.103 A  
HETATM   26  C   UNL     1      -7.543   8.555  70.139  1.00  0.00    -0.068 A  
HETATM   27  C   UNL     1      -5.828   7.584  68.812  1.00  0.00    -0.023 A  
HETATM   28  C   UNL     1      -6.507   7.953  67.641  1.00  0.00    -0.056 A  
HETATM   29  C   UNL     1      -8.211   8.952  68.982  1.00  0.00    -0.116 A  
HETATM   30  C   UNL     1      -6.373   7.794  70.088  1.00  0.00    -0.033 A  
BRANCH  30  31
HETATM   31  N   UNL     1      -5.822   7.261  71.236  1.00  0.00    -0.036 NA 
HETATM   32  C   UNL     1      -5.396   8.085  72.355  1.00  0.00    -0.036 C  
HETATM   33  C   UNL     1      -5.553   5.831  71.352  1.00  0.00    -0.021 C  
ENDBRANCH  30  31
ENDBRANCH  13  25
TORSDOF 3
ENDMDL
MODEL      117
REMARK 921   NORMALIZED FREE ENERGY PREDICTED BY IDOCK:   27.41 KCAL/MOL
REMARK 922        TOTAL FREE ENERGY PREDICTED BY IDOCK:   31.58 KCAL/MOL
REMARK 923 INTER-LIGAND FREE ENERGY PREDICTED BY IDOCK:   29.81 KCAL/MOL
REMARK 924 INTRA-LIGAND FREE ENERGY PREDICTED BY IDOCK:    1.78 KCAL/MOL
REMARK 927      BINDING AFFINITY PREDICTED BY RF-SCORE:    0.00 PKD
ROOT
HETATM    1  C   UNL     1      -9.443  17.440  68.941  1.00  0.00    -0.201 C  
HETATM    2  C   UNL     1      -8.917  18.128  67.817  1.00  0.00    -0.266 C  
HETATM    3  C   UNL     1     -10.225  17.426  67.667  1.00  0.00    -0.342 C  
HETATM    4  C   UNL     1     -11.165  16.826  69.415  1.00  0.00     0.035 C  
HETATM    5  O   UNL     1     -12.580  16.613  69.615  1.00  0.00     0.145 OA 
HETATM    6  C   UNL     1      -9.093  15.653  68.705  1.00  0.00    -0.208 C  
HETATM    7  C   UNL     1     -11.305  17.905  68.592  1.00  0.00     1.140 C  
HETATM    8  C   UNL     1     -12.238  16.732  67.410  1.00  0.00     2.207 C  
HETATM    9  C   UNL     1     -11.821  19.308  68.795  1.00  0.00     4.182 C  
HETATM   10  C   UNL     1      -7.568  15.455  68.575  1.00  0.00    -0.122 C  
HETATM   11  H   UNL     1     -13.010  16.339  70.416  1.00  0.00     0.000 HD 
HETATM   12  C   UNL     1      -7.028  14.528  67.484  1.00  0.00    -0.188 C  
HETATM   13  C   UNL     1     -11.603  15.084  67.518  1.00  0.00    -0.315 C  
HETATM   14  C   UNL     1      -9.972  14.826  67.582  1.00  0.00    -0.226 C  
HETATM   15  C   UNL     1      -7.958  13.837  66.531  1.00  0.00     0.880 C  
HETATM   16  C   UNL     1      -7.386  13.059  65.593  1.00  0.00     4.799 C  
HETATM   17  C   UNL     1      -9.391  14.036  66.621  1.00  0.00    -0.292 C  
HETATM   18  O   UNL     1      -7.511  11.632  63.752  1.00  0.00     1.731 OA 
HETATM   19  C   UNL     1     -10.242  13.370  65.542  1.00  0.00    -0.300 C  
HETATM   20  C   UNL     1      -9.619  12.437  64.509  1.00  0.00     0.138 C  
HETATM   21  C   UNL     1      -8.129  12.324  64.559  1.00  0.00     3.317 C  
ENDROOT
BRANCH   4  22
HETATM   22  C   UNL     1     -10.895  17.350  70.941  1.00  0.00     1.473 C  
HETATM   23  C   UNL     1     -10.888  18.115  71.997  1.00  0.00     3.108 C  
HETATM   24  C   UNL     1     -10.877  19.007  73.228  1.00  0.00     3.206 C  
ENDBRANCH   4  22
BRANCH  13  25
HETATM   25  C   UNL     1     -12.305  14.185  68.550  1.00  0.00    -0.031 A  
HETATM   26  C   UNL     1     -12.237  12.254  70.027  1.00  0.00    -0.267 A  
HETATM   27  C   UNL     1     -13.694  14.061  70.532  1.00  0.00     0.641 A  
HETATM   28  C   UNL     1     -13.310  14.718  69.354  1.00  0.00     1.686 A  
HETATM   29  C   UNL     1     -11.869  12.885  68.839  1.00  0.00    -0.352 A  
HETATM   30  C   UNL     1     -13.101  12.858  70.943  1.00  0.00     0.092 A  
BRANCH  30  31
HETATM   31  N   UNL     1     -13.316  12.302  72.189  1.00  0.00    -0.484 NA 
HETATM   32  C   UNL     1     -14.139  11.122  72.387  1.00  0.00     0.961 C  
HETATM   33  C   UNL     1     -12.792  12.933  73.398  1.00  0.00     3.660 C  
ENDBRANCH  30  31
ENDBRANCH  13  25
TORSDOF 3
ENDMDL
MODEL      118
REMARK 921   NORMALIZED FREE ENERGY PREDICTED BY IDOCK:   31.10 KCAL/MOL
REMARK 922        TOTAL FREE ENERGY PREDICTED BY IDOCK:   35.92 KCAL/MOL
REMARK 923 INTER-LIGAND FREE ENERGY PREDICTED BY IDOCK:   36.28 KCAL/MOL
REMARK 924 INTRA-LIGAND FREE ENERGY PREDICTED BY IDOCK:   -0.36 KCAL/MOL
REMARK 927      BINDING AFFINITY PREDICTED BY RF-SCORE:    0.00 PKD
ROOT
HETATM    1  C   UNL     1     -10.691  10.367  71.533  1.00  0.00     1.609 C  
HETATM    2  C   UNL     1     -11.975  10.970  71.571  1.00  0.00     0.146 C  
HETATM    3  C   UNL     1     -11.877   9.545  71.141  1.00  0.00    -0.436 C  
HETATM    4  C   UNL     1     -10.082   8.579  71.522  1.00  0.00    -0.245 C  
HETATM    5  O   UNL     1      -9.875   7.160  71.693  1.00  0.00    -0.164 OA 
HETATM    6  C   UNL     1     -10.144  10.349  69.780  1.00  0.00    -0.201 C  
HETATM    7  C   UNL     1     -11.285   8.619  72.163  1.00  0.00    -0.438 C  
HETATM    8  C   UNL     1     -11.911   7.426  70.811  1.00  0.00    -0.288 C  
HETATM    9  C   UNL     1     -11.710   8.396  73.594  1.00  0.00     2.650 C  
HETATM   10  C   UNL     1     -10.112  11.799  69.252  1.00  0.00     0.216 C  
HETATM   11  H   UNL     1      -9.053   6.718  71.867  1.00  0.00     0.000 HD 
HETATM   12  C   UNL     1     -10.691  12.101  67.868  1.00  0.00    -0.237 C  
HETATM   13  C   UNL     1     -11.097   7.730  69.269  1.00  0.00     0.095 C  
HETATM   14  C   UNL     1     -10.858   9.279  68.749  1.00  0.00    -0.123 C  
HETATM   15  C   UNL     1     -11.310  11.015  67.039  1.00  0.00    -0.164 C  
HETATM   16  C   UNL     1     -11.811  11.384  65.846  1.00  0.00     0.588 C  
HETATM   17  C   UNL     1     -11.375   9.653  67.533  1.00  0.00     0.452 C  
HETATM   18  O   UNL     1     -12.892  10.905  63.835  1.00  0.00     1.645 OA 
HETATM   19  C   UNL     1     -12.114   8.644  66.658  1.00  0.00     7.250 C  
HETATM   20  C   UNL     1     -12.635   9.028  65.277  1.00  0.00    16.715 C  
HETATM   21  C   UNL     1     -12.476  10.468  64.906  1.00  0.00     5.641 C  
ENDROOT
BRANCH   4  22
HETATM   22  C   UNL     1      -8.903   9.010  72.572  1.00  0.00     0.534 C  
HETATM   23  C   UNL     1      -7.722   9.271  73.057  1.00  0.00     1.260 C  
HETATM   24  C   UNL     1      -6.344   9.573  73.623  1.00  0.00     0.612 C  
ENDBRANCH   4  22
BRANCH  13  25
HETATM   25  C   UNL     1      -9.817   6.909  69.039  1.00  0.00    -0.152 A  
HETATM   26  C   UNL     1      -8.679   5.092  67.892  1.00  0.00    -0.104 A  
HETATM   27  C   UNL     1      -7.416   6.932  68.706  1.00  0.00    -0.099 A  
HETATM   28  C   UNL     1      -8.574   7.501  69.256  1.00  0.00    -0.136 A  
HETATM   29  C   UNL     1      -9.831   5.633  68.460  1.00  0.00    -0.185 A  
HETATM   30  C   UNL     1      -7.454   5.762  67.933  1.00  0.00    -0.078 A  
BRANCH  30  31
HETATM   31  N   UNL     1      -6.368   5.299  67.217  1.00  0.00    -0.035 NA 
HETATM   32  C   UNL     1      -5.222   4.671  67.854  1.00  0.00    -0.011 C  
HETATM   33  C   UNL     1      -6.272   5.500  65.774  1.00  0.00    -0.034 C  
ENDBRANCH  30  31
ENDBRANCH  13  25
TORSDOF 3
ENDMDL
MODEL      119
REMARK 921   NORMALIZED FREE ENERGY PREDICTED BY IDOCK:   31.10 KCAL/MOL
REMARK 922        TOTAL FREE ENERGY PREDICTED BY IDOCK:   35.92 KCAL/MOL
REMARK 923 INTER-LIGAND FREE ENERGY PREDICTED BY IDOCK:   33.43 KCAL/MOL
REMARK 924 INTRA-LIGAND FREE ENERGY PREDICTED BY IDOCK:    2.49 KCAL/MOL
REMARK 927      BINDING AFFINITY PREDICTED BY RF-SCORE:    0.00 PKD
ROOT
HETATM    1  C   UNL     1      -9.361  12.569  70.429  1.00  0.00     5.568 C  
HETATM    2  C   UNL     1      -9.781  13.922  70.349  1.00  0.00     2.786 C  
HETATM    3  C   UNL     1     -10.780  12.854  70.053  1.00  0.00     1.054 C  
HETATM    4  C   UNL     1     -10.268  10.923  70.609  1.00  0.00     1.723 C  
HETATM    5  O   UNL     1     -11.170   9.837  70.916  1.00  0.00    -0.304 OA 
HETATM    6  C   UNL     1      -9.061  11.984  68.715  1.00  0.00     0.074 C  
HETATM    7  C   UNL     1     -11.030  11.898  71.182  1.00  0.00     3.461 C  
HETATM    8  C   UNL     1     -12.375  11.427  69.913  1.00  0.00    -0.280 C  
HETATM    9  C   UNL     1     -11.435  12.201  72.605  1.00  0.00     7.605 C  
HETATM   10  C   UNL     1      -7.986  12.879  68.062  1.00  0.00    -0.158 C  
HETATM   11  H   UNL     1     -10.935   8.952  71.171  1.00  0.00     0.000 HD 
HETATM   12  C   UNL     1      -8.199  13.373  66.629  1.00  0.00     0.329 C  
HETATM   13  C   UNL     1     -11.652  10.881  68.393  1.00  0.00    -0.346 C  
HETATM   14  C   UNL     1     -10.365  11.692  67.749  1.00  0.00    -0.202 C  
HETATM   15  C   UNL     1      -9.445  13.021  65.870  1.00  0.00    -0.047 C  
HETATM   16  C   UNL     1      -9.549  13.520  64.625  1.00  0.00     0.562 C  
HETATM   17  C   UNL     1     -10.476  12.205  66.480  1.00  0.00    -0.254 C  
HETATM   18  O   UNL     1     -10.695  13.800  62.613  1.00  0.00     3.198 OA 
HETATM   19  C   UNL     1     -11.747  11.988  65.662  1.00  0.00    -0.312 C  
HETATM   20  C   UNL     1     -11.860  12.495  64.228  1.00  0.00    -0.468 C  
HETATM   21  C   UNL     1     -10.702  13.305  63.738  1.00  0.00     0.066 C  
ENDROOT
BRANCH   4  22
HETATM   22  C   UNL     1      -9.122  10.445  71.674  1.00  0.00     5.077 C  
HETATM   23  C   UNL     1      -8.477   9.724  72.548  1.00  0.00     3.705 C  
HETATM   24  C   UNL     1      -7.726   8.885  73.568  1.00  0.00     0.402 C  
ENDBRANCH   4  22
BRANCH  13  25
HETATM   25  C   UNL     1     -11.400   9.367  68.302  1.00  0.00     0.299 A  
HETATM   26  C   UNL     1     -10.666   7.446  67.004  1.00  0.00    -0.389 A  
HETATM   27  C   UNL     1     -10.514   7.382  69.374  1.00  0.00    -0.220 A  
HETATM   28  C   UNL     1     -11.110   8.648  69.460  1.00  0.00     0.019 A  
HETATM   29  C   UNL     1     -11.286   8.692  67.079  1.00  0.00     0.918 A  
HETATM   30  C   UNL     1     -10.194   6.790  68.143  1.00  0.00    -0.174 A  
BRANCH  30  31
HETATM   31  N   UNL     1      -9.428   5.645  68.037  1.00  0.00    -0.108 NA 
HETATM   32  C   UNL     1      -9.996   4.355  67.686  1.00  0.00    -0.053 C  
HETATM   33  C   UNL     1      -8.005   5.655  68.363  1.00  0.00    -0.100 C  
ENDBRANCH  30  31
ENDBRANCH  13  25
TORSDOF 3
ENDMDL
MODEL      120
REMARK 921   NORMALIZED FREE ENERGY PREDICTED BY IDOCK:   32.16 KCAL/MOL
REMARK 922        TOTAL FREE ENERGY PREDICTED BY IDOCK:   37.17 KCAL/MOL
REMARK 923 INTER-LIGAND FREE ENERGY PREDICTED BY IDOCK:   36.19 KCAL/MOL
REMARK 924 INTRA-LIGAND FREE ENERGY PREDICTED BY IDOCK:    0.98 KCAL/MOL
REMARK 927      BINDING AFFINITY PREDICTED BY RF-SCORE:    0.00 PKD
ROOT
HETATM    1  C   UNL     1     -10.629  10.197  64.367  1.00  0.00     0.858 C  
HETATM    2  C   UNL     1     -11.702   9.303  64.116  1.00  0.00    11.736 C  
HETATM    3  C   UNL     1     -11.908  10.389  65.118  1.00  0.00     3.341 C  
HETATM    4  C   UNL     1     -10.510  11.921  65.130  1.00  0.00    -0.287 C  
HETATM    5  O   UNL     1     -10.708  13.278  65.583  1.00  0.00    -0.275 OA 
HETATM    6  C   UNL     1      -9.829   9.671  65.934  1.00  0.00    -0.358 C  
HETATM    7  C   UNL     1     -11.749  11.780  64.578  1.00  0.00    -0.269 C  
HETATM    8  C   UNL     1     -12.435  12.076  66.334  1.00  0.00     1.207 C  
HETATM    9  C   UNL     1     -12.443  12.421  63.400  1.00  0.00    -0.554 C  
HETATM   10  C   UNL     1      -9.337   8.216  65.780  1.00  0.00    -0.053 C  
HETATM   11  H   UNL     1     -10.068  13.980  65.588  1.00  0.00     0.000 HD 
HETATM   12  C   UNL     1      -9.587   7.222  66.916  1.00  0.00    -0.225 C  
HETATM   13  C   UNL     1     -11.332  11.438  67.562  1.00  0.00    -0.362 C  
HETATM   14  C   UNL     1     -10.619   9.963  67.351  1.00  0.00    -0.338 C  
HETATM   15  C   UNL     1     -10.324   7.637  68.155  1.00  0.00    -0.250 C  
HETATM   16  C   UNL     1     -10.512   6.686  69.088  1.00  0.00    -0.250 C  
HETATM   17  C   UNL     1     -10.818   8.992  68.302  1.00  0.00    -0.072 C  
HETATM   18  O   UNL     1     -11.340   5.960  71.144  1.00  0.00    -0.262 OA 
HETATM   19  C   UNL     1     -11.642   9.287  69.554  1.00  0.00     0.308 C  
HETATM   20  C   UNL     1     -11.815   8.240  70.649  1.00  0.00    -0.092 C  
HETATM   21  C   UNL     1     -11.231   6.895  70.354  1.00  0.00    -0.312 C  
ENDROOT
BRANCH   4  22
HETATM   22  C   UNL     1      -9.446  12.330  63.956  1.00  0.00     0.210 C  
HETATM   23  C   UNL     1      -8.519  12.975  63.306  1.00  0.00     6.662 C  
HETATM   24  C   UNL     1      -7.438  13.727  62.546  1.00  0.00    15.956 C  
ENDBRANCH   4  22
BRANCH  13  25
HETATM   25  C   UNL     1     -10.288  12.442  68.080  1.00  0.00    -0.220 A  
HETATM   26  C   UNL     1      -8.032  12.888  68.871  1.00  0.00     0.182 A  
HETATM   27  C   UNL     1      -9.275  14.631  67.841  1.00  0.00    -0.197 A  
HETATM   28  C   UNL     1     -10.385  13.783  67.714  1.00  0.00    -0.241 A  
HETATM   29  C   UNL     1      -9.138  12.045  68.776  1.00  0.00     0.074 A  
HETATM   30  C   UNL     1      -8.044  14.179  68.339  1.00  0.00    -0.144 A  
BRANCH  30  31
HETATM   31  N   UNL     1      -6.889  14.934  68.284  1.00  0.00    -0.110 NA 
HETATM   32  C   UNL     1      -5.997  14.918  67.137  1.00  0.00     0.689 C  
HETATM   33  C   UNL     1      -6.452  15.731  69.428  1.00  0.00    -0.165 C  
ENDBRANCH  30  31
ENDBRANCH  13  25
TORSDOF 3
ENDMDL
MODEL      121
REMARK 921   NORMALIZED FREE ENERGY PREDICTED BY IDOCK:   35.19 KCAL/MOL
REMARK 922        TOTAL FREE ENERGY PREDICTED BY IDOCK:   40.72 KCAL/MOL
REMARK 923 INTER-LIGAND FREE ENERGY PREDICTED BY IDOCK:   37.99 KCAL/MOL
REMARK 924 INTRA-LIGAND FREE ENERGY PREDICTED BY IDOCK:    2.73 KCAL/MOL
REMARK 927      BINDING AFFINITY PREDICTED BY RF-SCORE:    0.00 PKD
ROOT
HETATM    1  C   UNL     1     -12.294  14.907  67.036  1.00  0.00     0.312 C  
HETATM    2  C   UNL     1     -13.622  14.437  66.874  1.00  0.00     4.601 C  
HETATM    3  C   UNL     1     -13.212  14.943  68.216  1.00  0.00     3.139 C  
HETATM    4  C   UNL     1     -11.442  16.020  68.303  1.00  0.00    -0.291 C  
HETATM    5  O   UNL     1     -11.076  17.016  69.282  1.00  0.00    -0.301 OA 
HETATM    6  C   UNL     1     -11.338  13.576  67.866  1.00  0.00    -0.320 C  
HETATM    7  C   UNL     1     -12.758  16.373  68.236  1.00  0.00     2.415 C  
HETATM    8  C   UNL     1     -12.849  15.923  70.089  1.00  0.00     0.301 C  
HETATM    9  C   UNL     1     -13.482  17.601  67.740  1.00  0.00     8.493 C  
HETATM   10  C   UNL     1     -11.392  12.304  66.995  1.00  0.00    -0.395 C  
HETATM   11  H   UNL     1     -10.265  17.509  69.322  1.00  0.00     0.000 HD 
HETATM   12  C   UNL     1     -11.653  10.953  67.665  1.00  0.00    -0.171 C  
HETATM   13  C   UNL     1     -11.737  14.603  70.477  1.00  0.00    -0.345 C  
HETATM   14  C   UNL     1     -11.611  13.301  69.469  1.00  0.00    -0.349 C  
HETATM   15  C   UNL     1     -11.883  10.859  69.144  1.00  0.00    -0.389 C  
HETATM   16  C   UNL     1     -12.125   9.630  69.636  1.00  0.00     0.439 C  
HETATM   17  C   UNL     1     -11.864  12.049  69.973  1.00  0.00    -0.392 C  
HETATM   18  O   UNL     1     -12.598   8.180  71.402  1.00  0.00    -0.310 OA 
HETATM   19  C   UNL     1     -12.208  11.859  71.448  1.00  0.00     0.074 C  
HETATM   20  C   UNL     1     -12.426  10.469  72.036  1.00  0.00    -0.079 C  
HETATM   21  C   UNL     1     -12.397   9.342  71.053  1.00  0.00    -0.258 C  
ENDROOT
BRANCH   4  22
HETATM   22  C   UNL     1     -10.634  16.740  67.076  1.00  0.00    -0.234 C  
HETATM   23  C   UNL     1     -10.398  17.375  65.962  1.00  0.00    -0.309 C  
HETATM   24  C   UNL     1     -10.122  18.114  64.663  1.00  0.00     3.865 C  
ENDBRANCH   4  22
BRANCH  13  25
HETATM   25  C   UNL     1     -10.333  15.047  70.919  1.00  0.00     0.464 A  
HETATM   26  C   UNL     1      -8.149  14.474  71.822  1.00  0.00     5.104 A  
HETATM   27  C   UNL     1      -8.372  16.385  70.427  1.00  0.00     2.464 A  
HETATM   28  C   UNL     1      -9.756  16.176  70.339  1.00  0.00     0.994 A  
HETATM   29  C   UNL     1      -9.527  14.274  71.765  1.00  0.00     6.489 A  
HETATM   30  C   UNL     1      -7.523  15.489  71.094  1.00  0.00     2.640 A  
BRANCH  30  31
HETATM   31  N   UNL     1      -6.146  15.564  71.022  1.00  0.00     0.305 NA 
HETATM   32  C   UNL     1      -5.287  15.308  72.166  1.00  0.00     0.177 C  
HETATM   33  C   UNL     1      -5.476  15.998  69.799  1.00  0.00    -0.137 C  
ENDBRANCH  30  31
ENDBRANCH  13  25
TORSDOF 3
ENDMDL
MODEL      122
REMARK 921   NORMALIZED FREE ENERGY PREDICTED BY IDOCK:   39.94 KCAL/MOL
REMARK 922        TOTAL FREE ENERGY PREDICTED BY IDOCK:   46.31 KCAL/MOL
REMARK 923 INTER-LIGAND FREE ENERGY PREDICTED BY IDOCK:   46.10 KCAL/MOL
REMARK 924 INTRA-LIGAND FREE ENERGY PREDICTED BY IDOCK:    0.21 KCAL/MOL
REMARK 927      BINDING AFFINITY PREDICTED BY RF-SCORE:    0.00 PKD
ROOT
HETATM    1  C   UNL     1     -11.718  12.180  64.668  1.00  0.00    -0.400 C  
HETATM    2  C   UNL     1     -11.384  13.327  63.903  1.00  0.00    -0.360 C  
HETATM    3  C   UNL     1     -10.309  12.679  64.709  1.00  0.00    -0.335 C  
HETATM    4  C   UNL     1     -10.712  10.782  65.443  1.00  0.00    -0.079 C  
HETATM    5  O   UNL     1      -9.752   9.757  65.782  1.00  0.00    -0.234 OA 
HETATM    6  C   UNL     1     -11.924  12.723  66.410  1.00  0.00    -0.443 C  
HETATM    7  C   UNL     1     -10.034  11.248  64.355  1.00  0.00    -0.338 C  
HETATM    8  C   UNL     1      -8.621  11.671  65.565  1.00  0.00     0.272 C  
HETATM    9  C   UNL     1      -9.696  10.656  63.007  1.00  0.00    -0.362 C  
HETATM   10  C   UNL     1     -13.032  13.795  66.472  1.00  0.00     0.495 C  
HETATM   11  H   UNL     1      -9.937   8.888  66.118  1.00  0.00     0.000 HD 
HETATM   12  C   UNL     1     -12.806  15.052  67.315  1.00  0.00     1.828 C  
HETATM   13  C   UNL     1      -9.258  12.115  67.155  1.00  0.00    -0.193 C  
HETATM   14  C   UNL     1     -10.573  13.108  67.274  1.00  0.00    -0.250 C  
HETATM   15  C   UNL     1     -11.516  15.263  68.052  1.00  0.00    -0.351 C  
HETATM   16  C   UNL     1     -11.404  16.409  68.748  1.00  0.00    -0.277 C  
HETATM   17  C   UNL     1     -10.454  14.279  67.980  1.00  0.00    -0.235 C  
HETATM   18  O   UNL     1     -10.214  17.871  70.122  1.00  0.00     0.588 OA 
HETATM   19  C   UNL     1      -9.146  14.634  68.683  1.00  0.00    -0.189 C  
HETATM   20  C   UNL     1      -9.020  15.899  69.526  1.00  0.00    -0.135 C  
HETATM   21  C   UNL     1     -10.211  16.803  69.512  1.00  0.00    -0.166 C  
ENDROOT
BRANCH   4  22
HETATM   22  C   UNL     1     -11.859   9.726  64.945  1.00  0.00     7.105 C  
HETATM   23  C   UNL     1     -12.421   8.632  64.515  1.00  0.00    19.830 C  
HETATM   24  C   UNL     1     -13.077   7.357  64.011  1.00  0.00    20.677 C  
ENDBRANCH   4  22
BRANCH  13  25
HETATM   25  C   UNL     1      -9.408  10.946  68.143  1.00  0.00    -0.165 A  
HETATM   26  C   UNL     1      -8.563   8.850  69.043  1.00  0.00    -0.138 A  
HETATM   27  C   UNL     1      -9.917  10.247  70.408  1.00  0.00     0.176 A  
HETATM   28  C   UNL     1     -10.086  11.145  69.344  1.00  0.00     0.009 A  
HETATM   29  C   UNL     1      -8.749   9.721  67.971  1.00  0.00    -0.118 A  
HETATM   30  C   UNL     1      -9.078   9.126  70.311  1.00  0.00    -0.218 A  
BRANCH  30  31
HETATM   31  N   UNL     1      -8.738   8.347  71.400  1.00  0.00    -0.156 NA 
HETATM   32  C   UNL     1      -8.196   8.909  72.625  1.00  0.00     0.396 C  
HETATM   33  C   UNL     1      -8.824   6.890  71.342  1.00  0.00    -0.133 C  
ENDBRANCH  30  31
ENDBRANCH  13  25
TORSDOF 3
ENDMDL
MODEL      123
REMARK 921   NORMALIZED FREE ENERGY PREDICTED BY IDOCK:   40.21 KCAL/MOL
REMARK 922        TOTAL FREE ENERGY PREDICTED BY IDOCK:   46.63 KCAL/MOL
REMARK 923 INTER-LIGAND FREE ENERGY PREDICTED BY IDOCK:   44.17 KCAL/MOL
REMARK 924 INTRA-LIGAND FREE ENERGY PREDICTED BY IDOCK:    2.46 KCAL/MOL
REMARK 927      BINDING AFFINITY PREDICTED BY RF-SCORE:    0.00 PKD
ROOT
HETATM    1  C   UNL     1     -10.626  12.847  71.652  1.00  0.00     7.849 C  
HETATM    2  C   UNL     1     -10.433  14.127  72.233  1.00  0.00     4.830 C  
HETATM    3  C   UNL     1     -11.141  14.047  70.922  1.00  0.00     0.882 C  
HETATM    4  C   UNL     1     -11.794  12.169  70.331  1.00  0.00    -0.187 C  
HETATM    5  O   UNL     1     -12.889  11.869  69.439  1.00  0.00     0.391 OA 
HETATM    6  C   UNL     1      -9.354  12.641  70.343  1.00  0.00     5.582 C  
HETATM    7  C   UNL     1     -12.400  13.230  70.937  1.00  0.00    -0.413 C  
HETATM    8  C   UNL     1     -12.434  14.044  69.211  1.00  0.00    -0.046 C  
HETATM    9  C   UNL     1     -13.603  13.366  71.839  1.00  0.00    -0.494 C  
HETATM   10  C   UNL     1      -7.955  12.776  70.979  1.00  0.00     7.959 C  
HETATM   11  H   UNL     1     -13.188  11.008  69.169  1.00  0.00     0.000 HD 
HETATM   12  C   UNL     1      -6.893  13.619  70.271  1.00  0.00     0.467 C  
HETATM   13  C   UNL     1     -11.033  13.551  68.249  1.00  0.00    -0.280 C  
HETATM   14  C   UNL     1      -9.534  13.487  68.939  1.00  0.00     0.155 C  
HETATM   15  C   UNL     1      -7.206  14.333  68.989  1.00  0.00    -0.118 C  
HETATM   16  C   UNL     1      -6.212  15.067  68.454  1.00  0.00    -0.106 C  
HETATM   17  C   UNL     1      -8.524  14.240  68.393  1.00  0.00    -0.166 C  
HETATM   18  O   UNL     1      -5.363  16.485  66.808  1.00  0.00    -0.337 OA 
HETATM   19  C   UNL     1      -8.770  15.084  67.145  1.00  0.00    -0.242 C  
HETATM   20  C   UNL     1      -7.641  15.874  66.490  1.00  0.00    -0.020 C  
HETATM   21  C   UNL     1      -6.335  15.855  67.218  1.00  0.00    -0.113 C  
ENDROOT
BRANCH   4  22
HETATM   22  C   UNL     1     -12.007  10.834  71.254  1.00  0.00    -0.286 C  
HETATM   23  C   UNL     1     -12.318   9.619  71.607  1.00  0.00    -0.489 C  
HETATM   24  C   UNL     1     -12.681   8.202  72.019  1.00  0.00    -0.355 C  
ENDBRANCH   4  22
BRANCH  13  25
HETATM   25  C   UNL     1     -11.251  12.301  67.380  1.00  0.00    -0.358 A  
HETATM   26  C   UNL     1     -10.376  10.687  65.785  1.00  0.00    -0.287 A  
HETATM   27  C   UNL     1     -12.149  10.054  67.235  1.00  0.00     3.544 A  
HETATM   28  C   UNL     1     -12.192  11.349  67.770  1.00  0.00     0.493 A  
HETATM   29  C   UNL     1     -10.429  11.985  66.290  1.00  0.00    -0.273 A  
HETATM   30  C   UNL     1     -11.181   9.666  66.295  1.00  0.00     1.222 A  
BRANCH  30  31
HETATM   31  N   UNL     1     -10.993   8.354  65.909  1.00  0.00     2.354 NA 
HETATM   32  C   UNL     1     -10.435   7.349  66.798  1.00  0.00    -0.246 C  
HETATM   33  C   UNL     1     -11.266   7.922  64.541  1.00  0.00    13.262 C  
ENDBRANCH  30  31
ENDBRANCH  13  25
TORSDOF 3
ENDMDL
MODEL      124
REMARK 921   NORMALIZED FREE ENERGY PREDICTED BY IDOCK:   42.68 KCAL/MOL
REMARK 922        TOTAL FREE ENERGY PREDICTED BY IDOCK:   49.53 KCAL/MOL
REMARK 923 INTER-LIGAND FREE ENERGY PREDICTED BY IDOCK:   49.13 KCAL/MOL
REMARK 924 INTRA-LIGAND FREE ENERGY PREDICTED BY IDOCK:    0.40 KCAL/MOL
REMARK 927      BINDING AFFINITY PREDICTED BY RF-SCORE:    0.00 PKD
ROOT
HETATM    1  C   UNL     1      -8.292  11.781  69.956  1.00  0.00     2.483 C  
HETATM    2  C   UNL     1      -8.546  13.129  69.594  1.00  0.00     1.810 C  
HETATM    3  C   UNL     1      -9.710  12.210  69.753  1.00  0.00     1.823 C  
HETATM    4  C   UNL     1      -9.346  10.404  70.704  1.00  0.00     1.345 C  
HETATM    5  O   UNL     1     -10.297   9.592  71.427  1.00  0.00    -0.302 OA 
HETATM    6  C   UNL     1      -8.417  10.768  68.429  1.00  0.00    -0.137 C  
HETATM    7  C   UNL     1      -9.848  11.602  71.118  1.00  0.00     7.751 C  
HETATM    8  C   UNL     1     -11.468  11.087  70.251  1.00  0.00    -0.363 C  
HETATM    9  C   UNL     1      -9.919  12.294  72.458  1.00  0.00    19.243 C  
HETATM   10  C   UNL     1      -7.390  11.287  67.400  1.00  0.00    -0.115 C  
HETATM   11  H   UNL     1     -10.130   8.764  71.863  1.00  0.00     0.000 HD 
HETATM   12  C   UNL     1      -7.821  11.461  65.942  1.00  0.00     0.208 C  
HETATM   13  C   UNL     1     -11.137  10.084  68.830  1.00  0.00    -0.219 C  
HETATM   14  C   UNL     1      -9.913  10.488  67.797  1.00  0.00    -0.198 C  
HETATM   15  C   UNL     1      -9.227  11.161  65.513  1.00  0.00    -0.236 C  
HETATM   16  C   UNL     1      -9.514  11.366  64.215  1.00  0.00    -0.153 C  
HETATM   17  C   UNL     1     -10.210  10.701  66.474  1.00  0.00    -0.288 C  
HETATM   18  O   UNL     1     -10.995  11.360  62.412  1.00  0.00     0.845 OA 
HETATM   19  C   UNL     1     -11.636  10.521  65.958  1.00  0.00     1.403 C  
HETATM   20  C   UNL     1     -11.968  10.690  64.479  1.00  0.00     2.804 C  
HETATM   21  C   UNL     1     -10.839  11.152  63.614  1.00  0.00    -0.242 C  
ENDROOT
BRANCH   4  22
HETATM   22  C   UNL     1      -8.079   9.999  71.658  1.00  0.00     2.564 C  
HETATM   23  C   UNL     1      -7.369   9.403  72.574  1.00  0.00     1.070 C  
HETATM   24  C   UNL     1      -6.541   8.710  73.645  1.00  0.00    -0.055 C  
ENDBRANCH   4  22
BRANCH  13  25
HETATM   25  C   UNL     1     -11.102   8.570  69.099  1.00  0.00     0.174 A  
HETATM   26  C   UNL     1     -10.064   6.669  70.204  1.00  0.00    -0.200 A  
HETATM   27  C   UNL     1     -12.362   6.563  69.609  1.00  0.00     1.139 A  
HETATM   28  C   UNL     1     -12.280   7.831  69.014  1.00  0.00     2.601 A  
HETATM   29  C   UNL     1      -9.964   7.916  69.590  1.00  0.00    -0.191 A  
HETATM   30  C   UNL     1     -11.281   5.991  70.298  1.00  0.00    -0.322 A  
BRANCH  30  31
HETATM   31  N   UNL     1     -11.399   4.845  71.059  1.00  0.00     0.899 NA 
HETATM   32  C   UNL     1     -10.800   3.581  70.667  1.00  0.00     2.607 C  
HETATM   33  C   UNL     1     -12.216   4.822  72.269  1.00  0.00     1.383 C  
ENDBRANCH  30  31
ENDBRANCH  13  25
TORSDOF 3
ENDMDL
MODEL      125
REMARK 921   NORMALIZED FREE ENERGY PREDICTED BY IDOCK:   51.85 KCAL/MOL
REMARK 922        TOTAL FREE ENERGY PREDICTED BY IDOCK:   60.31 KCAL/MOL
REMARK 923 INTER-LIGAND FREE ENERGY PREDICTED BY IDOCK:   60.83 KCAL/MOL
REMARK 924 INTRA-LIGAND FREE ENERGY PREDICTED BY IDOCK:   -0.52 KCAL/MOL
REMARK 927      BINDING AFFINITY PREDICTED BY RF-SCORE:    0.00 PKD
ROOT
HETATM    1  C   UNL     1      -7.531  10.466  68.710  1.00  0.00    -0.093 C  
HETATM    2  C   UNL     1      -6.752  11.123  69.697  1.00  0.00    -0.134 C  
HETATM    3  C   UNL     1      -7.661  10.024  70.133  1.00  0.00    -0.168 C  
HETATM    4  C   UNL     1      -8.430   8.806  68.640  1.00  0.00    -0.129 C  
HETATM    5  O   UNL     1      -8.878   7.440  68.775  1.00  0.00    -0.131 OA 
HETATM    6  C   UNL     1      -9.232  11.152  68.806  1.00  0.00    -0.151 C  
HETATM    7  C   UNL     1      -7.380   8.691  69.504  1.00  0.00    -0.068 C  
HETATM    8  C   UNL     1      -8.678   8.272  70.838  1.00  0.00    -0.163 C  
HETATM    9  C   UNL     1      -6.085   7.916  69.468  1.00  0.00    -0.033 C  
HETATM   10  C   UNL     1      -9.171  12.675  68.565  1.00  0.00    -0.068 C  
HETATM   11  H   UNL     1      -9.230   6.882  68.091  1.00  0.00     0.000 HD 
HETATM   12  C   UNL     1      -9.982  13.605  69.471  1.00  0.00     0.689 C  
HETATM   13  C   UNL     1     -10.198   9.126  70.536  1.00  0.00    -0.288 C  
HETATM   14  C   UNL     1     -10.181  10.714  70.081  1.00  0.00     0.222 C  
HETATM   15  C   UNL     1     -10.807  13.056  70.597  1.00  0.00     2.407 C  
HETATM   16  C   UNL     1     -11.467  13.955  71.350  1.00  0.00     0.977 C  
HETATM   17  C   UNL     1     -10.851  11.630  70.854  1.00  0.00     2.633 C  
HETATM   18  O   UNL     1     -12.873  14.509  73.126  1.00  0.00    -0.483 OA 
HETATM   19  C   UNL     1     -11.638  11.182  72.084  1.00  0.00     3.326 C  
HETATM   20  C   UNL     1     -12.441  12.178  72.914  1.00  0.00     3.573 C  
HETATM   21  C   UNL     1     -12.304  13.611  72.509  1.00  0.00     0.404 C  
ENDROOT
BRANCH   4  22
HETATM   22  C   UNL     1      -7.886   8.615  67.109  1.00  0.00    -0.097 C  
HETATM   23  C   UNL     1      -7.108   8.311  66.108  1.00  0.00    -0.065 C  
HETATM   24  C   UNL     1      -6.201   7.958  64.940  1.00  0.00    -0.045 C  
ENDBRANCH   4  22
BRANCH  13  25
HETATM   25  C   UNL     1     -11.214   8.358  69.675  1.00  0.00     0.089 A  
HETATM   26  C   UNL     1     -12.374   8.088  67.555  1.00  0.00     6.671 A  
HETATM   27  C   UNL     1     -12.059   6.200  68.962  1.00  0.00     1.986 A  
HETATM   28  C   UNL     1     -11.452   7.009  69.934  1.00  0.00    -0.223 A  
HETATM   29  C   UNL     1     -11.799   8.906  68.526  1.00  0.00     1.937 A  
HETATM   30  C   UNL     1     -12.452   6.703  67.712  1.00  0.00     5.726 A  
BRANCH  30  31
HETATM   31  N   UNL     1     -12.862   5.892  66.672  1.00  0.00     7.157 NA 
HETATM   32  C   UNL     1     -12.007   5.583  65.539  1.00  0.00     3.028 C  
HETATM   33  C   UNL     1     -14.224   5.369  66.613  1.00  0.00    22.343 C  
ENDBRANCH  30  31
ENDBRANCH  13  25
TORSDOF 3
ENDMDL
MODEL      126
REMARK 921   NORMALIZED FREE ENERGY PREDICTED BY IDOCK:   55.07 KCAL/MOL
REMARK 922        TOTAL FREE ENERGY PREDICTED BY IDOCK:   64.09 KCAL/MOL
REMARK 923 INTER-LIGAND FREE ENERGY PREDICTED BY IDOCK:   61.96 KCAL/MOL
REMARK 924 INTRA-LIGAND FREE ENERGY PREDICTED BY IDOCK:    2.13 KCAL/MOL
REMARK 927      BINDING AFFINITY PREDICTED BY RF-SCORE:    0.00 PKD
ROOT
HETATM    1  C   UNL     1     -12.224  11.412  69.604  1.00  0.00    -0.316 C  
HETATM    2  C   UNL     1     -13.130  10.501  70.205  1.00  0.00     0.074 C  
HETATM    3  C   UNL     1     -12.357  11.416  71.093  1.00  0.00    -0.404 C  
HETATM    4  C   UNL     1     -11.398  13.011  70.178  1.00  0.00     0.227 C  
HETATM    5  O   UNL     1     -11.039  14.274  70.780  1.00  0.00    -0.478 OA 
HETATM    6  C   UNL     1     -10.536  10.713  69.793  1.00  0.00    -0.189 C  
HETATM    7  C   UNL     1     -12.583  12.878  70.840  1.00  0.00    -0.355 C  
HETATM    8  C   UNL     1     -11.551  12.874  72.444  1.00  0.00     4.350 C  
HETATM    9  C   UNL     1     -13.886  13.640  70.805  1.00  0.00     0.698 C  
HETATM   10  C   UNL     1     -10.489   9.328  69.113  1.00  0.00    -0.231 C  
HETATM   11  H   UNL     1     -10.600  15.004  70.360  1.00  0.00     0.000 HD 
HETATM   12  C   UNL     1      -9.805   8.167  69.836  1.00  0.00    -0.186 C  
HETATM   13  C   UNL     1      -9.966  12.133  72.178  1.00  0.00    16.500 C  
HETATM   14  C   UNL     1      -9.837  10.749  71.286  1.00  0.00     4.372 C  
HETATM   15  C   UNL     1      -9.208   8.354  71.200  1.00  0.00    -0.218 C  
HETATM   16  C   UNL     1      -8.647   7.267  71.763  1.00  0.00    -0.121 C  
HETATM   17  C   UNL     1      -9.269   9.641  71.864  1.00  0.00     1.694 C  
HETATM   18  O   UNL     1      -7.541   6.203  73.519  1.00  0.00    -0.095 OA 
HETATM   19  C   UNL     1      -8.723   9.701  73.289  1.00  0.00     4.348 C  
HETATM   20  C   UNL     1      -8.030   8.498  73.921  1.00  0.00    -0.095 C  
HETATM   21  C   UNL     1      -8.035   7.248  73.100  1.00  0.00    -0.101 C  
ENDROOT
BRANCH   4  22
HETATM   22  C   UNL     1     -11.682  13.649  68.698  1.00  0.00    -0.389 C  
HETATM   23  C   UNL     1     -11.985  14.507  67.765  1.00  0.00    -0.345 C  
HETATM   24  C   UNL     1     -12.340  15.507  66.676  1.00  0.00     1.202 C  
ENDBRANCH   4  22
BRANCH  13  25
HETATM   25  C   UNL     1      -8.853  13.112  71.769  1.00  0.00    16.253 A  
HETATM   26  C   UNL     1      -6.618  13.482  70.883  1.00  0.00     0.908 A  
HETATM   27  C   UNL     1      -8.269  15.172  70.634  1.00  0.00     1.624 A  
HETATM   28  C   UNL     1      -9.188  14.400  71.359  1.00  0.00     5.074 A  
HETATM   29  C   UNL     1      -7.515  12.719  71.630  1.00  0.00     8.482 A  
HETATM   30  C   UNL     1      -6.993  14.694  70.300  1.00  0.00     0.107 A  
BRANCH  30  31
HETATM   31  N   UNL     1      -6.153  15.348  69.421  1.00  0.00    -0.114 NA 
HETATM   32  C   UNL     1      -5.719  14.756  68.167  1.00  0.00    -0.130 C  
HETATM   33  C   UNL     1      -5.578  16.649  69.751  1.00  0.00    -0.186 C  
ENDBRANCH  30  31
ENDBRANCH  13  25
TORSDOF 3
ENDMDL
MODEL      127
REMARK 921   NORMALIZED FREE ENERGY PREDICTED BY IDOCK:   57.25 KCAL/MOL
REMARK 922        TOTAL FREE ENERGY PREDICTED BY IDOCK:   66.66 KCAL/MOL
REMARK 923 INTER-LIGAND FREE ENERGY PREDICTED BY IDOCK:   66.46 KCAL/MOL
REMARK 924 INTRA-LIGAND FREE ENERGY PREDICTED BY IDOCK:    0.20 KCAL/MOL
REMARK 927      BINDING AFFINITY PREDICTED BY RF-SCORE:    0.00 PKD
ROOT
HETATM    1  C   UNL     1     -10.890  18.053  69.929  1.00  0.00     1.474 C  
HETATM    2  C   UNL     1     -11.972  18.912  69.604  1.00  0.00     8.380 C  
HETATM    3  C   UNL     1     -12.252  17.456  69.767  1.00  0.00     4.834 C  
HETATM    4  C   UNL     1     -10.770  16.319  70.668  1.00  0.00     0.114 C  
HETATM    5  O   UNL     1     -10.940  15.080  71.392  1.00  0.00    -0.569 OA 
HETATM    6  C   UNL     1     -10.375  17.208  68.381  1.00  0.00    -0.362 C  
HETATM    7  C   UNL     1     -11.917  16.900  71.120  1.00  0.00     1.353 C  
HETATM    8  C   UNL     1     -12.840  15.457  70.278  1.00  0.00    -0.277 C  
HETATM    9  C   UNL     1     -12.378  17.375  72.477  1.00  0.00     2.794 C  
HETATM   10  C   UNL     1      -9.967  18.273  67.342  1.00  0.00    -0.344 C  
HETATM   11  H   UNL     1     -10.261  14.560  71.804  1.00  0.00     0.000 HD 
HETATM   12  C   UNL     1     -10.454  18.130  65.899  1.00  0.00    -0.292 C  
HETATM   13  C   UNL     1     -11.982  14.916  68.827  1.00  0.00    -0.284 C  
HETATM   14  C   UNL     1     -11.349  16.023  67.776  1.00  0.00    -0.167 C  
HETATM   15  C   UNL     1     -11.340  16.988  65.495  1.00  0.00     0.634 C  
HETATM   16  C   UNL     1     -11.733  16.961  64.208  1.00  0.00     1.247 C  
HETATM   17  C   UNL     1     -11.756  15.995  66.466  1.00  0.00     0.795 C  
HETATM   18  O   UNL     1     -12.912  15.999  62.439  1.00  0.00     5.691 OA 
HETATM   19  C   UNL     1     -12.738  14.933  65.977  1.00  0.00     0.519 C  
HETATM   20  C   UNL     1     -13.147  14.850  64.511  1.00  0.00     0.918 C  
HETATM   21  C   UNL     1     -12.619  15.938  63.632  1.00  0.00     1.655 C  
ENDROOT
BRANCH   4  22
HETATM   22  C   UNL     1      -9.514  16.833  71.583  1.00  0.00     7.270 C  
HETATM   23  C   UNL     1      -8.835  17.279  72.602  1.00  0.00    16.003 C  
HETATM   24  C   UNL     1      -8.043  17.802  73.790  1.00  0.00    13.884 C  
ENDBRANCH   4  22
BRANCH  13  25
HETATM   25  C   UNL     1     -10.962  13.789  69.060  1.00  0.00    -0.277 A  
HETATM   26  C   UNL     1     -10.360  11.715  70.178  1.00  0.00     1.488 A  
HETATM   27  C   UNL     1      -9.388  12.233  68.072  1.00  0.00    -0.195 A  
HETATM   28  C   UNL     1     -10.055  13.466  68.052  1.00  0.00    -0.241 A  
HETATM   29  C   UNL     1     -11.005  12.951  70.182  1.00  0.00     0.819 A  
HETATM   30  C   UNL     1      -9.594  11.289  69.090  1.00  0.00     0.060 A  
BRANCH  30  31
HETATM   31  N   UNL     1      -9.109   9.998  69.026  1.00  0.00    -0.160 NA 
HETATM   32  C   UNL     1      -9.655   9.002  68.120  1.00  0.00    -0.148 C  
HETATM   33  C   UNL     1      -8.069   9.535  69.940  1.00  0.00    -0.157 C  
ENDBRANCH  30  31
ENDBRANCH  13  25
TORSDOF 3
ENDMDL
MODEL      128
REMARK 921   NORMALIZED FREE ENERGY PREDICTED BY IDOCK:   59.91 KCAL/MOL
REMARK 922        TOTAL FREE ENERGY PREDICTED BY IDOCK:   69.78 KCAL/MOL
REMARK 923 INTER-LIGAND FREE ENERGY PREDICTED BY IDOCK:   69.99 KCAL/MOL
REMARK 924 INTRA-LIGAND FREE ENERGY PREDICTED BY IDOCK:   -0.21 KCAL/MOL
REMARK 927      BINDING AFFINITY PREDICTED BY RF-SCORE:    0.00 PKD
ROOT
HETATM    1  C   UNL     1     -11.300  10.339  67.340  1.00  0.00     0.043 C  
HETATM    2  C   UNL     1     -12.487   9.603  67.090  1.00  0.00     7.720 C  
HETATM    3  C   UNL     1     -12.471  10.546  68.246  1.00  0.00     1.903 C  
HETATM    4  C   UNL     1     -10.912  11.911  68.311  1.00  0.00    -0.230 C  
HETATM    5  O   UNL     1     -10.909  13.200  68.963  1.00  0.00    -0.338 OA 
HETATM    6  C   UNL     1     -10.421   9.511  68.724  1.00  0.00    -0.243 C  
HETATM    7  C   UNL     1     -12.206  11.978  67.885  1.00  0.00     0.280 C  
HETATM    8  C   UNL     1     -12.684  12.080  69.730  1.00  0.00     0.383 C  
HETATM    9  C   UNL     1     -12.929  12.851  66.888  1.00  0.00     2.086 C  
HETATM   10  C   UNL     1     -10.116   8.053  68.321  1.00  0.00    -0.227 C  
HETATM   11  H   UNL     1     -10.195  13.826  68.993  1.00  0.00     0.000 HD 
HETATM   12  C   UNL     1     -10.370   6.933  69.332  1.00  0.00    -0.220 C  
HETATM   13  C   UNL     1     -11.550  11.162  70.731  1.00  0.00    -0.064 C  
HETATM   14  C   UNL     1     -11.035   9.670  70.246  1.00  0.00    -0.337 C  
HETATM   15  C   UNL     1     -10.933   7.234  70.690  1.00  0.00    -0.278 C  
HETATM   16  C   UNL     1     -11.141   6.180  71.500  1.00  0.00    -0.342 C  
HETATM   17  C   UNL     1     -11.252   8.596  71.073  1.00  0.00    -0.321 C  
HETATM   18  O   UNL     1     -11.848   5.247  73.518  1.00  0.00     0.118 OA 
HETATM   19  C   UNL     1     -11.914   8.784  72.436  1.00  0.00    -0.369 C  
HETATM   20  C   UNL     1     -12.102   7.611  73.392  1.00  0.00     1.363 C  
HETATM   21  C   UNL     1     -11.707   6.273  72.854  1.00  0.00     0.075 C  
ENDROOT
BRANCH   4  22
HETATM   22  C   UNL     1      -9.924  12.379  67.094  1.00  0.00    -0.211 C  
HETATM   23  C   UNL     1      -9.263  13.142  66.269  1.00  0.00    -0.074 C  
HETATM   24  C   UNL     1      -8.493  14.031  65.306  1.00  0.00     3.617 C  
ENDBRANCH   4  22
BRANCH  13  25
HETATM   25  C   UNL     1     -10.353  11.970  71.262  1.00  0.00     7.360 A  
HETATM   26  C   UNL     1      -7.946  12.262  71.441  1.00  0.00    10.753 A  
HETATM   27  C   UNL     1      -9.370  14.156  71.618  1.00  0.00     7.096 A  
HETATM   28  C   UNL     1     -10.500  13.334  71.507  1.00  0.00     6.956 A  
HETATM   29  C   UNL     1      -9.062  11.433  71.359  1.00  0.00    10.182 A  
HETATM   30  C   UNL     1      -8.065  13.653  71.496  1.00  0.00     8.251 A  
BRANCH  30  31
HETATM   31  N   UNL     1      -6.953  14.465  71.399  1.00  0.00     1.113 NA 
HETATM   32  C   UNL     1      -6.925  15.818  71.928  1.00  0.00     4.121 C  
HETATM   33  C   UNL     1      -5.763  14.033  70.672  1.00  0.00    -0.177 C  
ENDBRANCH  30  31
ENDBRANCH  13  25
TORSDOF 3
ENDMDL
MODEL      129
REMARK 921   NORMALIZED FREE ENERGY PREDICTED BY IDOCK:   62.05 KCAL/MOL
REMARK 922        TOTAL FREE ENERGY PREDICTED BY IDOCK:   72.30 KCAL/MOL
REMARK 923 INTER-LIGAND FREE ENERGY PREDICTED BY IDOCK:   72.91 KCAL/MOL
REMARK 924 INTRA-LIGAND FREE ENERGY PREDICTED BY IDOCK:   -0.61 KCAL/MOL
REMARK 927      BINDING AFFINITY PREDICTED BY RF-SCORE:    0.00 PKD
ROOT
HETATM    1  C   UNL     1     -10.608  15.199  69.362  1.00  0.00    -0.258 C  
HETATM    2  C   UNL     1     -10.993  16.246  68.486  1.00  0.00    -0.345 C  
HETATM    3  C   UNL     1     -11.284  14.841  68.076  1.00  0.00    -0.311 C  
HETATM    4  C   UNL     1     -11.122  13.391  69.549  1.00  0.00    -0.040 C  
HETATM    5  O   UNL     1     -11.799  12.116  69.595  1.00  0.00    -0.305 OA 
HETATM    6  C   UNL     1      -9.053  14.476  68.704  1.00  0.00    -0.187 C  
HETATM    7  C   UNL     1     -12.171  14.083  69.019  1.00  0.00    -0.280 C  
HETATM    8  C   UNL     1     -12.033  12.910  67.520  1.00  0.00    -0.354 C  
HETATM    9  C   UNL     1     -13.539  14.457  69.537  1.00  0.00     2.594 C  
HETATM   10  C   UNL     1      -7.980  15.583  68.629  1.00  0.00    -0.146 C  
HETATM   11  H   UNL     1     -11.725  11.451  70.270  1.00  0.00     0.000 HD 
HETATM   12  C   UNL     1      -7.107  15.690  67.377  1.00  0.00    -0.241 C  
HETATM   13  C   UNL     1     -10.354  12.422  67.248  1.00  0.00    -0.227 C  
HETATM   14  C   UNL     1      -9.138  13.536  67.352  1.00  0.00    -0.219 C  
HETATM   15  C   UNL     1      -7.302  14.755  66.220  1.00  0.00     2.517 C  
HETATM   16  C   UNL     1      -6.500  14.943  65.156  1.00  0.00    13.742 C  
HETATM   17  C   UNL     1      -8.325  13.729  66.263  1.00  0.00     0.901 C  
HETATM   18  O   UNL     1      -5.772  14.392  63.009  1.00  0.00    14.068 OA 
HETATM   19  C   UNL     1      -8.510  12.895  64.997  1.00  0.00     2.884 C  
HETATM   20  C   UNL     1      -7.572  13.052  63.804  1.00  0.00    11.175 C  
HETATM   21  C   UNL     1      -6.557  14.144  63.922  1.00  0.00    24.851 C  
ENDROOT
BRANCH   4  22
HETATM   22  C   UNL     1     -11.115  13.592  71.173  1.00  0.00     2.067 C  
HETATM   23  C   UNL     1     -11.457  13.994  72.365  1.00  0.00     1.842 C  
HETATM   24  C   UNL     1     -11.854  14.465  73.755  1.00  0.00     0.434 C  
ENDBRANCH   4  22
BRANCH  13  25
HETATM   25  C   UNL     1      -9.929  11.132  67.969  1.00  0.00    -0.190 A  
HETATM   26  C   UNL     1      -9.623   8.719  67.928  1.00  0.00    -0.169 A  
HETATM   27  C   UNL     1      -8.306  10.039  69.401  1.00  0.00    -0.169 A  
HETATM   28  C   UNL     1      -8.985  11.196  68.993  1.00  0.00    -0.027 A  
HETATM   29  C   UNL     1     -10.324   9.859  67.537  1.00  0.00    -0.289 A  
HETATM   30  C   UNL     1      -8.545   8.788  68.813  1.00  0.00    -0.137 A  
BRANCH  30  31
HETATM   31  N   UNL     1      -7.753   7.682  69.053  1.00  0.00    -0.114 NA 
HETATM   32  C   UNL     1      -6.976   7.526  70.271  1.00  0.00    -0.055 C  
HETATM   33  C   UNL     1      -7.582   6.641  68.043  1.00  0.00    -0.107 C  
ENDBRANCH  30  31
ENDBRANCH  13  25
TORSDOF 3
ENDMDL
MODEL      130
REMARK 921   NORMALIZED FREE ENERGY PREDICTED BY IDOCK:   66.62 KCAL/MOL
REMARK 922        TOTAL FREE ENERGY PREDICTED BY IDOCK:   77.67 KCAL/MOL
REMARK 923 INTER-LIGAND FREE ENERGY PREDICTED BY IDOCK:   75.43 KCAL/MOL
REMARK 924 INTRA-LIGAND FREE ENERGY PREDICTED BY IDOCK:    2.23 KCAL/MOL
REMARK 927      BINDING AFFINITY PREDICTED BY RF-SCORE:    0.00 PKD
ROOT
HETATM    1  C   UNL     1      -9.368  13.765  68.535  1.00  0.00    -0.144 C  
HETATM    2  C   UNL     1      -9.660  13.015  69.703  1.00  0.00     1.694 C  
HETATM    3  C   UNL     1     -10.357  14.320  69.510  1.00  0.00     0.089 C  
HETATM    4  C   UNL     1     -10.252  15.159  67.617  1.00  0.00    -0.241 C  
HETATM    5  O   UNL     1     -11.193  16.077  67.017  1.00  0.00    -0.147 OA 
HETATM    6  C   UNL     1      -8.200  15.099  69.016  1.00  0.00    -0.193 C  
HETATM    7  C   UNL     1     -11.189  14.409  68.264  1.00  0.00    -0.295 C  
HETATM    8  C   UNL     1     -11.646  16.006  69.204  1.00  0.00    -0.337 C  
HETATM    9  C   UNL     1     -12.291  13.490  67.796  1.00  0.00    -0.007 C  
HETATM   10  C   UNL     1      -6.931  14.459  69.617  1.00  0.00    -0.086 C  
HETATM   11  H   UNL     1     -11.144  16.462  66.150  1.00  0.00     0.000 HD 
HETATM   12  C   UNL     1      -6.332  15.051  70.895  1.00  0.00     0.235 C  
HETATM   13  C   UNL     1     -10.226  17.037  69.433  1.00  0.00    -0.190 C  
HETATM   14  C   UNL     1      -8.783  16.372  69.887  1.00  0.00     0.900 C  
HETATM   15  C   UNL     1      -6.978  16.221  71.578  1.00  0.00     4.245 C  
HETATM   16  C   UNL     1      -6.389  16.656  72.706  1.00  0.00     4.615 C  
HETATM   17  C   UNL     1      -8.187  16.815  71.041  1.00  0.00     5.927 C  
HETATM   18  O   UNL     1      -6.268  18.096  74.537  1.00  0.00     9.376 OA 
HETATM   19  C   UNL     1      -8.821  17.934  71.865  1.00  0.00    13.399 C  
HETATM   20  C   UNL     1      -8.137  18.480  73.113  1.00  0.00    10.169 C  
HETATM   21  C   UNL     1      -6.887  17.771  73.526  1.00  0.00     8.663 C  
ENDROOT
BRANCH   4  22
HETATM   22  C   UNL     1      -9.866  14.428  66.204  1.00  0.00    -0.340 C  
HETATM   23  C   UNL     1      -9.628  14.250  64.936  1.00  0.00     0.542 C  
HETATM   24  C   UNL     1      -9.352  14.041  63.455  1.00  0.00     6.939 C  
ENDBRANCH   4  22
BRANCH  13  25
HETATM   25  C   UNL     1      -9.986  18.068  68.317  1.00  0.00    -0.374 A  
HETATM   26  C   UNL     1      -8.543  19.731  67.285  1.00  0.00    -0.374 A  
HETATM   27  C   UNL     1     -10.142  18.584  65.954  1.00  0.00    -0.183 A  
HETATM   28  C   UNL     1     -10.618  17.906  67.086  1.00  0.00    -0.315 A  
HETATM   29  C   UNL     1      -9.027  19.084  68.421  1.00  0.00    -0.378 A  
HETATM   30  C   UNL     1      -9.034  19.444  66.010  1.00  0.00    -0.160 A  
BRANCH  30  31
HETATM   31  N   UNL     1      -8.427  19.960  64.883  1.00  0.00     0.888 NA 
HETATM   32  C   UNL     1      -8.988  19.805  63.551  1.00  0.00    11.457 C  
HETATM   33  C   UNL     1      -7.126  20.619  64.960  1.00  0.00     0.061 C  
ENDBRANCH  30  31
ENDBRANCH  13  25
TORSDOF 3
ENDMDL
MODEL      131
REMARK 921   NORMALIZED FREE ENERGY PREDICTED BY IDOCK:   68.10 KCAL/MOL
REMARK 922        TOTAL FREE ENERGY PREDICTED BY IDOCK:   79.41 KCAL/MOL
REMARK 923 INTER-LIGAND FREE ENERGY PREDICTED BY IDOCK:   78.34 KCAL/MOL
REMARK 924 INTRA-LIGAND FREE ENERGY PREDICTED BY IDOCK:    1.08 KCAL/MOL
REMARK 927      BINDING AFFINITY PREDICTED BY RF-SCORE:    0.00 PKD
ROOT
HETATM    1  C   UNL     1     -12.191   9.988  68.566  1.00  0.00     1.564 C  
HETATM    2  C   UNL     1     -12.872   8.771  68.827  1.00  0.00     6.513 C  
HETATM    3  C   UNL     1     -12.317   9.531  69.984  1.00  0.00     0.412 C  
HETATM    4  C   UNL     1     -11.737  11.488  69.620  1.00  0.00    -0.351 C  
HETATM    5  O   UNL     1     -11.663  12.567  70.578  1.00  0.00    -0.525 OA 
HETATM    6  C   UNL     1     -10.390   9.640  68.651  1.00  0.00    -0.226 C  
HETATM    7  C   UNL     1     -12.862  10.920  70.143  1.00  0.00    -0.144 C  
HETATM    8  C   UNL     1     -11.848  10.669  71.741  1.00  0.00     0.467 C  
HETATM    9  C   UNL     1     -14.300  11.365  70.247  1.00  0.00     5.539 C  
HETATM   10  C   UNL     1     -10.042   8.555  67.609  1.00  0.00    -0.271 C  
HETATM   11  H   UNL     1     -11.398  13.464  70.410  1.00  0.00     0.000 HD 
HETATM   12  C   UNL     1      -9.115   7.406  68.013  1.00  0.00    -0.130 C  
HETATM   13  C   UNL     1     -10.139  10.391  71.372  1.00  0.00     2.581 C  
HETATM   14  C   UNL     1      -9.711   9.387  70.132  1.00  0.00    -0.274 C  
HETATM   15  C   UNL     1      -8.569   7.310  69.408  1.00  0.00    -0.134 C  
HETATM   16  C   UNL     1      -7.781   6.252  69.671  1.00  0.00    -0.099 C  
HETATM   17  C   UNL     1      -8.911   8.305  70.405  1.00  0.00    -0.141 C  
HETATM   18  O   UNL     1      -6.460   4.983  71.116  1.00  0.00    -0.022 OA 
HETATM   19  C   UNL     1      -8.387   8.063  71.819  1.00  0.00    -0.159 C  
HETATM   20  C   UNL     1      -7.443   6.904  72.123  1.00  0.00    -0.091 C  
HETATM   21  C   UNL     1      -7.174   5.975  70.982  1.00  0.00    -0.074 C  
ENDROOT
BRANCH   4  22
HETATM   22  C   UNL     1     -12.160  12.454  68.368  1.00  0.00    -0.114 C  
HETATM   23  C   UNL     1     -12.442  12.847  67.158  1.00  0.00     0.390 C  
HETATM   24  C   UNL     1     -12.770  13.307  65.747  1.00  0.00    -0.300 C  
ENDBRANCH   4  22
BRANCH  13  25
HETATM   25  C   UNL     1      -9.271  11.659  71.326  1.00  0.00    10.491 A  
HETATM   26  C   UNL     1      -8.899  13.961  72.017  1.00  0.00    10.471 A  
HETATM   27  C   UNL     1      -7.041  12.604  71.422  1.00  0.00     5.387 A  
HETATM   28  C   UNL     1      -7.901  11.545  71.097  1.00  0.00     6.621 A  
HETATM   29  C   UNL     1      -9.764  12.926  71.669  1.00  0.00    13.955 A  
HETATM   30  C   UNL     1      -7.511  13.805  71.975  1.00  0.00     6.230 A  
BRANCH  30  31
HETATM   31  N   UNL     1      -6.672  14.775  72.488  1.00  0.00     1.488 NA 
HETATM   32  C   UNL     1      -7.162  15.901  73.265  1.00  0.00     9.382 C  
HETATM   33  C   UNL     1      -5.242  14.767  72.197  1.00  0.00    -0.098 C  
ENDBRANCH  30  31
ENDBRANCH  13  25
TORSDOF 3
ENDMDL
MODEL      132
REMARK 921   NORMALIZED FREE ENERGY PREDICTED BY IDOCK:   69.29 KCAL/MOL
REMARK 922        TOTAL FREE ENERGY PREDICTED BY IDOCK:   80.81 KCAL/MOL
REMARK 923 INTER-LIGAND FREE ENERGY PREDICTED BY IDOCK:   81.66 KCAL/MOL
REMARK 924 INTRA-LIGAND FREE ENERGY PREDICTED BY IDOCK:   -0.86 KCAL/MOL
REMARK 927      BINDING AFFINITY PREDICTED BY RF-SCORE:    0.00 PKD
ROOT
HETATM    1  C   UNL     1      -9.649  13.537  71.209  1.00  0.00     8.708 C  
HETATM    2  C   UNL     1      -8.545  12.653  71.320  1.00  0.00    13.215 C  
HETATM    3  C   UNL     1      -8.420  13.825  70.406  1.00  0.00     3.384 C  
HETATM    4  C   UNL     1      -9.848  15.316  70.605  1.00  0.00     0.725 C  
HETATM    5  O   UNL     1      -9.704  16.711  70.260  1.00  0.00     0.763 OA 
HETATM    6  C   UNL     1     -10.528  13.126  69.649  1.00  0.00     0.664 C  
HETATM    7  C   UNL     1      -8.576  15.161  71.072  1.00  0.00     2.770 C  
HETATM    8  C   UNL     1      -8.000  15.622  69.312  1.00  0.00    -0.237 C  
HETATM    9  C   UNL     1      -7.828  15.717  72.260  1.00  0.00     7.970 C  
HETATM   10  C   UNL     1     -10.980  11.651  69.705  1.00  0.00    -0.097 C  
HETATM   11  H   UNL     1     -10.359  17.394  70.351  1.00  0.00     0.000 HD 
HETATM   12  C   UNL     1     -10.777  10.764  68.475  1.00  0.00    -0.245 C  
HETATM   13  C   UNL     1      -9.160  15.063  68.098  1.00  0.00    -0.178 C  
HETATM   14  C   UNL     1      -9.828  13.557  68.220  1.00  0.00    -0.233 C  
HETATM   15  C   UNL     1     -10.122  11.302  67.237  1.00  0.00    -0.214 C  
HETATM   16  C   UNL     1      -9.969  10.438  66.216  1.00  0.00    -0.283 C  
HETATM   17  C   UNL     1      -9.666  12.677  67.179  1.00  0.00    -0.211 C  
HETATM   18  O   UNL     1      -9.248   9.911  64.062  1.00  0.00    -0.250 OA 
HETATM   19  C   UNL     1      -8.923  13.097  65.913  1.00  0.00     0.451 C  
HETATM   20  C   UNL     1      -8.792  12.152  64.723  1.00  0.00     0.984 C  
HETATM   21  C   UNL     1      -9.330  10.773  64.934  1.00  0.00    -0.222 C  
ENDROOT
BRANCH   4  22
HETATM   22  C   UNL     1     -10.850  15.597  71.868  1.00  0.00     0.346 C  
HETATM   23  C   UNL     1     -11.939  15.696  72.576  1.00  0.00    -0.567 C  
HETATM   24  C   UNL     1     -13.210  15.814  73.402  1.00  0.00    -0.653 C  
ENDBRANCH   4  22
BRANCH  13  25
HETATM   25  C   UNL     1     -10.253  16.080  67.728  1.00  0.00    -0.260 A  
HETATM   26  C   UNL     1     -10.891  18.152  66.627  1.00  0.00    -0.043 A  
HETATM   27  C   UNL     1     -12.511  16.440  66.925  1.00  0.00     2.993 A  
HETATM   28  C   UNL     1     -11.575  15.655  67.614  1.00  0.00    -0.089 A  
HETATM   29  C   UNL     1      -9.961  17.393  67.336  1.00  0.00    -0.305 A  
HETATM   30  C   UNL     1     -12.168  17.666  66.336  1.00  0.00     4.658 A  
BRANCH  30  31
HETATM   31  N   UNL     1     -13.012  18.354  65.487  1.00  0.00    10.878 NA 
HETATM   32  C   UNL     1     -13.341  19.756  65.678  1.00  0.00    13.237 C  
HETATM   33  C   UNL     1     -13.696  17.675  64.390  1.00  0.00    14.004 C  
ENDBRANCH  30  31
ENDBRANCH  13  25
TORSDOF 3
ENDMDL
MODEL      133
REMARK 921   NORMALIZED FREE ENERGY PREDICTED BY IDOCK:   73.97 KCAL/MOL
REMARK 922        TOTAL FREE ENERGY PREDICTED BY IDOCK:   86.30 KCAL/MOL
REMARK 923 INTER-LIGAND FREE ENERGY PREDICTED BY IDOCK:   84.73 KCAL/MOL
REMARK 924 INTRA-LIGAND FREE ENERGY PREDICTED BY IDOCK:    1.57 KCAL/MOL
REMARK 927      BINDING AFFINITY PREDICTED BY RF-SCORE:    0.00 PKD
ROOT
HETATM    1  C   UNL     1      -8.868  16.923  63.849  1.00  0.00    12.257 C  
HETATM    2  C   UNL     1      -9.769  16.776  62.764  1.00  0.00    17.840 C  
HETATM    3  C   UNL     1     -10.269  16.491  64.140  1.00  0.00     3.345 C  
HETATM    4  C   UNL     1      -9.084  17.139  65.713  1.00  0.00     0.172 C  
HETATM    5  O   UNL     1      -9.514  17.461  67.054  1.00  0.00    -0.252 OA 
HETATM    6  C   UNL     1      -8.291  15.243  64.317  1.00  0.00    11.039 C  
HETATM    7  C   UNL     1     -10.185  17.649  65.091  1.00  0.00     0.794 C  
HETATM    8  C   UNL     1     -11.191  16.358  66.073  1.00  0.00     0.320 C  
HETATM    9  C   UNL     1     -10.737  19.045  64.931  1.00  0.00     1.726 C  
HETATM   10  C   UNL     1      -7.613  14.589  63.095  1.00  0.00    22.266 C  
HETATM   11  H   UNL     1      -8.971  17.758  67.774  1.00  0.00     0.000 HD 
HETATM   12  C   UNL     1      -7.935  13.132  62.756  1.00  0.00     9.805 C  
HETATM   13  C   UNL     1     -10.247  14.885  66.336  1.00  0.00    -0.292 C  
HETATM   14  C   UNL     1      -9.341  14.249  65.110  1.00  0.00     0.798 C  
HETATM   15  C   UNL     1      -8.917  12.349  63.577  1.00  0.00     1.572 C  
HETATM   16  C   UNL     1      -9.149  11.082  63.187  1.00  0.00    -0.262 C  
HETATM   17  C   UNL     1      -9.584  12.958  64.711  1.00  0.00     0.247 C  
HETATM   18  O   UNL     1     -10.226   9.026  63.418  1.00  0.00     3.010 OA 
HETATM   19  C   UNL     1     -10.638  12.110  65.419  1.00  0.00    -0.309 C  
HETATM   20  C   UNL     1     -10.872  10.654  65.030  1.00  0.00     0.058 C  
HETATM   21  C   UNL     1     -10.093  10.170  63.850  1.00  0.00     0.251 C  
ENDROOT
BRANCH   4  22
HETATM   22  C   UNL     1      -7.890  18.258  65.688  1.00  0.00     0.247 C  
HETATM   23  C   UNL     1      -6.699  18.787  65.685  1.00  0.00    -0.311 C  
HETATM   24  C   UNL     1      -5.310  19.405  65.682  1.00  0.00    -0.177 C  
ENDBRANCH   4  22
BRANCH  13  25
HETATM   25  C   UNL     1      -9.432  14.862  67.640  1.00  0.00    -0.199 A  
HETATM   26  C   UNL     1      -8.571  13.616  69.544  1.00  0.00     1.091 A  
HETATM   27  C   UNL     1      -7.413  15.550  68.792  1.00  0.00    -0.141 A  
HETATM   28  C   UNL     1      -8.398  15.778  67.820  1.00  0.00    -0.163 A  
HETATM   29  C   UNL     1      -9.570  13.850  68.600  1.00  0.00    -0.142 A  
HETATM   30  C   UNL     1      -7.428  14.415  69.616  1.00  0.00     0.104 A  
BRANCH  30  31
HETATM   31  N   UNL     1      -6.370  14.067  70.434  1.00  0.00    -0.120 NA 
HETATM   32  C   UNL     1      -5.377  15.030  70.878  1.00  0.00    -0.135 C  
HETATM   33  C   UNL     1      -6.142  12.679  70.825  1.00  0.00     0.297 C  
ENDBRANCH  30  31
ENDBRANCH  13  25
TORSDOF 3
ENDMDL
MODEL      134
REMARK 921   NORMALIZED FREE ENERGY PREDICTED BY IDOCK:   75.87 KCAL/MOL
REMARK 922        TOTAL FREE ENERGY PREDICTED BY IDOCK:   88.54 KCAL/MOL
REMARK 923 INTER-LIGAND FREE ENERGY PREDICTED BY IDOCK:   86.27 KCAL/MOL
REMARK 924 INTRA-LIGAND FREE ENERGY PREDICTED BY IDOCK:    2.27 KCAL/MOL
REMARK 927      BINDING AFFINITY PREDICTED BY RF-SCORE:    0.00 PKD
ROOT
HETATM    1  C   UNL     1     -10.507  13.874  66.335  1.00  0.00    -0.284 C  
HETATM    2  C   UNL     1     -10.627  13.787  64.924  1.00  0.00    -0.427 C  
HETATM    3  C   UNL     1      -9.637  14.749  65.491  1.00  0.00    -0.159 C  
HETATM    4  C   UNL     1      -9.174  14.532  67.500  1.00  0.00    -0.194 C  
HETATM    5  O   UNL     1      -7.955  14.935  68.162  1.00  0.00    -0.120 OA 
HETATM    6  C   UNL     1     -11.428  15.369  66.874  1.00  0.00    -0.071 C  
HETATM    7  C   UNL     1      -8.573  14.126  66.345  1.00  0.00     0.288 C  
HETATM    8  C   UNL     1      -7.977  15.929  66.162  1.00  0.00     0.300 C  
HETATM    9  C   UNL     1      -7.627  12.999  66.005  1.00  0.00     2.569 C  
HETATM   10  C   UNL     1     -12.900  15.235  66.431  1.00  0.00     1.735 C  
HETATM   11  H   UNL     1      -7.743  14.835  69.083  1.00  0.00     0.000 HD 
HETATM   12  C   UNL     1     -13.599  16.440  65.798  1.00  0.00     6.980 C  
HETATM   13  C   UNL     1      -9.154  17.060  66.844  1.00  0.00    -0.253 C  
HETATM   14  C   UNL     1     -10.768  16.847  66.563  1.00  0.00    -0.087 C  
HETATM   15  C   UNL     1     -12.864  17.730  65.580  1.00  0.00    10.172 C  
HETATM   16  C   UNL     1     -13.559  18.724  64.996  1.00  0.00    20.172 C  
HETATM   17  C   UNL     1     -11.473  17.862  65.963  1.00  0.00     1.636 C  
HETATM   18  O   UNL     1     -13.727  20.892  64.153  1.00  0.00    12.340 OA 
HETATM   19  C   UNL     1     -10.788  19.180  65.607  1.00  0.00    -0.218 C  
HETATM   20  C   UNL     1     -11.573  20.338  65.001  1.00  0.00     1.804 C  
HETATM   21  C   UNL     1     -13.004  20.049  64.680  1.00  0.00    13.050 C  
ENDROOT
BRANCH   4  22
HETATM   22  C   UNL     1      -9.419  13.230  68.461  1.00  0.00    -0.113 C  
HETATM   23  C   UNL     1      -9.603  11.996  68.839  1.00  0.00     0.100 C  
HETATM   24  C   UNL     1      -9.820  10.558  69.280  1.00  0.00    -0.225 C  
ENDBRANCH   4  22
BRANCH  13  25
HETATM   25  C   UNL     1      -8.934  17.410  68.325  1.00  0.00    -0.268 A  
HETATM   26  C   UNL     1      -7.684  17.082  70.385  1.00  0.00     2.829 A  
HETATM   27  C   UNL     1      -8.792  19.150  70.007  1.00  0.00     1.177 A  
HETATM   28  C   UNL     1      -9.310  18.666  68.797  1.00  0.00    -0.334 A  
HETATM   29  C   UNL     1      -8.217  16.581  69.199  1.00  0.00    -0.159 A  
HETATM   30  C   UNL     1      -7.893  18.404  70.785  1.00  0.00     4.292 A  
BRANCH  30  31
HETATM   31  N   UNL     1      -7.217  18.934  71.866  1.00  0.00     4.009 NA 
HETATM   32  C   UNL     1      -5.775  19.115  71.874  1.00  0.00     0.008 C  
HETATM   33  C   UNL     1      -7.913  19.262  73.107  1.00  0.00     5.724 C  
ENDBRANCH  30  31
ENDBRANCH  13  25
TORSDOF 3
ENDMDL
MODEL      135
REMARK 921   NORMALIZED FREE ENERGY PREDICTED BY IDOCK:   84.12 KCAL/MOL
REMARK 922        TOTAL FREE ENERGY PREDICTED BY IDOCK:   98.23 KCAL/MOL
REMARK 923 INTER-LIGAND FREE ENERGY PREDICTED BY IDOCK:   95.89 KCAL/MOL
REMARK 924 INTRA-LIGAND FREE ENERGY PREDICTED BY IDOCK:    2.35 KCAL/MOL
REMARK 927      BINDING AFFINITY PREDICTED BY RF-SCORE:    0.00 PKD
ROOT
HETATM    1  C   UNL     1      -9.605  13.673  69.829  1.00  0.00     1.529 C  
HETATM    2  C   UNL     1      -9.451  12.525  70.648  1.00  0.00     7.205 C  
HETATM    3  C   UNL     1      -8.365  12.850  69.679  1.00  0.00     1.752 C  
HETATM    4  C   UNL     1      -8.407  14.744  68.835  1.00  0.00    -0.163 C  
HETATM    5  O   UNL     1      -7.287  15.489  68.309  1.00  0.00    -0.110 OA 
HETATM    6  C   UNL     1     -10.144  13.097  68.171  1.00  0.00    -0.237 C  
HETATM    7  C   UNL     1      -7.725  14.193  69.880  1.00  0.00     0.640 C  
HETATM    8  C   UNL     1      -6.609  13.375  68.565  1.00  0.00    -0.089 C  
HETATM    9  C   UNL     1      -7.095  14.763  71.128  1.00  0.00     1.313 C  
HETATM   10  C   UNL     1     -11.469  12.319  68.319  1.00  0.00    -0.367 C  
HETATM   11  H   UNL     1      -7.306  16.356  67.922  1.00  0.00     0.000 HD 
HETATM   12  C   UNL     1     -11.645  10.998  67.567  1.00  0.00    -0.166 C  
HETATM   13  C   UNL     1      -7.524  13.006  67.096  1.00  0.00    -0.004 C  
HETATM   14  C   UNL     1      -9.037  12.352  67.203  1.00  0.00    -0.199 C  
HETATM   15  C   UNL     1     -10.540  10.443  66.716  1.00  0.00    -0.270 C  
HETATM   16  C   UNL     1     -10.783   9.265  66.112  1.00  0.00     0.465 C  
HETATM   17  C   UNL     1      -9.279  11.148  66.590  1.00  0.00    -0.188 C  
HETATM   18  O   UNL     1     -10.141   7.486  64.747  1.00  0.00     3.054 OA 
HETATM   19  C   UNL     1      -8.186  10.450  65.784  1.00  0.00    -0.156 C  
HETATM   20  C   UNL     1      -8.461   9.146  65.043  1.00  0.00    -0.187 C  
HETATM   21  C   UNL     1      -9.817   8.555  65.261  1.00  0.00     0.962 C  
ENDROOT
BRANCH   4  22
HETATM   22  C   UNL     1      -9.209  16.070  69.361  1.00  0.00    -0.202 C  
HETATM   23  C   UNL     1      -9.565  17.314  69.510  1.00  0.00     0.286 C  
HETATM   24  C   UNL     1      -9.979  18.767  69.685  1.00  0.00     0.332 C  
ENDBRANCH   4  22
BRANCH  13  25
HETATM   25  C   UNL     1      -7.521  14.119  66.034  1.00  0.00     3.898 A  
HETATM   26  C   UNL     1      -8.329  14.977  63.907  1.00  0.00    14.398 A  
HETATM   27  C   UNL     1      -7.593  16.498  65.578  1.00  0.00     2.011 A  
HETATM   28  C   UNL     1      -7.239  15.429  66.413  1.00  0.00     1.355 A  
HETATM   29  C   UNL     1      -7.953  13.908  64.717  1.00  0.00     9.302 A  
HETATM   30  C   UNL     1      -8.230  16.300  64.343  1.00  0.00     9.509 A  
BRANCH  30  31
HETATM   31  N   UNL     1      -8.768  17.334  63.602  1.00  0.00    13.253 NA 
HETATM   32  C   UNL     1      -8.001  18.510  63.228  1.00  0.00    15.081 C  
HETATM   33  C   UNL     1     -10.180  17.340  63.226  1.00  0.00    11.882 C  
ENDBRANCH  30  31
ENDBRANCH  13  25
TORSDOF 3
ENDMDL
