MODEL        1
REMARK 921   NORMALIZED FREE ENERGY PREDICTED BY IDOCK:   -6.09 KCAL/MOL
REMARK 922        TOTAL FREE ENERGY PREDICTED BY IDOCK:   -6.71 KCAL/MOL
REMARK 923 INTER-LIGAND FREE ENERGY PREDICTED BY IDOCK:   -6.44 KCAL/MOL
REMARK 924 INTRA-LIGAND FREE ENERGY PREDICTED BY IDOCK:   -0.26 KCAL/MOL
REMARK 927      BINDING AFFINITY PREDICTED BY RF-SCORE:    0.00 PKD
ROOT
HETATM    1  O   UNK A   1     -11.457  16.478  63.744  1.00  0.00    -1.615 OA 
HETATM    2  H   UNK A   1     -11.794  17.353  63.893  1.00  0.00     0.000 HD 
HETATM    3  C   UNK A   1     -11.015  15.890  64.969  1.00  0.00    -0.412 C  
ENDROOT
BRANCH   3   4
HETATM    4  C   UNK A   1     -10.465  14.460  64.726  1.00  0.00    -0.367 C  
HETATM    5  N   UNK A   1      -9.687  13.952  65.879  1.00  0.00    -0.466 NA 
HETATM    6  C   UNK A   0     -10.558  13.560  66.997  1.00  0.00    -0.269 C  
HETATM    7  H   UNK A   1      -8.982  14.626  66.177  1.00  0.00     0.000 HD 
HETATM    8  C   UNK A   1     -11.611  12.503  66.604  1.00  0.00    -0.380 C  
HETATM    9  C   UNK A   1     -12.440  12.967  65.405  1.00  0.00    -0.476 C  
HETATM   10  O   UNK A   1     -10.990  11.250  66.291  1.00  0.00    -0.270 OA 
HETATM   11  O   UNK A   1     -13.322  14.036  65.782  1.00  0.00    -0.675 OA 
HETATM   12  C   UNK A   1     -11.532  13.426  64.254  1.00  0.00    -0.393 C  
HETATM   13  H   UNK A   1     -11.638  10.599  66.049  1.00  0.00     0.000 HD 
HETATM   14  H   UNK A   1     -13.837  14.325  65.037  1.00  0.00     0.000 HD 
HETATM   15  O   UNK A   1     -12.365  13.912  63.190  1.00  0.00    -1.122 OA 
HETATM   16  H   UNK A   1     -13.016  13.281  62.902  1.00  0.00     0.000 HD 
ENDBRANCH   3   4
TORSDOF 1
ENDMDL
MODEL        2
REMARK 921   NORMALIZED FREE ENERGY PREDICTED BY IDOCK:   -5.44 KCAL/MOL
REMARK 922        TOTAL FREE ENERGY PREDICTED BY IDOCK:   -6.02 KCAL/MOL
REMARK 923 INTER-LIGAND FREE ENERGY PREDICTED BY IDOCK:   -5.77 KCAL/MOL
REMARK 924 INTRA-LIGAND FREE ENERGY PREDICTED BY IDOCK:   -0.25 KCAL/MOL
REMARK 927      BINDING AFFINITY PREDICTED BY RF-SCORE:    0.00 PKD
ROOT
HETATM    1  O   UNK A   1     -11.687  11.442  62.867  1.00  0.00    -0.856 OA 
HETATM    2  H   UNK A   1     -11.042  11.007  62.322  1.00  0.00     0.000 HD 
HETATM    3  C   UNK A   1     -11.147  11.734  64.157  1.00  0.00    -0.374 C  
ENDROOT
BRANCH   3   4
HETATM    4  C   UNK A   1     -12.199  12.446  65.047  1.00  0.00    -0.399 C  
HETATM    5  N   UNK A   1     -12.013  12.152  66.486  1.00  0.00    -0.631 NA 
HETATM    6  C   UNK A   0     -10.866  12.877  67.050  1.00  0.00    -0.260 C  
HETATM    7  H   UNK A   1     -11.936  11.148  66.652  1.00  0.00     0.000 HD 
HETATM    8  C   UNK A   1     -10.964  14.405  66.865  1.00  0.00    -0.308 C  
HETATM    9  C   UNK A   1     -11.171  14.773  65.394  1.00  0.00    -0.347 C  
HETATM   10  O   UNK A   1     -12.038  14.950  67.643  1.00  0.00    -0.516 OA 
HETATM   11  O   UNK A   1      -9.975  14.530  64.638  1.00  0.00    -0.544 OA 
HETATM   12  C   UNK A   1     -12.338  13.977  64.789  1.00  0.00    -0.413 C  
HETATM   13  H   UNK A   1     -12.099  15.890  67.529  1.00  0.00     0.000 HD 
HETATM   14  H   UNK A   1     -10.104  14.758  63.724  1.00  0.00     0.000 HD 
HETATM   15  O   UNK A   1     -12.437  14.314  63.396  1.00  0.00    -1.125 OA 
HETATM   16  H   UNK A   1     -12.522  15.248  63.239  1.00  0.00     0.000 HD 
ENDBRANCH   3   4
TORSDOF 1
ENDMDL
MODEL        3
REMARK 921   NORMALIZED FREE ENERGY PREDICTED BY IDOCK:   -5.30 KCAL/MOL
REMARK 922        TOTAL FREE ENERGY PREDICTED BY IDOCK:   -5.87 KCAL/MOL
REMARK 923 INTER-LIGAND FREE ENERGY PREDICTED BY IDOCK:   -5.62 KCAL/MOL
REMARK 924 INTRA-LIGAND FREE ENERGY PREDICTED BY IDOCK:   -0.26 KCAL/MOL
REMARK 927      BINDING AFFINITY PREDICTED BY RF-SCORE:    0.00 PKD
ROOT
HETATM    1  O   UNK A   1     -10.846  11.077  62.783  1.00  0.00    -0.780 OA 
HETATM    2  H   UNK A   1     -10.461  11.117  61.916  1.00  0.00     0.000 HD 
HETATM    3  C   UNK A   1     -10.425  12.187  63.578  1.00  0.00    -0.454 C  
ENDROOT
BRANCH   3   4
HETATM    4  C   UNK A   1     -11.054  12.123  64.993  1.00  0.00    -0.320 C  
HETATM    5  N   UNK A   1     -10.211  12.779  66.017  1.00  0.00    -0.273 NA 
HETATM    6  C   UNK A   0     -10.274  14.245  65.922  1.00  0.00    -0.324 C  
HETATM    7  H   UNK A   1      -9.247  12.446  65.973  1.00  0.00     0.000 HD 
HETATM    8  C   UNK A   1     -11.710  14.798  66.034  1.00  0.00    -0.248 C  
HETATM    9  C   UNK A   1     -12.636  14.145  65.006  1.00  0.00    -0.380 C  
HETATM   10  O   UNK A   1     -12.241  14.588  67.349  1.00  0.00    -0.589 OA 
HETATM   11  O   UNK A   1     -12.322  14.598  63.680  1.00  0.00    -1.060 OA 
HETATM   12  C   UNK A   1     -12.532  12.614  65.069  1.00  0.00    -0.487 C  
HETATM   13  H   UNK A   1     -13.125  14.928  67.417  1.00  0.00     0.000 HD 
HETATM   14  H   UNK A   1     -12.897  14.192  63.042  1.00  0.00     0.000 HD 
HETATM   15  O   UNK A   1     -13.370  12.064  64.039  1.00  0.00    -0.703 OA 
HETATM   16  H   UNK A   1     -14.271  12.363  64.085  1.00  0.00     0.000 HD 
ENDBRANCH   3   4
TORSDOF 1
ENDMDL
MODEL        4
REMARK 921   NORMALIZED FREE ENERGY PREDICTED BY IDOCK:   -5.15 KCAL/MOL
REMARK 922        TOTAL FREE ENERGY PREDICTED BY IDOCK:   -5.71 KCAL/MOL
REMARK 923 INTER-LIGAND FREE ENERGY PREDICTED BY IDOCK:   -5.51 KCAL/MOL
REMARK 924 INTRA-LIGAND FREE ENERGY PREDICTED BY IDOCK:   -0.20 KCAL/MOL
REMARK 927      BINDING AFFINITY PREDICTED BY RF-SCORE:    0.00 PKD
ROOT
HETATM    1  O   UNK A   1     -11.702  16.257  63.724  1.00  0.00    -1.511 OA 
HETATM    2  H   UNK A   1     -11.590  17.200  63.764  1.00  0.00     0.000 HD 
HETATM    3  C   UNK A   1     -10.967  15.614  64.766  1.00  0.00    -0.400 C  
ENDROOT
BRANCH   3   4
HETATM    4  C   UNK A   1     -11.150  14.076  64.702  1.00  0.00    -0.382 C  
HETATM    5  N   UNK A   1      -9.898  13.345  64.999  1.00  0.00    -0.572 NA 
HETATM    6  C   UNK A   0      -9.576  13.370  66.434  1.00  0.00    -0.257 C  
HETATM    7  H   UNK A   1      -9.121  13.696  64.439  1.00  0.00     0.000 HD 
HETATM    8  C   UNK A   1     -10.704  12.800  67.318  1.00  0.00    -0.237 C  
HETATM    9  C   UNK A   1     -12.032  13.509  67.046  1.00  0.00    -0.394 C  
HETATM   10  O   UNK A   1     -10.868  11.393  67.101  1.00  0.00    -0.238 OA 
HETATM   11  O   UNK A   1     -12.004  14.852  67.553  1.00  0.00    -0.456 OA 
HETATM   12  C   UNK A   1     -12.345  13.529  65.542  1.00  0.00    -0.481 C  
HETATM   13  H   UNK A   1     -11.562  11.042  67.645  1.00  0.00     0.000 HD 
HETATM   14  H   UNK A   1     -12.828  15.292  67.383  1.00  0.00     0.000 HD 
HETATM   15  O   UNK A   1     -13.563  14.265  65.346  1.00  0.00    -0.583 OA 
HETATM   16  H   UNK A   1     -14.292  13.932  65.858  1.00  0.00     0.000 HD 
ENDBRANCH   3   4
TORSDOF 1
ENDMDL
MODEL        5
REMARK 921   NORMALIZED FREE ENERGY PREDICTED BY IDOCK:   -4.98 KCAL/MOL
REMARK 922        TOTAL FREE ENERGY PREDICTED BY IDOCK:   -5.53 KCAL/MOL
REMARK 923 INTER-LIGAND FREE ENERGY PREDICTED BY IDOCK:   -5.26 KCAL/MOL
REMARK 924 INTRA-LIGAND FREE ENERGY PREDICTED BY IDOCK:   -0.27 KCAL/MOL
REMARK 927      BINDING AFFINITY PREDICTED BY RF-SCORE:    0.00 PKD
ROOT
HETATM    1  O   UNK A   1      -9.577  13.654  68.383  1.00  0.00    -0.216 OA 
HETATM    2  H   UNK A   1      -9.157  13.002  68.931  1.00  0.00     0.000 HD 
HETATM    3  C   UNK A   1      -9.539  13.264  67.009  1.00  0.00    -0.243 C  
ENDROOT
BRANCH   3   4
HETATM    4  C   UNK A   1     -10.224  14.328  66.114  1.00  0.00    -0.307 C  
HETATM    5  N   UNK A   1      -9.798  14.235  64.700  1.00  0.00    -0.588 NA 
HETATM    6  C   UNK A   0     -10.412  13.087  64.016  1.00  0.00    -0.312 C  
HETATM    7  H   UNK A   1      -8.781  14.215  64.619  1.00  0.00     0.000 HD 
HETATM    8  C   UNK A   1     -11.953  13.103  64.069  1.00  0.00    -0.460 C  
HETATM    9  C   UNK A   1     -12.456  13.212  65.510  1.00  0.00    -0.458 C  
HETATM   10  O   UNK A   1     -12.483  14.192  63.301  1.00  0.00    -1.146 OA 
HETATM   11  O   UNK A   1     -12.218  11.989  66.224  1.00  0.00    -0.548 OA 
HETATM   12  C   UNK A   1     -11.777  14.380  66.242  1.00  0.00    -0.385 C  
HETATM   13  H   UNK A   1     -13.432  14.202  63.334  1.00  0.00     0.000 HD 
HETATM   14  H   UNK A   1     -12.530  12.057  67.119  1.00  0.00     0.000 HD 
HETATM   15  O   UNK A   1     -12.238  14.387  67.602  1.00  0.00    -0.598 OA 
HETATM   16  H   UNK A   1     -13.185  14.419  67.681  1.00  0.00     0.000 HD 
ENDBRANCH   3   4
TORSDOF 1
ENDMDL
MODEL        6
REMARK 921   NORMALIZED FREE ENERGY PREDICTED BY IDOCK:   -4.97 KCAL/MOL
REMARK 922        TOTAL FREE ENERGY PREDICTED BY IDOCK:   -5.52 KCAL/MOL
REMARK 923 INTER-LIGAND FREE ENERGY PREDICTED BY IDOCK:   -5.27 KCAL/MOL
REMARK 924 INTRA-LIGAND FREE ENERGY PREDICTED BY IDOCK:   -0.25 KCAL/MOL
REMARK 927      BINDING AFFINITY PREDICTED BY RF-SCORE:    0.00 PKD
ROOT
HETATM    1  O   UNK A   1     -12.293  14.807  67.063  1.00  0.00    -0.435 OA 
HETATM    2  H   UNK A   1     -12.928  14.735  67.766  1.00  0.00     0.000 HD 
HETATM    3  C   UNK A   1     -11.830  13.516  66.663  1.00  0.00    -0.407 C  
ENDROOT
BRANCH   3   4
HETATM    4  C   UNK A   1     -10.795  13.632  65.514  1.00  0.00    -0.294 C  
HETATM    5  N   UNK A   1      -9.813  12.526  65.525  1.00  0.00    -0.379 NA 
HETATM    6  C   UNK A   0     -10.397  11.269  65.035  1.00  0.00    -0.301 C  
HETATM    7  H   UNK A   1      -9.398  12.406  66.450  1.00  0.00     0.000 HD 
HETATM    8  C   UNK A   1     -10.993  11.389  63.617  1.00  0.00    -0.363 C  
HETATM    9  C   UNK A   1     -12.009  12.530  63.539  1.00  0.00    -0.543 C  
HETATM   10  O   UNK A   1      -9.964  11.607  62.644  1.00  0.00    -0.552 OA 
HETATM   11  O   UNK A   1     -13.206  12.193  64.259  1.00  0.00    -0.768 OA 
HETATM   12  C   UNK A   1     -11.417  13.832  64.098  1.00  0.00    -0.293 C  
HETATM   13  H   UNK A   1     -10.330  11.681  61.771  1.00  0.00     0.000 HD 
HETATM   14  H   UNK A   1     -13.837  12.902  64.210  1.00  0.00     0.000 HD 
HETATM   15  O   UNK A   1     -12.437  14.842  64.061  1.00  0.00    -0.930 OA 
HETATM   16  H   UNK A   1     -12.817  14.964  63.198  1.00  0.00     0.000 HD 
ENDBRANCH   3   4
TORSDOF 1
ENDMDL
MODEL        7
REMARK 921   NORMALIZED FREE ENERGY PREDICTED BY IDOCK:   -4.94 KCAL/MOL
REMARK 922        TOTAL FREE ENERGY PREDICTED BY IDOCK:   -5.49 KCAL/MOL
REMARK 923 INTER-LIGAND FREE ENERGY PREDICTED BY IDOCK:   -5.45 KCAL/MOL
REMARK 924 INTRA-LIGAND FREE ENERGY PREDICTED BY IDOCK:   -0.04 KCAL/MOL
REMARK 927      BINDING AFFINITY PREDICTED BY RF-SCORE:    0.00 PKD
ROOT
HETATM    1  O   UNK A   1      -8.139  13.477  66.866  1.00  0.00    -0.395 OA 
HETATM    2  H   UNK A   1      -7.723  12.908  67.502  1.00  0.00     0.000 HD 
HETATM    3  C   UNK A   1      -9.542  13.217  66.794  1.00  0.00    -0.258 C  
ENDROOT
BRANCH   3   4
HETATM    4  C   UNK A   1     -10.222  14.148  65.756  1.00  0.00    -0.332 C  
HETATM    5  N   UNK A   1      -9.819  13.835  64.367  1.00  0.00    -0.658 NA 
HETATM    6  C   UNK A   0     -10.463  12.609  63.872  1.00  0.00    -0.411 C  
HETATM    7  H   UNK A   1      -8.804  13.782  64.278  1.00  0.00     0.000 HD 
HETATM    8  C   UNK A   1     -12.003  12.663  63.941  1.00  0.00    -0.479 C  
HETATM    9  C   UNK A   1     -12.482  12.997  65.355  1.00  0.00    -0.476 C  
HETATM   10  O   UNK A   1     -12.525  13.633  63.024  1.00  0.00    -1.020 OA 
HETATM   11  O   UNK A   1     -12.255  11.892  66.242  1.00  0.00    -0.471 OA 
HETATM   12  C   UNK A   1     -11.772  14.249  65.894  1.00  0.00    -0.372 C  
HETATM   13  H   UNK A   1     -13.473  13.666  63.067  1.00  0.00     0.000 HD 
HETATM   14  H   UNK A   1     -12.552  12.100  67.120  1.00  0.00     0.000 HD 
HETATM   15  O   UNK A   1     -12.212  14.469  67.243  1.00  0.00    -0.575 OA 
HETATM   16  H   UNK A   1     -13.157  14.531  67.327  1.00  0.00     0.000 HD 
ENDBRANCH   3   4
TORSDOF 1
ENDMDL
MODEL        8
REMARK 921   NORMALIZED FREE ENERGY PREDICTED BY IDOCK:   -4.93 KCAL/MOL
REMARK 922        TOTAL FREE ENERGY PREDICTED BY IDOCK:   -5.48 KCAL/MOL
REMARK 923 INTER-LIGAND FREE ENERGY PREDICTED BY IDOCK:   -5.22 KCAL/MOL
REMARK 924 INTRA-LIGAND FREE ENERGY PREDICTED BY IDOCK:   -0.26 KCAL/MOL
REMARK 927      BINDING AFFINITY PREDICTED BY RF-SCORE:    0.00 PKD
ROOT
HETATM    1  O   UNK A   1     -12.074  11.654  67.415  1.00  0.00    -0.605 OA 
HETATM    2  H   UNK A   1     -11.593  10.918  67.773  1.00  0.00     0.000 HD 
HETATM    3  C   UNK A   1     -11.224  12.792  67.265  1.00  0.00    -0.295 C  
ENDROOT
BRANCH   3   4
HETATM    4  C   UNK A   1     -12.010  13.994  66.679  1.00  0.00    -0.445 C  
HETATM    5  N   UNK A   1     -11.308  15.281  66.885  1.00  0.00    -0.267 NA 
HETATM    6  C   UNK A   0     -10.161  15.432  65.978  1.00  0.00    -0.324 C  
HETATM    7  H   UNK A   1     -11.029  15.399  67.860  1.00  0.00     0.000 HD 
HETATM    8  C   UNK A   1     -10.545  15.309  64.489  1.00  0.00     0.087 C  
HETATM    9  C   UNK A   1     -11.288  14.000  64.215  1.00  0.00    -0.262 C  
HETATM   10  O   UNK A   1     -11.364  16.412  64.077  1.00  0.00    -1.416 OA 
HETATM   11  O   UNK A   1     -10.394  12.880  64.311  1.00  0.00    -0.408 OA 
HETATM   12  C   UNK A   1     -12.456  13.816  65.196  1.00  0.00    -0.450 C  
HETATM   13  H   UNK A   1     -11.600  16.336  63.161  1.00  0.00     0.000 HD 
HETATM   14  H   UNK A   1     -10.856  12.067  64.141  1.00  0.00     0.000 HD 
HETATM   15  O   UNK A   1     -13.068  12.544  64.933  1.00  0.00    -0.833 OA 
HETATM   16  H   UNK A   1     -13.340  12.435  64.028  1.00  0.00     0.000 HD 
ENDBRANCH   3   4
TORSDOF 1
ENDMDL
MODEL        9
REMARK 921   NORMALIZED FREE ENERGY PREDICTED BY IDOCK:   -4.91 KCAL/MOL
REMARK 922        TOTAL FREE ENERGY PREDICTED BY IDOCK:   -5.46 KCAL/MOL
REMARK 923 INTER-LIGAND FREE ENERGY PREDICTED BY IDOCK:   -5.20 KCAL/MOL
REMARK 924 INTRA-LIGAND FREE ENERGY PREDICTED BY IDOCK:   -0.26 KCAL/MOL
REMARK 927      BINDING AFFINITY PREDICTED BY RF-SCORE:    0.00 PKD
ROOT
HETATM    1  O   UNK A   1     -13.255  12.104  63.898  1.00  0.00    -0.748 OA 
HETATM    2  H   UNK A   1     -13.091  11.231  63.561  1.00  0.00     0.000 HD 
HETATM    3  C   UNK A   1     -12.489  12.344  65.080  1.00  0.00    -0.316 C  
ENDROOT
BRANCH   3   4
HETATM    4  C   UNK A   1     -12.757  13.769  65.630  1.00  0.00    -0.478 C  
HETATM    5  N   UNK A   1     -12.330  13.919  67.039  1.00  0.00    -0.494 NA 
HETATM    6  C   UNK A   0     -10.868  14.014  67.162  1.00  0.00    -0.286 C  
HETATM    7  H   UNK A   1     -12.703  13.169  67.622  1.00  0.00     0.000 HD 
HETATM    8  C   UNK A   1     -10.264  15.168  66.335  1.00  0.00    -0.281 C  
HETATM    9  C   UNK A   1     -10.683  15.075  64.866  1.00  0.00    -0.397 C  
HETATM   10  O   UNK A   1     -10.664  16.441  66.859  1.00  0.00    -0.296 OA 
HETATM   11  O   UNK A   1     -10.031  13.969  64.222  1.00  0.00    -0.668 OA 
HETATM   12  C   UNK A   1     -12.206  14.923  64.739  1.00  0.00    -0.284 C  
HETATM   13  H   UNK A   1     -10.292  17.151  66.350  1.00  0.00     0.000 HD 
HETATM   14  H   UNK A   1     -10.291  13.911  63.310  1.00  0.00     0.000 HD 
HETATM   15  O   UNK A   1     -12.528  14.772  63.347  1.00  0.00    -0.946 OA 
HETATM   16  H   UNK A   1     -12.192  15.476  62.803  1.00  0.00     0.000 HD 
ENDBRANCH   3   4
TORSDOF 1
ENDMDL
MODEL       10
REMARK 921   NORMALIZED FREE ENERGY PREDICTED BY IDOCK:   -4.76 KCAL/MOL
REMARK 922        TOTAL FREE ENERGY PREDICTED BY IDOCK:   -5.30 KCAL/MOL
REMARK 923 INTER-LIGAND FREE ENERGY PREDICTED BY IDOCK:   -5.03 KCAL/MOL
REMARK 924 INTRA-LIGAND FREE ENERGY PREDICTED BY IDOCK:   -0.27 KCAL/MOL
REMARK 927      BINDING AFFINITY PREDICTED BY RF-SCORE:    0.00 PKD
ROOT
HETATM    1  O   UNK A   1     -11.500  16.533  64.007  1.00  0.00    -1.513 OA 
HETATM    2  H   UNK A   1     -11.114  16.822  63.189  1.00  0.00     0.000 HD 
HETATM    3  C   UNK A   1     -11.772  15.132  63.975  1.00  0.00     0.060 C  
ENDROOT
BRANCH   3   4
HETATM    4  C   UNK A   1     -12.400  14.661  65.311  1.00  0.00    -0.215 C  
HETATM    5  N   UNK A   1     -13.100  13.363  65.180  1.00  0.00    -0.684 NA 
HETATM    6  C   UNK A   0     -12.157  12.239  65.086  1.00  0.00    -0.316 C  
HETATM    7  H   UNK A   1     -13.749  13.369  64.393  1.00  0.00     0.000 HD 
HETATM    8  C   UNK A   1     -11.186  12.159  66.282  1.00  0.00    -0.334 C  
HETATM    9  C   UNK A   1     -10.441  13.481  66.478  1.00  0.00    -0.284 C  
HETATM   10  O   UNK A   1     -11.884  11.828  67.490  1.00  0.00    -0.577 OA 
HETATM   11  O   UNK A   1      -9.486  13.686  65.425  1.00  0.00    -0.507 OA 
HETATM   12  C   UNK A   1     -11.421  14.663  66.525  1.00  0.00    -0.351 C  
HETATM   13  H   UNK A   1     -11.286  11.780  68.226  1.00  0.00     0.000 HD 
HETATM   14  H   UNK A   1      -9.023  14.507  65.547  1.00  0.00     0.000 HD 
HETATM   15  O   UNK A   1     -10.659  15.875  66.641  1.00  0.00    -0.314 OA 
HETATM   16  H   UNK A   1     -10.062  15.877  67.381  1.00  0.00     0.000 HD 
ENDBRANCH   3   4
TORSDOF 1
ENDMDL
MODEL       11
REMARK 921   NORMALIZED FREE ENERGY PREDICTED BY IDOCK:   -4.74 KCAL/MOL
REMARK 922        TOTAL FREE ENERGY PREDICTED BY IDOCK:   -5.28 KCAL/MOL
REMARK 923 INTER-LIGAND FREE ENERGY PREDICTED BY IDOCK:   -5.02 KCAL/MOL
REMARK 924 INTRA-LIGAND FREE ENERGY PREDICTED BY IDOCK:   -0.26 KCAL/MOL
REMARK 927      BINDING AFFINITY PREDICTED BY RF-SCORE:    0.00 PKD
ROOT
HETATM    1  O   UNK A   1     -10.177  10.198  65.573  1.00  0.00    -0.286 OA 
HETATM    2  H   UNK A   1      -9.794   9.800  66.345  1.00  0.00     0.000 HD 
HETATM    3  C   UNK A   1     -11.023  11.291  65.931  1.00  0.00    -0.157 C  
ENDROOT
BRANCH   3   4
HETATM    4  C   UNK A   1     -11.647  11.942  64.670  1.00  0.00    -0.250 C  
HETATM    5  N   UNK A   1     -12.939  12.605  64.957  1.00  0.00    -0.799 NA 
HETATM    6  C   UNK A   0     -12.756  13.877  65.673  1.00  0.00    -0.495 C  
HETATM    7  H   UNK A   1     -13.571  11.983  65.462  1.00  0.00     0.000 HD 
HETATM    8  C   UNK A   1     -11.846  14.870  64.921  1.00  0.00    -0.337 C  
HETATM    9  C   UNK A   1     -10.495  14.235  64.583  1.00  0.00    -0.298 C  
HETATM   10  O   UNK A   1     -12.469  15.325  63.713  1.00  0.00    -1.004 OA 
HETATM   11  O   UNK A   1      -9.706  14.059  65.769  1.00  0.00    -0.444 OA 
HETATM   12  C   UNK A   1     -10.685  12.882  63.881  1.00  0.00    -0.357 C  
HETATM   13  H   UNK A   1     -11.908  15.936  63.250  1.00  0.00     0.000 HD 
HETATM   14  H   UNK A   1      -8.868  13.665  65.559  1.00  0.00     0.000 HD 
HETATM   15  O   UNK A   1      -9.388  12.308  63.652  1.00  0.00    -0.591 OA 
HETATM   16  H   UNK A   1      -8.801  12.880  63.171  1.00  0.00     0.000 HD 
ENDBRANCH   3   4
TORSDOF 1
ENDMDL
MODEL       12
REMARK 921   NORMALIZED FREE ENERGY PREDICTED BY IDOCK:   -4.72 KCAL/MOL
REMARK 922        TOTAL FREE ENERGY PREDICTED BY IDOCK:   -5.25 KCAL/MOL
REMARK 923 INTER-LIGAND FREE ENERGY PREDICTED BY IDOCK:   -4.99 KCAL/MOL
REMARK 924 INTRA-LIGAND FREE ENERGY PREDICTED BY IDOCK:   -0.27 KCAL/MOL
REMARK 927      BINDING AFFINITY PREDICTED BY RF-SCORE:    0.00 PKD
ROOT
HETATM    1  O   UNK A   1     -12.158  14.437  67.764  1.00  0.00    -0.542 OA 
HETATM    2  H   UNK A   1     -12.182  15.348  68.032  1.00  0.00     0.000 HD 
HETATM    3  C   UNK A   1     -12.400  14.314  66.361  1.00  0.00    -0.350 C  
ENDROOT
BRANCH   3   4
HETATM    4  C   UNK A   1     -12.361  12.827  65.924  1.00  0.00    -0.252 C  
HETATM    5  N   UNK A   1     -13.015  12.606  64.614  1.00  0.00    -0.844 NA 
HETATM    6  C   UNK A   0     -12.183  13.084  63.499  1.00  0.00    -0.501 C  
HETATM    7  H   UNK A   1     -13.945  13.025  64.589  1.00  0.00     0.000 HD 
HETATM    8  C   UNK A   1     -10.782  12.439  63.468  1.00  0.00    -0.430 C  
HETATM    9  C   UNK A   1     -10.060  12.622  64.804  1.00  0.00    -0.217 C  
HETATM   10  O   UNK A   1     -10.866  11.041  63.165  1.00  0.00    -0.772 OA 
HETATM   11  O   UNK A   1      -9.674  13.993  64.989  1.00  0.00    -0.574 OA 
HETATM   12  C   UNK A   1     -10.947  12.172  65.975  1.00  0.00    -0.293 C  
HETATM   13  H   UNK A   1     -10.003  10.644  63.147  1.00  0.00     0.000 HD 
HETATM   14  H   UNK A   1      -9.225  14.107  65.818  1.00  0.00     0.000 HD 
HETATM   15  O   UNK A   1     -10.242  12.432  67.199  1.00  0.00    -0.215 OA 
HETATM   16  H   UNK A   1      -9.380  12.033  67.231  1.00  0.00     0.000 HD 
ENDBRANCH   3   4
TORSDOF 1
ENDMDL
MODEL       13
REMARK 921   NORMALIZED FREE ENERGY PREDICTED BY IDOCK:   -4.69 KCAL/MOL
REMARK 922        TOTAL FREE ENERGY PREDICTED BY IDOCK:   -5.22 KCAL/MOL
REMARK 923 INTER-LIGAND FREE ENERGY PREDICTED BY IDOCK:   -4.96 KCAL/MOL
REMARK 924 INTRA-LIGAND FREE ENERGY PREDICTED BY IDOCK:   -0.26 KCAL/MOL
REMARK 927      BINDING AFFINITY PREDICTED BY RF-SCORE:    0.00 PKD
ROOT
HETATM    1  O   UNK A   1     -11.135  11.075  62.867  1.00  0.00    -0.775 OA 
HETATM    2  H   UNK A   1     -11.595  10.292  62.587  1.00  0.00     0.000 HD 
HETATM    3  C   UNK A   1     -12.049  12.041  63.387  1.00  0.00    -0.493 C  
ENDROOT
BRANCH   3   4
HETATM    4  C   UNK A   1     -11.300  13.319  63.845  1.00  0.00    -0.318 C  
HETATM    5  N   UNK A   1     -12.211  14.469  64.041  1.00  0.00    -0.927 NA 
HETATM    6  C   UNK A   0     -12.998  14.340  65.276  1.00  0.00    -0.173 C  
HETATM    7  H   UNK A   1     -12.813  14.607  63.229  1.00  0.00     0.000 HD 
HETATM    8  C   UNK A   1     -12.126  14.179  66.537  1.00  0.00    -0.454 C  
HETATM    9  C   UNK A   1     -11.150  13.010  66.390  1.00  0.00    -0.287 C  
HETATM   10  O   UNK A   1     -11.388  15.378  66.810  1.00  0.00    -0.258 OA 
HETATM   11  O   UNK A   1     -11.849  11.757  66.437  1.00  0.00    -0.534 OA 
HETATM   12  C   UNK A   1     -10.362  13.115  65.075  1.00  0.00    -0.330 C  
HETATM   13  H   UNK A   1     -10.851  15.279  67.586  1.00  0.00     0.000 HD 
HETATM   14  H   UNK A   1     -11.243  11.031  66.345  1.00  0.00     0.000 HD 
HETATM   15  O   UNK A   1      -9.518  11.959  64.963  1.00  0.00    -0.410 OA 
HETATM   16  H   UNK A   1      -8.946  11.835  65.713  1.00  0.00     0.000 HD 
ENDBRANCH   3   4
TORSDOF 1
ENDMDL
MODEL       14
REMARK 921   NORMALIZED FREE ENERGY PREDICTED BY IDOCK:   -4.67 KCAL/MOL
REMARK 922        TOTAL FREE ENERGY PREDICTED BY IDOCK:   -5.20 KCAL/MOL
REMARK 923 INTER-LIGAND FREE ENERGY PREDICTED BY IDOCK:   -4.93 KCAL/MOL
REMARK 924 INTRA-LIGAND FREE ENERGY PREDICTED BY IDOCK:   -0.27 KCAL/MOL
REMARK 927      BINDING AFFINITY PREDICTED BY RF-SCORE:    0.00 PKD
ROOT
HETATM    1  O   UNK A   1     -12.532  14.914  63.588  1.00  0.00    -1.055 OA 
HETATM    2  H   UNK A   1     -13.063  15.674  63.383  1.00  0.00     0.000 HD 
HETATM    3  C   UNK A   1     -11.562  15.227  64.589  1.00  0.00    -0.333 C  
ENDROOT
BRANCH   3   4
HETATM    4  C   UNK A   1     -10.695  13.986  64.924  1.00  0.00    -0.418 C  
HETATM    5  N   UNK A   1      -9.431  14.348  65.604  1.00  0.00    -0.538 NA 
HETATM    6  C   UNK A   0      -9.651  14.725  67.008  1.00  0.00    -0.241 C  
HETATM    7  H   UNK A   1      -8.933  15.080  65.097  1.00  0.00     0.000 HD 
HETATM    8  C   UNK A   1     -10.358  13.626  67.827  1.00  0.00    -0.241 C  
HETATM    9  C   UNK A   1     -11.669  13.199  67.165  1.00  0.00    -0.377 C  
HETATM   10  O   UNK A   1      -9.513  12.478  67.984  1.00  0.00    -0.196 OA 
HETATM   11  O   UNK A   1     -12.656  14.235  67.279  1.00  0.00    -0.544 OA 
HETATM   12  C   UNK A   1     -11.449  12.853  65.684  1.00  0.00    -0.332 C  
HETATM   13  H   UNK A   1      -9.948  11.802  68.488  1.00  0.00     0.000 HD 
HETATM   14  H   UNK A   1     -13.471  13.970  66.868  1.00  0.00     0.000 HD 
HETATM   15  O   UNK A   1     -12.723  12.528  65.105  1.00  0.00    -0.659 OA 
HETATM   16  H   UNK A   1     -13.183  11.837  65.568  1.00  0.00     0.000 HD 
ENDBRANCH   3   4
TORSDOF 1
ENDMDL
MODEL       15
REMARK 921   NORMALIZED FREE ENERGY PREDICTED BY IDOCK:   -4.64 KCAL/MOL
REMARK 922        TOTAL FREE ENERGY PREDICTED BY IDOCK:   -5.18 KCAL/MOL
REMARK 923 INTER-LIGAND FREE ENERGY PREDICTED BY IDOCK:   -4.92 KCAL/MOL
REMARK 924 INTRA-LIGAND FREE ENERGY PREDICTED BY IDOCK:   -0.26 KCAL/MOL
REMARK 927      BINDING AFFINITY PREDICTED BY RF-SCORE:    0.00 PKD
ROOT
HETATM    1  O   UNK A   1      -8.920  10.030  65.542  1.00  0.00    -0.156 OA 
HETATM    2  H   UNK A   1      -8.945   9.272  66.114  1.00  0.00     0.000 HD 
HETATM    3  C   UNK A   1     -10.206  10.282  64.975  1.00  0.00    -0.207 C  
ENDROOT
BRANCH   3   4
HETATM    4  C   UNK A   1     -10.165  11.520  64.043  1.00  0.00    -0.345 C  
HETATM    5  N   UNK A   1     -11.180  11.452  62.968  1.00  0.00    -0.844 NA 
HETATM    6  C   UNK A   0     -12.534  11.725  63.474  1.00  0.00    -0.389 C  
HETATM    7  H   UNK A   1     -11.141  10.558  62.477  1.00  0.00     0.000 HD 
HETATM    8  C   UNK A   1     -12.653  13.090  64.182  1.00  0.00    -0.224 C  
HETATM    9  C   UNK A   1     -11.616  13.227  65.298  1.00  0.00    -0.310 C  
HETATM   10  O   UNK A   1     -12.488  14.168  63.251  1.00  0.00    -1.146 OA 
HETATM   11  O   UNK A   1     -11.944  12.370  66.403  1.00  0.00    -0.559 OA 
HETATM   12  C   UNK A   1     -10.207  12.892  64.784  1.00  0.00    -0.285 C  
HETATM   13  H   UNK A   1     -12.561  15.009  63.687  1.00  0.00     0.000 HD 
HETATM   14  H   UNK A   1     -11.300  12.455  67.096  1.00  0.00     0.000 HD 
HETATM   15  O   UNK A   1      -9.294  12.971  65.890  1.00  0.00    -0.456 OA 
HETATM   16  H   UNK A   1      -9.320  13.807  66.341  1.00  0.00     0.000 HD 
ENDBRANCH   3   4
TORSDOF 1
ENDMDL
MODEL       16
REMARK 921   NORMALIZED FREE ENERGY PREDICTED BY IDOCK:   -4.59 KCAL/MOL
REMARK 922        TOTAL FREE ENERGY PREDICTED BY IDOCK:   -5.12 KCAL/MOL
REMARK 923 INTER-LIGAND FREE ENERGY PREDICTED BY IDOCK:   -5.07 KCAL/MOL
REMARK 924 INTRA-LIGAND FREE ENERGY PREDICTED BY IDOCK:   -0.05 KCAL/MOL
REMARK 927      BINDING AFFINITY PREDICTED BY RF-SCORE:    0.00 PKD
ROOT
HETATM    1  O   UNK A   1     -12.530  14.026  62.996  1.00  0.00    -1.101 OA 
HETATM    2  H   UNK A   1     -12.470  14.958  62.824  1.00  0.00     0.000 HD 
HETATM    3  C   UNK A   1     -11.978  13.709  64.275  1.00  0.00    -0.445 C  
ENDROOT
BRANCH   3   4
HETATM    4  C   UNK A   1     -12.076  12.187  64.556  1.00  0.00    -0.334 C  
HETATM    5  N   UNK A   1     -11.550  11.371  63.438  1.00  0.00    -0.785 NA 
HETATM    6  C   UNK A   0     -10.081  11.391  63.388  1.00  0.00    -0.405 C  
HETATM    7  H   UNK A   1     -11.956  11.658  62.547  1.00  0.00     0.000 HD 
HETATM    8  C   UNK A   1      -9.423  10.917  64.701  1.00  0.00    -0.244 C  
HETATM    9  C   UNK A   1      -9.939  11.716  65.899  1.00  0.00    -0.231 C  
HETATM   10  O   UNK A   1      -9.668   9.522  64.924  1.00  0.00    -0.444 OA 
HETATM   11  O   UNK A   1      -9.435  13.060  65.867  1.00  0.00    -0.441 OA 
HETATM   12  C   UNK A   1     -11.475  11.740  65.923  1.00  0.00    -0.207 C  
HETATM   13  H   UNK A   1      -9.264   9.230  65.731  1.00  0.00     0.000 HD 
HETATM   14  H   UNK A   1      -9.756  13.557  66.610  1.00  0.00     0.000 HD 
HETATM   15  O   UNK A   1     -11.895  12.558  67.026  1.00  0.00    -0.428 OA 
HETATM   16  H   UNK A   1     -11.529  12.286  67.860  1.00  0.00     0.000 HD 
ENDBRANCH   3   4
TORSDOF 1
ENDMDL
MODEL       17
REMARK 921   NORMALIZED FREE ENERGY PREDICTED BY IDOCK:   -4.55 KCAL/MOL
REMARK 922        TOTAL FREE ENERGY PREDICTED BY IDOCK:   -5.07 KCAL/MOL
REMARK 923 INTER-LIGAND FREE ENERGY PREDICTED BY IDOCK:   -4.86 KCAL/MOL
REMARK 924 INTRA-LIGAND FREE ENERGY PREDICTED BY IDOCK:   -0.22 KCAL/MOL
REMARK 927      BINDING AFFINITY PREDICTED BY RF-SCORE:    0.00 PKD
ROOT
HETATM    1  O   UNK A   1     -10.808  17.104  67.388  1.00  0.00    -0.284 OA 
HETATM    2  H   UNK A   1     -11.357  17.361  68.119  1.00  0.00     0.000 HD 
HETATM    3  C   UNK A   1     -10.883  15.695  67.167  1.00  0.00    -0.297 C  
ENDROOT
BRANCH   3   4
HETATM    4  C   UNK A   1      -9.986  15.275  65.974  1.00  0.00    -0.319 C  
HETATM    5  N   UNK A   1      -9.333  13.965  66.191  1.00  0.00    -0.493 NA 
HETATM    6  C   UNK A   0     -10.276  12.849  66.033  1.00  0.00    -0.284 C  
HETATM    7  H   UNK A   1      -8.864  13.930  67.097  1.00  0.00     0.000 HD 
HETATM    8  C   UNK A   1     -10.972  12.833  64.657  1.00  0.00    -0.327 C  
HETATM    9  C   UNK A   1     -11.657  14.170  64.367  1.00  0.00    -0.362 C  
HETATM   10  O   UNK A   1     -10.035  12.546  63.610  1.00  0.00    -0.573 OA 
HETATM   11  O   UNK A   1     -12.812  14.339  65.203  1.00  0.00    -0.659 OA 
HETATM   12  C   UNK A   1     -10.686  15.342  64.582  1.00  0.00    -0.200 C  
HETATM   13  H   UNK A   1     -10.463  12.537  62.763  1.00  0.00     0.000 HD 
HETATM   14  H   UNK A   1     -13.237  15.170  65.023  1.00  0.00     0.000 HD 
HETATM   15  O   UNK A   1     -11.404  16.566  64.362  1.00  0.00    -1.058 OA 
HETATM   16  H   UNK A   1     -11.831  16.606  63.514  1.00  0.00     0.000 HD 
ENDBRANCH   3   4
TORSDOF 1
ENDMDL
MODEL       18
REMARK 921   NORMALIZED FREE ENERGY PREDICTED BY IDOCK:   -4.51 KCAL/MOL
REMARK 922        TOTAL FREE ENERGY PREDICTED BY IDOCK:   -5.04 KCAL/MOL
REMARK 923 INTER-LIGAND FREE ENERGY PREDICTED BY IDOCK:   -5.00 KCAL/MOL
REMARK 924 INTRA-LIGAND FREE ENERGY PREDICTED BY IDOCK:   -0.04 KCAL/MOL
REMARK 927      BINDING AFFINITY PREDICTED BY RF-SCORE:    0.00 PKD
ROOT
HETATM    1  O   UNK A   1     -12.872  12.053  63.248  1.00  0.00    -0.771 OA 
HETATM    2  H   UNK A   1     -13.782  12.150  62.993  1.00  0.00     0.000 HD 
HETATM    3  C   UNK A   1     -12.650  12.589  64.553  1.00  0.00    -0.421 C  
ENDROOT
BRANCH   3   4
HETATM    4  C   UNK A   1     -11.165  12.430  64.969  1.00  0.00    -0.312 C  
HETATM    5  N   UNK A   1     -10.280  13.400  64.285  1.00  0.00    -0.706 NA 
HETATM    6  C   UNK A   0     -10.419  14.755  64.840  1.00  0.00    -0.369 C  
HETATM    7  H   UNK A   1     -10.434  13.394  63.276  1.00  0.00     0.000 HD 
HETATM    8  C   UNK A   1     -10.146  14.820  66.356  1.00  0.00    -0.280 C  
HETATM    9  C   UNK A   1     -11.024  13.826  67.120  1.00  0.00    -0.290 C  
HETATM   10  O   UNK A   1      -8.768  14.548  66.643  1.00  0.00    -0.381 OA 
HETATM   11  O   UNK A   1     -12.394  14.255  67.118  1.00  0.00    -0.590 OA 
HETATM   12  C   UNK A   1     -10.920  12.420  66.509  1.00  0.00    -0.272 C  
HETATM   13  H   UNK A   1      -8.600  14.588  67.577  1.00  0.00     0.000 HD 
HETATM   14  H   UNK A   1     -12.939  13.638  67.592  1.00  0.00     0.000 HD 
HETATM   15  O   UNK A   1     -11.815  11.553  67.223  1.00  0.00    -0.609 OA 
HETATM   16  H   UNK A   1     -11.666  11.546  68.162  1.00  0.00     0.000 HD 
ENDBRANCH   3   4
TORSDOF 1
ENDMDL
MODEL       19
REMARK 921   NORMALIZED FREE ENERGY PREDICTED BY IDOCK:   -4.46 KCAL/MOL
REMARK 922        TOTAL FREE ENERGY PREDICTED BY IDOCK:   -4.99 KCAL/MOL
REMARK 923 INTER-LIGAND FREE ENERGY PREDICTED BY IDOCK:   -4.94 KCAL/MOL
REMARK 924 INTRA-LIGAND FREE ENERGY PREDICTED BY IDOCK:   -0.05 KCAL/MOL
REMARK 927      BINDING AFFINITY PREDICTED BY RF-SCORE:    0.00 PKD
ROOT
HETATM    1  O   UNK A   1     -10.831  16.767  64.428  1.00  0.00    -0.951 OA 
HETATM    2  H   UNK A   1      -9.985  17.175  64.569  1.00  0.00     0.000 HD 
HETATM    3  C   UNK A   1     -10.952  15.570  65.198  1.00  0.00    -0.409 C  
ENDROOT
BRANCH   3   4
HETATM    4  C   UNK A   1     -12.332  14.903  64.969  1.00  0.00    -0.114 C  
HETATM    5  N   UNK A   1     -12.516  14.452  63.572  1.00  0.00    -1.090 NA 
HETATM    6  C   UNK A   0     -11.744  13.235  63.282  1.00  0.00    -0.120 C  
HETATM    7  H   UNK A   1     -12.297  15.196  62.909  1.00  0.00     0.000 HD 
HETATM    8  C   UNK A   1     -12.079  12.064  64.229  1.00  0.00    -0.322 C  
HETATM    9  C   UNK A   1     -11.920  12.475  65.694  1.00  0.00    -0.433 C  
HETATM   10  O   UNK A   1     -13.416  11.594  64.014  1.00  0.00    -0.334 OA 
HETATM   11  O   UNK A   1     -10.533  12.644  66.026  1.00  0.00    -0.259 OA 
HETATM   12  C   UNK A   1     -12.685  13.775  65.986  1.00  0.00    -0.354 C  
HETATM   13  H   UNK A   1     -13.622  10.874  64.597  1.00  0.00     0.000 HD 
HETATM   14  H   UNK A   1     -10.435  12.900  66.936  1.00  0.00     0.000 HD 
HETATM   15  O   UNK A   1     -12.441  14.143  67.353  1.00  0.00    -0.554 OA 
HETATM   16  H   UNK A   1     -12.656  13.455  67.973  1.00  0.00     0.000 HD 
ENDBRANCH   3   4
TORSDOF 1
ENDMDL
MODEL       20
REMARK 921   NORMALIZED FREE ENERGY PREDICTED BY IDOCK:   -4.37 KCAL/MOL
REMARK 922        TOTAL FREE ENERGY PREDICTED BY IDOCK:   -4.89 KCAL/MOL
REMARK 923 INTER-LIGAND FREE ENERGY PREDICTED BY IDOCK:   -4.63 KCAL/MOL
REMARK 924 INTRA-LIGAND FREE ENERGY PREDICTED BY IDOCK:   -0.26 KCAL/MOL
REMARK 927      BINDING AFFINITY PREDICTED BY RF-SCORE:    0.00 PKD
ROOT
HETATM    1  O   UNK A   1     -12.434  14.810  63.806  1.00  0.00    -1.045 OA 
HETATM    2  H   UNK A   1     -12.693  14.388  62.996  1.00  0.00     0.000 HD 
HETATM    3  C   UNK A   1     -12.452  13.882  64.891  1.00  0.00    -0.391 C  
ENDROOT
BRANCH   3   4
HETATM    4  C   UNK A   1     -12.029  14.572  66.214  1.00  0.00    -0.322 C  
HETATM    5  N   UNK A   1     -12.338  13.749  67.404  1.00  0.00    -0.433 NA 
HETATM    6  C   UNK A   0     -11.404  12.623  67.550  1.00  0.00    -0.308 C  
HETATM    7  H   UNK A   1     -13.307  13.428  67.392  1.00  0.00     0.000 HD 
HETATM    8  C   UNK A   1      -9.928  13.065  67.623  1.00  0.00    -0.215 C  
HETATM    9  C   UNK A   1      -9.551  13.934  66.422  1.00  0.00    -0.277 C  
HETATM   10  O   UNK A   1      -9.668  13.792  68.831  1.00  0.00    -0.397 OA 
HETATM   11  O   UNK A   1      -9.491  13.146  65.224  1.00  0.00    -0.475 OA 
HETATM   12  C   UNK A   1     -10.556  15.082  66.238  1.00  0.00    -0.307 C  
HETATM   13  H   UNK A   1      -8.760  14.064  68.877  1.00  0.00     0.000 HD 
HETATM   14  H   UNK A   1      -9.257  13.686  64.478  1.00  0.00     0.000 HD 
HETATM   15  O   UNK A   1     -10.187  15.817  65.060  1.00  0.00    -0.456 OA 
HETATM   16  H   UNK A   1      -9.289  16.128  65.074  1.00  0.00     0.000 HD 
ENDBRANCH   3   4
TORSDOF 1
ENDMDL
MODEL       21
REMARK 921   NORMALIZED FREE ENERGY PREDICTED BY IDOCK:   -4.36 KCAL/MOL
REMARK 922        TOTAL FREE ENERGY PREDICTED BY IDOCK:   -4.88 KCAL/MOL
REMARK 923 INTER-LIGAND FREE ENERGY PREDICTED BY IDOCK:   -4.62 KCAL/MOL
REMARK 924 INTRA-LIGAND FREE ENERGY PREDICTED BY IDOCK:   -0.25 KCAL/MOL
REMARK 927      BINDING AFFINITY PREDICTED BY RF-SCORE:    0.00 PKD
ROOT
HETATM    1  O   UNK A   1      -8.683  11.922  66.900  1.00  0.00    -0.180 OA 
HETATM    2  H   UNK A   1      -7.972  12.483  67.186  1.00  0.00     0.000 HD 
HETATM    3  C   UNK A   1      -9.811  12.698  66.494  1.00  0.00    -0.256 C  
ENDROOT
BRANCH   3   4
HETATM    4  C   UNK A   1     -10.971  11.781  66.026  1.00  0.00    -0.306 C  
HETATM    5  N   UNK A   1     -12.237  12.524  65.839  1.00  0.00    -0.624 NA 
HETATM    6  C   UNK A   0     -12.221  13.336  64.613  1.00  0.00    -0.407 C  
HETATM    7  H   UNK A   1     -12.458  13.092  66.658  1.00  0.00     0.000 HD 
HETATM    8  C   UNK A   1     -11.940  12.509  63.342  1.00  0.00    -0.514 C  
HETATM    9  C   UNK A   1     -10.646  11.705  63.480  1.00  0.00    -0.435 C  
HETATM   10  O   UNK A   1     -13.024  11.614  63.061  1.00  0.00    -0.854 OA 
HETATM   11  O   UNK A   1      -9.503  12.573  63.442  1.00  0.00    -0.596 OA 
HETATM   12  C   UNK A   1     -10.639  10.896  64.786  1.00  0.00    -0.246 C  
HETATM   13  H   UNK A   1     -12.850  11.104  62.278  1.00  0.00     0.000 HD 
HETATM   14  H   UNK A   1      -8.699  12.074  63.528  1.00  0.00     0.000 HD 
HETATM   15  O   UNK A   1      -9.375  10.220  64.890  1.00  0.00    -0.207 OA 
HETATM   16  H   UNK A   1      -9.173   9.680  64.134  1.00  0.00     0.000 HD 
ENDBRANCH   3   4
TORSDOF 1
ENDMDL
MODEL       22
REMARK 921   NORMALIZED FREE ENERGY PREDICTED BY IDOCK:   -4.32 KCAL/MOL
REMARK 922        TOTAL FREE ENERGY PREDICTED BY IDOCK:   -4.83 KCAL/MOL
REMARK 923 INTER-LIGAND FREE ENERGY PREDICTED BY IDOCK:   -4.76 KCAL/MOL
REMARK 924 INTRA-LIGAND FREE ENERGY PREDICTED BY IDOCK:   -0.07 KCAL/MOL
REMARK 927      BINDING AFFINITY PREDICTED BY RF-SCORE:    0.00 PKD
ROOT
HETATM    1  O   UNK A   1     -12.514  14.132  63.275  1.00  0.00    -1.146 OA 
HETATM    2  H   UNK A   1     -12.319  14.490  62.417  1.00  0.00     0.000 HD 
HETATM    3  C   UNK A   1     -11.678  13.010  63.560  1.00  0.00    -0.471 C  
ENDROOT
BRANCH   3   4
HETATM    4  C   UNK A   1     -11.996  12.426  64.961  1.00  0.00    -0.402 C  
HETATM    5  N   UNK A   1     -10.871  11.641  65.515  1.00  0.00    -0.287 NA 
HETATM    6  C   UNK A   0      -9.780  12.506  65.989  1.00  0.00    -0.241 C  
HETATM    7  H   UNK A   1     -10.533  10.952  64.842  1.00  0.00     0.000 HD 
HETATM    8  C   UNK A   1     -10.236  13.532  67.046  1.00  0.00    -0.249 C  
HETATM    9  C   UNK A   1     -11.411  14.368  66.534  1.00  0.00    -0.350 C  
HETATM   10  O   UNK A   1     -10.615  12.882  68.265  1.00  0.00    -0.232 OA 
HETATM   11  O   UNK A   1     -10.979  15.276  65.509  1.00  0.00    -0.336 OA 
HETATM   12  C   UNK A   1     -12.530  13.467  65.991  1.00  0.00    -0.399 C  
HETATM   13  H   UNK A   1     -10.896  13.514  68.916  1.00  0.00     0.000 HD 
HETATM   14  H   UNK A   1     -11.709  15.795  65.191  1.00  0.00     0.000 HD 
HETATM   15  O   UNK A   1     -13.570  14.309  65.466  1.00  0.00    -0.650 OA 
HETATM   16  H   UNK A   1     -13.895  14.943  66.095  1.00  0.00     0.000 HD 
ENDBRANCH   3   4
TORSDOF 1
ENDMDL
MODEL       23
REMARK 921   NORMALIZED FREE ENERGY PREDICTED BY IDOCK:   -4.29 KCAL/MOL
REMARK 922        TOTAL FREE ENERGY PREDICTED BY IDOCK:   -4.81 KCAL/MOL
REMARK 923 INTER-LIGAND FREE ENERGY PREDICTED BY IDOCK:   -4.77 KCAL/MOL
REMARK 924 INTRA-LIGAND FREE ENERGY PREDICTED BY IDOCK:   -0.04 KCAL/MOL
REMARK 927      BINDING AFFINITY PREDICTED BY RF-SCORE:    0.00 PKD
ROOT
HETATM    1  O   UNK A   1     -14.147   8.853  73.221  1.00  0.00    -1.211 OA 
HETATM    2  H   UNK A   1     -15.085   8.756  73.106  1.00  0.00     0.000 HD 
HETATM    3  C   UNK A   1     -13.442   8.373  72.075  1.00  0.00    -0.350 C  
ENDROOT
BRANCH   3   4
HETATM    4  C   UNK A   1     -11.911   8.531  72.263  1.00  0.00    -0.385 C  
HETATM    5  N   UNK A   1     -11.357   7.552  73.225  1.00  0.00    -0.614 NA 
HETATM    6  C   UNK A   0     -11.271   6.203  72.648  1.00  0.00    -0.274 C  
HETATM    7  H   UNK A   1     -11.886   7.549  74.098  1.00  0.00     0.000 HD 
HETATM    8  C   UNK A   1     -10.436   6.151  71.352  1.00  0.00    -0.225 C  
HETATM    9  C   UNK A   1     -10.954   7.154  70.319  1.00  0.00    -0.263 C  
HETATM   10  O   UNK A   1      -9.054   6.421  71.618  1.00  0.00    -0.144 OA 
HETATM   11  O   UNK A   1     -12.220   6.729  69.790  1.00  0.00    -0.610 OA 
HETATM   12  C   UNK A   1     -11.094   8.554  70.935  1.00  0.00    -0.255 C  
HETATM   13  H   UNK A   1      -8.540   6.389  70.821  1.00  0.00     0.000 HD 
HETATM   14  H   UNK A   1     -12.542   7.352  69.149  1.00  0.00     0.000 HD 
HETATM   15  O   UNK A   1     -11.647   9.430  69.940  1.00  0.00    -0.436 OA 
HETATM   16  H   UNK A   1     -11.148   9.445  69.131  1.00  0.00     0.000 HD 
ENDBRANCH   3   4
TORSDOF 1
ENDMDL
MODEL       24
REMARK 921   NORMALIZED FREE ENERGY PREDICTED BY IDOCK:   -4.25 KCAL/MOL
REMARK 922        TOTAL FREE ENERGY PREDICTED BY IDOCK:   -4.76 KCAL/MOL
REMARK 923 INTER-LIGAND FREE ENERGY PREDICTED BY IDOCK:   -4.71 KCAL/MOL
REMARK 924 INTRA-LIGAND FREE ENERGY PREDICTED BY IDOCK:   -0.04 KCAL/MOL
REMARK 927      BINDING AFFINITY PREDICTED BY RF-SCORE:    0.00 PKD
ROOT
HETATM    1  O   UNK A   1     -11.564  16.153  63.930  1.00  0.00    -1.369 OA 
HETATM    2  H   UNK A   1     -11.546  15.991  62.994  1.00  0.00     0.000 HD 
HETATM    3  C   UNK A   1     -11.099  15.012  64.652  1.00  0.00    -0.321 C  
ENDROOT
BRANCH   3   4
HETATM    4  C   UNK A   1     -11.127  15.277  66.179  1.00  0.00    -0.280 C  
HETATM    5  N   UNK A   1     -12.194  14.513  66.866  1.00  0.00    -0.509 NA 
HETATM    6  C   UNK A   0     -11.852  13.089  66.995  1.00  0.00    -0.377 C  
HETATM    7  H   UNK A   1     -13.095  14.638  66.404  1.00  0.00     0.000 HD 
HETATM    8  C   UNK A   1     -10.518  12.851  67.733  1.00  0.00    -0.220 C  
HETATM    9  C   UNK A   1      -9.376  13.628  67.076  1.00  0.00    -0.248 C  
HETATM   10  O   UNK A   1     -10.617  13.233  69.111  1.00  0.00    -0.414 OA 
HETATM   11  O   UNK A   1      -9.036  13.053  65.805  1.00  0.00    -0.426 OA 
HETATM   12  C   UNK A   1      -9.751  15.106  66.893  1.00  0.00    -0.239 C  
HETATM   13  H   UNK A   1      -9.796  13.087  69.565  1.00  0.00     0.000 HD 
HETATM   14  H   UNK A   1      -8.327  13.536  65.397  1.00  0.00     0.000 HD 
HETATM   15  O   UNK A   1      -8.671  15.764  66.212  1.00  0.00    -0.310 OA 
HETATM   16  H   UNK A   1      -7.832  15.660  66.647  1.00  0.00     0.000 HD 
ENDBRANCH   3   4
TORSDOF 1
ENDMDL
MODEL       25
REMARK 921   NORMALIZED FREE ENERGY PREDICTED BY IDOCK:   -4.25 KCAL/MOL
REMARK 922        TOTAL FREE ENERGY PREDICTED BY IDOCK:   -4.76 KCAL/MOL
REMARK 923 INTER-LIGAND FREE ENERGY PREDICTED BY IDOCK:   -4.71 KCAL/MOL
REMARK 924 INTRA-LIGAND FREE ENERGY PREDICTED BY IDOCK:   -0.05 KCAL/MOL
REMARK 927      BINDING AFFINITY PREDICTED BY RF-SCORE:    0.00 PKD
ROOT
HETATM    1  O   UNK A   1     -12.042  15.498  68.877  1.00  0.00    -0.555 OA 
HETATM    2  H   UNK A   1     -12.274  15.239  69.761  1.00  0.00     0.000 HD 
HETATM    3  C   UNK A   1     -11.642  14.365  68.105  1.00  0.00    -0.329 C  
ENDROOT
BRANCH   3   4
HETATM    4  C   UNK A   1     -11.264  14.787  66.662  1.00  0.00    -0.346 C  
HETATM    5  N   UNK A   1      -9.814  14.648  66.395  1.00  0.00    -0.272 NA 
HETATM    6  C   UNK A   0      -9.422  13.242  66.218  1.00  0.00    -0.184 C  
HETATM    7  H   UNK A   1      -9.258  15.099  67.121  1.00  0.00     0.000 HD 
HETATM    8  C   UNK A   1     -10.203  12.531  65.094  1.00  0.00    -0.279 C  
HETATM    9  C   UNK A   1     -11.713  12.652  65.308  1.00  0.00    -0.378 C  
HETATM   10  O   UNK A   1      -9.864  13.071  63.810  1.00  0.00    -0.730 OA 
HETATM   11  O   UNK A   1     -12.135  11.847  66.419  1.00  0.00    -0.552 OA 
HETATM   12  C   UNK A   1     -12.119  14.115  65.544  1.00  0.00    -0.414 C  
HETATM   13  H   UNK A   1     -10.345  12.634  63.118  1.00  0.00     0.000 HD 
HETATM   14  H   UNK A   1     -13.072  11.923  66.552  1.00  0.00     0.000 HD 
HETATM   15  O   UNK A   1     -13.531  14.154  65.805  1.00  0.00    -0.670 OA 
HETATM   16  H   UNK A   1     -14.052  13.745  65.124  1.00  0.00     0.000 HD 
ENDBRANCH   3   4
TORSDOF 1
ENDMDL
MODEL       26
REMARK 921   NORMALIZED FREE ENERGY PREDICTED BY IDOCK:   -4.24 KCAL/MOL
REMARK 922        TOTAL FREE ENERGY PREDICTED BY IDOCK:   -4.75 KCAL/MOL
REMARK 923 INTER-LIGAND FREE ENERGY PREDICTED BY IDOCK:   -4.50 KCAL/MOL
REMARK 924 INTRA-LIGAND FREE ENERGY PREDICTED BY IDOCK:   -0.25 KCAL/MOL
REMARK 927      BINDING AFFINITY PREDICTED BY RF-SCORE:    0.00 PKD
ROOT
HETATM    1  O   UNK A   1      -7.248  21.342  67.386  1.00  0.00    -0.675 OA 
HETATM    2  H   UNK A   1      -6.819  21.661  68.172  1.00  0.00     0.000 HD 
HETATM    3  C   UNK A   1      -7.360  19.918  67.410  1.00  0.00    -0.256 C  
ENDROOT
BRANCH   3   4
HETATM    4  C   UNK A   1      -8.060  19.399  66.128  1.00  0.00    -0.314 C  
HETATM    5  N   UNK A   1      -7.619  18.035  65.757  1.00  0.00    -0.550 NA 
HETATM    6  C   UNK A   0      -8.202  17.012  66.638  1.00  0.00    -0.260 C  
HETATM    7  H   UNK A   1      -6.601  17.968  65.733  1.00  0.00     0.000 HD 
HETATM    8  C   UNK A   1      -9.744  17.044  66.667  1.00  0.00    -0.277 C  
HETATM    9  C   UNK A   1     -10.262  18.436  67.032  1.00  0.00    -0.379 C  
HETATM   10  O   UNK A   1     -10.290  16.654  65.400  1.00  0.00    -0.584 OA 
HETATM   11  O   UNK A   1     -10.004  18.727  68.414  1.00  0.00    -0.353 OA 
HETATM   12  C   UNK A   1      -9.615  19.512  66.147  1.00  0.00    -0.362 C  
HETATM   13  H   UNK A   1     -11.239  16.674  65.418  1.00  0.00     0.000 HD 
HETATM   14  H   UNK A   1     -10.325  19.592  68.641  1.00  0.00     0.000 HD 
HETATM   15  O   UNK A   1     -10.088  20.797  66.582  1.00  0.00    -0.484 OA 
HETATM   16  H   UNK A   1     -11.036  20.866  66.594  1.00  0.00     0.000 HD 
ENDBRANCH   3   4
TORSDOF 1
ENDMDL
MODEL       27
REMARK 921   NORMALIZED FREE ENERGY PREDICTED BY IDOCK:   -4.24 KCAL/MOL
REMARK 922        TOTAL FREE ENERGY PREDICTED BY IDOCK:   -4.75 KCAL/MOL
REMARK 923 INTER-LIGAND FREE ENERGY PREDICTED BY IDOCK:   -4.48 KCAL/MOL
REMARK 924 INTRA-LIGAND FREE ENERGY PREDICTED BY IDOCK:   -0.26 KCAL/MOL
REMARK 927      BINDING AFFINITY PREDICTED BY RF-SCORE:    0.00 PKD
ROOT
HETATM    1  O   UNK A   1      -9.855  11.640  67.417  1.00  0.00    -0.182 OA 
HETATM    2  H   UNK A   1     -10.200  10.862  67.838  1.00  0.00     0.000 HD 
HETATM    3  C   UNK A   1     -10.495  11.864  66.160  1.00  0.00    -0.237 C  
ENDROOT
BRANCH   3   4
HETATM    4  C   UNK A   1      -9.933  13.136  65.474  1.00  0.00    -0.207 C  
HETATM    5  N   UNK A   1     -10.267  13.194  64.033  1.00  0.00    -0.725 NA 
HETATM    6  C   UNK A   0     -11.677  13.548  63.810  1.00  0.00    -0.321 C  
HETATM    7  H   UNK A   1     -10.025  12.322  63.560  1.00  0.00     0.000 HD 
HETATM    8  C   UNK A   1     -12.077  14.886  64.466  1.00  0.00    -0.407 C  
HETATM    9  C   UNK A   1     -11.742  14.892  65.959  1.00  0.00    -0.173 C  
HETATM   10  O   UNK A   1     -11.416  15.988  63.830  1.00  0.00    -1.188 OA 
HETATM   11  O   UNK A   1     -12.622  14.015  66.679  1.00  0.00    -0.516 OA 
HETATM   12  C   UNK A   1     -10.284  14.472  66.197  1.00  0.00    -0.305 C  
HETATM   13  H   UNK A   1     -11.662  16.811  64.234  1.00  0.00     0.000 HD 
HETATM   14  H   UNK A   1     -12.414  14.019  67.607  1.00  0.00     0.000 HD 
HETATM   15  O   UNK A   1     -10.053  14.431  67.614  1.00  0.00    -0.220 OA 
HETATM   16  H   UNK A   1     -10.266  15.246  68.055  1.00  0.00     0.000 HD 
ENDBRANCH   3   4
TORSDOF 1
ENDMDL
MODEL       28
REMARK 921   NORMALIZED FREE ENERGY PREDICTED BY IDOCK:   -4.23 KCAL/MOL
REMARK 922        TOTAL FREE ENERGY PREDICTED BY IDOCK:   -4.74 KCAL/MOL
REMARK 923 INTER-LIGAND FREE ENERGY PREDICTED BY IDOCK:   -4.54 KCAL/MOL
REMARK 924 INTRA-LIGAND FREE ENERGY PREDICTED BY IDOCK:   -0.20 KCAL/MOL
REMARK 927      BINDING AFFINITY PREDICTED BY RF-SCORE:    0.00 PKD
ROOT
HETATM    1  O   UNK A   1     -10.834  13.024  69.456  1.00  0.00    -0.451 OA 
HETATM    2  H   UNK A   1     -10.106  12.711  69.980  1.00  0.00     0.000 HD 
HETATM    3  C   UNK A   1     -10.368  13.815  68.362  1.00  0.00    -0.247 C  
ENDROOT
BRANCH   3   4
HETATM    4  C   UNK A   1     -11.555  14.326  67.506  1.00  0.00    -0.363 C  
HETATM    5  N   UNK A   1     -11.352  15.713  67.029  1.00  0.00    -0.138 NA 
HETATM    6  C   UNK A   0     -10.374  15.778  65.934  1.00  0.00    -0.354 C  
HETATM    7  H   UNK A   1     -11.093  16.334  67.796  1.00  0.00     0.000 HD 
HETATM    8  C   UNK A   1     -10.752  14.891  64.730  1.00  0.00    -0.341 C  
HETATM    9  C   UNK A   1     -10.989  13.443  65.163  1.00  0.00    -0.303 C  
HETATM   10  O   UNK A   1     -11.927  15.386  64.075  1.00  0.00    -0.904 OA 
HETATM   11  O   UNK A   1      -9.751  12.813  65.527  1.00  0.00    -0.414 OA 
HETATM   12  C   UNK A   1     -11.972  13.376  66.342  1.00  0.00    -0.406 C  
HETATM   13  H   UNK A   1     -12.160  14.839  63.334  1.00  0.00     0.000 HD 
HETATM   14  H   UNK A   1      -9.898  11.914  65.796  1.00  0.00     0.000 HD 
HETATM   15  O   UNK A   1     -12.098  12.003  66.744  1.00  0.00    -0.613 OA 
HETATM   16  H   UNK A   1     -12.352  11.423  66.034  1.00  0.00     0.000 HD 
ENDBRANCH   3   4
TORSDOF 1
ENDMDL
MODEL       29
REMARK 921   NORMALIZED FREE ENERGY PREDICTED BY IDOCK:   -4.22 KCAL/MOL
REMARK 922        TOTAL FREE ENERGY PREDICTED BY IDOCK:   -4.73 KCAL/MOL
REMARK 923 INTER-LIGAND FREE ENERGY PREDICTED BY IDOCK:   -4.61 KCAL/MOL
REMARK 924 INTRA-LIGAND FREE ENERGY PREDICTED BY IDOCK:   -0.12 KCAL/MOL
REMARK 927      BINDING AFFINITY PREDICTED BY RF-SCORE:    0.00 PKD
ROOT
HETATM    1  O   UNK A   1     -14.217   8.937  73.304  1.00  0.00    -1.197 OA 
HETATM    2  H   UNK A   1     -14.420   9.440  74.084  1.00  0.00     0.000 HD 
HETATM    3  C   UNK A   1     -13.409   9.699  72.405  1.00  0.00    -0.338 C  
ENDROOT
BRANCH   3   4
HETATM    4  C   UNK A   1     -13.076   8.879  71.132  1.00  0.00    -0.102 C  
HETATM    5  N   UNK A   1     -11.989   9.490  70.335  1.00  0.00    -0.457 NA 
HETATM    6  C   UNK A   0     -10.672   9.289  70.957  1.00  0.00    -0.316 C  
HETATM    7  H   UNK A   1     -12.170  10.479  70.159  1.00  0.00     0.000 HD 
HETATM    8  C   UNK A   1     -10.336   7.803  71.196  1.00  0.00    -0.200 C  
HETATM    9  C   UNK A   1     -11.433   7.111  72.007  1.00  0.00    -0.274 C  
HETATM   10  O   UNK A   1     -10.158   7.109  69.954  1.00  0.00    -0.187 OA 
HETATM   11  O   UNK A   1     -11.422   7.567  73.368  1.00  0.00    -0.629 OA 
HETATM   12  C   UNK A   1     -12.816   7.363  71.387  1.00  0.00    -0.365 C  
HETATM   13  H   UNK A   1      -9.951   6.194  70.101  1.00  0.00     0.000 HD 
HETATM   14  H   UNK A   1     -12.103   7.137  73.872  1.00  0.00     0.000 HD 
HETATM   15  O   UNK A   1     -13.804   6.748  72.228  1.00  0.00    -0.546 OA 
HETATM   16  H   UNK A   1     -13.646   5.823  72.383  1.00  0.00     0.000 HD 
ENDBRANCH   3   4
TORSDOF 1
ENDMDL
MODEL       30
REMARK 921   NORMALIZED FREE ENERGY PREDICTED BY IDOCK:   -4.21 KCAL/MOL
REMARK 922        TOTAL FREE ENERGY PREDICTED BY IDOCK:   -4.71 KCAL/MOL
REMARK 923 INTER-LIGAND FREE ENERGY PREDICTED BY IDOCK:   -4.47 KCAL/MOL
REMARK 924 INTRA-LIGAND FREE ENERGY PREDICTED BY IDOCK:   -0.25 KCAL/MOL
REMARK 927      BINDING AFFINITY PREDICTED BY RF-SCORE:    0.00 PKD
ROOT
HETATM    1  O   UNK A   1     -14.298  15.639  72.487  1.00  0.00    -0.537 OA 
HETATM    2  H   UNK A   1     -15.218  15.866  72.431  1.00  0.00     0.000 HD 
HETATM    3  C   UNK A   1     -13.982  14.573  71.590  1.00  0.00    -0.448 C  
ENDROOT
BRANCH   3   4
HETATM    4  C   UNK A   1     -12.480  14.202  71.681  1.00  0.00    -0.311 C  
HETATM    5  N   UNK A   1     -12.155  12.970  70.927  1.00  0.00    -0.465 NA 
HETATM    6  C   UNK A   0     -12.135  13.206  69.475  1.00  0.00    -0.238 C  
HETATM    7  H   UNK A   1     -12.789  12.209  71.170  1.00  0.00     0.000 HD 
HETATM    8  C   UNK A   1     -11.152  14.318  69.055  1.00  0.00    -0.259 C  
HETATM    9  C   UNK A   1     -11.429  15.617  69.814  1.00  0.00    -0.342 C  
HETATM   10  O   UNK A   1      -9.795  13.918  69.284  1.00  0.00    -0.414 OA 
HETATM   11  O   UNK A   1     -12.654  16.216  69.364  1.00  0.00    -0.417 OA 
HETATM   12  C   UNK A   1     -11.502  15.364  71.328  1.00  0.00    -0.389 C  
HETATM   13  H   UNK A   1      -9.189  14.602  69.026  1.00  0.00     0.000 HD 
HETATM   14  H   UNK A   1     -12.826  17.023  69.835  1.00  0.00     0.000 HD 
HETATM   15  O   UNK A   1     -11.831  16.603  71.975  1.00  0.00    -0.648 OA 
HETATM   16  H   UNK A   1     -11.234  17.311  71.760  1.00  0.00     0.000 HD 
ENDBRANCH   3   4
TORSDOF 1
ENDMDL
MODEL       31
REMARK 921   NORMALIZED FREE ENERGY PREDICTED BY IDOCK:   -4.17 KCAL/MOL
REMARK 922        TOTAL FREE ENERGY PREDICTED BY IDOCK:   -4.68 KCAL/MOL
REMARK 923 INTER-LIGAND FREE ENERGY PREDICTED BY IDOCK:   -4.42 KCAL/MOL
REMARK 924 INTRA-LIGAND FREE ENERGY PREDICTED BY IDOCK:   -0.26 KCAL/MOL
REMARK 927      BINDING AFFINITY PREDICTED BY RF-SCORE:    0.00 PKD
ROOT
HETATM    1  O   UNK A   1     -10.470  15.323  67.529  1.00  0.00    -0.256 OA 
HETATM    2  H   UNK A   1      -9.995  14.513  67.673  1.00  0.00     0.000 HD 
HETATM    3  C   UNK A   1      -9.784  16.427  68.122  1.00  0.00    -0.229 C  
ENDROOT
BRANCH   3   4
HETATM    4  C   UNK A   1     -10.558  17.749  67.886  1.00  0.00    -0.382 C  
HETATM    5  N   UNK A   1     -10.262  18.768  68.917  1.00  0.00    -0.481 NA 
HETATM    6  C   UNK A   0      -8.934  19.370  68.728  1.00  0.00    -0.349 C  
HETATM    7  H   UNK A   1     -10.366  18.386  69.858  1.00  0.00     0.000 HD 
HETATM    8  C   UNK A   1      -8.749  20.006  67.336  1.00  0.00    -0.345 C  
HETATM    9  C   UNK A   1      -9.055  19.001  66.223  1.00  0.00    -0.287 C  
HETATM   10  O   UNK A   1      -9.592  21.155  67.178  1.00  0.00    -0.680 OA 
HETATM   11  O   UNK A   1      -8.031  17.997  66.151  1.00  0.00    -0.405 OA 
HETATM   12  C   UNK A   1     -10.421  18.334  66.447  1.00  0.00    -0.366 C  
HETATM   13  H   UNK A   1      -9.478  21.546  66.321  1.00  0.00     0.000 HD 
HETATM   14  H   UNK A   1      -8.222  17.373  65.460  1.00  0.00     0.000 HD 
HETATM   15  O   UNK A   1     -10.618  17.357  65.413  1.00  0.00    -0.638 OA 
HETATM   16  H   UNK A   1     -10.534  17.713  64.535  1.00  0.00     0.000 HD 
ENDBRANCH   3   4
TORSDOF 1
ENDMDL
MODEL       32
REMARK 921   NORMALIZED FREE ENERGY PREDICTED BY IDOCK:   -4.16 KCAL/MOL
REMARK 922        TOTAL FREE ENERGY PREDICTED BY IDOCK:   -4.66 KCAL/MOL
REMARK 923 INTER-LIGAND FREE ENERGY PREDICTED BY IDOCK:   -4.40 KCAL/MOL
REMARK 924 INTRA-LIGAND FREE ENERGY PREDICTED BY IDOCK:   -0.27 KCAL/MOL
REMARK 927      BINDING AFFINITY PREDICTED BY RF-SCORE:    0.00 PKD
ROOT
HETATM    1  O   UNK A   1      -9.859  14.018  69.074  1.00  0.00    -0.405 OA 
HETATM    2  H   UNK A   1      -9.904  14.650  69.781  1.00  0.00     0.000 HD 
HETATM    3  C   UNK A   1     -11.001  14.127  68.222  1.00  0.00    -0.251 C  
ENDROOT
BRANCH   3   4
HETATM    4  C   UNK A   1     -10.927  13.095  67.067  1.00  0.00    -0.269 C  
HETATM    5  N   UNK A   1     -12.253  12.821  66.469  1.00  0.00    -0.496 NA 
HETATM    6  C   UNK A   0     -12.709  13.928  65.616  1.00  0.00    -0.495 C  
HETATM    7  H   UNK A   1     -12.944  12.597  67.186  1.00  0.00     0.000 HD 
HETATM    8  C   UNK A   1     -11.717  14.270  64.485  1.00  0.00    -0.418 C  
HETATM    9  C   UNK A   1     -10.320  14.551  65.041  1.00  0.00    -0.413 C  
HETATM   10  O   UNK A   1     -11.639  13.205  63.529  1.00  0.00    -0.625 OA 
HETATM   11  O   UNK A   1     -10.297  15.801  65.748  1.00  0.00    -0.322 OA 
HETATM   12  C   UNK A   1      -9.863  13.419  65.974  1.00  0.00    -0.263 C  
HETATM   13  H   UNK A   1     -11.029  13.415  62.833  1.00  0.00     0.000 HD 
HETATM   14  H   UNK A   1      -9.429  15.975  66.093  1.00  0.00     0.000 HD 
HETATM   15  O   UNK A   1      -8.580  13.773  66.515  1.00  0.00    -0.441 OA 
HETATM   16  H   UNK A   1      -7.931  13.971  65.849  1.00  0.00     0.000 HD 
ENDBRANCH   3   4
TORSDOF 1
ENDMDL
MODEL       33
REMARK 921   NORMALIZED FREE ENERGY PREDICTED BY IDOCK:   -4.15 KCAL/MOL
REMARK 922        TOTAL FREE ENERGY PREDICTED BY IDOCK:   -4.66 KCAL/MOL
REMARK 923 INTER-LIGAND FREE ENERGY PREDICTED BY IDOCK:   -4.46 KCAL/MOL
REMARK 924 INTRA-LIGAND FREE ENERGY PREDICTED BY IDOCK:   -0.20 KCAL/MOL
REMARK 927      BINDING AFFINITY PREDICTED BY RF-SCORE:    0.00 PKD
ROOT
HETATM    1  O   UNK A   1      -8.540  14.274  67.730  1.00  0.00    -0.158 OA 
HETATM    2  H   UNK A   1      -8.382  13.893  68.585  1.00  0.00     0.000 HD 
HETATM    3  C   UNK A   1      -9.479  13.492  66.990  1.00  0.00    -0.251 C  
ENDROOT
BRANCH   3   4
HETATM    4  C   UNK A   1      -9.737  14.115  65.594  1.00  0.00    -0.178 C  
HETATM    5  N   UNK A   1      -9.845  13.092  64.530  1.00  0.00    -0.608 NA 
HETATM    6  C   UNK A   0     -11.129  12.378  64.584  1.00  0.00    -0.307 C  
HETATM    7  H   UNK A   1      -9.058  12.443  64.558  1.00  0.00     0.000 HD 
HETATM    8  C   UNK A   1     -12.349  13.317  64.494  1.00  0.00    -0.368 C  
HETATM    9  C   UNK A   1     -12.288  14.409  65.564  1.00  0.00    -0.345 C  
HETATM   10  O   UNK A   1     -12.434  13.929  63.200  1.00  0.00    -1.121 OA 
HETATM   11  O   UNK A   1     -12.524  13.855  66.868  1.00  0.00    -0.477 OA 
HETATM   12  C   UNK A   1     -10.927  15.122  65.543  1.00  0.00    -0.365 C  
HETATM   13  H   UNK A   1     -13.185  14.507  63.145  1.00  0.00     0.000 HD 
HETATM   14  H   UNK A   1     -12.485  14.533  67.532  1.00  0.00     0.000 HD 
HETATM   15  O   UNK A   1     -10.907  16.084  66.609  1.00  0.00    -0.285 OA 
HETATM   16  H   UNK A   1     -11.632  16.697  66.578  1.00  0.00     0.000 HD 
ENDBRANCH   3   4
TORSDOF 1
ENDMDL
MODEL       34
REMARK 921   NORMALIZED FREE ENERGY PREDICTED BY IDOCK:   -4.12 KCAL/MOL
REMARK 922        TOTAL FREE ENERGY PREDICTED BY IDOCK:   -4.62 KCAL/MOL
REMARK 923 INTER-LIGAND FREE ENERGY PREDICTED BY IDOCK:   -4.36 KCAL/MOL
REMARK 924 INTRA-LIGAND FREE ENERGY PREDICTED BY IDOCK:   -0.26 KCAL/MOL
REMARK 927      BINDING AFFINITY PREDICTED BY RF-SCORE:    0.00 PKD
ROOT
HETATM    1  O   UNK A   1      -8.994  14.922  66.084  1.00  0.00    -0.466 OA 
HETATM    2  H   UNK A   1      -8.240  14.378  65.890  1.00  0.00     0.000 HD 
HETATM    3  C   UNK A   1      -9.890  14.250  66.971  1.00  0.00    -0.254 C  
ENDROOT
BRANCH   3   4
HETATM    4  C   UNK A   1     -11.121  15.138  67.289  1.00  0.00    -0.332 C  
HETATM    5  N   UNK A   1     -12.291  14.345  67.728  1.00  0.00    -0.603 NA 
HETATM    6  C   UNK A   0     -12.136  13.854  69.105  1.00  0.00    -0.338 C  
HETATM    7  H   UNK A   1     -12.484  13.580  67.081  1.00  0.00     0.000 HD 
HETATM    8  C   UNK A   1     -11.891  14.983  70.127  1.00  0.00    -0.314 C  
HETATM    9  C   UNK A   1     -10.698  15.850  69.719  1.00  0.00    -0.324 C  
HETATM   10  O   UNK A   1     -13.052  15.814  70.264  1.00  0.00    -0.685 OA 
HETATM   11  O   UNK A   1      -9.467  15.127  69.882  1.00  0.00    -0.462 OA 
HETATM   12  C   UNK A   1     -10.833  16.321  68.263  1.00  0.00    -0.340 C  
HETATM   13  H   UNK A   1     -12.901  16.509  70.893  1.00  0.00     0.000 HD 
HETATM   14  H   UNK A   1      -8.727  15.665  69.629  1.00  0.00     0.000 HD 
HETATM   15  O   UNK A   1      -9.655  17.068  67.921  1.00  0.00    -0.242 OA 
HETATM   16  H   UNK A   1      -9.480  17.789  68.515  1.00  0.00     0.000 HD 
ENDBRANCH   3   4
TORSDOF 1
ENDMDL
MODEL       35
REMARK 921   NORMALIZED FREE ENERGY PREDICTED BY IDOCK:   -4.08 KCAL/MOL
REMARK 922        TOTAL FREE ENERGY PREDICTED BY IDOCK:   -4.58 KCAL/MOL
REMARK 923 INTER-LIGAND FREE ENERGY PREDICTED BY IDOCK:   -4.32 KCAL/MOL
REMARK 924 INTRA-LIGAND FREE ENERGY PREDICTED BY IDOCK:   -0.26 KCAL/MOL
REMARK 927      BINDING AFFINITY PREDICTED BY RF-SCORE:    0.00 PKD
ROOT
HETATM    1  O   UNK A   1     -10.663  15.484  65.915  1.00  0.00    -0.321 OA 
HETATM    2  H   UNK A   1      -9.878  15.900  65.578  1.00  0.00     0.000 HD 
HETATM    3  C   UNK A   1     -10.519  14.063  65.927  1.00  0.00    -0.309 C  
ENDROOT
BRANCH   3   4
HETATM    4  C   UNK A   1     -11.799  13.383  66.477  1.00  0.00    -0.396 C  
HETATM    5  N   UNK A   1     -11.846  11.936  66.171  1.00  0.00    -0.508 NA 
HETATM    6  C   UNK A   0     -10.926  11.166  67.020  1.00  0.00    -0.289 C  
HETATM    7  H   UNK A   1     -11.673  11.760  65.181  1.00  0.00     0.000 HD 
HETATM    8  C   UNK A   1     -11.184  11.362  68.528  1.00  0.00    -0.250 C  
HETATM    9  C   UNK A   1     -11.161  12.845  68.905  1.00  0.00    -0.279 C  
HETATM   10  O   UNK A   1     -12.444  10.797  68.912  1.00  0.00    -0.782 OA 
HETATM   11  O   UNK A   1      -9.825  13.366  68.834  1.00  0.00    -0.418 OA 
HETATM   12  C   UNK A   1     -12.084  13.659  67.985  1.00  0.00    -0.274 C  
HETATM   13  H   UNK A   1     -12.603  10.918  69.840  1.00  0.00     0.000 HD 
HETATM   14  H   UNK A   1      -9.811  14.286  69.068  1.00  0.00     0.000 HD 
HETATM   15  O   UNK A   1     -11.966  15.045  68.343  1.00  0.00    -0.490 OA 
HETATM   16  H   UNK A   1     -12.140  15.214  69.263  1.00  0.00     0.000 HD 
ENDBRANCH   3   4
TORSDOF 1
ENDMDL
MODEL       36
REMARK 921   NORMALIZED FREE ENERGY PREDICTED BY IDOCK:   -4.08 KCAL/MOL
REMARK 922        TOTAL FREE ENERGY PREDICTED BY IDOCK:   -4.58 KCAL/MOL
REMARK 923 INTER-LIGAND FREE ENERGY PREDICTED BY IDOCK:   -4.37 KCAL/MOL
REMARK 924 INTRA-LIGAND FREE ENERGY PREDICTED BY IDOCK:   -0.21 KCAL/MOL
REMARK 927      BINDING AFFINITY PREDICTED BY RF-SCORE:    0.00 PKD
ROOT
HETATM    1  O   UNK A   1      -8.397  10.493  66.501  1.00  0.00    -0.133 OA 
HETATM    2  H   UNK A   1      -7.561  10.559  66.946  1.00  0.00     0.000 HD 
HETATM    3  C   UNK A   1      -9.234  11.604  66.826  1.00  0.00    -0.186 C  
ENDROOT
BRANCH   3   4
HETATM    4  C   UNK A   1     -10.599  11.498  66.099  1.00  0.00    -0.266 C  
HETATM    5  N   UNK A   1     -11.725  11.961  66.941  1.00  0.00    -0.589 NA 
HETATM    6  C   UNK A   0     -11.760  13.426  67.052  1.00  0.00    -0.381 C  
HETATM    7  H   UNK A   1     -11.707  11.519  67.861  1.00  0.00     0.000 HD 
HETATM    8  C   UNK A   1     -11.839  14.136  65.685  1.00  0.00    -0.375 C  
HETATM    9  C   UNK A   1     -10.705  13.687  64.762  1.00  0.00    -0.410 C  
HETATM   10  O   UNK A   1     -13.097  13.883  65.045  1.00  0.00    -0.749 OA 
HETATM   11  O   UNK A   1      -9.446  14.208  65.214  1.00  0.00    -0.514 OA 
HETATM   12  C   UNK A   1     -10.634  12.154  64.685  1.00  0.00    -0.300 C  
HETATM   13  H   UNK A   1     -13.145  14.319  64.203  1.00  0.00     0.000 HD 
HETATM   14  H   UNK A   1      -8.741  13.928  64.641  1.00  0.00     0.000 HD 
HETATM   15  O   UNK A   1      -9.512  11.796  63.862  1.00  0.00    -0.465 OA 
HETATM   16  H   UNK A   1      -9.533  12.196  63.000  1.00  0.00     0.000 HD 
ENDBRANCH   3   4
TORSDOF 1
ENDMDL
MODEL       37
REMARK 921   NORMALIZED FREE ENERGY PREDICTED BY IDOCK:   -4.04 KCAL/MOL
REMARK 922        TOTAL FREE ENERGY PREDICTED BY IDOCK:   -4.53 KCAL/MOL
REMARK 923 INTER-LIGAND FREE ENERGY PREDICTED BY IDOCK:   -4.27 KCAL/MOL
REMARK 924 INTRA-LIGAND FREE ENERGY PREDICTED BY IDOCK:   -0.26 KCAL/MOL
REMARK 927      BINDING AFFINITY PREDICTED BY RF-SCORE:    0.00 PKD
ROOT
HETATM    1  O   UNK A   1     -11.370  12.908  69.960  1.00  0.00    -0.504 OA 
HETATM    2  H   UNK A   1     -11.827  13.344  70.670  1.00  0.00     0.000 HD 
HETATM    3  C   UNK A   1     -11.993  13.189  68.706  1.00  0.00    -0.280 C  
ENDROOT
BRANCH   3   4
HETATM    4  C   UNK A   1     -11.246  12.478  67.548  1.00  0.00    -0.291 C  
HETATM    5  N   UNK A   1     -12.053  12.417  66.309  1.00  0.00    -0.630 NA 
HETATM    6  C   UNK A   0     -12.117  13.720  65.631  1.00  0.00    -0.418 C  
HETATM    7  H   UNK A   1     -12.987  12.048  66.492  1.00  0.00     0.000 HD 
HETATM    8  C   UNK A   1     -10.727  14.295  65.289  1.00  0.00    -0.366 C  
HETATM    9  C   UNK A   1      -9.838  14.370  66.532  1.00  0.00    -0.287 C  
HETATM   10  O   UNK A   1     -10.074  13.501  64.290  1.00  0.00    -0.705 OA 
HETATM   11  O   UNK A   1     -10.296  15.400  67.422  1.00  0.00    -0.253 OA 
HETATM   12  C   UNK A   1      -9.812  13.023  67.270  1.00  0.00    -0.227 C  
HETATM   13  H   UNK A   1      -9.218  13.854  64.080  1.00  0.00     0.000 HD 
HETATM   14  H   UNK A   1      -9.744  15.447  68.194  1.00  0.00     0.000 HD 
HETATM   15  O   UNK A   1      -9.020  13.177  68.459  1.00  0.00    -0.311 OA 
HETATM   16  H   UNK A   1      -8.146  13.509  68.290  1.00  0.00     0.000 HD 
ENDBRANCH   3   4
TORSDOF 1
ENDMDL
MODEL       38
REMARK 921   NORMALIZED FREE ENERGY PREDICTED BY IDOCK:   -3.99 KCAL/MOL
REMARK 922        TOTAL FREE ENERGY PREDICTED BY IDOCK:   -4.49 KCAL/MOL
REMARK 923 INTER-LIGAND FREE ENERGY PREDICTED BY IDOCK:   -4.36 KCAL/MOL
REMARK 924 INTRA-LIGAND FREE ENERGY PREDICTED BY IDOCK:   -0.13 KCAL/MOL
REMARK 927      BINDING AFFINITY PREDICTED BY RF-SCORE:    0.00 PKD
ROOT
HETATM    1  O   UNK A   1      -8.834  11.201  64.515  1.00  0.00    -0.367 OA 
HETATM    2  H   UNK A   1      -8.014  10.722  64.533  1.00  0.00     0.000 HD 
HETATM    3  C   UNK A   1      -9.592  10.955  65.700  1.00  0.00    -0.224 C  
ENDROOT
BRANCH   3   4
HETATM    4  C   UNK A   1     -10.931  11.736  65.670  1.00  0.00    -0.295 C  
HETATM    5  N   UNK A   1     -11.694  11.598  66.931  1.00  0.00    -0.555 NA 
HETATM    6  C   UNK A   0     -11.109  12.399  68.017  1.00  0.00    -0.245 C  
HETATM    7  H   UNK A   1     -11.788  10.619  67.202  1.00  0.00     0.000 HD 
HETATM    8  C   UNK A   1     -10.993  13.898  67.670  1.00  0.00    -0.264 C  
HETATM    9  C   UNK A   1     -10.223  14.105  66.364  1.00  0.00    -0.290 C  
HETATM   10  O   UNK A   1     -12.288  14.501  67.555  1.00  0.00    -0.619 OA 
HETATM   11  O   UNK A   1      -8.830  13.806  66.543  1.00  0.00    -0.435 OA 
HETATM   12  C   UNK A   1     -10.801  13.230  65.241  1.00  0.00    -0.301 C  
HETATM   13  H   UNK A   1     -12.216  15.423  67.341  1.00  0.00     0.000 HD 
HETATM   14  H   UNK A   1      -8.352  13.934  65.731  1.00  0.00     0.000 HD 
HETATM   15  O   UNK A   1      -9.997  13.417  64.066  1.00  0.00    -0.764 OA 
HETATM   16  H   UNK A   1      -9.917  14.328  63.804  1.00  0.00     0.000 HD 
ENDBRANCH   3   4
TORSDOF 1
ENDMDL
MODEL       39
REMARK 921   NORMALIZED FREE ENERGY PREDICTED BY IDOCK:   -3.99 KCAL/MOL
REMARK 922        TOTAL FREE ENERGY PREDICTED BY IDOCK:   -4.48 KCAL/MOL
REMARK 923 INTER-LIGAND FREE ENERGY PREDICTED BY IDOCK:   -4.24 KCAL/MOL
REMARK 924 INTRA-LIGAND FREE ENERGY PREDICTED BY IDOCK:   -0.24 KCAL/MOL
REMARK 927      BINDING AFFINITY PREDICTED BY RF-SCORE:    0.00 PKD
ROOT
HETATM    1  O   UNK A   1     -10.378  13.421  63.806  1.00  0.00    -0.593 OA 
HETATM    2  H   UNK A   1      -9.689  12.937  63.367  1.00  0.00     0.000 HD 
HETATM    3  C   UNK A   1      -9.965  13.819  65.114  1.00  0.00    -0.211 C  
ENDROOT
BRANCH   3   4
HETATM    4  C   UNK A   1     -11.089  14.609  65.831  1.00  0.00    -0.338 C  
HETATM    5  N   UNK A   1     -11.096  14.379  67.294  1.00  0.00    -0.301 NA 
HETATM    6  C   UNK A   0      -9.999  15.091  67.966  1.00  0.00    -0.219 C  
HETATM    7  H   UNK A   1     -11.082  13.383  67.512  1.00  0.00     0.000 HD 
HETATM    8  C   UNK A   1     -10.011  16.611  67.703  1.00  0.00    -0.264 C  
HETATM    9  C   UNK A   1     -10.018  16.913  66.204  1.00  0.00    -0.315 C  
HETATM   10  O   UNK A   1     -11.151  17.229  68.315  1.00  0.00    -0.281 OA 
HETATM   11  O   UNK A   1      -8.748  16.592  65.616  1.00  0.00    -0.428 OA 
HETATM   12  C   UNK A   1     -11.132  16.130  65.491  1.00  0.00    -0.069 C  
HETATM   13  H   UNK A   1     -11.159  18.165  68.153  1.00  0.00     0.000 HD 
HETATM   14  H   UNK A   1      -8.753  16.780  64.684  1.00  0.00     0.000 HD 
HETATM   15  O   UNK A   1     -11.043  16.403  64.084  1.00  0.00    -1.226 OA 
HETATM   16  H   UNK A   1     -11.069  17.330  63.876  1.00  0.00     0.000 HD 
ENDBRANCH   3   4
TORSDOF 1
ENDMDL
MODEL       40
REMARK 921   NORMALIZED FREE ENERGY PREDICTED BY IDOCK:   -3.97 KCAL/MOL
REMARK 922        TOTAL FREE ENERGY PREDICTED BY IDOCK:   -4.47 KCAL/MOL
REMARK 923 INTER-LIGAND FREE ENERGY PREDICTED BY IDOCK:   -4.22 KCAL/MOL
REMARK 924 INTRA-LIGAND FREE ENERGY PREDICTED BY IDOCK:   -0.25 KCAL/MOL
REMARK 927      BINDING AFFINITY PREDICTED BY RF-SCORE:    0.00 PKD
ROOT
HETATM    1  O   UNK A   1      -9.769  20.823  66.622  1.00  0.00    -0.647 OA 
HETATM    2  H   UNK A   1      -9.132  21.487  66.385  1.00  0.00     0.000 HD 
HETATM    3  C   UNK A   1      -9.289  19.518  66.293  1.00  0.00    -0.372 C  
ENDROOT
BRANCH   3   4
HETATM    4  C   UNK A   1     -10.327  18.434  66.682  1.00  0.00    -0.396 C  
HETATM    5  N   UNK A   1     -10.258  17.246  65.802  1.00  0.00    -0.581 NA 
HETATM    6  C   UNK A   0      -9.088  16.408  66.102  1.00  0.00    -0.326 C  
HETATM    7  H   UNK A   1     -10.282  17.512  64.817  1.00  0.00     0.000 HD 
HETATM    8  C   UNK A   1      -9.039  15.940  67.571  1.00  0.00    -0.199 C  
HETATM    9  C   UNK A   1      -9.119  17.127  68.533  1.00  0.00    -0.265 C  
HETATM   10  O   UNK A   1     -10.107  15.028  67.857  1.00  0.00    -0.225 OA 
HETATM   11  O   UNK A   1      -7.905  17.892  68.498  1.00  0.00    -0.282 OA 
HETATM   12  C   UNK A   1     -10.312  18.032  68.188  1.00  0.00    -0.388 C  
HETATM   13  H   UNK A   1     -10.076  14.740  68.761  1.00  0.00     0.000 HD 
HETATM   14  H   UNK A   1      -7.955  18.629  69.095  1.00  0.00     0.000 HD 
HETATM   15  O   UNK A   1     -10.293  19.159  69.079  1.00  0.00    -0.534 OA 
HETATM   16  H   UNK A   1     -10.284  18.914  69.997  1.00  0.00     0.000 HD 
ENDBRANCH   3   4
TORSDOF 1
ENDMDL
MODEL       41
REMARK 921   NORMALIZED FREE ENERGY PREDICTED BY IDOCK:   -3.96 KCAL/MOL
REMARK 922        TOTAL FREE ENERGY PREDICTED BY IDOCK:   -4.45 KCAL/MOL
REMARK 923 INTER-LIGAND FREE ENERGY PREDICTED BY IDOCK:   -4.19 KCAL/MOL
REMARK 924 INTRA-LIGAND FREE ENERGY PREDICTED BY IDOCK:   -0.26 KCAL/MOL
REMARK 927      BINDING AFFINITY PREDICTED BY RF-SCORE:    0.00 PKD
ROOT
HETATM    1  O   UNK A   1     -11.288  11.283  67.533  1.00  0.00    -0.327 OA 
HETATM    2  H   UNK A   1     -12.086  10.788  67.673  1.00  0.00     0.000 HD 
HETATM    3  C   UNK A   1     -11.478  12.277  66.524  1.00  0.00    -0.381 C  
ENDROOT
BRANCH   3   4
HETATM    4  C   UNK A   1     -10.176  13.087  66.297  1.00  0.00    -0.288 C  
HETATM    5  N   UNK A   1     -10.122  13.703  64.952  1.00  0.00    -0.600 NA 
HETATM    6  C   UNK A   0     -11.011  14.870  64.848  1.00  0.00    -0.408 C  
HETATM    7  H   UNK A   1     -10.321  13.019  64.222  1.00  0.00     0.000 HD 
HETATM    8  C   UNK A   1     -10.714  15.955  65.903  1.00  0.00    -0.296 C  
HETATM    9  C   UNK A   1     -10.741  15.373  67.318  1.00  0.00    -0.307 C  
HETATM   10  O   UNK A   1      -9.438  16.565  65.668  1.00  0.00    -0.497 OA 
HETATM   11  O   UNK A   1     -12.084  15.044  67.705  1.00  0.00    -0.478 OA 
HETATM   12  C   UNK A   1      -9.853  14.124  67.415  1.00  0.00    -0.239 C  
HETATM   13  H   UNK A   1      -9.254  17.232  66.318  1.00  0.00     0.000 HD 
HETATM   14  H   UNK A   1     -12.101  14.683  68.583  1.00  0.00     0.000 HD 
HETATM   15  O   UNK A   1      -9.975  13.588  68.742  1.00  0.00    -0.370 OA 
HETATM   16  H   UNK A   1      -9.778  14.220  69.424  1.00  0.00     0.000 HD 
ENDBRANCH   3   4
TORSDOF 1
ENDMDL
MODEL       42
REMARK 921   NORMALIZED FREE ENERGY PREDICTED BY IDOCK:   -3.91 KCAL/MOL
REMARK 922        TOTAL FREE ENERGY PREDICTED BY IDOCK:   -4.40 KCAL/MOL
REMARK 923 INTER-LIGAND FREE ENERGY PREDICTED BY IDOCK:   -4.15 KCAL/MOL
REMARK 924 INTRA-LIGAND FREE ENERGY PREDICTED BY IDOCK:   -0.26 KCAL/MOL
REMARK 927      BINDING AFFINITY PREDICTED BY RF-SCORE:    0.00 PKD
ROOT
HETATM    1  O   UNK A   1      -8.227  12.600  67.939  1.00  0.00    -0.146 OA 
HETATM    2  H   UNK A   1      -7.822  11.797  68.245  1.00  0.00     0.000 HD 
HETATM    3  C   UNK A   1      -8.982  12.367  66.749  1.00  0.00    -0.205 C  
ENDROOT
BRANCH   3   4
HETATM    4  C   UNK A   1      -9.643  13.677  66.250  1.00  0.00    -0.239 C  
HETATM    5  N   UNK A   1      -9.850  13.683  64.785  1.00  0.00    -0.601 NA 
HETATM    6  C   UNK A   0     -10.972  12.821  64.386  1.00  0.00    -0.361 C  
HETATM    7  H   UNK A   1      -8.994  13.432  64.288  1.00  0.00     0.000 HD 
HETATM    8  C   UNK A   1     -12.300  13.196  65.075  1.00  0.00    -0.459 C  
HETATM    9  C   UNK A   1     -12.146  13.221  66.597  1.00  0.00    -0.361 C  
HETATM   10  O   UNK A   1     -12.768  14.475  64.628  1.00  0.00    -0.630 OA 
HETATM   11  O   UNK A   1     -11.992  11.889  67.113  1.00  0.00    -0.611 OA 
HETATM   12  C   UNK A   1     -10.942  14.080  67.013  1.00  0.00    -0.297 C  
HETATM   13  H   UNK A   1     -13.585  14.707  65.052  1.00  0.00     0.000 HD 
HETATM   14  H   UNK A   1     -11.896  11.905  68.058  1.00  0.00     0.000 HD 
HETATM   15  O   UNK A   1     -10.811  14.007  68.442  1.00  0.00    -0.235 OA 
HETATM   16  H   UNK A   1     -11.602  14.252  68.907  1.00  0.00     0.000 HD 
ENDBRANCH   3   4
TORSDOF 1
ENDMDL
MODEL       43
REMARK 921   NORMALIZED FREE ENERGY PREDICTED BY IDOCK:   -3.91 KCAL/MOL
REMARK 922        TOTAL FREE ENERGY PREDICTED BY IDOCK:   -4.40 KCAL/MOL
REMARK 923 INTER-LIGAND FREE ENERGY PREDICTED BY IDOCK:   -4.35 KCAL/MOL
REMARK 924 INTRA-LIGAND FREE ENERGY PREDICTED BY IDOCK:   -0.05 KCAL/MOL
REMARK 927      BINDING AFFINITY PREDICTED BY RF-SCORE:    0.00 PKD
ROOT
HETATM    1  O   UNK A   1     -10.674  16.536  64.790  1.00  0.00    -0.719 OA 
HETATM    2  H   UNK A   1     -11.155  16.772  64.006  1.00  0.00     0.000 HD 
HETATM    3  C   UNK A   1     -10.795  15.139  65.060  1.00  0.00    -0.440 C  
ENDROOT
BRANCH   3   4
HETATM    4  C   UNK A   1     -10.009  14.754  66.340  1.00  0.00    -0.277 C  
HETATM    5  N   UNK A   1     -10.463  15.510  67.529  1.00  0.00    -0.276 NA 
HETATM    6  C   UNK A   0     -11.756  15.022  68.029  1.00  0.00    -0.298 C  
HETATM    7  H   UNK A   1     -10.491  16.513  67.342  1.00  0.00     0.000 HD 
HETATM    8  C   UNK A   1     -11.745  13.518  68.372  1.00  0.00    -0.358 C  
HETATM    9  C   UNK A   1     -11.270  12.682  67.181  1.00  0.00    -0.300 C  
HETATM   10  O   UNK A   1     -10.902  13.254  69.500  1.00  0.00    -0.450 OA 
HETATM   11  O   UNK A   1     -12.262  12.670  66.142  1.00  0.00    -0.568 OA 
HETATM   12  C   UNK A   1      -9.944  13.223  66.625  1.00  0.00    -0.272 C  
HETATM   13  H   UNK A   1     -10.895  12.328  69.711  1.00  0.00     0.000 HD 
HETATM   14  H   UNK A   1     -11.966  12.151  65.403  1.00  0.00     0.000 HD 
HETATM   15  O   UNK A   1      -9.588  12.442  65.473  1.00  0.00    -0.393 OA 
HETATM   16  H   UNK A   1      -9.548  11.509  65.647  1.00  0.00     0.000 HD 
ENDBRANCH   3   4
TORSDOF 1
ENDMDL
MODEL       44
REMARK 921   NORMALIZED FREE ENERGY PREDICTED BY IDOCK:   -3.89 KCAL/MOL
REMARK 922        TOTAL FREE ENERGY PREDICTED BY IDOCK:   -4.38 KCAL/MOL
REMARK 923 INTER-LIGAND FREE ENERGY PREDICTED BY IDOCK:   -4.35 KCAL/MOL
REMARK 924 INTRA-LIGAND FREE ENERGY PREDICTED BY IDOCK:   -0.03 KCAL/MOL
REMARK 927      BINDING AFFINITY PREDICTED BY RF-SCORE:    0.00 PKD
ROOT
HETATM    1  O   UNK A   1      -6.973  20.720  64.829  1.00  0.00    -0.515 OA 
HETATM    2  H   UNK A   1      -6.681  20.287  64.036  1.00  0.00     0.000 HD 
HETATM    3  C   UNK A   1      -7.403  19.766  65.800  1.00  0.00    -0.315 C  
ENDROOT
BRANCH   3   4
HETATM    4  C   UNK A   1      -7.879  20.472  67.095  1.00  0.00    -0.315 C  
HETATM    5  N   UNK A   1      -9.298  20.887  67.023  1.00  0.00    -0.672 NA 
HETATM    6  C   UNK A   0     -10.212  19.743  67.165  1.00  0.00    -0.444 C  
HETATM    7  H   UNK A   1      -9.489  21.410  66.167  1.00  0.00     0.000 HD 
HETATM    8  C   UNK A   1      -9.993  18.951  68.470  1.00  0.00    -0.406 C  
HETATM    9  C   UNK A   1      -8.536  18.506  68.609  1.00  0.00    -0.296 C  
HETATM   10  O   UNK A   1     -10.358  19.734  69.614  1.00  0.00    -0.620 OA 
HETATM   11  O   UNK A   1      -8.230  17.470  67.663  1.00  0.00    -0.210 OA 
HETATM   12  C   UNK A   1      -7.578  19.690  68.410  1.00  0.00    -0.327 C  
HETATM   13  H   UNK A   1     -10.223  19.247  70.418  1.00  0.00     0.000 HD 
HETATM   14  H   UNK A   1      -7.325  17.194  67.749  1.00  0.00     0.000 HD 
HETATM   15  O   UNK A   1      -6.231  19.196  68.484  1.00  0.00    -0.227 OA 
HETATM   16  H   UNK A   1      -6.047  18.719  69.286  1.00  0.00     0.000 HD 
ENDBRANCH   3   4
TORSDOF 1
ENDMDL
MODEL       45
REMARK 921   NORMALIZED FREE ENERGY PREDICTED BY IDOCK:   -3.88 KCAL/MOL
REMARK 922        TOTAL FREE ENERGY PREDICTED BY IDOCK:   -4.37 KCAL/MOL
REMARK 923 INTER-LIGAND FREE ENERGY PREDICTED BY IDOCK:   -4.11 KCAL/MOL
REMARK 924 INTRA-LIGAND FREE ENERGY PREDICTED BY IDOCK:   -0.27 KCAL/MOL
REMARK 927      BINDING AFFINITY PREDICTED BY RF-SCORE:    0.00 PKD
ROOT
HETATM    1  O   UNK A   1      -9.586  16.732  68.863  1.00  0.00    -0.247 OA 
HETATM    2  H   UNK A   1      -9.249  17.567  68.559  1.00  0.00     0.000 HD 
HETATM    3  C   UNK A   1     -10.563  16.219  67.957  1.00  0.00    -0.308 C  
ENDROOT
BRANCH   3   4
HETATM    4  C   UNK A   1     -11.113  14.857  68.452  1.00  0.00    -0.273 C  
HETATM    5  N   UNK A   1     -12.410  14.511  67.828  1.00  0.00    -0.595 NA 
HETATM    6  C   UNK A   0     -12.249  14.077  66.432  1.00  0.00    -0.460 C  
HETATM    7  H   UNK A   1     -13.075  15.281  67.903  1.00  0.00     0.000 HD 
HETATM    8  C   UNK A   1     -11.289  12.880  66.276  1.00  0.00    -0.323 C  
HETATM    9  C   UNK A   1      -9.931  13.173  66.916  1.00  0.00    -0.245 C  
HETATM   10  O   UNK A   1     -11.843  11.696  66.866  1.00  0.00    -0.577 OA 
HETATM   11  O   UNK A   1      -9.207  14.145  66.146  1.00  0.00    -0.479 OA 
HETATM   12  C   UNK A   1     -10.100  13.675  68.358  1.00  0.00    -0.241 C  
HETATM   13  H   UNK A   1     -11.252  10.960  66.770  1.00  0.00     0.000 HD 
HETATM   14  H   UNK A   1      -8.363  14.327  66.543  1.00  0.00     0.000 HD 
HETATM   15  O   UNK A   1      -8.800  13.996  68.877  1.00  0.00    -0.357 OA 
HETATM   16  H   UNK A   1      -8.182  13.276  68.820  1.00  0.00     0.000 HD 
ENDBRANCH   3   4
TORSDOF 1
ENDMDL
MODEL       46
REMARK 921   NORMALIZED FREE ENERGY PREDICTED BY IDOCK:   -3.85 KCAL/MOL
REMARK 922        TOTAL FREE ENERGY PREDICTED BY IDOCK:   -4.33 KCAL/MOL
REMARK 923 INTER-LIGAND FREE ENERGY PREDICTED BY IDOCK:   -4.07 KCAL/MOL
REMARK 924 INTRA-LIGAND FREE ENERGY PREDICTED BY IDOCK:   -0.26 KCAL/MOL
REMARK 927      BINDING AFFINITY PREDICTED BY RF-SCORE:    0.00 PKD
ROOT
HETATM    1  O   UNK A   1     -12.536   6.236  72.090  1.00  0.00    -0.484 OA 
HETATM    2  H   UNK A   1     -12.873   5.425  71.729  1.00  0.00     0.000 HD 
HETATM    3  C   UNK A   1     -12.017   7.074  71.057  1.00  0.00    -0.361 C  
ENDROOT
BRANCH   3   4
HETATM    4  C   UNK A   1     -11.467   8.399  71.646  1.00  0.00    -0.287 C  
HETATM    5  N   UNK A   1     -10.630   9.143  70.678  1.00  0.00    -0.226 NA 
HETATM    6  C   UNK A   0     -11.441   9.798  69.641  1.00  0.00    -0.056 C  
HETATM    7  H   UNK A   1      -9.916   8.541  70.265  1.00  0.00     0.000 HD 
HETATM    8  C   UNK A   1     -12.503  10.757  70.218  1.00  0.00    -0.317 C  
HETATM    9  C   UNK A   1     -13.394  10.046  71.239  1.00  0.00    -0.330 C  
HETATM   10  O   UNK A   1     -11.887  11.893  70.839  1.00  0.00    -0.382 OA 
HETATM   11  O   UNK A   1     -14.265   9.110  70.587  1.00  0.00    -0.414 OA 
HETATM   12  C   UNK A   1     -12.547   9.318  72.294  1.00  0.00    -0.332 C  
HETATM   13  H   UNK A   1     -12.541  12.483  71.194  1.00  0.00     0.000 HD 
HETATM   14  H   UNK A   1     -14.818   8.668  71.221  1.00  0.00     0.000 HD 
HETATM   15  O   UNK A   1     -13.435   8.618  73.179  1.00  0.00    -0.883 OA 
HETATM   16  H   UNK A   1     -14.094   9.178  73.574  1.00  0.00     0.000 HD 
ENDBRANCH   3   4
TORSDOF 1
ENDMDL
MODEL       47
REMARK 921   NORMALIZED FREE ENERGY PREDICTED BY IDOCK:   -3.80 KCAL/MOL
REMARK 922        TOTAL FREE ENERGY PREDICTED BY IDOCK:   -4.28 KCAL/MOL
REMARK 923 INTER-LIGAND FREE ENERGY PREDICTED BY IDOCK:   -4.25 KCAL/MOL
REMARK 924 INTRA-LIGAND FREE ENERGY PREDICTED BY IDOCK:   -0.02 KCAL/MOL
REMARK 927      BINDING AFFINITY PREDICTED BY RF-SCORE:    0.00 PKD
ROOT
HETATM    1  O   UNK A   1      -7.140  21.078  66.097  1.00  0.00    -0.509 OA 
HETATM    2  H   UNK A   1      -6.922  21.981  65.899  1.00  0.00     0.000 HD 
HETATM    3  C   UNK A   1      -7.473  20.927  67.478  1.00  0.00    -0.252 C  
ENDROOT
BRANCH   3   4
HETATM    4  C   UNK A   1      -7.830  19.453  67.801  1.00  0.00    -0.280 C  
HETATM    5  N   UNK A   1      -8.751  19.335  68.954  1.00  0.00    -0.342 NA 
HETATM    6  C   UNK A   0     -10.125  19.718  68.600  1.00  0.00    -0.440 C  
HETATM    7  H   UNK A   1      -8.412  19.868  69.755  1.00  0.00     0.000 HD 
HETATM    8  C   UNK A   1     -10.698  18.902  67.423  1.00  0.00    -0.444 C  
HETATM    9  C   UNK A   1      -9.780  18.975  66.201  1.00  0.00    -0.296 C  
HETATM   10  O   UNK A   1     -10.885  17.530  67.791  1.00  0.00    -0.368 OA 
HETATM   11  O   UNK A   1      -9.823  20.283  65.611  1.00  0.00    -0.574 OA 
HETATM   12  C   UNK A   1      -8.333  18.625  66.580  1.00  0.00    -0.291 C  
HETATM   13  H   UNK A   1     -11.237  17.027  67.066  1.00  0.00     0.000 HD 
HETATM   14  H   UNK A   1      -9.253  20.328  64.852  1.00  0.00     0.000 HD 
HETATM   15  O   UNK A   1      -7.513  18.777  65.410  1.00  0.00    -0.459 OA 
HETATM   16  H   UNK A   1      -7.819  18.272  64.666  1.00  0.00     0.000 HD 
ENDBRANCH   3   4
TORSDOF 1
ENDMDL
MODEL       48
REMARK 921   NORMALIZED FREE ENERGY PREDICTED BY IDOCK:   -3.79 KCAL/MOL
REMARK 922        TOTAL FREE ENERGY PREDICTED BY IDOCK:   -4.27 KCAL/MOL
REMARK 923 INTER-LIGAND FREE ENERGY PREDICTED BY IDOCK:   -4.03 KCAL/MOL
REMARK 924 INTRA-LIGAND FREE ENERGY PREDICTED BY IDOCK:   -0.24 KCAL/MOL
REMARK 927      BINDING AFFINITY PREDICTED BY RF-SCORE:    0.00 PKD
ROOT
HETATM    1  O   UNK A   1     -11.365  13.621  69.940  1.00  0.00    -0.449 OA 
HETATM    2  H   UNK A   1     -12.061  13.351  70.527  1.00  0.00     0.000 HD 
HETATM    3  C   UNK A   1     -11.446  12.919  68.699  1.00  0.00    -0.308 C  
ENDROOT
BRANCH   3   4
HETATM    4  C   UNK A   1     -10.310  13.360  67.740  1.00  0.00    -0.241 C  
HETATM    5  N   UNK A   1      -9.869  12.265  66.847  1.00  0.00    -0.206 NA 
HETATM    6  C   UNK A   0     -10.841  12.007  65.774  1.00  0.00    -0.287 C  
HETATM    7  H   UNK A   1      -9.664  11.416  67.374  1.00  0.00     0.000 HD 
HETATM    8  C   UNK A   1     -11.144  13.254  64.918  1.00  0.00    -0.328 C  
HETATM    9  C   UNK A   1     -11.593  14.428  65.790  1.00  0.00    -0.353 C  
HETATM   10  O   UNK A   1      -9.995  13.646  64.155  1.00  0.00    -0.746 OA 
HETATM   11  O   UNK A   1     -12.907  14.193  66.319  1.00  0.00    -0.500 OA 
HETATM   12  C   UNK A   1     -10.605  14.666  66.942  1.00  0.00    -0.281 C  
HETATM   13  H   UNK A   1     -10.181  14.414  63.628  1.00  0.00     0.000 HD 
HETATM   14  H   UNK A   1     -13.186  14.922  66.861  1.00  0.00     0.000 HD 
HETATM   15  O   UNK A   1     -11.116  15.731  67.760  1.00  0.00    -0.331 OA 
HETATM   16  H   UNK A   1     -11.296  16.528  67.273  1.00  0.00     0.000 HD 
ENDBRANCH   3   4
TORSDOF 1
ENDMDL
MODEL       49
REMARK 921   NORMALIZED FREE ENERGY PREDICTED BY IDOCK:   -3.75 KCAL/MOL
REMARK 922        TOTAL FREE ENERGY PREDICTED BY IDOCK:   -4.23 KCAL/MOL
REMARK 923 INTER-LIGAND FREE ENERGY PREDICTED BY IDOCK:   -3.96 KCAL/MOL
REMARK 924 INTRA-LIGAND FREE ENERGY PREDICTED BY IDOCK:   -0.26 KCAL/MOL
REMARK 927      BINDING AFFINITY PREDICTED BY RF-SCORE:    0.00 PKD
ROOT
HETATM    1  O   UNK A   1     -12.348  12.934  65.573  1.00  0.00    -0.460 OA 
HETATM    2  H   UNK A   1     -13.195  12.680  65.918  1.00  0.00     0.000 HD 
HETATM    3  C   UNK A   1     -12.236  14.356  65.497  1.00  0.00    -0.348 C  
ENDROOT
BRANCH   3   4
HETATM    4  C   UNK A   1     -10.853  14.772  64.935  1.00  0.00    -0.416 C  
HETATM    5  N   UNK A   1     -10.834  16.173  64.458  1.00  0.00    -0.892 NA 
HETATM    6  C   UNK A   0     -10.806  17.131  65.572  1.00  0.00    -0.055 C  
HETATM    7  H   UNK A   1     -11.614  16.360  63.827  1.00  0.00     0.000 HD 
HETATM    8  C   UNK A   1      -9.613  16.917  66.526  1.00  0.00    -0.278 C  
HETATM    9  C   UNK A   1      -9.570  15.478  67.044  1.00  0.00    -0.224 C  
HETATM   10  O   UNK A   1      -8.372  17.222  65.875  1.00  0.00    -0.533 OA 
HETATM   11  O   UNK A   1     -10.643  15.239  67.967  1.00  0.00    -0.250 OA 
HETATM   12  C   UNK A   1      -9.651  14.475  65.883  1.00  0.00    -0.247 C  
HETATM   13  H   UNK A   1      -7.638  17.089  66.462  1.00  0.00     0.000 HD 
HETATM   14  H   UNK A   1     -10.616  14.345  68.288  1.00  0.00     0.000 HD 
HETATM   15  O   UNK A   1      -9.675  13.149  66.436  1.00  0.00    -0.261 OA 
HETATM   16  H   UNK A   1      -8.943  12.968  67.014  1.00  0.00     0.000 HD 
ENDBRANCH   3   4
TORSDOF 1
ENDMDL
MODEL       50
REMARK 921   NORMALIZED FREE ENERGY PREDICTED BY IDOCK:   -3.73 KCAL/MOL
REMARK 922        TOTAL FREE ENERGY PREDICTED BY IDOCK:   -4.21 KCAL/MOL
REMARK 923 INTER-LIGAND FREE ENERGY PREDICTED BY IDOCK:   -3.95 KCAL/MOL
REMARK 924 INTRA-LIGAND FREE ENERGY PREDICTED BY IDOCK:   -0.26 KCAL/MOL
REMARK 927      BINDING AFFINITY PREDICTED BY RF-SCORE:    0.00 PKD
ROOT
HETATM    1  O   UNK A   1     -11.430   7.784  69.714  1.00  0.00    -0.456 OA 
HETATM    2  H   UNK A   1     -11.546   6.990  69.207  1.00  0.00     0.000 HD 
HETATM    3  C   UNK A   1     -10.404   8.602  69.150  1.00  0.00    -0.217 C  
ENDROOT
BRANCH   3   4
HETATM    4  C   UNK A   1     -10.215   9.899  69.977  1.00  0.00    -0.271 C  
HETATM    5  N   UNK A   1      -8.960  10.607  69.640  1.00  0.00    -0.396 NA 
HETATM    6  C   UNK A   0      -9.051  11.299  68.346  1.00  0.00    -0.170 C  
HETATM    7  H   UNK A   1      -8.159   9.975  69.666  1.00  0.00     0.000 HD 
HETATM    8  C   UNK A   1     -10.220  12.304  68.277  1.00  0.00    -0.220 C  
HETATM    9  C   UNK A   1     -11.548  11.633  68.631  1.00  0.00    -0.312 C  
HETATM   10  O   UNK A   1     -10.000  13.410  69.162  1.00  0.00    -0.416 OA 
HETATM   11  O   UNK A   1     -11.958  10.737  67.586  1.00  0.00    -0.616 OA 
HETATM   12  C   UNK A   1     -11.439  10.865  69.957  1.00  0.00    -0.329 C  
HETATM   13  H   UNK A   1     -10.719  14.028  69.120  1.00  0.00     0.000 HD 
HETATM   14  H   UNK A   1     -12.783  10.320  67.805  1.00  0.00     0.000 HD 
HETATM   15  O   UNK A   1     -12.692  10.204  70.198  1.00  0.00    -0.547 OA 
HETATM   16  H   UNK A   1     -13.438  10.793  70.186  1.00  0.00     0.000 HD 
ENDBRANCH   3   4
TORSDOF 1
ENDMDL
MODEL       51
REMARK 921   NORMALIZED FREE ENERGY PREDICTED BY IDOCK:   -3.71 KCAL/MOL
REMARK 922        TOTAL FREE ENERGY PREDICTED BY IDOCK:   -4.19 KCAL/MOL
REMARK 923 INTER-LIGAND FREE ENERGY PREDICTED BY IDOCK:   -3.93 KCAL/MOL
REMARK 924 INTRA-LIGAND FREE ENERGY PREDICTED BY IDOCK:   -0.26 KCAL/MOL
REMARK 927      BINDING AFFINITY PREDICTED BY RF-SCORE:    0.00 PKD
ROOT
HETATM    1  O   UNK A   1     -13.554  14.169  65.565  1.00  0.00    -0.685 OA 
HETATM    2  H   UNK A   1     -13.677  14.620  64.738  1.00  0.00     0.000 HD 
HETATM    3  C   UNK A   1     -12.362  13.382  65.541  1.00  0.00    -0.480 C  
ENDROOT
BRANCH   3   4
HETATM    4  C   UNK A   1     -12.160  12.646  66.891  1.00  0.00    -0.143 C  
HETATM    5  N   UNK A   1     -11.340  11.422  66.749  1.00  0.00    -0.405 NA 
HETATM    6  C   UNK A   0      -9.915  11.734  66.566  1.00  0.00    -0.204 C  
HETATM    7  H   UNK A   1     -11.689  10.827  65.998  1.00  0.00     0.000 HD 
HETATM    8  C   UNK A   1      -9.331  12.593  67.706  1.00  0.00    -0.198 C  
HETATM    9  C   UNK A   1     -10.146  13.871  67.910  1.00  0.00    -0.242 C  
HETATM   10  O   UNK A   1      -9.291  11.857  68.936  1.00  0.00    -0.398 OA 
HETATM   11  O   UNK A   1      -9.946  14.781  66.817  1.00  0.00    -0.241 OA 
HETATM   12  C   UNK A   1     -11.642  13.551  68.051  1.00  0.00    -0.337 C  
HETATM   13  H   UNK A   1      -8.932  12.386  69.638  1.00  0.00     0.000 HD 
HETATM   14  H   UNK A   1     -10.453  15.574  66.944  1.00  0.00     0.000 HD 
HETATM   15  O   UNK A   1     -12.358  14.790  68.171  1.00  0.00    -0.593 OA 
HETATM   16  H   UNK A   1     -12.043  15.342  68.878  1.00  0.00     0.000 HD 
ENDBRANCH   3   4
TORSDOF 1
ENDMDL
MODEL       52
REMARK 921   NORMALIZED FREE ENERGY PREDICTED BY IDOCK:   -3.70 KCAL/MOL
REMARK 922        TOTAL FREE ENERGY PREDICTED BY IDOCK:   -4.18 KCAL/MOL
REMARK 923 INTER-LIGAND FREE ENERGY PREDICTED BY IDOCK:   -3.91 KCAL/MOL
REMARK 924 INTRA-LIGAND FREE ENERGY PREDICTED BY IDOCK:   -0.26 KCAL/MOL
REMARK 927      BINDING AFFINITY PREDICTED BY RF-SCORE:    0.00 PKD
ROOT
HETATM    1  O   UNK A   1      -9.029  15.273  65.844  1.00  0.00    -0.454 OA 
HETATM    2  H   UNK A   1      -9.125  16.217  65.800  1.00  0.00     0.000 HD 
HETATM    3  C   UNK A   1      -9.611  14.760  67.043  1.00  0.00    -0.241 C  
ENDROOT
BRANCH   3   4
HETATM    4  C   UNK A   1      -9.456  13.219  67.115  1.00  0.00    -0.240 C  
HETATM    5  N   UNK A   1      -9.683  12.691  68.479  1.00  0.00    -0.368 NA 
HETATM    6  C   UNK A   0     -11.110  12.687  68.835  1.00  0.00    -0.259 C  
HETATM    7  H   UNK A   1      -9.130  13.199  69.170  1.00  0.00     0.000 HD 
HETATM    8  C   UNK A   1     -11.980  11.887  67.844  1.00  0.00    -0.118 C  
HETATM    9  C   UNK A   1     -11.778  12.379  66.409  1.00  0.00    -0.391 C  
HETATM   10  O   UNK A   1     -11.680  10.487  67.909  1.00  0.00    -0.714 OA 
HETATM   11  O   UNK A   1     -12.366  13.677  66.230  1.00  0.00    -0.432 OA 
HETATM   12  C   UNK A   1     -10.285  12.433  66.052  1.00  0.00    -0.245 C  
HETATM   13  H   UNK A   1     -12.215   9.995  67.299  1.00  0.00     0.000 HD 
HETATM   14  H   UNK A   1     -12.240  13.982  65.339  1.00  0.00     0.000 HD 
HETATM   15  O   UNK A   1     -10.159  12.965  64.724  1.00  0.00    -0.452 OA 
HETATM   16  H   UNK A   1     -10.664  12.486  64.076  1.00  0.00     0.000 HD 
ENDBRANCH   3   4
TORSDOF 1
ENDMDL
MODEL       53
REMARK 921   NORMALIZED FREE ENERGY PREDICTED BY IDOCK:   -3.69 KCAL/MOL
REMARK 922        TOTAL FREE ENERGY PREDICTED BY IDOCK:   -4.17 KCAL/MOL
REMARK 923 INTER-LIGAND FREE ENERGY PREDICTED BY IDOCK:   -3.92 KCAL/MOL
REMARK 924 INTRA-LIGAND FREE ENERGY PREDICTED BY IDOCK:   -0.25 KCAL/MOL
REMARK 927      BINDING AFFINITY PREDICTED BY RF-SCORE:    0.00 PKD
ROOT
HETATM    1  O   UNK A   1     -11.944  12.727  70.459  1.00  0.00    -0.493 OA 
HETATM    2  H   UNK A   1     -12.104  13.031  71.344  1.00  0.00     0.000 HD 
HETATM    3  C   UNK A   1     -12.100  13.792  69.520  1.00  0.00    -0.334 C  
ENDROOT
BRANCH   3   4
HETATM    4  C   UNK A   1     -11.839  13.297  68.075  1.00  0.00    -0.355 C  
HETATM    5  N   UNK A   1     -12.196  14.311  67.057  1.00  0.00    -0.575 NA 
HETATM    6  C   UNK A   0     -11.207  15.397  66.994  1.00  0.00    -0.229 C  
HETATM    7  H   UNK A   1     -13.137  14.674  67.210  1.00  0.00     0.000 HD 
HETATM    8  C   UNK A   1      -9.775  14.898  66.715  1.00  0.00    -0.251 C  
HETATM    9  C   UNK A   1      -9.352  13.834  67.730  1.00  0.00    -0.213 C  
HETATM   10  O   UNK A   1      -9.667  14.356  65.392  1.00  0.00    -0.530 OA 
HETATM   11  O   UNK A   1      -9.138  14.422  69.022  1.00  0.00    -0.350 OA 
HETATM   12  C   UNK A   1     -10.409  12.724  67.834  1.00  0.00    -0.226 C  
HETATM   13  H   UNK A   1      -8.786  14.049  65.220  1.00  0.00     0.000 HD 
HETATM   14  H   UNK A   1      -8.876  13.761  69.652  1.00  0.00     0.000 HD 
HETATM   15  O   UNK A   1      -9.988  11.796  68.847  1.00  0.00    -0.365 OA 
HETATM   16  H   UNK A   1      -9.116  11.446  68.701  1.00  0.00     0.000 HD 
ENDBRANCH   3   4
TORSDOF 1
ENDMDL
MODEL       54
REMARK 921   NORMALIZED FREE ENERGY PREDICTED BY IDOCK:   -3.69 KCAL/MOL
REMARK 922        TOTAL FREE ENERGY PREDICTED BY IDOCK:   -4.17 KCAL/MOL
REMARK 923 INTER-LIGAND FREE ENERGY PREDICTED BY IDOCK:   -3.98 KCAL/MOL
REMARK 924 INTRA-LIGAND FREE ENERGY PREDICTED BY IDOCK:   -0.19 KCAL/MOL
REMARK 927      BINDING AFFINITY PREDICTED BY RF-SCORE:    0.00 PKD
ROOT
HETATM    1  O   UNK A   1     -10.233  14.024  64.232  1.00  0.00    -0.674 OA 
HETATM    2  H   UNK A   1     -10.168  13.880  63.296  1.00  0.00     0.000 HD 
HETATM    3  C   UNK A   1     -10.901  12.934  64.870  1.00  0.00    -0.308 C  
ENDROOT
BRANCH   3   4
HETATM    4  C   UNK A   1     -11.006  13.170  66.398  1.00  0.00    -0.288 C  
HETATM    5  N   UNK A   1     -11.791  12.116  67.079  1.00  0.00    -0.594 NA 
HETATM    6  C   UNK A   0     -11.035  10.861  67.201  1.00  0.00    -0.272 C  
HETATM    7  H   UNK A   1     -12.689  11.964  66.617  1.00  0.00     0.000 HD 
HETATM    8  C   UNK A   1      -9.691  11.032  67.939  1.00  0.00    -0.172 C  
HETATM    9  C   UNK A   1      -8.837  12.122  67.287  1.00  0.00    -0.186 C  
HETATM   10  O   UNK A   1      -9.900  11.359  69.319  1.00  0.00    -0.415 OA 
HETATM   11  O   UNK A   1      -8.341  11.684  66.013  1.00  0.00    -0.372 OA 
HETATM   12  C   UNK A   1      -9.643  13.419  67.112  1.00  0.00    -0.241 C  
HETATM   13  H   UNK A   1      -9.073  11.464  69.773  1.00  0.00     0.000 HD 
HETATM   14  H   UNK A   1      -7.811  12.361  65.609  1.00  0.00     0.000 HD 
HETATM   15  O   UNK A   1      -8.812  14.376  66.437  1.00  0.00    -0.458 OA 
HETATM   16  H   UNK A   1      -7.980  14.528  66.872  1.00  0.00     0.000 HD 
ENDBRANCH   3   4
TORSDOF 1
ENDMDL
MODEL       55
REMARK 921   NORMALIZED FREE ENERGY PREDICTED BY IDOCK:   -3.68 KCAL/MOL
REMARK 922        TOTAL FREE ENERGY PREDICTED BY IDOCK:   -4.15 KCAL/MOL
REMARK 923 INTER-LIGAND FREE ENERGY PREDICTED BY IDOCK:   -3.90 KCAL/MOL
REMARK 924 INTRA-LIGAND FREE ENERGY PREDICTED BY IDOCK:   -0.25 KCAL/MOL
REMARK 927      BINDING AFFINITY PREDICTED BY RF-SCORE:    0.00 PKD
ROOT
HETATM    1  O   UNK A   1     -12.062  11.351  67.981  1.00  0.00    -0.629 OA 
HETATM    2  H   UNK A   1     -11.910  10.503  68.381  1.00  0.00     0.000 HD 
HETATM    3  C   UNK A   1     -11.775  12.406  68.900  1.00  0.00    -0.324 C  
ENDROOT
BRANCH   3   4
HETATM    4  C   UNK A   1     -12.023  13.789  68.246  1.00  0.00    -0.357 C  
HETATM    5  N   UNK A   1     -12.438  14.814  69.231  1.00  0.00    -0.579 NA 
HETATM    6  C   UNK A   0     -11.310  15.269  70.056  1.00  0.00    -0.290 C  
HETATM    7  H   UNK A   1     -13.210  14.481  69.809  1.00  0.00     0.000 HD 
HETATM    8  C   UNK A   1     -10.136  15.828  69.225  1.00  0.00    -0.255 C  
HETATM    9  C   UNK A   1      -9.670  14.816  68.176  1.00  0.00    -0.217 C  
HETATM   10  O   UNK A   1     -10.505  17.049  68.571  1.00  0.00    -0.328 OA 
HETATM   11  O   UNK A   1      -8.999  13.711  68.800  1.00  0.00    -0.361 OA 
HETATM   12  C   UNK A   1     -10.856  14.300  67.346  1.00  0.00    -0.285 C  
HETATM   13  H   UNK A   1      -9.783  17.393  68.059  1.00  0.00     0.000 HD 
HETATM   14  H   UNK A   1      -8.710  13.083  68.149  1.00  0.00     0.000 HD 
HETATM   15  O   UNK A   1     -10.366  13.308  66.430  1.00  0.00    -0.275 OA 
HETATM   16  H   UNK A   1      -9.654  13.620  65.882  1.00  0.00     0.000 HD 
ENDBRANCH   3   4
TORSDOF 1
ENDMDL
MODEL       56
REMARK 921   NORMALIZED FREE ENERGY PREDICTED BY IDOCK:   -3.67 KCAL/MOL
REMARK 922        TOTAL FREE ENERGY PREDICTED BY IDOCK:   -4.15 KCAL/MOL
REMARK 923 INTER-LIGAND FREE ENERGY PREDICTED BY IDOCK:   -3.94 KCAL/MOL
REMARK 924 INTRA-LIGAND FREE ENERGY PREDICTED BY IDOCK:   -0.20 KCAL/MOL
REMARK 927      BINDING AFFINITY PREDICTED BY RF-SCORE:    0.00 PKD
ROOT
HETATM    1  O   UNK A   1     -11.330  12.063  70.159  1.00  0.00    -0.507 OA 
HETATM    2  H   UNK A   1     -12.020  11.716  70.712  1.00  0.00     0.000 HD 
HETATM    3  C   UNK A   1     -11.670  11.924  68.778  1.00  0.00    -0.321 C  
ENDROOT
BRANCH   3   4
HETATM    4  C   UNK A   1     -10.545  12.491  67.875  1.00  0.00    -0.218 C  
HETATM    5  N   UNK A   1     -10.794  12.240  66.437  1.00  0.00    -0.255 NA 
HETATM    6  C   UNK A   0     -11.839  13.123  65.900  1.00  0.00    -0.406 C  
HETATM    7  H   UNK A   1     -11.013  11.258  66.265  1.00  0.00     0.000 HD 
HETATM    8  C   UNK A   1     -11.526  14.621  66.094  1.00  0.00    -0.339 C  
HETATM    9  C   UNK A   1     -11.244  14.941  67.563  1.00  0.00    -0.328 C  
HETATM   10  O   UNK A   1     -10.400  15.018  65.300  1.00  0.00    -0.354 OA 
HETATM   11  O   UNK A   1     -12.449  14.860  68.340  1.00  0.00    -0.559 OA 
HETATM   12  C   UNK A   1     -10.189  13.986  68.141  1.00  0.00    -0.243 C  
HETATM   13  H   UNK A   1     -10.207  15.940  65.420  1.00  0.00     0.000 HD 
HETATM   14  H   UNK A   1     -12.274  15.059  69.253  1.00  0.00     0.000 HD 
HETATM   15  O   UNK A   1     -10.020  14.292  69.534  1.00  0.00    -0.413 OA 
HETATM   16  H   UNK A   1      -9.804  15.203  69.697  1.00  0.00     0.000 HD 
ENDBRANCH   3   4
TORSDOF 1
ENDMDL
MODEL       57
REMARK 921   NORMALIZED FREE ENERGY PREDICTED BY IDOCK:   -3.65 KCAL/MOL
REMARK 922        TOTAL FREE ENERGY PREDICTED BY IDOCK:   -4.13 KCAL/MOL
REMARK 923 INTER-LIGAND FREE ENERGY PREDICTED BY IDOCK:   -3.87 KCAL/MOL
REMARK 924 INTRA-LIGAND FREE ENERGY PREDICTED BY IDOCK:   -0.26 KCAL/MOL
REMARK 927      BINDING AFFINITY PREDICTED BY RF-SCORE:    0.00 PKD
ROOT
HETATM    1  O   UNK A   1     -13.301   9.511  70.902  1.00  0.00    -0.571 OA 
HETATM    2  H   UNK A   1     -14.093   9.872  71.280  1.00  0.00     0.000 HD 
HETATM    3  C   UNK A   1     -12.394   9.096  71.925  1.00  0.00    -0.385 C  
ENDROOT
BRANCH   3   4
HETATM    4  C   UNK A   1     -11.100   8.504  71.309  1.00  0.00    -0.262 C  
HETATM    5  N   UNK A   1      -9.926   8.672  72.193  1.00  0.00    -0.318 NA 
HETATM    6  C   UNK A   0      -9.957   7.739  73.329  1.00  0.00    -0.307 C  
HETATM    7  H   UNK A   1      -9.834   9.638  72.509  1.00  0.00     0.000 HD 
HETATM    8  C   UNK A   1     -10.045   6.261  72.898  1.00  0.00    -0.183 C  
HETATM    9  C   UNK A   1     -11.237   6.026  71.967  1.00  0.00    -0.288 C  
HETATM   10  O   UNK A   1      -8.843   5.844  72.238  1.00  0.00    -0.138 OA 
HETATM   11  O   UNK A   1     -12.473   6.125  72.691  1.00  0.00    -0.529 OA 
HETATM   12  C   UNK A   1     -11.234   7.034  70.807  1.00  0.00    -0.285 C  
HETATM   13  H   UNK A   1      -8.897   4.935  71.972  1.00  0.00     0.000 HD 
HETATM   14  H   UNK A   1     -13.213   5.979  72.113  1.00  0.00     0.000 HD 
HETATM   15  O   UNK A   1     -12.408   6.806  70.012  1.00  0.00    -0.605 OA 
HETATM   16  H   UNK A   1     -12.490   5.910  69.706  1.00  0.00     0.000 HD 
ENDBRANCH   3   4
TORSDOF 1
ENDMDL
MODEL       58
REMARK 921   NORMALIZED FREE ENERGY PREDICTED BY IDOCK:   -3.65 KCAL/MOL
REMARK 922        TOTAL FREE ENERGY PREDICTED BY IDOCK:   -4.12 KCAL/MOL
REMARK 923 INTER-LIGAND FREE ENERGY PREDICTED BY IDOCK:   -4.09 KCAL/MOL
REMARK 924 INTRA-LIGAND FREE ENERGY PREDICTED BY IDOCK:   -0.03 KCAL/MOL
REMARK 927      BINDING AFFINITY PREDICTED BY RF-SCORE:    0.00 PKD
ROOT
HETATM    1  O   UNK A   1      -9.152  11.223  64.224  1.00  0.00    -0.371 OA 
HETATM    2  H   UNK A   1      -9.341  10.789  63.401  1.00  0.00     0.000 HD 
HETATM    3  C   UNK A   1     -10.298  11.931  64.700  1.00  0.00    -0.284 C  
ENDROOT
BRANCH   3   4
HETATM    4  C   UNK A   1      -9.990  12.638  66.045  1.00  0.00    -0.258 C  
HETATM    5  N   UNK A   1      -9.375  13.971  65.854  1.00  0.00    -0.514 NA 
HETATM    6  C   UNK A   0     -10.359  14.971  65.413  1.00  0.00    -0.383 C  
HETATM    7  H   UNK A   1      -8.581  13.925  65.215  1.00  0.00     0.000 HD 
HETATM    8  C   UNK A   1     -11.555  15.111  66.376  1.00  0.00    -0.089 C  
HETATM    9  C   UNK A   1     -12.226  13.759  66.625  1.00  0.00    -0.409 C  
HETATM   10  O   UNK A   1     -11.143  15.670  67.630  1.00  0.00    -0.324 OA 
HETATM   11  O   UNK A   1     -12.930  13.319  65.453  1.00  0.00    -0.588 OA 
HETATM   12  C   UNK A   1     -11.192  12.700  67.036  1.00  0.00    -0.300 C  
HETATM   13  H   UNK A   1     -11.879  15.756  68.223  1.00  0.00     0.000 HD 
HETATM   14  H   UNK A   1     -13.347  12.479  65.607  1.00  0.00     0.000 HD 
HETATM   15  O   UNK A   1     -11.871  11.443  67.187  1.00  0.00    -0.566 OA 
HETATM   16  H   UNK A   1     -12.604  11.480  67.792  1.00  0.00     0.000 HD 
ENDBRANCH   3   4
TORSDOF 1
ENDMDL
MODEL       59
REMARK 921   NORMALIZED FREE ENERGY PREDICTED BY IDOCK:   -3.63 KCAL/MOL
REMARK 922        TOTAL FREE ENERGY PREDICTED BY IDOCK:   -4.10 KCAL/MOL
REMARK 923 INTER-LIGAND FREE ENERGY PREDICTED BY IDOCK:   -3.86 KCAL/MOL
REMARK 924 INTRA-LIGAND FREE ENERGY PREDICTED BY IDOCK:   -0.24 KCAL/MOL
REMARK 927      BINDING AFFINITY PREDICTED BY RF-SCORE:    0.00 PKD
ROOT
HETATM    1  O   UNK A   1     -11.608   6.496  68.239  1.00  0.00    -0.540 OA 
HETATM    2  H   UNK A   1     -11.413   6.931  67.418  1.00  0.00     0.000 HD 
HETATM    3  C   UNK A   1     -10.727   6.940  69.271  1.00  0.00    -0.238 C  
ENDROOT
BRANCH   3   4
HETATM    4  C   UNK A   1     -11.044   6.230  70.612  1.00  0.00    -0.327 C  
HETATM    5  N   UNK A   1      -9.837   6.027  71.444  1.00  0.00    -0.171 NA 
HETATM    6  C   UNK A   0      -9.388   7.279  72.072  1.00  0.00    -0.133 C  
HETATM    7  H   UNK A   1      -9.086   5.591  70.908  1.00  0.00     0.000 HD 
HETATM    8  C   UNK A   1     -10.478   7.948  72.935  1.00  0.00    -0.355 C  
HETATM    9  C   UNK A   1     -11.760   8.172  72.131  1.00  0.00    -0.359 C  
HETATM   10  O   UNK A   1     -10.778   7.156  74.091  1.00  0.00    -0.555 OA 
HETATM   11  O   UNK A   1     -11.574   9.210  71.156  1.00  0.00    -0.277 OA 
HETATM   12  C   UNK A   1     -12.202   6.877  71.431  1.00  0.00    -0.372 C  
HETATM   13  H   UNK A   1     -11.449   7.568  74.622  1.00  0.00     0.000 HD 
HETATM   14  H   UNK A   1     -12.370   9.348  70.657  1.00  0.00     0.000 HD 
HETATM   15  O   UNK A   1     -13.366   7.168  70.642  1.00  0.00    -0.532 OA 
HETATM   16  H   UNK A   1     -14.072   7.563  71.141  1.00  0.00     0.000 HD 
ENDBRANCH   3   4
TORSDOF 1
ENDMDL
MODEL       60
REMARK 921   NORMALIZED FREE ENERGY PREDICTED BY IDOCK:   -3.61 KCAL/MOL
REMARK 922        TOTAL FREE ENERGY PREDICTED BY IDOCK:   -4.08 KCAL/MOL
REMARK 923 INTER-LIGAND FREE ENERGY PREDICTED BY IDOCK:   -3.85 KCAL/MOL
REMARK 924 INTRA-LIGAND FREE ENERGY PREDICTED BY IDOCK:   -0.23 KCAL/MOL
REMARK 927      BINDING AFFINITY PREDICTED BY RF-SCORE:    0.00 PKD
ROOT
HETATM    1  O   UNK A   1      -6.662  20.900  67.792  1.00  0.00    -0.324 OA 
HETATM    2  H   UNK A   1      -6.216  21.435  67.148  1.00  0.00     0.000 HD 
HETATM    3  C   UNK A   1      -7.916  20.437  67.287  1.00  0.00    -0.335 C  
ENDROOT
BRANCH   3   4
HETATM    4  C   UNK A   1      -8.645  19.562  68.338  1.00  0.00    -0.349 C  
HETATM    5  N   UNK A   1     -10.115  19.732  68.293  1.00  0.00    -0.441 NA 
HETATM    6  C   UNK A   0     -10.710  19.052  67.134  1.00  0.00    -0.456 C  
HETATM    7  H   UNK A   1     -10.375  20.718  68.319  1.00  0.00     0.000 HD 
HETATM    8  C   UNK A   1     -10.384  17.545  67.082  1.00  0.00    -0.330 C  
HETATM    9  C   UNK A   1      -8.874  17.303  67.139  1.00  0.00    -0.226 C  
HETATM   10  O   UNK A   1     -11.015  16.844  68.161  1.00  0.00    -0.365 OA 
HETATM   11  O   UNK A   1      -8.248  17.713  65.913  1.00  0.00    -0.534 OA 
HETATM   12  C   UNK A   1      -8.243  18.056  68.320  1.00  0.00    -0.292 C  
HETATM   13  H   UNK A   1     -10.814  15.917  68.129  1.00  0.00     0.000 HD 
HETATM   14  H   UNK A   1      -7.311  17.563  65.949  1.00  0.00     0.000 HD 
HETATM   15  O   UNK A   1      -6.822  17.845  68.279  1.00  0.00    -0.199 OA 
HETATM   16  H   UNK A   1      -6.577  16.927  68.268  1.00  0.00     0.000 HD 
ENDBRANCH   3   4
TORSDOF 1
ENDMDL
MODEL       61
REMARK 921   NORMALIZED FREE ENERGY PREDICTED BY IDOCK:   -3.60 KCAL/MOL
REMARK 922        TOTAL FREE ENERGY PREDICTED BY IDOCK:   -4.07 KCAL/MOL
REMARK 923 INTER-LIGAND FREE ENERGY PREDICTED BY IDOCK:   -3.83 KCAL/MOL
REMARK 924 INTRA-LIGAND FREE ENERGY PREDICTED BY IDOCK:   -0.24 KCAL/MOL
REMARK 927      BINDING AFFINITY PREDICTED BY RF-SCORE:    0.00 PKD
ROOT
HETATM    1  O   UNK A   1      -9.188  13.943  66.121  1.00  0.00    -0.479 OA 
HETATM    2  H   UNK A   1      -8.450  13.420  65.831  1.00  0.00     0.000 HD 
HETATM    3  C   UNK A   1      -8.752  15.027  66.942  1.00  0.00    -0.256 C  
ENDROOT
BRANCH   3   4
HETATM    4  C   UNK A   1      -9.956  15.881  67.414  1.00  0.00    -0.239 C  
HETATM    5  N   UNK A   1      -9.744  16.463  68.759  1.00  0.00    -0.240 NA 
HETATM    6  C   UNK A   0      -8.800  17.590  68.726  1.00  0.00    -0.215 C  
HETATM    7  H   UNK A   1      -9.448  15.751  69.428  1.00  0.00     0.000 HD 
HETATM    8  C   UNK A   1      -9.232  18.714  67.762  1.00  0.00    -0.285 C  
HETATM    9  C   UNK A   1      -9.482  18.171  66.354  1.00  0.00    -0.278 C  
HETATM   10  O   UNK A   1     -10.419  19.367  68.233  1.00  0.00    -0.401 OA 
HETATM   11  O   UNK A   1      -8.244  17.799  65.727  1.00  0.00    -0.538 OA 
HETATM   12  C   UNK A   1     -10.427  16.960  66.392  1.00  0.00    -0.252 C  
HETATM   13  H   UNK A   1     -10.685  20.059  67.639  1.00  0.00     0.000 HD 
HETATM   14  H   UNK A   1      -8.399  17.462  64.853  1.00  0.00     0.000 HD 
HETATM   15  O   UNK A   1     -10.566  16.456  65.054  1.00  0.00    -0.651 OA 
HETATM   16  H   UNK A   1     -10.853  17.114  64.431  1.00  0.00     0.000 HD 
ENDBRANCH   3   4
TORSDOF 1
ENDMDL
MODEL       62
REMARK 921   NORMALIZED FREE ENERGY PREDICTED BY IDOCK:   -3.58 KCAL/MOL
REMARK 922        TOTAL FREE ENERGY PREDICTED BY IDOCK:   -4.05 KCAL/MOL
REMARK 923 INTER-LIGAND FREE ENERGY PREDICTED BY IDOCK:   -3.92 KCAL/MOL
REMARK 924 INTRA-LIGAND FREE ENERGY PREDICTED BY IDOCK:   -0.13 KCAL/MOL
REMARK 927      BINDING AFFINITY PREDICTED BY RF-SCORE:    0.00 PKD
ROOT
HETATM    1  O   UNK A   1      -8.031  16.576  69.228  1.00  0.00    -0.224 OA 
HETATM    2  H   UNK A   1      -8.288  15.885  69.827  1.00  0.00     0.000 HD 
HETATM    3  C   UNK A   1      -8.739  16.466  67.993  1.00  0.00    -0.183 C  
ENDROOT
BRANCH   3   4
HETATM    4  C   UNK A   1      -8.321  17.594  67.015  1.00  0.00    -0.221 C  
HETATM    5  N   UNK A   1      -9.138  17.604  65.781  1.00  0.00    -0.429 NA 
HETATM    6  C   UNK A   0     -10.485  18.144  66.020  1.00  0.00    -0.335 C  
HETATM    7  H   UNK A   1      -9.179  16.677  65.356  1.00  0.00     0.000 HD 
HETATM    8  C   UNK A   1     -10.471  19.566  66.617  1.00  0.00    -0.488 C  
HETATM    9  C   UNK A   1      -9.628  19.623  67.892  1.00  0.00    -0.356 C  
HETATM   10  O   UNK A   1      -9.962  20.516  65.672  1.00  0.00    -0.573 OA 
HETATM   11  O   UNK A   1     -10.285  18.933  68.966  1.00  0.00    -0.508 OA 
HETATM   12  C   UNK A   1      -8.237  19.012  67.658  1.00  0.00    -0.275 C  
HETATM   13  H   UNK A   1      -9.954  21.391  66.039  1.00  0.00     0.000 HD 
HETATM   14  H   UNK A   1      -9.761  18.968  69.758  1.00  0.00     0.000 HD 
HETATM   15  O   UNK A   1      -7.522  19.033  68.903  1.00  0.00    -0.329 OA 
HETATM   16  H   UNK A   1      -7.471  19.897  69.295  1.00  0.00     0.000 HD 
ENDBRANCH   3   4
TORSDOF 1
ENDMDL
MODEL       63
REMARK 921   NORMALIZED FREE ENERGY PREDICTED BY IDOCK:   -3.58 KCAL/MOL
REMARK 922        TOTAL FREE ENERGY PREDICTED BY IDOCK:   -4.05 KCAL/MOL
REMARK 923 INTER-LIGAND FREE ENERGY PREDICTED BY IDOCK:   -3.82 KCAL/MOL
REMARK 924 INTRA-LIGAND FREE ENERGY PREDICTED BY IDOCK:   -0.23 KCAL/MOL
REMARK 927      BINDING AFFINITY PREDICTED BY RF-SCORE:    0.00 PKD
ROOT
HETATM    1  O   UNK A   1     -11.948  12.389  67.008  1.00  0.00    -0.541 OA 
HETATM    2  H   UNK A   1     -12.829  12.121  66.775  1.00  0.00     0.000 HD 
HETATM    3  C   UNK A   1     -11.789  13.800  66.851  1.00  0.00    -0.413 C  
ENDROOT
BRANCH   3   4
HETATM    4  C   UNK A   1     -10.352  14.239  67.232  1.00  0.00    -0.260 C  
HETATM    5  N   UNK A   1      -9.868  15.368  66.406  1.00  0.00    -0.264 NA 
HETATM    6  C   UNK A   0     -10.492  16.640  66.798  1.00  0.00    -0.261 C  
HETATM    7  H   UNK A   1      -9.998  15.181  65.411  1.00  0.00     0.000 HD 
HETATM    8  C   UNK A   1     -10.278  16.988  68.285  1.00  0.00    -0.326 C  
HETATM    9  C   UNK A   1     -10.748  15.849  69.193  1.00  0.00    -0.259 C  
HETATM   10  O   UNK A   1      -8.898  17.267  68.555  1.00  0.00    -0.257 OA 
HETATM   11  O   UNK A   1     -12.181  15.753  69.186  1.00  0.00    -0.556 OA 
HETATM   12  C   UNK A   1     -10.137  14.509  68.753  1.00  0.00    -0.239 C  
HETATM   13  H   UNK A   1      -8.767  17.481  69.471  1.00  0.00     0.000 HD 
HETATM   14  H   UNK A   1     -12.472  15.046  69.749  1.00  0.00     0.000 HD 
HETATM   15  O   UNK A   1     -10.668  13.475  69.597  1.00  0.00    -0.440 OA 
HETATM   16  H   UNK A   1     -10.537  13.639  70.524  1.00  0.00     0.000 HD 
ENDBRANCH   3   4
TORSDOF 1
ENDMDL
MODEL       64
REMARK 921   NORMALIZED FREE ENERGY PREDICTED BY IDOCK:   -3.54 KCAL/MOL
REMARK 922        TOTAL FREE ENERGY PREDICTED BY IDOCK:   -4.00 KCAL/MOL
REMARK 923 INTER-LIGAND FREE ENERGY PREDICTED BY IDOCK:   -3.75 KCAL/MOL
REMARK 924 INTRA-LIGAND FREE ENERGY PREDICTED BY IDOCK:   -0.25 KCAL/MOL
REMARK 927      BINDING AFFINITY PREDICTED BY RF-SCORE:    0.00 PKD
ROOT
HETATM    1  O   UNK A   1      -9.114  12.235  65.703  1.00  0.00    -0.431 OA 
HETATM    2  H   UNK A   1      -8.205  12.499  65.626  1.00  0.00     0.000 HD 
HETATM    3  C   UNK A   1      -9.269  11.242  66.718  1.00  0.00    -0.175 C  
ENDROOT
BRANCH   3   4
HETATM    4  C   UNK A   1     -10.753  10.811  66.845  1.00  0.00    -0.252 C  
HETATM    5  N   UNK A   1     -10.922   9.613  67.697  1.00  0.00    -0.459 NA 
HETATM    6  C   UNK A   0     -10.765   9.929  69.125  1.00  0.00    -0.224 C  
HETATM    7  H   UNK A   1     -10.292   8.862  67.412  1.00  0.00     0.000 HD 
HETATM    8  C   UNK A   1     -11.733  11.026  69.613  1.00  0.00    -0.329 C  
HETATM    9  C   UNK A   1     -11.615  12.289  68.759  1.00  0.00    -0.330 C  
HETATM   10  O   UNK A   1     -13.090  10.563  69.586  1.00  0.00    -0.556 OA 
HETATM   11  O   UNK A   1     -10.369  12.958  69.013  1.00  0.00    -0.425 OA 
HETATM   12  C   UNK A   1     -11.727  11.954  67.264  1.00  0.00    -0.247 C  
HETATM   13  H   UNK A   1     -13.686  11.238  69.886  1.00  0.00     0.000 HD 
HETATM   14  H   UNK A   1     -10.296  13.743  68.482  1.00  0.00     0.000 HD 
HETATM   15  O   UNK A   1     -11.540  13.166  66.516  1.00  0.00    -0.323 OA 
HETATM   16  H   UNK A   1     -12.134  13.863  66.771  1.00  0.00     0.000 HD 
ENDBRANCH   3   4
TORSDOF 1
ENDMDL
MODEL       65
REMARK 921   NORMALIZED FREE ENERGY PREDICTED BY IDOCK:   -3.53 KCAL/MOL
REMARK 922        TOTAL FREE ENERGY PREDICTED BY IDOCK:   -4.00 KCAL/MOL
REMARK 923 INTER-LIGAND FREE ENERGY PREDICTED BY IDOCK:   -3.82 KCAL/MOL
REMARK 924 INTRA-LIGAND FREE ENERGY PREDICTED BY IDOCK:   -0.18 KCAL/MOL
REMARK 927      BINDING AFFINITY PREDICTED BY RF-SCORE:    0.00 PKD
ROOT
HETATM    1  O   UNK A   1     -10.277  19.158  68.989  1.00  0.00    -0.537 OA 
HETATM    2  H   UNK A   1     -10.343  18.677  69.806  1.00  0.00     0.000 HD 
HETATM    3  C   UNK A   1      -8.915  19.464  68.689  1.00  0.00    -0.372 C  
ENDROOT
BRANCH   3   4
HETATM    4  C   UNK A   1      -8.806  20.249  67.357  1.00  0.00    -0.344 C  
HETATM    5  N   UNK A   1      -7.829  21.358  67.432  1.00  0.00    -0.575 NA 
HETATM    6  C   UNK A   0      -6.442  20.870  67.400  1.00  0.00    -0.336 C  
HETATM    7  H   UNK A   1      -7.996  21.945  68.250  1.00  0.00     0.000 HD 
HETATM    8  C   UNK A   1      -6.128  20.017  66.153  1.00  0.00    -0.175 C  
HETATM    9  C   UNK A   1      -7.117  18.858  66.013  1.00  0.00    -0.266 C  
HETATM   10  O   UNK A   1      -6.164  20.814  64.962  1.00  0.00    -0.258 OA 
HETATM   11  O   UNK A   1      -6.887  17.868  67.027  1.00  0.00    -0.168 OA 
HETATM   12  C   UNK A   1      -8.567  19.360  66.098  1.00  0.00    -0.284 C  
HETATM   13  H   UNK A   1      -5.971  20.289  64.195  1.00  0.00     0.000 HD 
HETATM   14  H   UNK A   1      -7.501  17.149  66.940  1.00  0.00     0.000 HD 
HETATM   15  O   UNK A   1      -9.441  18.222  66.029  1.00  0.00    -0.501 OA 
HETATM   16  H   UNK A   1      -9.296  17.680  65.261  1.00  0.00     0.000 HD 
ENDBRANCH   3   4
TORSDOF 1
ENDMDL
MODEL       66
REMARK 921   NORMALIZED FREE ENERGY PREDICTED BY IDOCK:   -3.52 KCAL/MOL
REMARK 922        TOTAL FREE ENERGY PREDICTED BY IDOCK:   -3.99 KCAL/MOL
REMARK 923 INTER-LIGAND FREE ENERGY PREDICTED BY IDOCK:   -3.75 KCAL/MOL
REMARK 924 INTRA-LIGAND FREE ENERGY PREDICTED BY IDOCK:   -0.24 KCAL/MOL
REMARK 927      BINDING AFFINITY PREDICTED BY RF-SCORE:    0.00 PKD
ROOT
HETATM    1  O   UNK A   1     -10.120   5.103  71.135  1.00  0.00    -0.201 OA 
HETATM    2  H   UNK A   1      -9.704   4.612  71.834  1.00  0.00     0.000 HD 
HETATM    3  C   UNK A   1     -11.064   6.036  71.663  1.00  0.00    -0.275 C  
ENDROOT
BRANCH   3   4
HETATM    4  C   UNK A   1     -11.742   6.839  70.523  1.00  0.00    -0.375 C  
HETATM    5  N   UNK A   1     -13.133   7.222  70.852  1.00  0.00    -0.591 NA 
HETATM    6  C   UNK A   0     -13.184   8.324  71.824  1.00  0.00    -0.347 C  
HETATM    7  H   UNK A   1     -13.673   6.418  71.174  1.00  0.00     0.000 HD 
HETATM    8  C   UNK A   1     -12.422   9.581  71.355  1.00  0.00    -0.362 C  
HETATM    9  C   UNK A   1     -10.975   9.245  70.986  1.00  0.00    -0.320 C  
HETATM   10  O   UNK A   1     -13.068  10.184  70.227  1.00  0.00    -0.586 OA 
HETATM   11  O   UNK A   1     -10.209   8.942  72.162  1.00  0.00    -0.321 OA 
HETATM   12  C   UNK A   1     -10.918   8.060  70.010  1.00  0.00    -0.202 C  
HETATM   13  H   UNK A   1     -12.599  10.957  69.939  1.00  0.00     0.000 HD 
HETATM   14  H   UNK A   1      -9.311   8.733  71.933  1.00  0.00     0.000 HD 
HETATM   15  O   UNK A   1      -9.538   7.752  69.758  1.00  0.00    -0.167 OA 
HETATM   16  H   UNK A   1      -9.036   8.496  69.445  1.00  0.00     0.000 HD 
ENDBRANCH   3   4
TORSDOF 1
ENDMDL
MODEL       67
REMARK 921   NORMALIZED FREE ENERGY PREDICTED BY IDOCK:   -3.50 KCAL/MOL
REMARK 922        TOTAL FREE ENERGY PREDICTED BY IDOCK:   -3.97 KCAL/MOL
REMARK 923 INTER-LIGAND FREE ENERGY PREDICTED BY IDOCK:   -3.84 KCAL/MOL
REMARK 924 INTRA-LIGAND FREE ENERGY PREDICTED BY IDOCK:   -0.13 KCAL/MOL
REMARK 927      BINDING AFFINITY PREDICTED BY RF-SCORE:    0.00 PKD
ROOT
HETATM    1  O   UNK A   1      -6.808  18.840  69.138  1.00  0.00    -0.283 OA 
HETATM    2  H   UNK A   1      -6.640  18.521  70.017  1.00  0.00     0.000 HD 
HETATM    3  C   UNK A   1      -7.553  17.883  68.384  1.00  0.00    -0.282 C  
ENDROOT
BRANCH   3   4
HETATM    4  C   UNK A   1      -7.829  18.404  66.951  1.00  0.00    -0.234 C  
HETATM    5  N   UNK A   1      -8.759  17.530  66.201  1.00  0.00    -0.484 NA 
HETATM    6  C   UNK A   0     -10.148  17.686  66.658  1.00  0.00    -0.335 C  
HETATM    7  H   UNK A   1      -8.463  16.554  66.240  1.00  0.00     0.000 HD 
HETATM    8  C   UNK A   1     -10.655  19.140  66.568  1.00  0.00    -0.435 C  
HETATM    9  C   UNK A   1      -9.724  20.098  67.316  1.00  0.00    -0.437 C  
HETATM   10  O   UNK A   1     -10.769  19.563  65.203  1.00  0.00    -0.354 OA 
HETATM   11  O   UNK A   1      -9.833  19.907  68.735  1.00  0.00    -0.379 OA 
HETATM   12  C   UNK A   1      -8.265  19.900  66.877  1.00  0.00    -0.318 C  
HETATM   13  H   UNK A   1     -11.081  20.458  65.148  1.00  0.00     0.000 HD 
HETATM   14  H   UNK A   1      -9.255  20.501  69.199  1.00  0.00     0.000 HD 
HETATM   15  O   UNK A   1      -7.438  20.774  67.660  1.00  0.00    -0.298 OA 
HETATM   16  H   UNK A   1      -7.703  21.686  67.615  1.00  0.00     0.000 HD 
ENDBRANCH   3   4
TORSDOF 1
ENDMDL
MODEL       68
REMARK 921   NORMALIZED FREE ENERGY PREDICTED BY IDOCK:   -3.50 KCAL/MOL
REMARK 922        TOTAL FREE ENERGY PREDICTED BY IDOCK:   -3.96 KCAL/MOL
REMARK 923 INTER-LIGAND FREE ENERGY PREDICTED BY IDOCK:   -3.92 KCAL/MOL
REMARK 924 INTRA-LIGAND FREE ENERGY PREDICTED BY IDOCK:   -0.04 KCAL/MOL
REMARK 927      BINDING AFFINITY PREDICTED BY RF-SCORE:    0.00 PKD
ROOT
HETATM    1  O   UNK A   1      -9.938  10.609  69.759  1.00  0.00    -0.429 OA 
HETATM    2  H   UNK A   1      -9.154  10.677  70.291  1.00  0.00     0.000 HD 
HETATM    3  C   UNK A   1      -9.610  10.591  68.369  1.00  0.00    -0.160 C  
ENDROOT
BRANCH   3   4
HETATM    4  C   UNK A   1     -10.890  10.479  67.502  1.00  0.00    -0.301 C  
HETATM    5  N   UNK A   1     -11.980  11.354  67.988  1.00  0.00    -0.640 NA 
HETATM    6  C   UNK A   0     -11.736  12.767  67.663  1.00  0.00    -0.367 C  
HETATM    7  H   UNK A   1     -12.141  11.225  68.987  1.00  0.00     0.000 HD 
HETATM    8  C   UNK A   1     -11.536  13.016  66.154  1.00  0.00    -0.366 C  
HETATM    9  C   UNK A   1     -10.427  12.127  65.588  1.00  0.00    -0.255 C  
HETATM   10  O   UNK A   1     -12.749  12.777  65.428  1.00  0.00    -0.621 OA 
HETATM   11  O   UNK A   1      -9.141  12.558  66.060  1.00  0.00    -0.422 OA 
HETATM   12  C   UNK A   1     -10.653  10.657  65.971  1.00  0.00    -0.125 C  
HETATM   13  H   UNK A   1     -12.626  12.930  64.499  1.00  0.00     0.000 HD 
HETATM   14  H   UNK A   1      -8.452  12.006  65.709  1.00  0.00     0.000 HD 
HETATM   15  O   UNK A   1      -9.548   9.887  65.471  1.00  0.00    -0.234 OA 
HETATM   16  H   UNK A   1      -9.404   9.995  64.538  1.00  0.00     0.000 HD 
ENDBRANCH   3   4
TORSDOF 1
ENDMDL
MODEL       69
REMARK 921   NORMALIZED FREE ENERGY PREDICTED BY IDOCK:   -3.49 KCAL/MOL
REMARK 922        TOTAL FREE ENERGY PREDICTED BY IDOCK:   -3.96 KCAL/MOL
REMARK 923 INTER-LIGAND FREE ENERGY PREDICTED BY IDOCK:   -3.70 KCAL/MOL
REMARK 924 INTRA-LIGAND FREE ENERGY PREDICTED BY IDOCK:   -0.26 KCAL/MOL
REMARK 927      BINDING AFFINITY PREDICTED BY RF-SCORE:    0.00 PKD
ROOT
HETATM    1  O   UNK A   1      -7.439  18.075  65.524  1.00  0.00    -0.538 OA 
HETATM    2  H   UNK A   1      -6.767  18.647  65.875  1.00  0.00     0.000 HD 
HETATM    3  C   UNK A   1      -7.699  16.989  66.414  1.00  0.00    -0.315 C  
ENDROOT
BRANCH   3   4
HETATM    4  C   UNK A   1      -8.797  16.057  65.841  1.00  0.00    -0.156 C  
HETATM    5  N   UNK A   1      -8.653  14.660  66.309  1.00  0.00    -0.384 NA 
HETATM    6  C   UNK A   0      -9.079  14.504  67.708  1.00  0.00    -0.190 C  
HETATM    7  H   UNK A   1      -7.701  14.319  66.171  1.00  0.00     0.000 HD 
HETATM    8  C   UNK A   1     -10.531  14.962  67.954  1.00  0.00    -0.250 C  
HETATM    9  C   UNK A   1     -10.747  16.399  67.476  1.00  0.00    -0.298 C  
HETATM   10  O   UNK A   1     -11.463  14.099  67.289  1.00  0.00    -0.315 OA 
HETATM   11  O   UNK A   1     -10.068  17.327  68.336  1.00  0.00    -0.292 OA 
HETATM   12  C   UNK A   1     -10.255  16.577  66.032  1.00  0.00    -0.356 C  
HETATM   13  H   UNK A   1     -12.356  14.381  67.441  1.00  0.00     0.000 HD 
HETATM   14  H   UNK A   1     -10.202  18.220  68.039  1.00  0.00     0.000 HD 
HETATM   15  O   UNK A   1     -10.421  17.956  65.667  1.00  0.00    -0.610 OA 
HETATM   16  H   UNK A   1     -11.309  18.273  65.783  1.00  0.00     0.000 HD 
ENDBRANCH   3   4
TORSDOF 1
ENDMDL
MODEL       70
REMARK 921   NORMALIZED FREE ENERGY PREDICTED BY IDOCK:   -3.45 KCAL/MOL
REMARK 922        TOTAL FREE ENERGY PREDICTED BY IDOCK:   -3.91 KCAL/MOL
REMARK 923 INTER-LIGAND FREE ENERGY PREDICTED BY IDOCK:   -3.79 KCAL/MOL
REMARK 924 INTRA-LIGAND FREE ENERGY PREDICTED BY IDOCK:   -0.12 KCAL/MOL
REMARK 927      BINDING AFFINITY PREDICTED BY RF-SCORE:    0.00 PKD
ROOT
HETATM    1  O   UNK A   1     -12.261   5.764  72.861  1.00  0.00    -0.536 OA 
HETATM    2  H   UNK A   1     -12.215   4.816  72.828  1.00  0.00     0.000 HD 
HETATM    3  C   UNK A   1     -10.953   6.337  72.875  1.00  0.00    -0.254 C  
ENDROOT
BRANCH   3   4
HETATM    4  C   UNK A   1     -11.028   7.884  72.927  1.00  0.00    -0.388 C  
HETATM    5  N   UNK A   1      -9.731   8.524  72.612  1.00  0.00    -0.258 NA 
HETATM    6  C   UNK A   0      -9.426   8.465  71.174  1.00  0.00    -0.179 C  
HETATM    7  H   UNK A   1      -8.975   8.124  73.168  1.00  0.00     0.000 HD 
HETATM    8  C   UNK A   1     -10.520   9.104  70.295  1.00  0.00    -0.218 C  
HETATM    9  C   UNK A   1     -11.892   8.492  70.586  1.00  0.00    -0.096 C  
HETATM   10  O   UNK A   1     -10.583  10.522  70.501  1.00  0.00    -0.420 OA 
HETATM   11  O   UNK A   1     -11.961   7.146  70.091  1.00  0.00    -0.558 OA 
HETATM   12  C   UNK A   1     -12.190   8.506  72.093  1.00  0.00    -0.382 C  
HETATM   13  H   UNK A   1     -11.257  10.915  69.961  1.00  0.00     0.000 HD 
HETATM   14  H   UNK A   1     -12.813   6.765  70.272  1.00  0.00     0.000 HD 
HETATM   15  O   UNK A   1     -13.455   7.859  72.307  1.00  0.00    -0.505 OA 
HETATM   16  H   UNK A   1     -14.163   8.237  71.799  1.00  0.00     0.000 HD 
ENDBRANCH   3   4
TORSDOF 1
ENDMDL
MODEL       71
REMARK 921   NORMALIZED FREE ENERGY PREDICTED BY IDOCK:   -3.42 KCAL/MOL
REMARK 922        TOTAL FREE ENERGY PREDICTED BY IDOCK:   -3.88 KCAL/MOL
REMARK 923 INTER-LIGAND FREE ENERGY PREDICTED BY IDOCK:   -3.63 KCAL/MOL
REMARK 924 INTRA-LIGAND FREE ENERGY PREDICTED BY IDOCK:   -0.25 KCAL/MOL
REMARK 927      BINDING AFFINITY PREDICTED BY RF-SCORE:    0.00 PKD
ROOT
HETATM    1  O   UNK A   1     -10.172  18.855  69.160  1.00  0.00    -0.526 OA 
HETATM    2  H   UNK A   1      -9.435  19.401  69.407  1.00  0.00     0.000 HD 
HETATM    3  C   UNK A   1      -9.743  17.756  68.355  1.00  0.00    -0.333 C  
ENDROOT
BRANCH   3   4
HETATM    4  C   UNK A   1     -10.946  16.865  67.952  1.00  0.00    -0.251 C  
HETATM    5  N   UNK A   1     -10.757  16.225  66.631  1.00  0.00    -0.252 NA 
HETATM    6  C   UNK A   0      -9.797  15.113  66.693  1.00  0.00    -0.252 C  
HETATM    7  H   UNK A   1     -10.488  16.908  65.923  1.00  0.00     0.000 HD 
HETATM    8  C   UNK A   1     -10.190  14.028  67.717  1.00  0.00    -0.240 C  
HETATM    9  C   UNK A   1     -10.413  14.633  69.105  1.00  0.00    -0.233 C  
HETATM   10  O   UNK A   1     -11.378  13.339  67.306  1.00  0.00    -0.288 OA 
HETATM   11  O   UNK A   1      -9.167  15.049  69.684  1.00  0.00    -0.429 OA 
HETATM   12  C   UNK A   1     -11.377  15.828  69.034  1.00  0.00    -0.354 C  
HETATM   13  H   UNK A   1     -11.620  12.672  67.937  1.00  0.00     0.000 HD 
HETATM   14  H   UNK A   1      -9.306  15.425  70.545  1.00  0.00     0.000 HD 
HETATM   15  O   UNK A   1     -11.491  16.391  70.350  1.00  0.00    -0.473 OA 
HETATM   16  H   UNK A   1     -11.754  15.759  71.010  1.00  0.00     0.000 HD 
ENDBRANCH   3   4
TORSDOF 1
ENDMDL
MODEL       72
REMARK 921   NORMALIZED FREE ENERGY PREDICTED BY IDOCK:   -3.41 KCAL/MOL
REMARK 922        TOTAL FREE ENERGY PREDICTED BY IDOCK:   -3.87 KCAL/MOL
REMARK 923 INTER-LIGAND FREE ENERGY PREDICTED BY IDOCK:   -3.60 KCAL/MOL
REMARK 924 INTRA-LIGAND FREE ENERGY PREDICTED BY IDOCK:   -0.26 KCAL/MOL
REMARK 927      BINDING AFFINITY PREDICTED BY RF-SCORE:    0.00 PKD
ROOT
HETATM    1  O   UNK A   1     -11.040  10.531  67.103  1.00  0.00    -0.265 OA 
HETATM    2  H   UNK A   1     -10.907   9.914  67.812  1.00  0.00     0.000 HD 
HETATM    3  C   UNK A   1     -11.348  11.830  67.611  1.00  0.00    -0.302 C  
ENDROOT
BRANCH   3   4
HETATM    4  C   UNK A   1     -11.563  12.838  66.453  1.00  0.00    -0.378 C  
HETATM    5  N   UNK A   1     -12.381  14.002  66.863  1.00  0.00    -0.533 NA 
HETATM    6  C   UNK A   0     -11.619  14.940  67.701  1.00  0.00    -0.339 C  
HETATM    7  H   UNK A   1     -13.242  13.707  67.324  1.00  0.00     0.000 HD 
HETATM    8  C   UNK A   1     -10.332  15.452  67.022  1.00  0.00    -0.280 C  
HETATM    9  C   UNK A   1      -9.449  14.290  66.562  1.00  0.00    -0.287 C  
HETATM   10  O   UNK A   1     -10.640  16.284  65.896  1.00  0.00    -0.327 OA 
HETATM   11  O   UNK A   1      -8.859  13.624  67.690  1.00  0.00    -0.173 OA 
HETATM   12  C   UNK A   1     -10.256  13.283  65.729  1.00  0.00    -0.292 C  
HETATM   13  H   UNK A   1      -9.848  16.599  65.478  1.00  0.00     0.000 HD 
HETATM   14  H   UNK A   1      -8.311  12.903  67.404  1.00  0.00     0.000 HD 
HETATM   15  O   UNK A   1      -9.392  12.188  65.387  1.00  0.00    -0.427 OA 
HETATM   16  H   UNK A   1      -8.595  12.459  64.946  1.00  0.00     0.000 HD 
ENDBRANCH   3   4
TORSDOF 1
ENDMDL
MODEL       73
REMARK 921   NORMALIZED FREE ENERGY PREDICTED BY IDOCK:   -3.40 KCAL/MOL
REMARK 922        TOTAL FREE ENERGY PREDICTED BY IDOCK:   -3.86 KCAL/MOL
REMARK 923 INTER-LIGAND FREE ENERGY PREDICTED BY IDOCK:   -3.82 KCAL/MOL
REMARK 924 INTRA-LIGAND FREE ENERGY PREDICTED BY IDOCK:   -0.03 KCAL/MOL
REMARK 927      BINDING AFFINITY PREDICTED BY RF-SCORE:    0.00 PKD
ROOT
HETATM    1  O   UNK A   1     -12.649  14.584  68.858  1.00  0.00    -0.560 OA 
HETATM    2  H   UNK A   1     -12.600  15.048  69.685  1.00  0.00     0.000 HD 
HETATM    3  C   UNK A   1     -11.616  13.603  68.764  1.00  0.00    -0.324 C  
ENDROOT
BRANCH   3   4
HETATM    4  C   UNK A   1     -11.696  12.845  67.413  1.00  0.00    -0.372 C  
HETATM    5  N   UNK A   1     -10.847  13.461  66.369  1.00  0.00    -0.288 NA 
HETATM    6  C   UNK A   0      -9.421  13.177  66.583  1.00  0.00    -0.260 C  
HETATM    7  H   UNK A   1     -11.019  14.464  66.295  1.00  0.00     0.000 HD 
HETATM    8  C   UNK A   1      -9.107  11.668  66.651  1.00  0.00    -0.194 C  
HETATM    9  C   UNK A   1      -9.966  10.971  67.708  1.00  0.00    -0.173 C  
HETATM   10  O   UNK A   1      -9.320  11.041  65.380  1.00  0.00    -0.204 OA 
HETATM   11  O   UNK A   1      -9.550  11.348  69.029  1.00  0.00    -0.383 OA 
HETATM   12  C   UNK A   1     -11.453  11.309  67.516  1.00  0.00    -0.246 C  
HETATM   13  H   UNK A   1      -9.127  10.112  65.422  1.00  0.00     0.000 HD 
HETATM   14  H   UNK A   1     -10.084  10.915  69.685  1.00  0.00     0.000 HD 
HETATM   15  O   UNK A   1     -12.196  10.683  68.574  1.00  0.00    -0.822 OA 
HETATM   16  H   UNK A   1     -12.047   9.746  68.637  1.00  0.00     0.000 HD 
ENDBRANCH   3   4
TORSDOF 1
ENDMDL
MODEL       74
REMARK 921   NORMALIZED FREE ENERGY PREDICTED BY IDOCK:   -3.39 KCAL/MOL
REMARK 922        TOTAL FREE ENERGY PREDICTED BY IDOCK:   -3.85 KCAL/MOL
REMARK 923 INTER-LIGAND FREE ENERGY PREDICTED BY IDOCK:   -3.81 KCAL/MOL
REMARK 924 INTRA-LIGAND FREE ENERGY PREDICTED BY IDOCK:   -0.04 KCAL/MOL
REMARK 927      BINDING AFFINITY PREDICTED BY RF-SCORE:    0.00 PKD
ROOT
HETATM    1  O   UNK A   1      -7.777  18.118  65.575  1.00  0.00    -0.507 OA 
HETATM    2  H   UNK A   1      -6.878  18.142  65.270  1.00  0.00     0.000 HD 
HETATM    3  C   UNK A   1      -8.053  16.887  66.246  1.00  0.00    -0.316 C  
ENDROOT
BRANCH   3   4
HETATM    4  C   UNK A   1      -9.520  16.848  66.746  1.00  0.00    -0.255 C  
HETATM    5  N   UNK A   1     -10.494  16.798  65.633  1.00  0.00    -0.527 NA 
HETATM    6  C   UNK A   0     -10.543  15.469  65.006  1.00  0.00    -0.409 C  
HETATM    7  H   UNK A   1     -10.307  17.527  64.944  1.00  0.00     0.000 HD 
HETATM    8  C   UNK A   1     -10.873  14.340  66.004  1.00  0.00    -0.303 C  
HETATM    9  C   UNK A   1      -9.904  14.348  67.189  1.00  0.00    -0.254 C  
HETATM   10  O   UNK A   1     -12.215  14.459  66.492  1.00  0.00    -0.424 OA 
HETATM   11  O   UNK A   1      -8.598  13.914  66.779  1.00  0.00    -0.401 OA 
HETATM   12  C   UNK A   1      -9.813  15.749  67.813  1.00  0.00    -0.224 C  
HETATM   13  H   UNK A   1     -12.418  13.765  67.106  1.00  0.00     0.000 HD 
HETATM   14  H   UNK A   1      -7.997  13.920  67.515  1.00  0.00     0.000 HD 
HETATM   15  O   UNK A   1      -8.841  15.707  68.870  1.00  0.00    -0.188 OA 
HETATM   16  H   UNK A   1      -9.020  15.037  69.521  1.00  0.00     0.000 HD 
ENDBRANCH   3   4
TORSDOF 1
ENDMDL
MODEL       75
REMARK 921   NORMALIZED FREE ENERGY PREDICTED BY IDOCK:   -3.39 KCAL/MOL
REMARK 922        TOTAL FREE ENERGY PREDICTED BY IDOCK:   -3.85 KCAL/MOL
REMARK 923 INTER-LIGAND FREE ENERGY PREDICTED BY IDOCK:   -3.81 KCAL/MOL
REMARK 924 INTRA-LIGAND FREE ENERGY PREDICTED BY IDOCK:   -0.04 KCAL/MOL
REMARK 927      BINDING AFFINITY PREDICTED BY RF-SCORE:    0.00 PKD
ROOT
HETATM    1  O   UNK A   1      -9.291  19.502  69.063  1.00  0.00    -0.377 OA 
HETATM    2  H   UNK A   1      -9.638  20.385  69.013  1.00  0.00     0.000 HD 
HETATM    3  C   UNK A   1      -9.589  18.771  67.873  1.00  0.00    -0.308 C  
ENDROOT
BRANCH   3   4
HETATM    4  C   UNK A   1      -9.022  17.331  67.954  1.00  0.00    -0.235 C  
HETATM    5  N   UNK A   1      -9.847  16.446  68.808  1.00  0.00    -0.239 NA 
HETATM    6  C   UNK A   0     -11.095  16.048  68.140  1.00  0.00    -0.344 C  
HETATM    7  H   UNK A   1     -10.031  16.874  69.716  1.00  0.00     0.000 HD 
HETATM    8  C   UNK A   1     -10.862  15.352  66.784  1.00  0.00    -0.306 C  
HETATM    9  C   UNK A   1     -10.001  16.214  65.859  1.00  0.00    -0.356 C  
HETATM   10  O   UNK A   1     -10.232  14.077  66.962  1.00  0.00    -0.256 OA 
HETATM   11  O   UNK A   1     -10.738  17.359  65.402  1.00  0.00    -0.595 OA 
HETATM   12  C   UNK A   1      -8.720  16.674  66.572  1.00  0.00    -0.282 C  
HETATM   13  H   UNK A   1     -10.088  13.648  66.127  1.00  0.00     0.000 HD 
HETATM   14  H   UNK A   1     -10.203  17.895  64.828  1.00  0.00     0.000 HD 
HETATM   15  O   UNK A   1      -7.992  17.531  65.680  1.00  0.00    -0.512 OA 
HETATM   16  H   UNK A   1      -7.808  17.131  64.838  1.00  0.00     0.000 HD 
ENDBRANCH   3   4
TORSDOF 1
ENDMDL
MODEL       76
REMARK 921   NORMALIZED FREE ENERGY PREDICTED BY IDOCK:   -3.38 KCAL/MOL
REMARK 922        TOTAL FREE ENERGY PREDICTED BY IDOCK:   -3.84 KCAL/MOL
REMARK 923 INTER-LIGAND FREE ENERGY PREDICTED BY IDOCK:   -3.80 KCAL/MOL
REMARK 924 INTRA-LIGAND FREE ENERGY PREDICTED BY IDOCK:   -0.04 KCAL/MOL
REMARK 927      BINDING AFFINITY PREDICTED BY RF-SCORE:    0.00 PKD
ROOT
HETATM    1  O   UNK A   1      -6.123  18.044  69.690  1.00  0.00    -0.240 OA 
HETATM    2  H   UNK A   1      -5.378  18.473  70.093  1.00  0.00     0.000 HD 
HETATM    3  C   UNK A   1      -6.638  18.828  68.613  1.00  0.00    -0.254 C  
ENDROOT
BRANCH   3   4
HETATM    4  C   UNK A   1      -7.854  18.127  67.953  1.00  0.00    -0.244 C  
HETATM    5  N   UNK A   1      -9.052  18.137  68.823  1.00  0.00    -0.269 NA 
HETATM    6  C   UNK A   0      -9.685  19.463  68.868  1.00  0.00    -0.437 C  
HETATM    7  H   UNK A   1      -8.833  17.798  69.760  1.00  0.00     0.000 HD 
HETATM    8  C   UNK A   1     -10.080  19.995  67.475  1.00  0.00    -0.425 C  
HETATM    9  C   UNK A   1      -8.882  19.996  66.523  1.00  0.00    -0.337 C  
HETATM   10  O   UNK A   1     -11.135  19.210  66.905  1.00  0.00    -0.309 OA 
HETATM   11  O   UNK A   1      -7.940  21.013  66.895  1.00  0.00    -0.568 OA 
HETATM   12  C   UNK A   1      -8.188  18.625  66.514  1.00  0.00    -0.286 C  
HETATM   13  H   UNK A   1     -11.378  19.536  66.047  1.00  0.00     0.000 HD 
HETATM   14  H   UNK A   1      -7.196  21.013  66.304  1.00  0.00     0.000 HD 
HETATM   15  O   UNK A   1      -7.037  18.710  65.659  1.00  0.00    -0.430 OA 
HETATM   16  H   UNK A   1      -7.240  19.014  64.781  1.00  0.00     0.000 HD 
ENDBRANCH   3   4
TORSDOF 1
ENDMDL
MODEL       77
REMARK 921   NORMALIZED FREE ENERGY PREDICTED BY IDOCK:   -3.36 KCAL/MOL
REMARK 922        TOTAL FREE ENERGY PREDICTED BY IDOCK:   -3.81 KCAL/MOL
REMARK 923 INTER-LIGAND FREE ENERGY PREDICTED BY IDOCK:   -3.77 KCAL/MOL
REMARK 924 INTRA-LIGAND FREE ENERGY PREDICTED BY IDOCK:   -0.05 KCAL/MOL
REMARK 927      BINDING AFFINITY PREDICTED BY RF-SCORE:    0.00 PKD
ROOT
HETATM    1  O   UNK A   1     -11.639  14.080  70.656  1.00  0.00    -0.497 OA 
HETATM    2  H   UNK A   1     -12.273  13.769  71.291  1.00  0.00     0.000 HD 
HETATM    3  C   UNK A   1     -11.890  13.512  69.369  1.00  0.00    -0.335 C  
ENDROOT
BRANCH   3   4
HETATM    4  C   UNK A   1     -10.856  14.020  68.331  1.00  0.00    -0.249 C  
HETATM    5  N   UNK A   1      -9.468  13.655  68.692  1.00  0.00    -0.376 NA 
HETATM    6  C   UNK A   0      -9.194  12.231  68.450  1.00  0.00    -0.145 C  
HETATM    7  H   UNK A   1      -9.254  13.916  69.656  1.00  0.00     0.000 HD 
HETATM    8  C   UNK A   1      -9.456  11.803  66.992  1.00  0.00    -0.185 C  
HETATM    9  C   UNK A   1     -10.876  12.166  66.554  1.00  0.00    -0.270 C  
HETATM   10  O   UNK A   1      -8.516  12.415  66.099  1.00  0.00    -0.388 OA 
HETATM   11  O   UNK A   1     -11.839  11.329  67.212  1.00  0.00    -0.562 OA 
HETATM   12  C   UNK A   1     -11.181  13.642  66.854  1.00  0.00    -0.312 C  
HETATM   13  H   UNK A   1      -8.677  12.151  65.201  1.00  0.00     0.000 HD 
HETATM   14  H   UNK A   1     -12.721  11.556  66.941  1.00  0.00     0.000 HD 
HETATM   15  O   UNK A   1     -12.545  13.902  66.485  1.00  0.00    -0.448 OA 
HETATM   16  H   UNK A   1     -12.743  13.672  65.584  1.00  0.00     0.000 HD 
ENDBRANCH   3   4
TORSDOF 1
ENDMDL
MODEL       78
REMARK 921   NORMALIZED FREE ENERGY PREDICTED BY IDOCK:   -3.35 KCAL/MOL
REMARK 922        TOTAL FREE ENERGY PREDICTED BY IDOCK:   -3.81 KCAL/MOL
REMARK 923 INTER-LIGAND FREE ENERGY PREDICTED BY IDOCK:   -3.77 KCAL/MOL
REMARK 924 INTRA-LIGAND FREE ENERGY PREDICTED BY IDOCK:   -0.04 KCAL/MOL
REMARK 927      BINDING AFFINITY PREDICTED BY RF-SCORE:    0.00 PKD
ROOT
HETATM    1  O   UNK A   1      -6.300  17.327  68.981  1.00  0.00    -0.187 OA 
HETATM    2  H   UNK A   1      -6.044  16.777  69.712  1.00  0.00     0.000 HD 
HETATM    3  C   UNK A   1      -7.624  17.011  68.548  1.00  0.00    -0.231 C  
ENDROOT
BRANCH   3   4
HETATM    4  C   UNK A   1      -8.043  17.909  67.356  1.00  0.00    -0.211 C  
HETATM    5  N   UNK A   1      -8.060  17.172  66.072  1.00  0.00    -0.512 NA 
HETATM    6  C   UNK A   0      -9.223  16.279  65.967  1.00  0.00    -0.316 C  
HETATM    7  H   UNK A   1      -7.187  16.664  65.925  1.00  0.00     0.000 HD 
HETATM    8  C   UNK A   1     -10.569  17.014  66.133  1.00  0.00    -0.194 C  
HETATM    9  C   UNK A   1     -10.608  17.808  67.441  1.00  0.00    -0.335 C  
HETATM   10  O   UNK A   1     -10.809  17.903  65.035  1.00  0.00    -0.767 OA 
HETATM   11  O   UNK A   1     -10.692  16.924  68.569  1.00  0.00    -0.340 OA 
HETATM   12  C   UNK A   1      -9.367  18.704  67.576  1.00  0.00    -0.283 C  
HETATM   13  H   UNK A   1     -11.637  18.356  65.137  1.00  0.00     0.000 HD 
HETATM   14  H   UNK A   1     -10.716  17.417  69.381  1.00  0.00     0.000 HD 
HETATM   15  O   UNK A   1      -9.428  19.368  68.848  1.00  0.00    -0.391 OA 
HETATM   16  H   UNK A   1     -10.235  19.853  68.983  1.00  0.00     0.000 HD 
ENDBRANCH   3   4
TORSDOF 1
ENDMDL
MODEL       79
REMARK 921   NORMALIZED FREE ENERGY PREDICTED BY IDOCK:   -3.33 KCAL/MOL
REMARK 922        TOTAL FREE ENERGY PREDICTED BY IDOCK:   -3.79 KCAL/MOL
REMARK 923 INTER-LIGAND FREE ENERGY PREDICTED BY IDOCK:   -3.52 KCAL/MOL
REMARK 924 INTRA-LIGAND FREE ENERGY PREDICTED BY IDOCK:   -0.27 KCAL/MOL
REMARK 927      BINDING AFFINITY PREDICTED BY RF-SCORE:    0.00 PKD
ROOT
HETATM    1  O   UNK A   1      -6.207  16.656  69.254  1.00  0.00    -0.168 OA 
HETATM    2  H   UNK A   1      -5.546  16.011  69.033  1.00  0.00     0.000 HD 
HETATM    3  C   UNK A   1      -6.101  17.802  68.410  1.00  0.00    -0.174 C  
ENDROOT
BRANCH   3   4
HETATM    4  C   UNK A   1      -7.181  18.855  68.770  1.00  0.00    -0.318 C  
HETATM    5  N   UNK A   1      -6.855  20.201  68.249  1.00  0.00    -0.301 NA 
HETATM    6  C   UNK A   0      -7.073  20.294  66.798  1.00  0.00    -0.256 C  
HETATM    7  H   UNK A   1      -5.904  20.475  68.499  1.00  0.00     0.000 HD 
HETATM    8  C   UNK A   1      -8.513  19.936  66.377  1.00  0.00    -0.341 C  
HETATM    9  C   UNK A   1      -8.915  18.556  66.900  1.00  0.00    -0.280 C  
HETATM   10  O   UNK A   1      -9.447  20.912  66.855  1.00  0.00    -0.670 OA 
HETATM   11  O   UNK A   1      -8.210  17.521  66.197  1.00  0.00    -0.426 OA 
HETATM   12  C   UNK A   1      -8.639  18.439  68.407  1.00  0.00    -0.325 C  
HETATM   13  H   UNK A   1     -10.333  20.692  66.597  1.00  0.00     0.000 HD 
HETATM   14  H   UNK A   1      -8.459  16.664  66.523  1.00  0.00     0.000 HD 
HETATM   15  O   UNK A   1      -8.972  17.104  68.822  1.00  0.00    -0.264 OA 
HETATM   16  H   UNK A   1      -9.861  16.851  68.601  1.00  0.00     0.000 HD 
ENDBRANCH   3   4
TORSDOF 1
ENDMDL
MODEL       80
REMARK 921   NORMALIZED FREE ENERGY PREDICTED BY IDOCK:   -3.32 KCAL/MOL
REMARK 922        TOTAL FREE ENERGY PREDICTED BY IDOCK:   -3.78 KCAL/MOL
REMARK 923 INTER-LIGAND FREE ENERGY PREDICTED BY IDOCK:   -3.52 KCAL/MOL
REMARK 924 INTRA-LIGAND FREE ENERGY PREDICTED BY IDOCK:   -0.26 KCAL/MOL
REMARK 927      BINDING AFFINITY PREDICTED BY RF-SCORE:    0.00 PKD
ROOT
HETATM    1  O   UNK A   1     -11.498   6.716  67.235  1.00  0.00    -0.766 OA 
HETATM    2  H   UNK A   1     -11.773   7.019  66.378  1.00  0.00     0.000 HD 
HETATM    3  C   UNK A   1     -10.358   7.448  67.690  1.00  0.00    -0.231 C  
ENDROOT
BRANCH   3   4
HETATM    4  C   UNK A   1      -9.908   6.954  69.089  1.00  0.00    -0.156 C  
HETATM    5  N   UNK A   1      -8.581   7.484  69.475  1.00  0.00    -0.133 NA 
HETATM    6  C   UNK A   0      -8.648   8.901  69.861  1.00  0.00    -0.137 C  
HETATM    7  H   UNK A   1      -7.893   7.332  68.737  1.00  0.00     0.000 HD 
HETATM    8  C   UNK A   1      -9.642   9.170  71.010  1.00  0.00    -0.280 C  
HETATM    9  C   UNK A   1     -11.034   8.631  70.674  1.00  0.00    -0.240 C  
HETATM   10  O   UNK A   1      -9.188   8.576  72.233  1.00  0.00    -0.242 OA 
HETATM   11  O   UNK A   1     -11.652   9.424  69.649  1.00  0.00    -0.440 OA 
HETATM   12  C   UNK A   1     -10.960   7.165  70.220  1.00  0.00    -0.263 C  
HETATM   13  H   UNK A   1      -9.800   8.741  72.940  1.00  0.00     0.000 HD 
HETATM   14  H   UNK A   1     -12.516   9.089  69.441  1.00  0.00     0.000 HD 
HETATM   15  O   UNK A   1     -12.283   6.740  69.856  1.00  0.00    -0.634 OA 
HETATM   16  H   UNK A   1     -12.924   6.868  70.546  1.00  0.00     0.000 HD 
ENDBRANCH   3   4
TORSDOF 1
ENDMDL
MODEL       81
REMARK 921   NORMALIZED FREE ENERGY PREDICTED BY IDOCK:   -3.31 KCAL/MOL
REMARK 922        TOTAL FREE ENERGY PREDICTED BY IDOCK:   -3.77 KCAL/MOL
REMARK 923 INTER-LIGAND FREE ENERGY PREDICTED BY IDOCK:   -3.51 KCAL/MOL
REMARK 924 INTRA-LIGAND FREE ENERGY PREDICTED BY IDOCK:   -0.26 KCAL/MOL
REMARK 927      BINDING AFFINITY PREDICTED BY RF-SCORE:    0.00 PKD
ROOT
HETATM    1  O   UNK A   1     -11.563   6.459  67.179  1.00  0.00    -0.708 OA 
HETATM    2  H   UNK A   1     -12.087   6.492  66.387  1.00  0.00     0.000 HD 
HETATM    3  C   UNK A   1     -10.535   7.451  67.149  1.00  0.00    -0.333 C  
ENDROOT
BRANCH   3   4
HETATM    4  C   UNK A   1      -9.681   7.398  68.442  1.00  0.00    -0.153 C  
HETATM    5  N   UNK A   1      -8.408   8.142  68.309  1.00  0.00    -0.125 NA 
HETATM    6  C   UNK A   0      -8.615   9.597  68.358  1.00  0.00    -0.119 C  
HETATM    7  H   UNK A   1      -7.905   7.867  67.464  1.00  0.00     0.000 HD 
HETATM    8  C   UNK A   1      -9.330  10.064  69.643  1.00  0.00    -0.220 C  
HETATM    9  C   UNK A   1     -10.651   9.318  69.844  1.00  0.00    -0.226 C  
HETATM   10  O   UNK A   1      -8.498   9.868  70.794  1.00  0.00    -0.379 OA 
HETATM   11  O   UNK A   1     -11.624   9.742  68.877  1.00  0.00    -0.474 OA 
HETATM   12  C   UNK A   1     -10.445   7.799  69.741  1.00  0.00    -0.233 C  
HETATM   13  H   UNK A   1      -8.938  10.156  71.585  1.00  0.00     0.000 HD 
HETATM   14  H   UNK A   1     -12.445   9.278  69.002  1.00  0.00     0.000 HD 
HETATM   15  O   UNK A   1     -11.726   7.162  69.869  1.00  0.00    -0.536 OA 
HETATM   16  H   UNK A   1     -12.192   7.406  70.661  1.00  0.00     0.000 HD 
ENDBRANCH   3   4
TORSDOF 1
ENDMDL
MODEL       82
REMARK 921   NORMALIZED FREE ENERGY PREDICTED BY IDOCK:   -3.29 KCAL/MOL
REMARK 922        TOTAL FREE ENERGY PREDICTED BY IDOCK:   -3.75 KCAL/MOL
REMARK 923 INTER-LIGAND FREE ENERGY PREDICTED BY IDOCK:   -3.49 KCAL/MOL
REMARK 924 INTRA-LIGAND FREE ENERGY PREDICTED BY IDOCK:   -0.26 KCAL/MOL
REMARK 927      BINDING AFFINITY PREDICTED BY RF-SCORE:    0.00 PKD
ROOT
HETATM    1  O   UNK A   1      -9.143   6.655  68.098  1.00  0.00    -0.121 OA 
HETATM    2  H   UNK A   1      -8.730   7.081  67.356  1.00  0.00     0.000 HD 
HETATM    3  C   UNK A   1      -9.065   7.478  69.263  1.00  0.00    -0.138 C  
ENDROOT
BRANCH   3   4
HETATM    4  C   UNK A   1      -9.739   6.783  70.474  1.00  0.00    -0.176 C  
HETATM    5  N   UNK A   1      -9.169   7.224  71.767  1.00  0.00    -0.142 NA 
HETATM    6  C   UNK A   0      -9.621   8.574  72.134  1.00  0.00    -0.312 C  
HETATM    7  H   UNK A   1      -8.150   7.162  71.763  1.00  0.00     0.000 HD 
HETATM    8  C   UNK A   1     -11.156   8.702  72.200  1.00  0.00    -0.364 C  
HETATM    9  C   UNK A   1     -11.807   8.246  70.893  1.00  0.00    -0.216 C  
HETATM   10  O   UNK A   1     -11.690   7.933  73.286  1.00  0.00    -0.632 OA 
HETATM   11  O   UNK A   1     -11.547   9.189  69.841  1.00  0.00    -0.452 OA 
HETATM   12  C   UNK A   1     -11.296   6.857  70.481  1.00  0.00    -0.327 C  
HETATM   13  H   UNK A   1     -12.636   8.011  73.327  1.00  0.00     0.000 HD 
HETATM   14  H   UNK A   1     -11.951   8.905  69.029  1.00  0.00     0.000 HD 
HETATM   15  O   UNK A   1     -11.889   6.517  69.217  1.00  0.00    -0.608 OA 
HETATM   16  H   UNK A   1     -12.839   6.561  69.221  1.00  0.00     0.000 HD 
ENDBRANCH   3   4
TORSDOF 1
ENDMDL
MODEL       83
REMARK 921   NORMALIZED FREE ENERGY PREDICTED BY IDOCK:   -3.28 KCAL/MOL
REMARK 922        TOTAL FREE ENERGY PREDICTED BY IDOCK:   -3.73 KCAL/MOL
REMARK 923 INTER-LIGAND FREE ENERGY PREDICTED BY IDOCK:   -3.47 KCAL/MOL
REMARK 924 INTRA-LIGAND FREE ENERGY PREDICTED BY IDOCK:   -0.26 KCAL/MOL
REMARK 927      BINDING AFFINITY PREDICTED BY RF-SCORE:    0.00 PKD
ROOT
HETATM    1  O   UNK A   1      -8.793  17.527  66.348  1.00  0.00    -0.281 OA 
HETATM    2  H   UNK A   1      -9.012  18.144  65.660  1.00  0.00     0.000 HD 
HETATM    3  C   UNK A   1      -9.955  17.169  67.097  1.00  0.00    -0.283 C  
ENDROOT
BRANCH   3   4
HETATM    4  C   UNK A   1      -9.599  16.161  68.220  1.00  0.00    -0.216 C  
HETATM    5  N   UNK A   1     -10.541  16.228  69.359  1.00  0.00    -0.279 NA 
HETATM    6  C   UNK A   0     -11.833  15.603  69.040  1.00  0.00    -0.364 C  
HETATM    7  H   UNK A   1     -10.663  17.187  69.684  1.00  0.00     0.000 HD 
HETATM    8  C   UNK A   1     -11.701  14.133  68.591  1.00  0.00    -0.350 C  
HETATM    9  C   UNK A   1     -10.726  13.997  67.421  1.00  0.00    -0.283 C  
HETATM   10  O   UNK A   1     -11.259  13.303  69.673  1.00  0.00    -0.444 OA 
HETATM   11  O   UNK A   1     -11.292  14.548  66.222  1.00  0.00    -0.340 OA 
HETATM   12  C   UNK A   1      -9.393  14.694  67.733  1.00  0.00    -0.197 C  
HETATM   13  H   UNK A   1     -11.177  12.398  69.397  1.00  0.00     0.000 HD 
HETATM   14  H   UNK A   1     -10.686  14.464  65.495  1.00  0.00     0.000 HD 
HETATM   15  O   UNK A   1      -8.550  14.590  66.575  1.00  0.00    -0.436 OA 
HETATM   16  H   UNK A   1      -8.424  13.696  66.278  1.00  0.00     0.000 HD 
ENDBRANCH   3   4
TORSDOF 1
ENDMDL
MODEL       84
REMARK 921   NORMALIZED FREE ENERGY PREDICTED BY IDOCK:   -3.25 KCAL/MOL
REMARK 922        TOTAL FREE ENERGY PREDICTED BY IDOCK:   -3.70 KCAL/MOL
REMARK 923 INTER-LIGAND FREE ENERGY PREDICTED BY IDOCK:   -3.70 KCAL/MOL
REMARK 924 INTRA-LIGAND FREE ENERGY PREDICTED BY IDOCK:   -0.00 KCAL/MOL
REMARK 927      BINDING AFFINITY PREDICTED BY RF-SCORE:    0.00 PKD
ROOT
HETATM    1  O   UNK A   1      -6.288  17.345  68.923  1.00  0.00    -0.182 OA 
HETATM    2  H   UNK A   1      -5.683  16.622  68.806  1.00  0.00     0.000 HD 
HETATM    3  C   UNK A   1      -7.612  16.966  68.547  1.00  0.00    -0.221 C  
ENDROOT
BRANCH   3   4
HETATM    4  C   UNK A   1      -8.599  18.147  68.739  1.00  0.00    -0.206 C  
HETATM    5  N   UNK A   1      -7.969  19.459  68.473  1.00  0.00    -0.351 NA 
HETATM    6  C   UNK A   0      -7.777  19.693  67.034  1.00  0.00    -0.262 C  
HETATM    7  H   UNK A   1      -7.092  19.560  68.985  1.00  0.00     0.000 HD 
HETATM    8  C   UNK A   1      -9.086  19.599  66.224  1.00  0.00    -0.376 C  
HETATM    9  C   UNK A   1      -9.794  18.265  66.470  1.00  0.00    -0.361 C  
HETATM   10  O   UNK A   1      -9.976  20.673  66.558  1.00  0.00    -0.580 OA 
HETATM   11  O   UNK A   1      -9.071  17.187  65.856  1.00  0.00    -0.513 OA 
HETATM   12  C   UNK A   1      -9.949  17.994  67.974  1.00  0.00    -0.343 C  
HETATM   13  H   UNK A   1     -10.782  20.615  66.060  1.00  0.00     0.000 HD 
HETATM   14  H   UNK A   1      -9.510  16.358  66.009  1.00  0.00     0.000 HD 
HETATM   15  O   UNK A   1     -10.556  16.703  68.138  1.00  0.00    -0.306 OA 
HETATM   16  H   UNK A   1     -11.379  16.610  67.672  1.00  0.00     0.000 HD 
ENDBRANCH   3   4
TORSDOF 1
ENDMDL
MODEL       85
REMARK 921   NORMALIZED FREE ENERGY PREDICTED BY IDOCK:   -3.25 KCAL/MOL
REMARK 922        TOTAL FREE ENERGY PREDICTED BY IDOCK:   -3.70 KCAL/MOL
REMARK 923 INTER-LIGAND FREE ENERGY PREDICTED BY IDOCK:   -4.05 KCAL/MOL
REMARK 924 INTRA-LIGAND FREE ENERGY PREDICTED BY IDOCK:    0.35 KCAL/MOL
REMARK 927      BINDING AFFINITY PREDICTED BY RF-SCORE:    0.00 PKD
ROOT
HETATM    1  O   UNK A   1      -6.653  18.918  66.540  1.00  0.00    -0.187 OA 
HETATM    2  H   UNK A   1      -5.963  19.047  65.899  1.00  0.00     0.000 HD 
HETATM    3  C   UNK A   1      -7.404  17.740  66.246  1.00  0.00    -0.299 C  
ENDROOT
BRANCH   3   4
HETATM    4  C   UNK A   1      -8.529  17.527  67.292  1.00  0.00    -0.214 C  
HETATM    5  N   UNK A   1      -8.181  18.088  68.617  1.00  0.00    -0.300 NA 
HETATM    6  C   UNK A   0      -8.275  19.556  68.633  1.00  0.00    -0.334 C  
HETATM    7  H   UNK A   1      -7.260  17.772  68.923  1.00  0.00     0.000 HD 
HETATM    8  C   UNK A   1      -9.667  20.079  68.223  1.00  0.00    -0.317 C  
HETATM    9  C   UNK A   1     -10.090  19.520  66.863  1.00  0.00    -0.401 C  
HETATM   10  O   UNK A   1     -10.655  19.733  69.202  1.00  0.00    -0.515 OA 
HETATM   11  O   UNK A   1      -9.310  20.106  65.809  1.00  0.00    -0.515 OA 
HETATM   12  C   UNK A   1      -9.943  17.991  66.827  1.00  0.00    -0.346 C  
HETATM   13  H   UNK A   1     -11.512  20.054  68.950  1.00  0.00     0.000 HD 
HETATM   14  H   UNK A   1      -9.572  19.759  64.965  1.00  0.00     0.000 HD 
HETATM   15  O   UNK A   1     -10.288  17.537  65.509  1.00  0.00    -0.620 OA 
HETATM   16  H   UNK A   1     -11.150  17.820  65.226  1.00  0.00     0.000 HD 
ENDBRANCH   3   4
TORSDOF 1
ENDMDL
MODEL       86
REMARK 921   NORMALIZED FREE ENERGY PREDICTED BY IDOCK:   -3.25 KCAL/MOL
REMARK 922        TOTAL FREE ENERGY PREDICTED BY IDOCK:   -3.70 KCAL/MOL
REMARK 923 INTER-LIGAND FREE ENERGY PREDICTED BY IDOCK:   -3.65 KCAL/MOL
REMARK 924 INTRA-LIGAND FREE ENERGY PREDICTED BY IDOCK:   -0.05 KCAL/MOL
REMARK 927      BINDING AFFINITY PREDICTED BY RF-SCORE:    0.00 PKD
ROOT
HETATM    1  O   UNK A   1     -10.001  20.617  66.814  1.00  0.00    -0.562 OA 
HETATM    2  H   UNK A   1     -10.645  20.970  66.212  1.00  0.00     0.000 HD 
HETATM    3  C   UNK A   1      -9.329  19.496  66.239  1.00  0.00    -0.372 C  
ENDROOT
BRANCH   3   4
HETATM    4  C   UNK A   1      -8.276  18.920  67.222  1.00  0.00    -0.270 C  
HETATM    5  N   UNK A   1      -8.857  18.591  68.543  1.00  0.00    -0.327 NA 
HETATM    6  C   UNK A   0      -9.664  17.363  68.496  1.00  0.00    -0.304 C  
HETATM    7  H   UNK A   1      -9.393  19.374  68.917  1.00  0.00     0.000 HD 
HETATM    8  C   UNK A   1      -8.878  16.140  67.982  1.00  0.00    -0.181 C  
HETATM    9  C   UNK A   1      -8.240  16.424  66.621  1.00  0.00    -0.278 C  
HETATM   10  O   UNK A   1      -7.856  15.758  68.911  1.00  0.00    -0.160 OA 
HETATM   11  O   UNK A   1      -9.243  16.496  65.596  1.00  0.00    -0.481 OA 
HETATM   12  C   UNK A   1      -7.438  17.734  66.653  1.00  0.00    -0.228 C  
HETATM   13  H   UNK A   1      -7.372  15.005  68.595  1.00  0.00     0.000 HD 
HETATM   14  H   UNK A   1      -8.847  16.673  64.751  1.00  0.00     0.000 HD 
HETATM   15  O   UNK A   1      -6.924  17.979  65.335  1.00  0.00    -0.481 OA 
HETATM   16  H   UNK A   1      -6.413  17.257  64.988  1.00  0.00     0.000 HD 
ENDBRANCH   3   4
TORSDOF 1
ENDMDL
MODEL       87
REMARK 921   NORMALIZED FREE ENERGY PREDICTED BY IDOCK:   -3.22 KCAL/MOL
REMARK 922        TOTAL FREE ENERGY PREDICTED BY IDOCK:   -3.67 KCAL/MOL
REMARK 923 INTER-LIGAND FREE ENERGY PREDICTED BY IDOCK:   -3.63 KCAL/MOL
REMARK 924 INTRA-LIGAND FREE ENERGY PREDICTED BY IDOCK:   -0.04 KCAL/MOL
REMARK 927      BINDING AFFINITY PREDICTED BY RF-SCORE:    0.00 PKD
ROOT
HETATM    1  O   UNK A   1      -9.578   8.722  66.313  1.00  0.00    -0.223 OA 
HETATM    2  H   UNK A   1     -10.068   7.960  66.597  1.00  0.00     0.000 HD 
HETATM    3  C   UNK A   1     -10.071   9.906  66.943  1.00  0.00    -0.225 C  
ENDROOT
BRANCH   3   4
HETATM    4  C   UNK A   1      -9.271  11.151  66.480  1.00  0.00    -0.179 C  
HETATM    5  N   UNK A   1      -8.980  11.127  65.029  1.00  0.00    -0.355 NA 
HETATM    6  C   UNK A   0     -10.171  11.441  64.226  1.00  0.00    -0.315 C  
HETATM    7  H   UNK A   1      -8.567  10.238  64.748  1.00  0.00     0.000 HD 
HETATM    8  C   UNK A   1     -10.801  12.803  64.582  1.00  0.00    -0.335 C  
HETATM    9  C   UNK A   1     -11.113  12.893  66.078  1.00  0.00    -0.281 C  
HETATM   10  O   UNK A   1      -9.934  13.884  64.216  1.00  0.00    -0.714 OA 
HETATM   11  O   UNK A   1     -12.215  12.038  66.418  1.00  0.00    -0.551 OA 
HETATM   12  C   UNK A   1      -9.885  12.516  66.919  1.00  0.00    -0.227 C  
HETATM   13  H   UNK A   1     -10.322  14.722  64.436  1.00  0.00     0.000 HD 
HETATM   14  H   UNK A   1     -12.409  12.094  67.347  1.00  0.00     0.000 HD 
HETATM   15  O   UNK A   1     -10.260  12.553  68.305  1.00  0.00    -0.224 OA 
HETATM   16  H   UNK A   1     -10.634  13.385  68.572  1.00  0.00     0.000 HD 
ENDBRANCH   3   4
TORSDOF 1
ENDMDL
MODEL       88
REMARK 921   NORMALIZED FREE ENERGY PREDICTED BY IDOCK:   -3.22 KCAL/MOL
REMARK 922        TOTAL FREE ENERGY PREDICTED BY IDOCK:   -3.67 KCAL/MOL
REMARK 923 INTER-LIGAND FREE ENERGY PREDICTED BY IDOCK:   -3.58 KCAL/MOL
REMARK 924 INTRA-LIGAND FREE ENERGY PREDICTED BY IDOCK:   -0.08 KCAL/MOL
REMARK 927      BINDING AFFINITY PREDICTED BY RF-SCORE:    0.00 PKD
ROOT
HETATM    1  O   UNK A   1      -9.291  11.969  68.596  1.00  0.00    -0.343 OA 
HETATM    2  H   UNK A   1      -8.444  12.344  68.388  1.00  0.00     0.000 HD 
HETATM    3  C   UNK A   1      -9.534  10.798  67.815  1.00  0.00    -0.155 C  
ENDROOT
BRANCH   3   4
HETATM    4  C   UNK A   1     -10.917  10.185  68.155  1.00  0.00    -0.259 C  
HETATM    5  N   UNK A   1     -11.019   8.764  67.754  1.00  0.00    -0.485 NA 
HETATM    6  C   UNK A   0     -10.269   7.883  68.660  1.00  0.00    -0.205 C  
HETATM    7  H   UNK A   1     -10.730   8.631  66.784  1.00  0.00     0.000 HD 
HETATM    8  C   UNK A   1     -10.707   8.014  70.134  1.00  0.00    -0.244 C  
HETATM    9  C   UNK A   1     -10.636   9.468  70.605  1.00  0.00    -0.308 C  
HETATM   10  O   UNK A   1     -12.041   7.523  70.320  1.00  0.00    -0.502 OA 
HETATM   11  O   UNK A   1      -9.270   9.892  70.736  1.00  0.00    -0.322 OA 
HETATM   12  C   UNK A   1     -11.376  10.398  69.630  1.00  0.00    -0.272 C  
HETATM   13  H   UNK A   1     -12.311   7.604  71.226  1.00  0.00     0.000 HD 
HETATM   14  H   UNK A   1      -9.226  10.795  71.028  1.00  0.00     0.000 HD 
HETATM   15  O   UNK A   1     -11.215  11.749  70.089  1.00  0.00    -0.489 OA 
HETATM   16  H   UNK A   1     -11.494  11.879  70.988  1.00  0.00     0.000 HD 
ENDBRANCH   3   4
TORSDOF 1
ENDMDL
MODEL       89
REMARK 921   NORMALIZED FREE ENERGY PREDICTED BY IDOCK:   -3.21 KCAL/MOL
REMARK 922        TOTAL FREE ENERGY PREDICTED BY IDOCK:   -3.66 KCAL/MOL
REMARK 923 INTER-LIGAND FREE ENERGY PREDICTED BY IDOCK:   -3.40 KCAL/MOL
REMARK 924 INTRA-LIGAND FREE ENERGY PREDICTED BY IDOCK:   -0.26 KCAL/MOL
REMARK 927      BINDING AFFINITY PREDICTED BY RF-SCORE:    0.00 PKD
ROOT
HETATM    1  O   UNK A   1      -9.807   9.330  67.016  1.00  0.00    -0.171 OA 
HETATM    2  H   UNK A   1      -8.971   8.909  67.178  1.00  0.00     0.000 HD 
HETATM    3  C   UNK A   1      -9.919  10.540  67.767  1.00  0.00    -0.171 C  
ENDROOT
BRANCH   3   4
HETATM    4  C   UNK A   1     -11.283  11.229  67.502  1.00  0.00    -0.291 C  
HETATM    5  N   UNK A   1     -11.711  12.085  68.631  1.00  0.00    -0.309 NA 
HETATM    6  C   UNK A   0     -10.949  13.341  68.687  1.00  0.00    -0.264 C  
HETATM    7  H   UNK A   1     -11.662  11.582  69.517  1.00  0.00     0.000 HD 
HETATM    8  C   UNK A   1     -11.035  14.160  67.383  1.00  0.00    -0.299 C  
HETATM    9  C   UNK A   1     -10.616  13.322  66.174  1.00  0.00    -0.287 C  
HETATM   10  O   UNK A   1     -12.363  14.658  67.174  1.00  0.00    -0.533 OA 
HETATM   11  O   UNK A   1      -9.201  13.075  66.193  1.00  0.00    -0.440 OA 
HETATM   12  C   UNK A   1     -11.374  11.986  66.142  1.00  0.00    -0.351 C  
HETATM   13  H   UNK A   1     -12.416  15.162  66.371  1.00  0.00     0.000 HD 
HETATM   14  H   UNK A   1      -8.941  12.555  65.442  1.00  0.00     0.000 HD 
HETATM   15  O   UNK A   1     -10.889  11.220  65.029  1.00  0.00    -0.282 OA 
HETATM   16  H   UNK A   1     -10.945  11.681  64.200  1.00  0.00     0.000 HD 
ENDBRANCH   3   4
TORSDOF 1
ENDMDL
MODEL       90
REMARK 921   NORMALIZED FREE ENERGY PREDICTED BY IDOCK:   -3.19 KCAL/MOL
REMARK 922        TOTAL FREE ENERGY PREDICTED BY IDOCK:   -3.64 KCAL/MOL
REMARK 923 INTER-LIGAND FREE ENERGY PREDICTED BY IDOCK:   -3.66 KCAL/MOL
REMARK 924 INTRA-LIGAND FREE ENERGY PREDICTED BY IDOCK:    0.02 KCAL/MOL
REMARK 927      BINDING AFFINITY PREDICTED BY RF-SCORE:    0.00 PKD
ROOT
HETATM    1  O   UNK A   1     -11.976  11.698  67.141  1.00  0.00    -0.614 OA 
HETATM    2  H   UNK A   1     -12.884  11.714  67.419  1.00  0.00     0.000 HD 
HETATM    3  C   UNK A   1     -11.711  12.750  66.212  1.00  0.00    -0.402 C  
ENDROOT
BRANCH   3   4
HETATM    4  C   UNK A   1     -10.229  12.725  65.758  1.00  0.00    -0.289 C  
HETATM    5  N   UNK A   1      -9.710  14.076  65.450  1.00  0.00    -0.561 NA 
HETATM    6  C   UNK A   0      -9.451  14.855  66.670  1.00  0.00    -0.265 C  
HETATM    7  H   UNK A   1     -10.332  14.577  64.815  1.00  0.00     0.000 HD 
HETATM    8  C   UNK A   1      -8.474  14.158  67.638  1.00  0.00    -0.185 C  
HETATM    9  C   UNK A   1      -8.951  12.746  67.985  1.00  0.00    -0.196 C  
HETATM   10  O   UNK A   1      -7.157  14.086  67.077  1.00  0.00    -0.374 OA 
HETATM   11  O   UNK A   1     -10.111  12.796  68.830  1.00  0.00    -0.412 OA 
HETATM   12  C   UNK A   1      -9.272  11.947  66.712  1.00  0.00    -0.194 C  
HETATM   13  H   UNK A   1      -6.555  13.656  67.674  1.00  0.00     0.000 HD 
HETATM   14  H   UNK A   1     -10.407  11.919  69.045  1.00  0.00     0.000 HD 
HETATM   15  O   UNK A   1      -9.777  10.661  67.104  1.00  0.00    -0.166 OA 
HETATM   16  H   UNK A   1      -9.194  10.187  67.686  1.00  0.00     0.000 HD 
ENDBRANCH   3   4
TORSDOF 1
ENDMDL
MODEL       91
REMARK 921   NORMALIZED FREE ENERGY PREDICTED BY IDOCK:   -3.18 KCAL/MOL
REMARK 922        TOTAL FREE ENERGY PREDICTED BY IDOCK:   -3.63 KCAL/MOL
REMARK 923 INTER-LIGAND FREE ENERGY PREDICTED BY IDOCK:   -3.38 KCAL/MOL
REMARK 924 INTRA-LIGAND FREE ENERGY PREDICTED BY IDOCK:   -0.25 KCAL/MOL
REMARK 927      BINDING AFFINITY PREDICTED BY RF-SCORE:    0.00 PKD
ROOT
HETATM    1  O   UNK A   1      -9.592   8.971  67.746  1.00  0.00    -0.145 OA 
HETATM    2  H   UNK A   1      -9.941   9.109  66.873  1.00  0.00     0.000 HD 
HETATM    3  C   UNK A   1     -10.615   9.126  68.731  1.00  0.00    -0.181 C  
ENDROOT
BRANCH   3   4
HETATM    4  C   UNK A   1     -10.047   8.901  70.156  1.00  0.00    -0.190 C  
HETATM    5  N   UNK A   1     -10.756   9.701  71.179  1.00  0.00    -0.331 NA 
HETATM    6  C   UNK A   0     -12.082   9.147  71.488  1.00  0.00    -0.351 C  
HETATM    7  H   UNK A   1     -10.818  10.682  70.905  1.00  0.00     0.000 HD 
HETATM    8  C   UNK A   1     -12.031   7.678  71.955  1.00  0.00    -0.302 C  
HETATM    9  C   UNK A   1     -11.296   6.799  70.941  1.00  0.00    -0.315 C  
HETATM   10  O   UNK A   1     -11.387   7.566  73.231  1.00  0.00    -0.599 OA 
HETATM   11  O   UNK A   1     -12.082   6.631  69.752  1.00  0.00    -0.638 OA 
HETATM   12  C   UNK A   1      -9.931   7.404  70.579  1.00  0.00    -0.184 C  
HETATM   13  H   UNK A   1     -11.356   6.662  73.519  1.00  0.00     0.000 HD 
HETATM   14  H   UNK A   1     -11.625   6.085  69.122  1.00  0.00     0.000 HD 
HETATM   15  O   UNK A   1      -9.323   6.574  69.577  1.00  0.00    -0.147 OA 
HETATM   16  H   UNK A   1      -9.252   5.661  69.835  1.00  0.00     0.000 HD 
ENDBRANCH   3   4
TORSDOF 1
ENDMDL
MODEL       92
REMARK 921   NORMALIZED FREE ENERGY PREDICTED BY IDOCK:   -3.18 KCAL/MOL
REMARK 922        TOTAL FREE ENERGY PREDICTED BY IDOCK:   -3.63 KCAL/MOL
REMARK 923 INTER-LIGAND FREE ENERGY PREDICTED BY IDOCK:   -3.59 KCAL/MOL
REMARK 924 INTRA-LIGAND FREE ENERGY PREDICTED BY IDOCK:   -0.04 KCAL/MOL
REMARK 927      BINDING AFFINITY PREDICTED BY RF-SCORE:    0.00 PKD
ROOT
HETATM    1  O   UNK A   1     -10.139  11.728  63.340  1.00  0.00    -0.388 OA 
HETATM    2  H   UNK A   1     -10.106  10.807  63.109  1.00  0.00     0.000 HD 
HETATM    3  C   UNK A   1     -10.140  11.896  64.759  1.00  0.00    -0.262 C  
ENDROOT
BRANCH   3   4
HETATM    4  C   UNK A   1     -10.192  13.399  65.136  1.00  0.00    -0.299 C  
HETATM    5  N   UNK A   1     -11.541  13.981  64.950  1.00  0.00    -0.350 NA 
HETATM    6  C   UNK A   0     -12.471  13.557  66.006  1.00  0.00    -0.399 C  
HETATM    7  H   UNK A   1     -11.911  13.770  64.022  1.00  0.00     0.000 HD 
HETATM    8  C   UNK A   1     -11.975  13.901  67.425  1.00  0.00    -0.401 C  
HETATM    9  C   UNK A   1     -10.575  13.336  67.674  1.00  0.00    -0.236 C  
HETATM   10  O   UNK A   1     -11.955  15.319  67.634  1.00  0.00    -0.369 OA 
HETATM   11  O   UNK A   1     -10.619  11.906  67.790  1.00  0.00    -0.195 OA 
HETATM   12  C   UNK A   1      -9.613  13.735  66.544  1.00  0.00    -0.285 C  
HETATM   13  H   UNK A   1     -11.649  15.531  68.508  1.00  0.00     0.000 HD 
HETATM   14  H   UNK A   1      -9.749  11.555  67.944  1.00  0.00     0.000 HD 
HETATM   15  O   UNK A   1      -8.341  13.120  66.799  1.00  0.00    -0.405 OA 
HETATM   16  H   UNK A   1      -7.987  13.325  67.657  1.00  0.00     0.000 HD 
ENDBRANCH   3   4
TORSDOF 1
ENDMDL
MODEL       93
REMARK 921   NORMALIZED FREE ENERGY PREDICTED BY IDOCK:   -3.18 KCAL/MOL
REMARK 922        TOTAL FREE ENERGY PREDICTED BY IDOCK:   -3.63 KCAL/MOL
REMARK 923 INTER-LIGAND FREE ENERGY PREDICTED BY IDOCK:   -3.37 KCAL/MOL
REMARK 924 INTRA-LIGAND FREE ENERGY PREDICTED BY IDOCK:   -0.26 KCAL/MOL
REMARK 927      BINDING AFFINITY PREDICTED BY RF-SCORE:    0.00 PKD
ROOT
HETATM    1  O   UNK A   1      -7.929  15.183  66.834  1.00  0.00    -0.248 OA 
HETATM    2  H   UNK A   1      -7.549  14.469  67.332  1.00  0.00     0.000 HD 
HETATM    3  C   UNK A   1      -8.857  15.921  67.631  1.00  0.00    -0.174 C  
ENDROOT
BRANCH   3   4
HETATM    4  C   UNK A   1      -9.476  17.087  66.819  1.00  0.00    -0.258 C  
HETATM    5  N   UNK A   1     -10.639  17.697  67.503  1.00  0.00    -0.364 NA 
HETATM    6  C   UNK A   0     -10.229  18.541  68.635  1.00  0.00    -0.325 C  
HETATM    7  H   UNK A   1     -11.312  16.987  67.794  1.00  0.00     0.000 HD 
HETATM    8  C   UNK A   1      -9.248  19.661  68.231  1.00  0.00    -0.344 C  
HETATM    9  C   UNK A   1      -8.027  19.092  67.505  1.00  0.00    -0.257 C  
HETATM   10  O   UNK A   1      -9.889  20.628  67.390  1.00  0.00    -0.464 OA 
HETATM   11  O   UNK A   1      -7.184  18.372  68.417  1.00  0.00    -0.250 OA 
HETATM   12  C   UNK A   1      -8.454  18.169  66.354  1.00  0.00    -0.238 C  
HETATM   13  H   UNK A   1      -9.285  21.317  67.141  1.00  0.00     0.000 HD 
HETATM   14  H   UNK A   1      -6.426  18.018  67.966  1.00  0.00     0.000 HD 
HETATM   15  O   UNK A   1      -7.270  17.616  65.759  1.00  0.00    -0.449 OA 
HETATM   16  H   UNK A   1      -6.646  18.275  65.475  1.00  0.00     0.000 HD 
ENDBRANCH   3   4
TORSDOF 1
ENDMDL
MODEL       94
REMARK 921   NORMALIZED FREE ENERGY PREDICTED BY IDOCK:   -3.17 KCAL/MOL
REMARK 922        TOTAL FREE ENERGY PREDICTED BY IDOCK:   -3.61 KCAL/MOL
REMARK 923 INTER-LIGAND FREE ENERGY PREDICTED BY IDOCK:   -3.57 KCAL/MOL
REMARK 924 INTRA-LIGAND FREE ENERGY PREDICTED BY IDOCK:   -0.04 KCAL/MOL
REMARK 927      BINDING AFFINITY PREDICTED BY RF-SCORE:    0.00 PKD
ROOT
HETATM    1  O   UNK A   1      -9.063   9.665  65.953  1.00  0.00    -0.156 OA 
HETATM    2  H   UNK A   1      -8.590   9.146  65.313  1.00  0.00     0.000 HD 
HETATM    3  C   UNK A   1      -9.977  10.554  65.310  1.00  0.00    -0.299 C  
ENDROOT
BRANCH   3   4
HETATM    4  C   UNK A   1     -10.749  11.400  66.354  1.00  0.00    -0.275 C  
HETATM    5  N   UNK A   1      -9.872  11.901  67.436  1.00  0.00    -0.182 NA 
HETATM    6  C   UNK A   0      -9.022  13.012  66.983  1.00  0.00    -0.225 C  
HETATM    7  H   UNK A   1      -9.314  11.148  67.840  1.00  0.00     0.000 HD 
HETATM    8  C   UNK A   1      -9.827  14.197  66.411  1.00  0.00    -0.296 C  
HETATM    9  C   UNK A   1     -10.766  13.738  65.293  1.00  0.00    -0.339 C  
HETATM   10  O   UNK A   1     -10.594  14.842  67.436  1.00  0.00    -0.261 OA 
HETATM   11  O   UNK A   1     -10.021  13.382  64.118  1.00  0.00    -0.757 OA 
HETATM   12  C   UNK A   1     -11.619  12.544  65.748  1.00  0.00    -0.392 C  
HETATM   13  H   UNK A   1     -11.090  15.570  67.083  1.00  0.00     0.000 HD 
HETATM   14  H   UNK A   1     -10.605  13.098  63.424  1.00  0.00     0.000 HD 
HETATM   15  O   UNK A   1     -12.426  12.119  64.638  1.00  0.00    -0.387 OA 
HETATM   16  H   UNK A   1     -12.956  12.816  64.268  1.00  0.00     0.000 HD 
ENDBRANCH   3   4
TORSDOF 1
ENDMDL
MODEL       95
REMARK 921   NORMALIZED FREE ENERGY PREDICTED BY IDOCK:   -3.16 KCAL/MOL
REMARK 922        TOTAL FREE ENERGY PREDICTED BY IDOCK:   -3.60 KCAL/MOL
REMARK 923 INTER-LIGAND FREE ENERGY PREDICTED BY IDOCK:   -3.56 KCAL/MOL
REMARK 924 INTRA-LIGAND FREE ENERGY PREDICTED BY IDOCK:   -0.04 KCAL/MOL
REMARK 927      BINDING AFFINITY PREDICTED BY RF-SCORE:    0.00 PKD
ROOT
HETATM    1  O   UNK A   1      -8.405   7.065  68.341  1.00  0.00    -0.123 OA 
HETATM    2  H   UNK A   1      -7.499   6.843  68.516  1.00  0.00     0.000 HD 
HETATM    3  C   UNK A   1      -8.977   7.771  69.444  1.00  0.00    -0.142 C  
ENDROOT
BRANCH   3   4
HETATM    4  C   UNK A   1     -10.457   8.134  69.159  1.00  0.00    -0.206 C  
HETATM    5  N   UNK A   1     -11.346   6.951  69.193  1.00  0.00    -0.536 NA 
HETATM    6  C   UNK A   0     -11.595   6.492  70.568  1.00  0.00    -0.393 C  
HETATM    7  H   UNK A   1     -10.981   6.196  68.611  1.00  0.00     0.000 HD 
HETATM    8  C   UNK A   1     -12.194   7.588  71.473  1.00  0.00    -0.331 C  
HETATM    9  C   UNK A   1     -11.324   8.847  71.468  1.00  0.00    -0.325 C  
HETATM   10  O   UNK A   1     -13.522   7.932  71.056  1.00  0.00    -0.553 OA 
HETATM   11  O   UNK A   1     -10.095   8.617  72.174  1.00  0.00    -0.300 OA 
HETATM   12  C   UNK A   1     -11.019   9.298  70.031  1.00  0.00    -0.229 C  
HETATM   13  H   UNK A   1     -13.890   8.606  71.613  1.00  0.00     0.000 HD 
HETATM   14  H   UNK A   1      -9.554   9.398  72.170  1.00  0.00     0.000 HD 
HETATM   15  O   UNK A   1     -10.147  10.437  70.093  1.00  0.00    -0.425 OA 
HETATM   16  H   UNK A   1     -10.489  11.147  70.625  1.00  0.00     0.000 HD 
ENDBRANCH   3   4
TORSDOF 1
ENDMDL
MODEL       96
REMARK 921   NORMALIZED FREE ENERGY PREDICTED BY IDOCK:   -3.14 KCAL/MOL
REMARK 922        TOTAL FREE ENERGY PREDICTED BY IDOCK:   -3.59 KCAL/MOL
REMARK 923 INTER-LIGAND FREE ENERGY PREDICTED BY IDOCK:   -3.55 KCAL/MOL
REMARK 924 INTRA-LIGAND FREE ENERGY PREDICTED BY IDOCK:   -0.04 KCAL/MOL
REMARK 927      BINDING AFFINITY PREDICTED BY RF-SCORE:    0.00 PKD
ROOT
HETATM    1  O   UNK A   1      -8.939  13.432  66.208  1.00  0.00    -0.459 OA 
HETATM    2  H   UNK A   1      -9.377  12.670  65.849  1.00  0.00     0.000 HD 
HETATM    3  C   UNK A   1      -9.794  14.130  67.114  1.00  0.00    -0.253 C  
ENDROOT
BRANCH   3   4
HETATM    4  C   UNK A   1      -9.079  15.374  67.701  1.00  0.00    -0.182 C  
HETATM    5  N   UNK A   1      -9.009  16.493  66.734  1.00  0.00    -0.218 NA 
HETATM    6  C   UNK A   0     -10.308  17.162  66.575  1.00  0.00    -0.306 C  
HETATM    7  H   UNK A   1      -8.638  16.183  65.835  1.00  0.00     0.000 HD 
HETATM    8  C   UNK A   1     -10.884  17.692  67.905  1.00  0.00    -0.239 C  
HETATM    9  C   UNK A   1     -10.969  16.580  68.953  1.00  0.00    -0.325 C  
HETATM   10  O   UNK A   1     -10.086  18.766  68.420  1.00  0.00    -0.365 OA 
HETATM   11  O   UNK A   1     -12.003  15.643  68.616  1.00  0.00    -0.510 OA 
HETATM   12  C   UNK A   1      -9.626  15.845  69.083  1.00  0.00    -0.253 C  
HETATM   13  H   UNK A   1     -10.441  19.091  69.238  1.00  0.00     0.000 HD 
HETATM   14  H   UNK A   1     -12.055  14.952  69.266  1.00  0.00     0.000 HD 
HETATM   15  O   UNK A   1      -9.789  14.775  70.027  1.00  0.00    -0.438 OA 
HETATM   16  H   UNK A   1     -10.122  15.062  70.870  1.00  0.00     0.000 HD 
ENDBRANCH   3   4
TORSDOF 1
ENDMDL
MODEL       97
REMARK 921   NORMALIZED FREE ENERGY PREDICTED BY IDOCK:   -3.12 KCAL/MOL
REMARK 922        TOTAL FREE ENERGY PREDICTED BY IDOCK:   -3.56 KCAL/MOL
REMARK 923 INTER-LIGAND FREE ENERGY PREDICTED BY IDOCK:   -3.41 KCAL/MOL
REMARK 924 INTRA-LIGAND FREE ENERGY PREDICTED BY IDOCK:   -0.15 KCAL/MOL
REMARK 927      BINDING AFFINITY PREDICTED BY RF-SCORE:    0.00 PKD
ROOT
HETATM    1  O   UNK A   1     -11.123   5.143  65.565  1.00  0.00    -0.733 OA 
HETATM    2  H   UNK A   1     -10.732   4.389  65.142  1.00  0.00     0.000 HD 
HETATM    3  C   UNK A   1     -10.505   5.394  66.828  1.00  0.00    -0.289 C  
ENDROOT
BRANCH   3   4
HETATM    4  C   UNK A   1     -11.143   6.626  67.520  1.00  0.00    -0.292 C  
HETATM    5  N   UNK A   1     -11.412   6.392  68.956  1.00  0.00    -0.591 NA 
HETATM    6  C   UNK A   0     -10.180   6.427  69.758  1.00  0.00    -0.186 C  
HETATM    7  H   UNK A   1     -11.923   5.520  69.100  1.00  0.00     0.000 HD 
HETATM    8  C   UNK A   1      -9.398   7.748  69.609  1.00  0.00    -0.153 C  
HETATM    9  C   UNK A   1      -9.101   8.053  68.140  1.00  0.00    -0.134 C  
HETATM   10  O   UNK A   1     -10.125   8.843  70.181  1.00  0.00    -0.179 OA 
HETATM   11  O   UNK A   1      -8.114   7.148  67.623  1.00  0.00    -0.112 OA 
HETATM   12  C   UNK A   1     -10.379   7.967  67.292  1.00  0.00    -0.307 C  
HETATM   13  H   UNK A   1      -9.643   9.656  70.090  1.00  0.00     0.000 HD 
HETATM   14  H   UNK A   1      -7.930   7.337  66.710  1.00  0.00     0.000 HD 
HETATM   15  O   UNK A   1     -10.024   8.195  65.919  1.00  0.00    -0.435 OA 
HETATM   16  H   UNK A   1      -9.558   9.012  65.780  1.00  0.00     0.000 HD 
ENDBRANCH   3   4
TORSDOF 1
ENDMDL
MODEL       98
REMARK 921   NORMALIZED FREE ENERGY PREDICTED BY IDOCK:   -3.10 KCAL/MOL
REMARK 922        TOTAL FREE ENERGY PREDICTED BY IDOCK:   -3.55 KCAL/MOL
REMARK 923 INTER-LIGAND FREE ENERGY PREDICTED BY IDOCK:   -3.28 KCAL/MOL
REMARK 924 INTRA-LIGAND FREE ENERGY PREDICTED BY IDOCK:   -0.27 KCAL/MOL
REMARK 927      BINDING AFFINITY PREDICTED BY RF-SCORE:    0.00 PKD
ROOT
HETATM    1  O   UNK A   1     -11.495   4.525  64.992  1.00  0.00    -1.101 OA 
HETATM    2  H   UNK A   1     -11.498   4.334  64.062  1.00  0.00     0.000 HD 
HETATM    3  C   UNK A   1     -10.161   4.553  65.500  1.00  0.00    -0.222 C  
ENDROOT
BRANCH   3   4
HETATM    4  C   UNK A   1     -10.156   4.866  67.019  1.00  0.00    -0.205 C  
HETATM    5  N   UNK A   1      -8.884   4.480  67.670  1.00  0.00    -0.105 NA 
HETATM    6  C   UNK A   0      -7.797   5.417  67.349  1.00  0.00    -0.101 C  
HETATM    7  H   UNK A   1      -8.626   3.520  67.441  1.00  0.00     0.000 HD 
HETATM    8  C   UNK A   1      -8.124   6.876  67.726  1.00  0.00    -0.114 C  
HETATM    9  C   UNK A   1      -9.439   7.330  67.091  1.00  0.00    -0.145 C  
HETATM   10  O   UNK A   1      -8.207   7.035  69.148  1.00  0.00    -0.119 OA 
HETATM   11  O   UNK A   1      -9.289   7.491  65.672  1.00  0.00    -0.389 OA 
HETATM   12  C   UNK A   1     -10.565   6.326  67.382  1.00  0.00    -0.291 C  
HETATM   13  H   UNK A   1      -8.408   7.933  69.380  1.00  0.00     0.000 HD 
HETATM   14  H   UNK A   1     -10.106   7.773  65.278  1.00  0.00     0.000 HD 
HETATM   15  O   UNK A   1     -11.751   6.771  66.705  1.00  0.00    -0.491 OA 
HETATM   16  H   UNK A   1     -12.001   7.661  66.927  1.00  0.00     0.000 HD 
ENDBRANCH   3   4
TORSDOF 1
ENDMDL
MODEL       99
REMARK 921   NORMALIZED FREE ENERGY PREDICTED BY IDOCK:   -3.10 KCAL/MOL
REMARK 922        TOTAL FREE ENERGY PREDICTED BY IDOCK:   -3.55 KCAL/MOL
REMARK 923 INTER-LIGAND FREE ENERGY PREDICTED BY IDOCK:   -3.29 KCAL/MOL
REMARK 924 INTRA-LIGAND FREE ENERGY PREDICTED BY IDOCK:   -0.26 KCAL/MOL
REMARK 927      BINDING AFFINITY PREDICTED BY RF-SCORE:    0.00 PKD
ROOT
HETATM    1  O   UNK A   1      -8.920  10.283  65.857  1.00  0.00    -0.150 OA 
HETATM    2  H   UNK A   1      -9.150   9.825  65.057  1.00  0.00     0.000 HD 
HETATM    3  C   UNK A   1      -9.854  11.328  66.131  1.00  0.00    -0.225 C  
ENDROOT
BRANCH   3   4
HETATM    4  C   UNK A   1      -9.478  12.075  67.436  1.00  0.00    -0.177 C  
HETATM    5  N   UNK A   1      -9.951  13.478  67.440  1.00  0.00    -0.231 NA 
HETATM    6  C   UNK A   0     -11.402  13.567  67.662  1.00  0.00    -0.296 C  
HETATM    7  H   UNK A   1      -9.676  13.965  66.587  1.00  0.00     0.000 HD 
HETATM    8  C   UNK A   1     -11.858  12.886  68.969  1.00  0.00    -0.306 C  
HETATM    9  C   UNK A   1     -11.385  11.432  69.030  1.00  0.00    -0.280 C  
HETATM   10  O   UNK A   1     -11.364  13.591  70.116  1.00  0.00    -0.496 OA 
HETATM   11  O   UNK A   1     -12.109  10.624  68.090  1.00  0.00    -0.797 OA 
HETATM   12  C   UNK A   1      -9.879  11.332  68.747  1.00  0.00    -0.184 C  
HETATM   13  H   UNK A   1     -11.645  13.172  70.920  1.00  0.00     0.000 HD 
HETATM   14  H   UNK A   1     -11.815   9.721  68.128  1.00  0.00     0.000 HD 
HETATM   15  O   UNK A   1      -9.512   9.944  68.751  1.00  0.00    -0.148 OA 
HETATM   16  H   UNK A   1      -9.756   9.491  69.550  1.00  0.00     0.000 HD 
ENDBRANCH   3   4
TORSDOF 1
ENDMDL
MODEL      100
REMARK 921   NORMALIZED FREE ENERGY PREDICTED BY IDOCK:   -3.08 KCAL/MOL
REMARK 922        TOTAL FREE ENERGY PREDICTED BY IDOCK:   -3.52 KCAL/MOL
REMARK 923 INTER-LIGAND FREE ENERGY PREDICTED BY IDOCK:   -3.47 KCAL/MOL
REMARK 924 INTRA-LIGAND FREE ENERGY PREDICTED BY IDOCK:   -0.05 KCAL/MOL
REMARK 927      BINDING AFFINITY PREDICTED BY RF-SCORE:    0.00 PKD
ROOT
HETATM    1  O   UNK A   1     -12.387  14.823  67.833  1.00  0.00    -0.582 OA 
HETATM    2  H   UNK A   1     -13.245  15.231  67.813  1.00  0.00     0.000 HD 
HETATM    3  C   UNK A   1     -12.024  14.340  66.538  1.00  0.00    -0.427 C  
ENDROOT
BRANCH   3   4
HETATM    4  C   UNK A   1     -10.624  13.676  66.570  1.00  0.00    -0.282 C  
HETATM    5  N   UNK A   1     -10.446  12.790  67.743  1.00  0.00    -0.219 NA 
HETATM    6  C   UNK A   0     -11.178  11.524  67.589  1.00  0.00    -0.281 C  
HETATM    7  H   UNK A   1     -10.703  13.264  68.609  1.00  0.00     0.000 HD 
HETATM    8  C   UNK A   1     -10.785  10.746  66.316  1.00  0.00    -0.138 C  
HETATM    9  C   UNK A   1     -10.936  11.617  65.068  1.00  0.00    -0.273 C  
HETATM   10  O   UNK A   1      -9.436  10.271  66.400  1.00  0.00    -0.164 OA 
HETATM   11  O   UNK A   1     -12.322  11.847  64.773  1.00  0.00    -0.279 OA 
HETATM   12  C   UNK A   1     -10.214  12.962  65.246  1.00  0.00    -0.278 C  
HETATM   13  H   UNK A   1      -9.194   9.792  65.616  1.00  0.00     0.000 HD 
HETATM   14  H   UNK A   1     -12.415  12.388  63.998  1.00  0.00     0.000 HD 
HETATM   15  O   UNK A   1     -10.449  13.757  64.073  1.00  0.00    -0.552 OA 
HETATM   16  H   UNK A   1     -10.199  13.322  63.266  1.00  0.00     0.000 HD 
ENDBRANCH   3   4
TORSDOF 1
ENDMDL
MODEL      101
REMARK 921   NORMALIZED FREE ENERGY PREDICTED BY IDOCK:   -3.07 KCAL/MOL
REMARK 922        TOTAL FREE ENERGY PREDICTED BY IDOCK:   -3.51 KCAL/MOL
REMARK 923 INTER-LIGAND FREE ENERGY PREDICTED BY IDOCK:   -3.47 KCAL/MOL
REMARK 924 INTRA-LIGAND FREE ENERGY PREDICTED BY IDOCK:   -0.04 KCAL/MOL
REMARK 927      BINDING AFFINITY PREDICTED BY RF-SCORE:    0.00 PKD
ROOT
HETATM    1  O   UNK A   1     -12.291  15.464  69.318  1.00  0.00    -0.577 OA 
HETATM    2  H   UNK A   1     -13.207  15.372  69.086  1.00  0.00     0.000 HD 
HETATM    3  C   UNK A   1     -11.523  15.896  68.194  1.00  0.00    -0.281 C  
ENDROOT
BRANCH   3   4
HETATM    4  C   UNK A   1     -10.027  16.047  68.573  1.00  0.00    -0.222 C  
HETATM    5  N   UNK A   1      -9.190  14.963  68.013  1.00  0.00    -0.182 NA 
HETATM    6  C   UNK A   0      -8.968  15.132  66.569  1.00  0.00    -0.291 C  
HETATM    7  H   UNK A   1      -9.583  14.045  68.223  1.00  0.00     0.000 HD 
HETATM    8  C   UNK A   1      -8.328  16.488  66.209  1.00  0.00    -0.329 C  
HETATM    9  C   UNK A   1      -9.144  17.653  66.774  1.00  0.00    -0.260 C  
HETATM   10  O   UNK A   1      -6.984  16.571  66.702  1.00  0.00    -0.216 OA 
HETATM   11  O   UNK A   1     -10.385  17.793  66.067  1.00  0.00    -0.442 OA 
HETATM   12  C   UNK A   1      -9.421  17.452  68.272  1.00  0.00    -0.290 C  
HETATM   13  H   UNK A   1      -6.590  17.406  66.480  1.00  0.00     0.000 HD 
HETATM   14  H   UNK A   1     -10.892  18.516  66.418  1.00  0.00     0.000 HD 
HETATM   15  O   UNK A   1     -10.244  18.538  68.726  1.00  0.00    -0.379 OA 
HETATM   16  H   UNK A   1      -9.875  19.395  68.543  1.00  0.00     0.000 HD 
ENDBRANCH   3   4
TORSDOF 1
ENDMDL
MODEL      102
REMARK 921   NORMALIZED FREE ENERGY PREDICTED BY IDOCK:   -3.06 KCAL/MOL
REMARK 922        TOTAL FREE ENERGY PREDICTED BY IDOCK:   -3.50 KCAL/MOL
REMARK 923 INTER-LIGAND FREE ENERGY PREDICTED BY IDOCK:   -3.24 KCAL/MOL
REMARK 924 INTRA-LIGAND FREE ENERGY PREDICTED BY IDOCK:   -0.25 KCAL/MOL
REMARK 927      BINDING AFFINITY PREDICTED BY RF-SCORE:    0.00 PKD
ROOT
HETATM    1  O   UNK A   1     -10.196   9.469  69.555  1.00  0.00    -0.191 OA 
HETATM    2  H   UNK A   1      -9.709   8.654  69.582  1.00  0.00     0.000 HD 
HETATM    3  C   UNK A   1      -9.388  10.525  69.032  1.00  0.00    -0.196 C  
ENDROOT
BRANCH   3   4
HETATM    4  C   UNK A   1     -10.183  11.856  68.986  1.00  0.00     0.009 C  
HETATM    5  N   UNK A   1      -9.315  13.023  68.709  1.00  0.00    -0.407 NA 
HETATM    6  C   UNK A   0      -8.903  13.078  67.299  1.00  0.00    -0.208 C  
HETATM    7  H   UNK A   1      -8.507  13.040  69.333  1.00  0.00     0.000 HD 
HETATM    8  C   UNK A   1     -10.094  13.103  66.320  1.00  0.00    -0.285 C  
HETATM    9  C   UNK A   1     -11.039  11.925  66.566  1.00  0.00    -0.306 C  
HETATM   10  O   UNK A   1     -10.829  14.329  66.435  1.00  0.00    -0.300 OA 
HETATM   11  O   UNK A   1     -10.431  10.692  66.150  1.00  0.00    -0.243 OA 
HETATM   12  C   UNK A   1     -11.429  11.835  68.049  1.00  0.00    -0.319 C  
HETATM   13  H   UNK A   1     -11.563  14.344  65.833  1.00  0.00     0.000 HD 
HETATM   14  H   UNK A   1     -11.017   9.960  66.303  1.00  0.00     0.000 HD 
HETATM   15  O   UNK A   1     -12.257  10.675  68.226  1.00  0.00    -0.799 OA 
HETATM   16  H   UNK A   1     -13.017  10.662  67.655  1.00  0.00     0.000 HD 
ENDBRANCH   3   4
TORSDOF 1
ENDMDL
MODEL      103
REMARK 921   NORMALIZED FREE ENERGY PREDICTED BY IDOCK:   -3.05 KCAL/MOL
REMARK 922        TOTAL FREE ENERGY PREDICTED BY IDOCK:   -3.49 KCAL/MOL
REMARK 923 INTER-LIGAND FREE ENERGY PREDICTED BY IDOCK:   -3.42 KCAL/MOL
REMARK 924 INTRA-LIGAND FREE ENERGY PREDICTED BY IDOCK:   -0.07 KCAL/MOL
REMARK 927      BINDING AFFINITY PREDICTED BY RF-SCORE:    0.00 PKD
ROOT
HETATM    1  O   UNK A   1     -10.450  19.706  67.801  1.00  0.00    -0.423 OA 
HETATM    2  H   UNK A   1     -11.188  20.170  67.423  1.00  0.00     0.000 HD 
HETATM    3  C   UNK A   1     -10.591  18.296  67.620  1.00  0.00    -0.405 C  
ENDROOT
BRANCH   3   4
HETATM    4  C   UNK A   1      -9.387  17.538  68.236  1.00  0.00    -0.281 C  
HETATM    5  N   UNK A   1      -9.207  16.192  67.649  1.00  0.00    -0.204 NA 
HETATM    6  C   UNK A   0      -8.632  16.256  66.297  1.00  0.00    -0.339 C  
HETATM    7  H   UNK A   1     -10.080  15.664  67.656  1.00  0.00     0.000 HD 
HETATM    8  C   UNK A   1      -7.283  17.003  66.246  1.00  0.00    -0.234 C  
HETATM    9  C   UNK A   1      -7.403  18.402  66.854  1.00  0.00    -0.208 C  
HETATM   10  O   UNK A   1      -6.264  16.272  66.940  1.00  0.00    -0.299 OA 
HETATM   11  O   UNK A   1      -8.170  19.263  65.999  1.00  0.00    -0.392 OA 
HETATM   12  C   UNK A   1      -8.051  18.342  68.246  1.00  0.00    -0.298 C  
HETATM   13  H   UNK A   1      -5.434  16.732  66.909  1.00  0.00     0.000 HD 
HETATM   14  H   UNK A   1      -8.244  20.131  66.377  1.00  0.00     0.000 HD 
HETATM   15  O   UNK A   1      -8.196  19.686  68.731  1.00  0.00    -0.336 OA 
HETATM   16  H   UNK A   1      -7.382  20.176  68.738  1.00  0.00     0.000 HD 
ENDBRANCH   3   4
TORSDOF 1
ENDMDL
MODEL      104
REMARK 921   NORMALIZED FREE ENERGY PREDICTED BY IDOCK:   -3.05 KCAL/MOL
REMARK 922        TOTAL FREE ENERGY PREDICTED BY IDOCK:   -3.49 KCAL/MOL
REMARK 923 INTER-LIGAND FREE ENERGY PREDICTED BY IDOCK:   -3.45 KCAL/MOL
REMARK 924 INTRA-LIGAND FREE ENERGY PREDICTED BY IDOCK:   -0.03 KCAL/MOL
REMARK 927      BINDING AFFINITY PREDICTED BY RF-SCORE:    0.00 PKD
ROOT
HETATM    1  O   UNK A   1     -11.282   9.078  68.473  1.00  0.00    -0.445 OA 
HETATM    2  H   UNK A   1     -11.811   8.763  69.196  1.00  0.00     0.000 HD 
HETATM    3  C   UNK A   1     -10.986  10.467  68.627  1.00  0.00    -0.248 C  
ENDROOT
BRANCH   3   4
HETATM    4  C   UNK A   1     -10.121  10.981  67.448  1.00  0.00    -0.186 C  
HETATM    5  N   UNK A   1     -10.937  11.367  66.275  1.00  0.00    -0.275 NA 
HETATM    6  C   UNK A   0     -11.629  12.647  66.485  1.00  0.00    -0.381 C  
HETATM    7  H   UNK A   1     -11.593  10.627  66.020  1.00  0.00     0.000 HD 
HETATM    8  C   UNK A   1     -10.670  13.806  66.824  1.00  0.00    -0.276 C  
HETATM    9  C   UNK A   1      -9.787  13.461  68.025  1.00  0.00    -0.229 C  
HETATM   10  O   UNK A   1      -9.837  14.129  65.703  1.00  0.00    -0.420 OA 
HETATM   11  O   UNK A   1     -10.559  13.445  69.235  1.00  0.00    -0.438 OA 
HETATM   12  C   UNK A   1      -9.103  12.099  67.829  1.00  0.00    -0.189 C  
HETATM   13  H   UNK A   1      -9.247  14.843  65.912  1.00  0.00     0.000 HD 
HETATM   14  H   UNK A   1     -10.011  13.230  69.981  1.00  0.00     0.000 HD 
HETATM   15  O   UNK A   1      -8.346  11.802  69.013  1.00  0.00    -0.364 OA 
HETATM   16  H   UNK A   1      -7.725  12.484  69.246  1.00  0.00     0.000 HD 
ENDBRANCH   3   4
TORSDOF 1
ENDMDL
MODEL      105
REMARK 921   NORMALIZED FREE ENERGY PREDICTED BY IDOCK:   -3.05 KCAL/MOL
REMARK 922        TOTAL FREE ENERGY PREDICTED BY IDOCK:   -3.49 KCAL/MOL
REMARK 923 INTER-LIGAND FREE ENERGY PREDICTED BY IDOCK:   -3.57 KCAL/MOL
REMARK 924 INTRA-LIGAND FREE ENERGY PREDICTED BY IDOCK:    0.08 KCAL/MOL
REMARK 927      BINDING AFFINITY PREDICTED BY RF-SCORE:    0.00 PKD
ROOT
HETATM    1  O   UNK A   1     -13.486  13.417  65.296  1.00  0.00    -0.456 OA 
HETATM    2  H   UNK A   1     -14.203  13.008  64.825  1.00  0.00     0.000 HD 
HETATM    3  C   UNK A   1     -12.237  12.827  64.930  1.00  0.00    -0.463 C  
ENDROOT
BRANCH   3   4
HETATM    4  C   UNK A   1     -11.067  13.494  65.697  1.00  0.00    -0.289 C  
HETATM    5  N   UNK A   1     -11.510  14.140  66.953  1.00  0.00    -0.340 NA 
HETATM    6  C   UNK A   0     -11.799  13.154  68.005  1.00  0.00    -0.358 C  
HETATM    7  H   UNK A   1     -12.308  14.756  66.792  1.00  0.00     0.000 HD 
HETATM    8  C   UNK A   1     -10.602  12.233  68.317  1.00  0.00    -0.227 C  
HETATM    9  C   UNK A   1     -10.088  11.544  67.051  1.00  0.00    -0.210 C  
HETATM   10  O   UNK A   1      -9.531  12.968  68.922  1.00  0.00    -0.399 OA 
HETATM   11  O   UNK A   1     -11.023  10.554  66.597  1.00  0.00    -0.160 OA 
HETATM   12  C   UNK A   1      -9.835  12.568  65.934  1.00  0.00    -0.247 C  
HETATM   13  H   UNK A   1      -8.794  12.401  69.114  1.00  0.00     0.000 HD 
HETATM   14  H   UNK A   1     -10.704  10.127  65.810  1.00  0.00     0.000 HD 
HETATM   15  O   UNK A   1      -9.422  11.857  64.757  1.00  0.00    -0.424 OA 
HETATM   16  H   UNK A   1      -8.671  11.292  64.901  1.00  0.00     0.000 HD 
ENDBRANCH   3   4
TORSDOF 1
ENDMDL
MODEL      106
REMARK 921   NORMALIZED FREE ENERGY PREDICTED BY IDOCK:   -3.04 KCAL/MOL
REMARK 922        TOTAL FREE ENERGY PREDICTED BY IDOCK:   -3.48 KCAL/MOL
REMARK 923 INTER-LIGAND FREE ENERGY PREDICTED BY IDOCK:   -3.28 KCAL/MOL
REMARK 924 INTRA-LIGAND FREE ENERGY PREDICTED BY IDOCK:   -0.20 KCAL/MOL
REMARK 927      BINDING AFFINITY PREDICTED BY RF-SCORE:    0.00 PKD
ROOT
HETATM    1  O   UNK A   1      -6.232  19.543  64.452  1.00  0.00    -0.354 OA 
HETATM    2  H   UNK A   1      -5.312  19.542  64.212  1.00  0.00     0.000 HD 
HETATM    3  C   UNK A   1      -6.490  18.585  65.479  1.00  0.00    -0.274 C  
ENDROOT
BRANCH   3   4
HETATM    4  C   UNK A   1      -7.990  18.588  65.870  1.00  0.00    -0.006 C  
HETATM    5  N   UNK A   1      -8.510  17.225  66.123  1.00  0.00    -0.479 NA 
HETATM    6  C   UNK A   0      -8.048  16.692  67.413  1.00  0.00    -0.167 C  
HETATM    7  H   UNK A   1      -8.280  16.592  65.356  1.00  0.00     0.000 HD 
HETATM    8  C   UNK A   1      -8.418  17.593  68.609  1.00  0.00    -0.266 C  
HETATM    9  C   UNK A   1      -7.918  19.023  68.400  1.00  0.00    -0.340 C  
HETATM   10  O   UNK A   1      -9.837  17.615  68.817  1.00  0.00    -0.321 OA 
HETATM   11  O   UNK A   1      -6.487  19.081  68.508  1.00  0.00    -0.230 OA 
HETATM   12  C   UNK A   1      -8.356  19.564  67.030  1.00  0.00    -0.287 C  
HETATM   13  H   UNK A   1     -10.064  18.170  69.553  1.00  0.00     0.000 HD 
HETATM   14  H   UNK A   1      -6.176  19.969  68.377  1.00  0.00     0.000 HD 
HETATM   15  O   UNK A   1      -7.800  20.878  66.866  1.00  0.00    -0.557 OA 
HETATM   16  H   UNK A   1      -8.023  21.473  67.573  1.00  0.00     0.000 HD 
ENDBRANCH   3   4
TORSDOF 1
ENDMDL
MODEL      107
REMARK 921   NORMALIZED FREE ENERGY PREDICTED BY IDOCK:   -3.04 KCAL/MOL
REMARK 922        TOTAL FREE ENERGY PREDICTED BY IDOCK:   -3.48 KCAL/MOL
REMARK 923 INTER-LIGAND FREE ENERGY PREDICTED BY IDOCK:   -3.45 KCAL/MOL
REMARK 924 INTRA-LIGAND FREE ENERGY PREDICTED BY IDOCK:   -0.04 KCAL/MOL
REMARK 927      BINDING AFFINITY PREDICTED BY RF-SCORE:    0.00 PKD
ROOT
HETATM    1  O   UNK A   1     -12.546  14.221  66.992  1.00  0.00    -0.553 OA 
HETATM    2  H   UNK A   1     -13.303  14.207  66.419  1.00  0.00     0.000 HD 
HETATM    3  C   UNK A   1     -11.817  12.997  66.901  1.00  0.00    -0.380 C  
ENDROOT
BRANCH   3   4
HETATM    4  C   UNK A   1     -10.579  13.021  67.835  1.00  0.00    -0.229 C  
HETATM    5  N   UNK A   1     -10.915  12.641  69.226  1.00  0.00    -0.436 NA 
HETATM    6  C   UNK A   0     -11.141  11.195  69.361  1.00  0.00    -0.255 C  
HETATM    7  H   UNK A   1     -11.711  13.176  69.575  1.00  0.00     0.000 HD 
HETATM    8  C   UNK A   1      -9.941  10.347  68.892  1.00  0.00    -0.199 C  
HETATM    9  C   UNK A   1      -9.537  10.705  67.460  1.00  0.00    -0.161 C  
HETATM   10  O   UNK A   1      -8.813  10.527  69.759  1.00  0.00    -0.390 OA 
HETATM   11  O   UNK A   1     -10.521  10.240  66.524  1.00  0.00    -0.223 OA 
HETATM   12  C   UNK A   1      -9.350  12.222  67.305  1.00  0.00    -0.185 C  
HETATM   13  H   UNK A   1      -8.074  10.006  69.470  1.00  0.00     0.000 HD 
HETATM   14  H   UNK A   1     -10.271  10.462  65.635  1.00  0.00     0.000 HD 
HETATM   15  O   UNK A   1      -9.041  12.498  65.930  1.00  0.00    -0.433 OA 
HETATM   16  H   UNK A   1      -8.291  12.011  65.606  1.00  0.00     0.000 HD 
ENDBRANCH   3   4
TORSDOF 1
ENDMDL
MODEL      108
REMARK 921   NORMALIZED FREE ENERGY PREDICTED BY IDOCK:   -3.03 KCAL/MOL
REMARK 922        TOTAL FREE ENERGY PREDICTED BY IDOCK:   -3.47 KCAL/MOL
REMARK 923 INTER-LIGAND FREE ENERGY PREDICTED BY IDOCK:   -3.24 KCAL/MOL
REMARK 924 INTRA-LIGAND FREE ENERGY PREDICTED BY IDOCK:   -0.23 KCAL/MOL
REMARK 927      BINDING AFFINITY PREDICTED BY RF-SCORE:    0.00 PKD
ROOT
HETATM    1  O   UNK A   1      -9.197   4.830  72.824  1.00  0.00    -0.128 OA 
HETATM    2  H   UNK A   1      -9.355   3.904  72.684  1.00  0.00     0.000 HD 
HETATM    3  C   UNK A   1      -9.864   5.614  71.834  1.00  0.00    -0.166 C  
ENDROOT
BRANCH   3   4
HETATM    4  C   UNK A   1      -9.606   7.126  72.062  1.00  0.00    -0.143 C  
HETATM    5  N   UNK A   1      -9.515   7.881  70.792  1.00  0.00    -0.158 NA 
HETATM    6  C   UNK A   0     -10.835   8.074  70.173  1.00  0.00    -0.242 C  
HETATM    7  H   UNK A   1      -8.863   7.439  70.144  1.00  0.00     0.000 HD 
HETATM    8  C   UNK A   1     -11.842   8.785  71.101  1.00  0.00    -0.295 C  
HETATM    9  C   UNK A   1     -11.969   8.056  72.440  1.00  0.00    -0.350 C  
HETATM   10  O   UNK A   1     -11.452  10.143  71.339  1.00  0.00    -0.327 OA 
HETATM   11  O   UNK A   1     -12.658   6.807  72.274  1.00  0.00    -0.527 OA 
HETATM   12  C   UNK A   1     -10.588   7.807  73.064  1.00  0.00    -0.379 C  
HETATM   13  H   UNK A   1     -12.072  10.581  71.910  1.00  0.00     0.000 HD 
HETATM   14  H   UNK A   1     -12.737   6.354  73.106  1.00  0.00     0.000 HD 
HETATM   15  O   UNK A   1     -10.770   7.063  74.279  1.00  0.00    -0.523 OA 
HETATM   16  H   UNK A   1     -11.368   7.479  74.890  1.00  0.00     0.000 HD 
ENDBRANCH   3   4
TORSDOF 1
ENDMDL
MODEL      109
REMARK 921   NORMALIZED FREE ENERGY PREDICTED BY IDOCK:   -3.03 KCAL/MOL
REMARK 922        TOTAL FREE ENERGY PREDICTED BY IDOCK:   -3.46 KCAL/MOL
REMARK 923 INTER-LIGAND FREE ENERGY PREDICTED BY IDOCK:   -3.81 KCAL/MOL
REMARK 924 INTRA-LIGAND FREE ENERGY PREDICTED BY IDOCK:    0.35 KCAL/MOL
REMARK 927      BINDING AFFINITY PREDICTED BY RF-SCORE:    0.00 PKD
ROOT
HETATM    1  O   UNK A   1      -9.659  13.808  68.853  1.00  0.00    -0.398 OA 
HETATM    2  H   UNK A   1      -9.186  13.095  69.265  1.00  0.00     0.000 HD 
HETATM    3  C   UNK A   1     -10.379  13.345  67.709  1.00  0.00    -0.241 C  
ENDROOT
BRANCH   3   4
HETATM    4  C   UNK A   1     -11.152  14.508  67.036  1.00  0.00    -0.322 C  
HETATM    5  N   UNK A   1     -11.481  15.593  67.988  1.00  0.00    -0.328 NA 
HETATM    6  C   UNK A   0     -10.302  16.407  68.321  1.00  0.00    -0.279 C  
HETATM    7  H   UNK A   1     -11.928  15.226  68.829  1.00  0.00     0.000 HD 
HETATM    8  C   UNK A   1      -9.622  17.024  67.081  1.00  0.00    -0.253 C  
HETATM    9  C   UNK A   1      -9.269  15.950  66.051  1.00  0.00    -0.337 C  
HETATM   10  O   UNK A   1     -10.466  18.007  66.468  1.00  0.00    -0.368 OA 
HETATM   11  O   UNK A   1      -8.185  15.133  66.520  1.00  0.00    -0.373 OA 
HETATM   12  C   UNK A   1     -10.487  15.066  65.740  1.00  0.00    -0.337 C  
HETATM   13  H   UNK A   1     -10.048  18.387  65.705  1.00  0.00     0.000 HD 
HETATM   14  H   UNK A   1      -7.967  14.466  65.880  1.00  0.00     0.000 HD 
HETATM   15  O   UNK A   1     -10.076  14.040  64.823  1.00  0.00    -0.572 OA 
HETATM   16  H   UNK A   1      -9.670  14.380  64.033  1.00  0.00     0.000 HD 
ENDBRANCH   3   4
TORSDOF 1
ENDMDL
MODEL      110
REMARK 921   NORMALIZED FREE ENERGY PREDICTED BY IDOCK:   -3.02 KCAL/MOL
REMARK 922        TOTAL FREE ENERGY PREDICTED BY IDOCK:   -3.46 KCAL/MOL
REMARK 923 INTER-LIGAND FREE ENERGY PREDICTED BY IDOCK:   -3.41 KCAL/MOL
REMARK 924 INTRA-LIGAND FREE ENERGY PREDICTED BY IDOCK:   -0.05 KCAL/MOL
REMARK 927      BINDING AFFINITY PREDICTED BY RF-SCORE:    0.00 PKD
ROOT
HETATM    1  O   UNK A   1     -10.513  19.933  69.036  1.00  0.00    -0.604 OA 
HETATM    2  H   UNK A   1     -11.304  20.079  69.541  1.00  0.00     0.000 HD 
HETATM    3  C   UNK A   1     -10.765  19.051  67.941  1.00  0.00    -0.293 C  
ENDROOT
BRANCH   3   4
HETATM    4  C   UNK A   1      -9.474  18.814  67.116  1.00  0.00    -0.305 C  
HETATM    5  N   UNK A   1      -8.297  18.550  67.973  1.00  0.00    -0.269 NA 
HETATM    6  C   UNK A   0      -8.327  17.195  68.545  1.00  0.00    -0.262 C  
HETATM    7  H   UNK A   1      -8.202  19.258  68.702  1.00  0.00     0.000 HD 
HETATM    8  C   UNK A   1      -8.420  16.088  67.476  1.00  0.00    -0.163 C  
HETATM    9  C   UNK A   1      -9.614  16.314  66.547  1.00  0.00    -0.264 C  
HETATM   10  O   UNK A   1      -7.220  16.025  66.694  1.00  0.00    -0.169 OA 
HETATM   11  O   UNK A   1     -10.848  16.065  67.238  1.00  0.00    -0.313 OA 
HETATM   12  C   UNK A   1      -9.612  17.745  65.989  1.00  0.00    -0.093 C  
HETATM   13  H   UNK A   1      -7.277  15.343  66.036  1.00  0.00     0.000 HD 
HETATM   14  H   UNK A   1     -11.590  16.206  66.661  1.00  0.00     0.000 HD 
HETATM   15  O   UNK A   1     -10.789  17.915  65.183  1.00  0.00    -0.672 OA 
HETATM   16  H   UNK A   1     -10.874  17.264  64.496  1.00  0.00     0.000 HD 
ENDBRANCH   3   4
TORSDOF 1
ENDMDL
MODEL      111
REMARK 921   NORMALIZED FREE ENERGY PREDICTED BY IDOCK:   -3.01 KCAL/MOL
REMARK 922        TOTAL FREE ENERGY PREDICTED BY IDOCK:   -3.45 KCAL/MOL
REMARK 923 INTER-LIGAND FREE ENERGY PREDICTED BY IDOCK:   -3.33 KCAL/MOL
REMARK 924 INTRA-LIGAND FREE ENERGY PREDICTED BY IDOCK:   -0.12 KCAL/MOL
REMARK 927      BINDING AFFINITY PREDICTED BY RF-SCORE:    0.00 PKD
ROOT
HETATM    1  O   UNK A   1      -9.890  14.447  69.919  1.00  0.00    -0.225 OA 
HETATM    2  H   UNK A   1      -9.447  13.659  70.209  1.00  0.00     0.000 HD 
HETATM    3  C   UNK A   1      -8.958  15.379  69.367  1.00  0.00    -0.258 C  
ENDROOT
BRANCH   3   4
HETATM    4  C   UNK A   1      -9.681  16.666  68.892  1.00  0.00    -0.255 C  
HETATM    5  N   UNK A   1      -8.801  17.544  68.089  1.00  0.00    -0.255 NA 
HETATM    6  C   UNK A   0      -8.589  17.016  66.734  1.00  0.00    -0.237 C  
HETATM    7  H   UNK A   1      -7.914  17.715  68.565  1.00  0.00     0.000 HD 
HETATM    8  C   UNK A   1      -9.903  16.790  65.958  1.00  0.00    -0.287 C  
HETATM    9  C   UNK A   1     -10.863  15.897  66.747  1.00  0.00    -0.228 C  
HETATM   10  O   UNK A   1     -10.549  18.035  65.666  1.00  0.00    -0.599 OA 
HETATM   11  O   UNK A   1     -10.385  14.543  66.781  1.00  0.00    -0.264 OA 
HETATM   12  C   UNK A   1     -11.046  16.418  68.180  1.00  0.00    -0.320 C  
HETATM   13  H   UNK A   1     -11.358  17.896  65.189  1.00  0.00     0.000 HD 
HETATM   14  H   UNK A   1     -10.981  13.989  67.271  1.00  0.00     0.000 HD 
HETATM   15  O   UNK A   1     -11.900  15.503  68.885  1.00  0.00    -0.400 OA 
HETATM   16  H   UNK A   1     -12.732  15.352  68.451  1.00  0.00     0.000 HD 
ENDBRANCH   3   4
TORSDOF 1
ENDMDL
MODEL      112
REMARK 921   NORMALIZED FREE ENERGY PREDICTED BY IDOCK:   -3.01 KCAL/MOL
REMARK 922        TOTAL FREE ENERGY PREDICTED BY IDOCK:   -3.45 KCAL/MOL
REMARK 923 INTER-LIGAND FREE ENERGY PREDICTED BY IDOCK:   -3.40 KCAL/MOL
REMARK 924 INTRA-LIGAND FREE ENERGY PREDICTED BY IDOCK:   -0.05 KCAL/MOL
REMARK 927      BINDING AFFINITY PREDICTED BY RF-SCORE:    0.00 PKD
ROOT
HETATM    1  O   UNK A   1     -13.093   9.811  70.505  1.00  0.00    -0.570 OA 
HETATM    2  H   UNK A   1     -13.324  10.693  70.769  1.00  0.00     0.000 HD 
HETATM    3  C   UNK A   1     -12.180   9.225  71.434  1.00  0.00    -0.349 C  
ENDROOT
BRANCH   3   4
HETATM    4  C   UNK A   1     -11.804   7.784  71.004  1.00  0.00    -0.272 C  
HETATM    5  N   UNK A   1     -11.321   7.719  69.606  1.00  0.00    -0.446 NA 
HETATM    6  C   UNK A   0      -9.955   8.246  69.473  1.00  0.00    -0.187 C  
HETATM    7  H   UNK A   1     -11.965   8.190  68.970  1.00  0.00     0.000 HD 
HETATM    8  C   UNK A   1      -8.937   7.529  70.383  1.00  0.00    -0.152 C  
HETATM    9  C   UNK A   1      -9.389   7.550  71.844  1.00  0.00    -0.143 C  
HETATM   10  O   UNK A   1      -8.745   6.170  69.968  1.00  0.00    -0.133 OA 
HETATM   11  O   UNK A   1      -9.284   8.875  72.388  1.00  0.00    -0.362 OA 
HETATM   12  C   UNK A   1     -10.835   7.048  71.979  1.00  0.00    -0.223 C  
HETATM   13  H   UNK A   1      -8.119   5.728  70.528  1.00  0.00     0.000 HD 
HETATM   14  H   UNK A   1      -9.565   8.888  73.296  1.00  0.00     0.000 HD 
HETATM   15  O   UNK A   1     -11.221   7.156  73.358  1.00  0.00    -0.561 OA 
HETATM   16  H   UNK A   1     -10.631   6.708  73.952  1.00  0.00     0.000 HD 
ENDBRANCH   3   4
TORSDOF 1
ENDMDL
MODEL      113
REMARK 921   NORMALIZED FREE ENERGY PREDICTED BY IDOCK:   -3.01 KCAL/MOL
REMARK 922        TOTAL FREE ENERGY PREDICTED BY IDOCK:   -3.44 KCAL/MOL
REMARK 923 INTER-LIGAND FREE ENERGY PREDICTED BY IDOCK:   -3.81 KCAL/MOL
REMARK 924 INTRA-LIGAND FREE ENERGY PREDICTED BY IDOCK:    0.37 KCAL/MOL
REMARK 927      BINDING AFFINITY PREDICTED BY RF-SCORE:    0.00 PKD
ROOT
HETATM    1  O   UNK A   1     -10.343  19.998  65.854  1.00  0.00    -0.485 OA 
HETATM    2  H   UNK A   1     -11.066  20.492  65.484  1.00  0.00     0.000 HD 
HETATM    3  C   UNK A   1     -10.597  18.594  65.780  1.00  0.00    -0.249 C  
ENDROOT
BRANCH   3   4
HETATM    4  C   UNK A   1      -9.418  17.788  66.383  1.00  0.00    -0.264 C  
HETATM    5  N   UNK A   1      -8.111  18.446  66.159  1.00  0.00    -0.460 NA 
HETATM    6  C   UNK A   0      -7.925  19.610  67.037  1.00  0.00    -0.281 C  
HETATM    7  H   UNK A   1      -7.986  18.697  65.178  1.00  0.00     0.000 HD 
HETATM    8  C   UNK A   1      -8.056  19.267  68.535  1.00  0.00    -0.366 C  
HETATM    9  C   UNK A   1      -9.386  18.570  68.829  1.00  0.00    -0.289 C  
HETATM   10  O   UNK A   1      -6.978  18.426  68.966  1.00  0.00    -0.270 OA 
HETATM   11  O   UNK A   1     -10.479  19.494  68.712  1.00  0.00    -0.527 OA 
HETATM   12  C   UNK A   1      -9.606  17.384  67.877  1.00  0.00    -0.267 C  
HETATM   13  H   UNK A   1      -7.058  18.215  69.888  1.00  0.00     0.000 HD 
HETATM   14  H   UNK A   1     -11.305  19.061  68.895  1.00  0.00     0.000 HD 
HETATM   15  O   UNK A   1     -10.895  16.817  68.157  1.00  0.00    -0.350 OA 
HETATM   16  H   UNK A   1     -11.010  16.570  69.068  1.00  0.00     0.000 HD 
ENDBRANCH   3   4
TORSDOF 1
ENDMDL
MODEL      114
REMARK 921   NORMALIZED FREE ENERGY PREDICTED BY IDOCK:   -2.98 KCAL/MOL
REMARK 922        TOTAL FREE ENERGY PREDICTED BY IDOCK:   -3.41 KCAL/MOL
REMARK 923 INTER-LIGAND FREE ENERGY PREDICTED BY IDOCK:   -3.33 KCAL/MOL
REMARK 924 INTRA-LIGAND FREE ENERGY PREDICTED BY IDOCK:   -0.08 KCAL/MOL
REMARK 927      BINDING AFFINITY PREDICTED BY RF-SCORE:    0.00 PKD
ROOT
HETATM    1  O   UNK A   1     -12.304   6.646  71.206  1.00  0.00    -0.352 OA 
HETATM    2  H   UNK A   1     -13.053   6.073  71.084  1.00  0.00     0.000 HD 
HETATM    3  C   UNK A   1     -11.539   6.744  70.005  1.00  0.00    -0.310 C  
ENDROOT
BRANCH   3   4
HETATM    4  C   UNK A   1     -10.318   7.678  70.204  1.00  0.00    -0.217 C  
HETATM    5  N   UNK A   1      -9.780   8.186  68.921  1.00  0.00    -0.154 NA 
HETATM    6  C   UNK A   0     -10.639   9.229  68.341  1.00  0.00    -0.190 C  
HETATM    7  H   UNK A   1      -9.621   7.426  68.259  1.00  0.00     0.000 HD 
HETATM    8  C   UNK A   1     -10.867  10.423  69.290  1.00  0.00    -0.241 C  
HETATM    9  C   UNK A   1     -11.411   9.959  70.643  1.00  0.00    -0.334 C  
HETATM   10  O   UNK A   1      -9.652  11.156  69.497  1.00  0.00    -0.405 OA 
HETATM   11  O   UNK A   1     -12.769   9.509  70.516  1.00  0.00    -0.504 OA 
HETATM   12  C   UNK A   1     -10.544   8.833  71.226  1.00  0.00    -0.262 C  
HETATM   13  H   UNK A   1      -9.792  11.891  70.081  1.00  0.00     0.000 HD 
HETATM   14  H   UNK A   1     -13.107   9.221  71.356  1.00  0.00     0.000 HD 
HETATM   15  O   UNK A   1     -11.143   8.396  72.457  1.00  0.00    -0.361 OA 
HETATM   16  H   UNK A   1     -11.282   9.100  73.080  1.00  0.00     0.000 HD 
ENDBRANCH   3   4
TORSDOF 1
ENDMDL
MODEL      115
REMARK 921   NORMALIZED FREE ENERGY PREDICTED BY IDOCK:   -2.97 KCAL/MOL
REMARK 922        TOTAL FREE ENERGY PREDICTED BY IDOCK:   -3.40 KCAL/MOL
REMARK 923 INTER-LIGAND FREE ENERGY PREDICTED BY IDOCK:   -3.17 KCAL/MOL
REMARK 924 INTRA-LIGAND FREE ENERGY PREDICTED BY IDOCK:   -0.24 KCAL/MOL
REMARK 927      BINDING AFFINITY PREDICTED BY RF-SCORE:    0.00 PKD
ROOT
HETATM    1  O   UNK A   1     -12.468  14.901  69.705  1.00  0.00    -0.501 OA 
HETATM    2  H   UNK A   1     -13.244  15.399  69.938  1.00  0.00     0.000 HD 
HETATM    3  C   UNK A   1     -11.860  15.431  68.526  1.00  0.00    -0.272 C  
ENDROOT
BRANCH   3   4
HETATM    4  C   UNK A   1     -10.594  14.620  68.147  1.00  0.00    -0.237 C  
HETATM    5  N   UNK A   1     -10.380  14.560  66.684  1.00  0.00    -0.270 NA 
HETATM    6  C   UNK A   0      -9.873  15.833  66.151  1.00  0.00    -0.315 C  
HETATM    7  H   UNK A   1     -11.226  14.264  66.197  1.00  0.00     0.000 HD 
HETATM    8  C   UNK A   1      -8.565  16.294  66.825  1.00  0.00    -0.237 C  
HETATM    9  C   UNK A   1      -8.720  16.364  68.346  1.00  0.00    -0.213 C  
HETATM   10  O   UNK A   1      -7.481  15.414  66.501  1.00  0.00    -0.243 OA 
HETATM   11  O   UNK A   1      -9.567  17.461  68.720  1.00  0.00    -0.276 OA 
HETATM   12  C   UNK A   1      -9.298  15.052  68.899  1.00  0.00    -0.208 C  
HETATM   13  H   UNK A   1      -6.675  15.698  66.917  1.00  0.00     0.000 HD 
HETATM   14  H   UNK A   1      -9.663  17.504  69.664  1.00  0.00     0.000 HD 
HETATM   15  O   UNK A   1      -9.483  15.204  70.315  1.00  0.00    -0.391 OA 
HETATM   16  H   UNK A   1      -8.693  15.467  70.773  1.00  0.00     0.000 HD 
ENDBRANCH   3   4
TORSDOF 1
ENDMDL
MODEL      116
REMARK 921   NORMALIZED FREE ENERGY PREDICTED BY IDOCK:   -2.97 KCAL/MOL
REMARK 922        TOTAL FREE ENERGY PREDICTED BY IDOCK:   -3.40 KCAL/MOL
REMARK 923 INTER-LIGAND FREE ENERGY PREDICTED BY IDOCK:   -3.14 KCAL/MOL
REMARK 924 INTRA-LIGAND FREE ENERGY PREDICTED BY IDOCK:   -0.27 KCAL/MOL
REMARK 927      BINDING AFFINITY PREDICTED BY RF-SCORE:    0.00 PKD
ROOT
HETATM    1  O   UNK A   1     -11.188   5.636  66.156  1.00  0.00    -0.763 OA 
HETATM    2  H   UNK A   1     -11.364   4.729  66.375  1.00  0.00     0.000 HD 
HETATM    3  C   UNK A   1     -10.947   6.405  67.335  1.00  0.00    -0.376 C  
ENDROOT
BRANCH   3   4
HETATM    4  C   UNK A   1     -10.659   7.886  66.979  1.00  0.00    -0.311 C  
HETATM    5  N   UNK A   1     -10.900   8.799  68.119  1.00  0.00    -0.466 NA 
HETATM    6  C   UNK A   0      -9.835   8.708  69.129  1.00  0.00    -0.185 C  
HETATM    7  H   UNK A   1     -11.819   8.640  68.533  1.00  0.00     0.000 HD 
HETATM    8  C   UNK A   1      -8.431   8.990  68.556  1.00  0.00    -0.128 C  
HETATM    9  C   UNK A   1      -8.128   8.083  67.362  1.00  0.00    -0.122 C  
HETATM   10  O   UNK A   1      -8.305  10.359  68.153  1.00  0.00    -0.113 OA 
HETATM   11  O   UNK A   1      -7.929   6.727  67.792  1.00  0.00    -0.110 OA 
HETATM   12  C   UNK A   1      -9.264   8.138  66.329  1.00  0.00    -0.191 C  
HETATM   13  H   UNK A   1      -7.441  10.533  67.800  1.00  0.00     0.000 HD 
HETATM   14  H   UNK A   1      -7.741   6.164  67.050  1.00  0.00     0.000 HD 
HETATM   15  O   UNK A   1      -8.953   7.218  65.270  1.00  0.00    -0.371 OA 
HETATM   16  H   UNK A   1      -8.103   7.371  64.874  1.00  0.00     0.000 HD 
ENDBRANCH   3   4
TORSDOF 1
ENDMDL
MODEL      117
REMARK 921   NORMALIZED FREE ENERGY PREDICTED BY IDOCK:   -2.96 KCAL/MOL
REMARK 922        TOTAL FREE ENERGY PREDICTED BY IDOCK:   -3.40 KCAL/MOL
REMARK 923 INTER-LIGAND FREE ENERGY PREDICTED BY IDOCK:   -3.54 KCAL/MOL
REMARK 924 INTRA-LIGAND FREE ENERGY PREDICTED BY IDOCK:    0.14 KCAL/MOL
REMARK 927      BINDING AFFINITY PREDICTED BY RF-SCORE:    0.00 PKD
ROOT
HETATM    1  O   UNK A   1     -13.458  15.549  70.408  1.00  0.00    -0.791 OA 
HETATM    2  H   UNK A   1     -14.254  16.043  70.253  1.00  0.00     0.000 HD 
HETATM    3  C   UNK A   1     -12.478  15.838  69.410  1.00  0.00     0.129 C  
ENDROOT
BRANCH   3   4
HETATM    4  C   UNK A   1     -11.178  15.032  69.663  1.00  0.00    -0.275 C  
HETATM    5  N   UNK A   1     -11.389  13.895  70.586  1.00  0.00    -0.451 NA 
HETATM    6  C   UNK A   0     -12.097  12.783  69.934  1.00  0.00    -0.259 C  
HETATM    7  H   UNK A   1     -11.869  14.192  71.437  1.00  0.00     0.000 HD 
HETATM    8  C   UNK A   1     -11.380  12.268  68.669  1.00  0.00    -0.291 C  
HETATM    9  C   UNK A   1     -11.121  13.404  67.678  1.00  0.00    -0.265 C  
HETATM   10  O   UNK A   1     -10.136  11.639  69.003  1.00  0.00    -0.373 OA 
HETATM   11  O   UNK A   1     -12.349  13.845  67.079  1.00  0.00    -0.463 OA 
HETATM   12  C   UNK A   1     -10.428  14.588  68.370  1.00  0.00    -0.246 C  
HETATM   13  H   UNK A   1      -9.695  11.322  68.224  1.00  0.00     0.000 HD 
HETATM   14  H   UNK A   1     -12.187  14.551  66.464  1.00  0.00     0.000 HD 
HETATM   15  O   UNK A   1     -10.274  15.644  67.409  1.00  0.00    -0.255 OA 
HETATM   16  H   UNK A   1      -9.817  15.373  66.620  1.00  0.00     0.000 HD 
ENDBRANCH   3   4
TORSDOF 1
ENDMDL
MODEL      118
REMARK 921   NORMALIZED FREE ENERGY PREDICTED BY IDOCK:   -2.91 KCAL/MOL
REMARK 922        TOTAL FREE ENERGY PREDICTED BY IDOCK:   -3.34 KCAL/MOL
REMARK 923 INTER-LIGAND FREE ENERGY PREDICTED BY IDOCK:   -3.15 KCAL/MOL
REMARK 924 INTRA-LIGAND FREE ENERGY PREDICTED BY IDOCK:   -0.19 KCAL/MOL
REMARK 927      BINDING AFFINITY PREDICTED BY RF-SCORE:    0.00 PKD
ROOT
HETATM    1  O   UNK A   1      -8.400   8.687  68.160  1.00  0.00    -0.124 OA 
HETATM    2  H   UNK A   1      -7.740   8.802  68.833  1.00  0.00     0.000 HD 
HETATM    3  C   UNK A   1      -8.093   7.563  67.333  1.00  0.00    -0.116 C  
ENDROOT
BRANCH   3   4
HETATM    4  C   UNK A   1      -9.172   7.375  66.235  1.00  0.00    -0.135 C  
HETATM    5  N   UNK A   1      -8.827   6.294  65.285  1.00  0.00    -0.360 NA 
HETATM    6  C   UNK A   0      -9.021   4.962  65.876  1.00  0.00    -0.134 C  
HETATM    7  H   UNK A   1      -7.879   6.406  64.924  1.00  0.00     0.000 HD 
HETATM    8  C   UNK A   1     -10.457   4.730  66.390  1.00  0.00    -0.239 C  
HETATM    9  C   UNK A   1     -10.877   5.827  67.370  1.00  0.00    -0.185 C  
HETATM   10  O   UNK A   1     -11.392   4.684  65.305  1.00  0.00    -0.980 OA 
HETATM   11  O   UNK A   1     -10.168   5.697  68.612  1.00  0.00    -0.168 OA 
HETATM   12  C   UNK A   1     -10.627   7.221  66.774  1.00  0.00    -0.217 C  
HETATM   13  H   UNK A   1     -12.275   4.542  65.621  1.00  0.00     0.000 HD 
HETATM   14  H   UNK A   1     -10.429   6.379  69.221  1.00  0.00     0.000 HD 
HETATM   15  O   UNK A   1     -10.975   8.202  67.764  1.00  0.00    -0.492 OA 
HETATM   16  H   UNK A   1     -11.862   8.109  68.093  1.00  0.00     0.000 HD 
ENDBRANCH   3   4
TORSDOF 1
ENDMDL
MODEL      119
REMARK 921   NORMALIZED FREE ENERGY PREDICTED BY IDOCK:   -2.90 KCAL/MOL
REMARK 922        TOTAL FREE ENERGY PREDICTED BY IDOCK:   -3.33 KCAL/MOL
REMARK 923 INTER-LIGAND FREE ENERGY PREDICTED BY IDOCK:   -3.07 KCAL/MOL
REMARK 924 INTRA-LIGAND FREE ENERGY PREDICTED BY IDOCK:   -0.27 KCAL/MOL
REMARK 927      BINDING AFFINITY PREDICTED BY RF-SCORE:    0.00 PKD
ROOT
HETATM    1  O   UNK A   1     -12.118  12.103  66.407  1.00  0.00    -0.630 OA 
HETATM    2  H   UNK A   1     -12.754  11.937  67.093  1.00  0.00     0.000 HD 
HETATM    3  C   UNK A   1     -10.788  12.041  66.922  1.00  0.00    -0.259 C  
ENDROOT
BRANCH   3   4
HETATM    4  C   UNK A   1      -9.750  12.311  65.803  1.00  0.00    -0.216 C  
HETATM    5  N   UNK A   1      -8.439  12.742  66.339  1.00  0.00    -0.394 NA 
HETATM    6  C   UNK A   0      -7.693  11.621  66.930  1.00  0.00    -0.147 C  
HETATM    7  H   UNK A   1      -8.545  13.509  67.004  1.00  0.00     0.000 HD 
HETATM    8  C   UNK A   1      -7.466  10.457  65.944  1.00  0.00    -0.139 C  
HETATM    9  C   UNK A   1      -8.788   9.975  65.343  1.00  0.00    -0.173 C  
HETATM   10  O   UNK A   1      -6.580  10.844  64.886  1.00  0.00    -0.362 OA 
HETATM   11  O   UNK A   1      -9.572   9.286  66.329  1.00  0.00    -0.205 OA 
HETATM   12  C   UNK A   1      -9.592  11.152  64.771  1.00  0.00    -0.240 C  
HETATM   13  H   UNK A   1      -6.441  10.128  64.278  1.00  0.00     0.000 HD 
HETATM   14  H   UNK A   1     -10.393   8.987  65.956  1.00  0.00     0.000 HD 
HETATM   15  O   UNK A   1     -10.846  10.646  64.286  1.00  0.00    -0.304 OA 
HETATM   16  H   UNK A   1     -10.751   9.940  63.657  1.00  0.00     0.000 HD 
ENDBRANCH   3   4
TORSDOF 1
ENDMDL
MODEL      120
REMARK 921   NORMALIZED FREE ENERGY PREDICTED BY IDOCK:   -2.90 KCAL/MOL
REMARK 922        TOTAL FREE ENERGY PREDICTED BY IDOCK:   -3.33 KCAL/MOL
REMARK 923 INTER-LIGAND FREE ENERGY PREDICTED BY IDOCK:   -3.18 KCAL/MOL
REMARK 924 INTRA-LIGAND FREE ENERGY PREDICTED BY IDOCK:   -0.15 KCAL/MOL
REMARK 927      BINDING AFFINITY PREDICTED BY RF-SCORE:    0.00 PKD
ROOT
HETATM    1  O   UNK A   1      -6.528  17.261  69.489  1.00  0.00    -0.240 OA 
HETATM    2  H   UNK A   1      -6.091  18.104  69.466  1.00  0.00     0.000 HD 
HETATM    3  C   UNK A   1      -7.780  17.319  68.804  1.00  0.00    -0.261 C  
ENDROOT
BRANCH   3   4
HETATM    4  C   UNK A   1      -8.493  15.943  68.842  1.00  0.00    -0.220 C  
HETATM    5  N   UNK A   1      -9.929  16.060  69.182  1.00  0.00    -0.232 NA 
HETATM    6  C   UNK A   0     -10.719  16.576  68.055  1.00  0.00    -0.343 C  
HETATM    7  H   UNK A   1     -10.066  16.624  70.021  1.00  0.00     0.000 HD 
HETATM    8  C   UNK A   1     -10.581  15.724  66.776  1.00  0.00    -0.309 C  
HETATM    9  C   UNK A   1      -9.113  15.555  66.380  1.00  0.00    -0.316 C  
HETATM   10  O   UNK A   1     -11.173  14.431  66.953  1.00  0.00    -0.314 OA 
HETATM   11  O   UNK A   1      -8.575  16.792  65.887  1.00  0.00    -0.500 OA 
HETATM   12  C   UNK A   1      -8.276  15.065  67.571  1.00  0.00    -0.182 C  
HETATM   13  H   UNK A   1     -11.088  13.906  66.166  1.00  0.00     0.000 HD 
HETATM   14  H   UNK A   1      -7.663  16.687  65.641  1.00  0.00     0.000 HD 
HETATM   15  O   UNK A   1      -6.902  14.992  67.156  1.00  0.00    -0.266 OA 
HETATM   16  H   UNK A   1      -6.770  14.457  66.382  1.00  0.00     0.000 HD 
ENDBRANCH   3   4
TORSDOF 1
ENDMDL
MODEL      121
REMARK 921   NORMALIZED FREE ENERGY PREDICTED BY IDOCK:   -2.90 KCAL/MOL
REMARK 922        TOTAL FREE ENERGY PREDICTED BY IDOCK:   -3.33 KCAL/MOL
REMARK 923 INTER-LIGAND FREE ENERGY PREDICTED BY IDOCK:   -3.20 KCAL/MOL
REMARK 924 INTRA-LIGAND FREE ENERGY PREDICTED BY IDOCK:   -0.13 KCAL/MOL
REMARK 927      BINDING AFFINITY PREDICTED BY RF-SCORE:    0.00 PKD
ROOT
HETATM    1  O   UNK A   1     -11.041   7.269  68.890  1.00  0.00    -0.434 OA 
HETATM    2  H   UNK A   1     -10.820   6.854  68.065  1.00  0.00     0.000 HD 
HETATM    3  C   UNK A   1     -11.485   6.301  69.843  1.00  0.00    -0.389 C  
ENDROOT
BRANCH   3   4
HETATM    4  C   UNK A   1     -11.845   6.978  71.190  1.00  0.00    -0.338 C  
HETATM    5  N   UNK A   1     -12.139   5.994  72.256  1.00  0.00    -0.432 NA 
HETATM    6  C   UNK A   0     -10.917   5.353  72.763  1.00  0.00    -0.277 C  
HETATM    7  H   UNK A   1     -12.819   5.300  71.942  1.00  0.00     0.000 HD 
HETATM    8  C   UNK A   1      -9.879   6.362  73.295  1.00  0.00    -0.170 C  
HETATM    9  C   UNK A   1      -9.543   7.417  72.239  1.00  0.00    -0.151 C  
HETATM   10  O   UNK A   1     -10.356   7.015  74.479  1.00  0.00    -0.434 OA 
HETATM   11  O   UNK A   1      -8.773   6.841  71.173  1.00  0.00    -0.135 OA 
HETATM   12  C   UNK A   1     -10.821   8.052  71.670  1.00  0.00    -0.237 C  
HETATM   13  H   UNK A   1      -9.717   7.637  74.806  1.00  0.00     0.000 HD 
HETATM   14  H   UNK A   1      -8.564   7.496  70.518  1.00  0.00     0.000 HD 
HETATM   15  O   UNK A   1     -10.443   8.980  70.641  1.00  0.00    -0.202 OA 
HETATM   16  H   UNK A   1      -9.819   9.635  70.934  1.00  0.00     0.000 HD 
ENDBRANCH   3   4
TORSDOF 1
ENDMDL
MODEL      122
REMARK 921   NORMALIZED FREE ENERGY PREDICTED BY IDOCK:   -2.86 KCAL/MOL
REMARK 922        TOTAL FREE ENERGY PREDICTED BY IDOCK:   -3.29 KCAL/MOL
REMARK 923 INTER-LIGAND FREE ENERGY PREDICTED BY IDOCK:   -3.26 KCAL/MOL
REMARK 924 INTRA-LIGAND FREE ENERGY PREDICTED BY IDOCK:   -0.04 KCAL/MOL
REMARK 927      BINDING AFFINITY PREDICTED BY RF-SCORE:    0.00 PKD
ROOT
HETATM    1  O   UNK A   1      -7.747   9.057  71.514  1.00  0.00    -0.284 OA 
HETATM    2  H   UNK A   1      -7.023   8.822  70.946  1.00  0.00     0.000 HD 
HETATM    3  C   UNK A   1      -8.757   8.048  71.494  1.00  0.00    -0.136 C  
ENDROOT
BRANCH   3   4
HETATM    4  C   UNK A   1      -9.939   8.432  72.422  1.00  0.00    -0.310 C  
HETATM    5  N   UNK A   1     -10.913   9.325  71.755  1.00  0.00    -0.364 NA 
HETATM    6  C   UNK A   0     -11.748   8.599  70.787  1.00  0.00    -0.210 C  
HETATM    7  H   UNK A   1     -10.447  10.122  71.320  1.00  0.00     0.000 HD 
HETATM    8  C   UNK A   1     -12.511   7.414  71.412  1.00  0.00    -0.368 C  
HETATM    9  C   UNK A   1     -11.556   6.459  72.131  1.00  0.00    -0.313 C  
HETATM   10  O   UNK A   1     -13.504   7.872  72.338  1.00  0.00    -0.515 OA 
HETATM   11  O   UNK A   1     -10.753   5.737  71.184  1.00  0.00    -0.249 OA 
HETATM   12  C   UNK A   1     -10.646   7.222  73.106  1.00  0.00    -0.355 C  
HETATM   13  H   UNK A   1     -13.974   7.142  72.724  1.00  0.00     0.000 HD 
HETATM   14  H   UNK A   1     -10.159   5.144  71.631  1.00  0.00     0.000 HD 
HETATM   15  O   UNK A   1      -9.731   6.285  73.695  1.00  0.00    -0.153 OA 
HETATM   16  H   UNK A   1     -10.162   5.548  74.112  1.00  0.00     0.000 HD 
ENDBRANCH   3   4
TORSDOF 1
ENDMDL
MODEL      123
REMARK 921   NORMALIZED FREE ENERGY PREDICTED BY IDOCK:   -2.86 KCAL/MOL
REMARK 922        TOTAL FREE ENERGY PREDICTED BY IDOCK:   -3.29 KCAL/MOL
REMARK 923 INTER-LIGAND FREE ENERGY PREDICTED BY IDOCK:   -3.25 KCAL/MOL
REMARK 924 INTRA-LIGAND FREE ENERGY PREDICTED BY IDOCK:   -0.03 KCAL/MOL
REMARK 927      BINDING AFFINITY PREDICTED BY RF-SCORE:    0.00 PKD
ROOT
HETATM    1  O   UNK A   1     -10.382  18.783  68.802  1.00  0.00    -0.447 OA 
HETATM    2  H   UNK A   1     -10.441  18.776  69.750  1.00  0.00     0.000 HD 
HETATM    3  C   UNK A   1      -9.070  18.418  68.373  1.00  0.00    -0.320 C  
ENDROOT
BRANCH   3   4
HETATM    4  C   UNK A   1      -8.973  18.428  66.825  1.00  0.00    -0.288 C  
HETATM    5  N   UNK A   1      -8.634  19.766  66.290  1.00  0.00    -0.363 NA 
HETATM    6  C   UNK A   0      -7.218  20.099  66.503  1.00  0.00    -0.262 C  
HETATM    7  H   UNK A   1      -9.246  20.486  66.675  1.00  0.00     0.000 HD 
HETATM    8  C   UNK A   1      -6.253  19.061  65.892  1.00  0.00    -0.201 C  
HETATM    9  C   UNK A   1      -6.563  17.652  66.399  1.00  0.00    -0.243 C  
HETATM   10  O   UNK A   1      -6.322  19.074  64.461  1.00  0.00    -0.480 OA 
HETATM   11  O   UNK A   1      -6.196  17.517  67.781  1.00  0.00    -0.154 OA 
HETATM   12  C   UNK A   1      -8.054  17.322  66.225  1.00  0.00    -0.280 C  
HETATM   13  H   UNK A   1      -5.729  18.435  64.085  1.00  0.00     0.000 HD 
HETATM   14  H   UNK A   1      -6.389  16.642  68.096  1.00  0.00     0.000 HD 
HETATM   15  O   UNK A   1      -8.293  16.018  66.779  1.00  0.00    -0.215 OA 
HETATM   16  H   UNK A   1      -7.733  15.343  66.413  1.00  0.00     0.000 HD 
ENDBRANCH   3   4
TORSDOF 1
ENDMDL
MODEL      124
REMARK 921   NORMALIZED FREE ENERGY PREDICTED BY IDOCK:   -2.85 KCAL/MOL
REMARK 922        TOTAL FREE ENERGY PREDICTED BY IDOCK:   -3.28 KCAL/MOL
REMARK 923 INTER-LIGAND FREE ENERGY PREDICTED BY IDOCK:   -3.01 KCAL/MOL
REMARK 924 INTRA-LIGAND FREE ENERGY PREDICTED BY IDOCK:   -0.26 KCAL/MOL
REMARK 927      BINDING AFFINITY PREDICTED BY RF-SCORE:    0.00 PKD
ROOT
HETATM    1  O   UNK A   1     -11.929  12.248  66.589  1.00  0.00    -0.598 OA 
HETATM    2  H   UNK A   1     -12.866  12.389  66.664  1.00  0.00     0.000 HD 
HETATM    3  C   UNK A   1     -11.412  11.635  67.770  1.00  0.00    -0.302 C  
ENDROOT
BRANCH   3   4
HETATM    4  C   UNK A   1      -9.884  11.404  67.648  1.00  0.00    -0.176 C  
HETATM    5  N   UNK A   1      -9.220  11.308  68.967  1.00  0.00    -0.391 NA 
HETATM    6  C   UNK A   0      -9.486  10.020  69.624  1.00  0.00    -0.223 C  
HETATM    7  H   UNK A   1      -9.477  12.091  69.569  1.00  0.00     0.000 HD 
HETATM    8  C   UNK A   1      -9.066   8.806  68.769  1.00  0.00    -0.138 C  
HETATM    9  C   UNK A   1      -9.712   8.856  67.383  1.00  0.00    -0.176 C  
HETATM   10  O   UNK A   1      -7.641   8.748  68.623  1.00  0.00    -0.093 OA 
HETATM   11  O   UNK A   1     -11.121   8.594  67.471  1.00  0.00    -0.457 OA 
HETATM   12  C   UNK A   1      -9.479  10.220  66.717  1.00  0.00    -0.163 C  
HETATM   13  H   UNK A   1      -7.383   8.001  68.097  1.00  0.00     0.000 HD 
HETATM   14  H   UNK A   1     -11.522   8.625  66.610  1.00  0.00     0.000 HD 
HETATM   15  O   UNK A   1     -10.165  10.227  65.455  1.00  0.00    -0.297 OA 
HETATM   16  H   UNK A   1      -9.918   9.506  64.887  1.00  0.00     0.000 HD 
ENDBRANCH   3   4
TORSDOF 1
ENDMDL
MODEL      125
REMARK 921   NORMALIZED FREE ENERGY PREDICTED BY IDOCK:   -2.84 KCAL/MOL
REMARK 922        TOTAL FREE ENERGY PREDICTED BY IDOCK:   -3.27 KCAL/MOL
REMARK 923 INTER-LIGAND FREE ENERGY PREDICTED BY IDOCK:   -3.08 KCAL/MOL
REMARK 924 INTRA-LIGAND FREE ENERGY PREDICTED BY IDOCK:   -0.19 KCAL/MOL
REMARK 927      BINDING AFFINITY PREDICTED BY RF-SCORE:    0.00 PKD
ROOT
HETATM    1  O   UNK A   1     -10.973   5.282  66.182  1.00  0.00    -0.687 OA 
HETATM    2  H   UNK A   1     -11.774   5.094  65.707  1.00  0.00     0.000 HD 
HETATM    3  C   UNK A   1     -11.115   6.468  66.966  1.00  0.00    -0.339 C  
ENDROOT
BRANCH   3   4
HETATM    4  C   UNK A   1      -9.809   6.776  67.742  1.00  0.00    -0.126 C  
HETATM    5  N   UNK A   1      -9.482   8.219  67.749  1.00  0.00    -0.147 NA 
HETATM    6  C   UNK A   0     -10.350   8.973  68.667  1.00  0.00    -0.209 C  
HETATM    7  H   UNK A   1      -9.510   8.610  66.807  1.00  0.00     0.000 HD 
HETATM    8  C   UNK A   1     -10.301   8.447  70.116  1.00  0.00    -0.211 C  
HETATM    9  C   UNK A   1     -10.617   6.951  70.173  1.00  0.00    -0.220 C  
HETATM   10  O   UNK A   1      -9.015   8.680  70.705  1.00  0.00    -0.147 OA 
HETATM   11  O   UNK A   1     -12.006   6.715  69.893  1.00  0.00    -0.652 OA 
HETATM   12  C   UNK A   1      -9.748   6.168  69.177  1.00  0.00    -0.139 C  
HETATM   13  H   UNK A   1      -8.985   8.356  71.597  1.00  0.00     0.000 HD 
HETATM   14  H   UNK A   1     -12.202   5.786  69.928  1.00  0.00     0.000 HD 
HETATM   15  O   UNK A   1     -10.139   4.787  69.229  1.00  0.00    -0.205 OA 
HETATM   16  H   UNK A   1     -10.102   4.416  70.103  1.00  0.00     0.000 HD 
ENDBRANCH   3   4
TORSDOF 1
ENDMDL
MODEL      126
REMARK 921   NORMALIZED FREE ENERGY PREDICTED BY IDOCK:   -2.82 KCAL/MOL
REMARK 922        TOTAL FREE ENERGY PREDICTED BY IDOCK:   -3.25 KCAL/MOL
REMARK 923 INTER-LIGAND FREE ENERGY PREDICTED BY IDOCK:   -3.20 KCAL/MOL
REMARK 924 INTRA-LIGAND FREE ENERGY PREDICTED BY IDOCK:   -0.05 KCAL/MOL
REMARK 927      BINDING AFFINITY PREDICTED BY RF-SCORE:    0.00 PKD
ROOT
HETATM    1  O   UNK A   1      -6.158  17.618  68.645  1.00  0.00    -0.170 OA 
HETATM    2  H   UNK A   1      -5.615  18.205  69.158  1.00  0.00     0.000 HD 
HETATM    3  C   UNK A   1      -7.332  18.287  68.181  1.00  0.00    -0.260 C  
ENDROOT
BRANCH   3   4
HETATM    4  C   UNK A   1      -8.218  17.329  67.344  1.00  0.00    -0.191 C  
HETATM    5  N   UNK A   1      -8.370  16.001  67.979  1.00  0.00    -0.160 NA 
HETATM    6  C   UNK A   0      -9.287  16.044  69.127  1.00  0.00    -0.251 C  
HETATM    7  H   UNK A   1      -7.465  15.610  68.241  1.00  0.00     0.000 HD 
HETATM    8  C   UNK A   1     -10.686  16.583  68.766  1.00  0.00    -0.339 C  
HETATM    9  C   UNK A   1     -10.594  17.953  68.091  1.00  0.00    -0.340 C  
HETATM   10  O   UNK A   1     -11.379  15.676  67.899  1.00  0.00    -0.344 OA 
HETATM   11  O   UNK A   1     -10.201  18.959  69.037  1.00  0.00    -0.508 OA 
HETATM   12  C   UNK A   1      -9.597  17.923  66.922  1.00  0.00    -0.300 C  
HETATM   13  H   UNK A   1     -12.240  16.008  67.676  1.00  0.00     0.000 HD 
HETATM   14  H   UNK A   1     -10.144  19.810  68.618  1.00  0.00     0.000 HD 
HETATM   15  O   UNK A   1      -9.504  19.248  66.377  1.00  0.00    -0.339 OA 
HETATM   16  H   UNK A   1     -10.345  19.611  66.120  1.00  0.00     0.000 HD 
ENDBRANCH   3   4
TORSDOF 1
ENDMDL
MODEL      127
REMARK 921   NORMALIZED FREE ENERGY PREDICTED BY IDOCK:   -2.77 KCAL/MOL
REMARK 922        TOTAL FREE ENERGY PREDICTED BY IDOCK:   -3.19 KCAL/MOL
REMARK 923 INTER-LIGAND FREE ENERGY PREDICTED BY IDOCK:   -2.97 KCAL/MOL
REMARK 924 INTRA-LIGAND FREE ENERGY PREDICTED BY IDOCK:   -0.22 KCAL/MOL
REMARK 927      BINDING AFFINITY PREDICTED BY RF-SCORE:    0.00 PKD
ROOT
HETATM    1  O   UNK A   1     -11.183   5.684  66.205  1.00  0.00    -0.763 OA 
HETATM    2  H   UNK A   1     -10.784   5.323  65.421  1.00  0.00     0.000 HD 
HETATM    3  C   UNK A   1     -10.305   5.559  67.325  1.00  0.00    -0.236 C  
ENDROOT
BRANCH   3   4
HETATM    4  C   UNK A   1     -10.956   6.147  68.603  1.00  0.00    -0.336 C  
HETATM    5  N   UNK A   1     -10.601   5.383  69.820  1.00  0.00    -0.313 NA 
HETATM    6  C   UNK A   0      -9.221   5.649  70.252  1.00  0.00    -0.151 C  
HETATM    7  H   UNK A   1     -10.763   4.384  69.691  1.00  0.00     0.000 HD 
HETATM    8  C   UNK A   1      -8.943   7.144  70.507  1.00  0.00    -0.155 C  
HETATM    9  C   UNK A   1      -9.304   7.991  69.285  1.00  0.00    -0.151 C  
HETATM   10  O   UNK A   1      -9.678   7.618  71.643  1.00  0.00    -0.160 OA 
HETATM   11  O   UNK A   1      -8.370   7.766  68.218  1.00  0.00    -0.123 OA 
HETATM   12  C   UNK A   1     -10.728   7.677  68.801  1.00  0.00    -0.077 C  
HETATM   13  H   UNK A   1      -9.507   8.538  71.800  1.00  0.00     0.000 HD 
HETATM   14  H   UNK A   1      -8.594   8.292  67.459  1.00  0.00     0.000 HD 
HETATM   15  O   UNK A   1     -10.981   8.449  67.617  1.00  0.00    -0.501 OA 
HETATM   16  H   UNK A   1     -10.843   9.382  67.738  1.00  0.00     0.000 HD 
ENDBRANCH   3   4
TORSDOF 1
ENDMDL
MODEL      128
REMARK 921   NORMALIZED FREE ENERGY PREDICTED BY IDOCK:   -2.77 KCAL/MOL
REMARK 922        TOTAL FREE ENERGY PREDICTED BY IDOCK:   -3.19 KCAL/MOL
REMARK 923 INTER-LIGAND FREE ENERGY PREDICTED BY IDOCK:   -3.19 KCAL/MOL
REMARK 924 INTRA-LIGAND FREE ENERGY PREDICTED BY IDOCK:   -0.00 KCAL/MOL
REMARK 927      BINDING AFFINITY PREDICTED BY RF-SCORE:    0.00 PKD
ROOT
HETATM    1  O   UNK A   1      -7.893  16.354  69.310  1.00  0.00    -0.238 OA 
HETATM    2  H   UNK A   1      -8.009  15.418  69.198  1.00  0.00     0.000 HD 
HETATM    3  C   UNK A   1      -8.654  17.080  68.343  1.00  0.00    -0.243 C  
ENDROOT
BRANCH   3   4
HETATM    4  C   UNK A   1      -8.466  18.608  68.526  1.00  0.00    -0.338 C  
HETATM    5  N   UNK A   1      -7.104  18.957  68.988  1.00  0.00    -0.315 NA 
HETATM    6  C   UNK A   0      -6.112  18.841  67.909  1.00  0.00    -0.191 C  
HETATM    7  H   UNK A   1      -6.834  18.403  69.801  1.00  0.00     0.000 HD 
HETATM    8  C   UNK A   1      -6.453  19.702  66.676  1.00  0.00    -0.188 C  
HETATM    9  C   UNK A   1      -7.860  19.395  66.159  1.00  0.00    -0.307 C  
HETATM   10  O   UNK A   1      -6.358  21.099  66.982  1.00  0.00    -0.280 OA 
HETATM   11  O   UNK A   1      -7.903  18.097  65.546  1.00  0.00    -0.448 OA 
HETATM   12  C   UNK A   1      -8.891  19.466  67.296  1.00  0.00    -0.296 C  
HETATM   13  H   UNK A   1      -6.569  21.630  66.223  1.00  0.00     0.000 HD 
HETATM   14  H   UNK A   1      -8.777  17.906  65.226  1.00  0.00     0.000 HD 
HETATM   15  O   UNK A   1     -10.174  19.102  66.763  1.00  0.00    -0.343 OA 
HETATM   16  H   UNK A   1     -10.434  19.625  66.013  1.00  0.00     0.000 HD 
ENDBRANCH   3   4
TORSDOF 1
ENDMDL
MODEL      129
REMARK 921   NORMALIZED FREE ENERGY PREDICTED BY IDOCK:   -2.77 KCAL/MOL
REMARK 922        TOTAL FREE ENERGY PREDICTED BY IDOCK:   -3.19 KCAL/MOL
REMARK 923 INTER-LIGAND FREE ENERGY PREDICTED BY IDOCK:   -2.94 KCAL/MOL
REMARK 924 INTRA-LIGAND FREE ENERGY PREDICTED BY IDOCK:   -0.25 KCAL/MOL
REMARK 927      BINDING AFFINITY PREDICTED BY RF-SCORE:    0.00 PKD
ROOT
HETATM    1  O   UNK A   1      -8.963  14.577  69.266  1.00  0.00    -0.384 OA 
HETATM    2  H   UNK A   1      -8.258  14.960  69.775  1.00  0.00     0.000 HD 
HETATM    3  C   UNK A   1      -8.445  13.794  68.190  1.00  0.00    -0.173 C  
ENDROOT
BRANCH   3   4
HETATM    4  C   UNK A   1      -9.596  13.169  67.360  1.00  0.00    -0.219 C  
HETATM    5  N   UNK A   1      -9.116  12.563  66.097  1.00  0.00    -0.428 NA 
HETATM    6  C   UNK A   0      -8.426  11.285  66.330  1.00  0.00    -0.156 C  
HETATM    7  H   UNK A   1      -8.528  13.212  65.574  1.00  0.00     0.000 HD 
HETATM    8  C   UNK A   1      -9.296  10.253  67.076  1.00  0.00    -0.154 C  
HETATM    9  C   UNK A   1      -9.834  10.828  68.387  1.00  0.00    -0.169 C  
HETATM   10  O   UNK A   1     -10.396   9.823  66.263  1.00  0.00    -0.235 OA 
HETATM   11  O   UNK A   1      -8.778  10.971  69.350  1.00  0.00    -0.379 OA 
HETATM   12  C   UNK A   1     -10.511  12.188  68.154  1.00  0.00    -0.211 C  
HETATM   13  H   UNK A   1     -10.931   9.188  66.722  1.00  0.00     0.000 HD 
HETATM   14  H   UNK A   1      -9.113  11.329  70.164  1.00  0.00     0.000 HD 
HETATM   15  O   UNK A   1     -10.932  12.704  69.426  1.00  0.00    -0.428 OA 
HETATM   16  H   UNK A   1     -11.490  12.107  69.911  1.00  0.00     0.000 HD 
ENDBRANCH   3   4
TORSDOF 1
ENDMDL
MODEL      130
REMARK 921   NORMALIZED FREE ENERGY PREDICTED BY IDOCK:   -2.76 KCAL/MOL
REMARK 922        TOTAL FREE ENERGY PREDICTED BY IDOCK:   -3.18 KCAL/MOL
REMARK 923 INTER-LIGAND FREE ENERGY PREDICTED BY IDOCK:   -3.57 KCAL/MOL
REMARK 924 INTRA-LIGAND FREE ENERGY PREDICTED BY IDOCK:    0.39 KCAL/MOL
REMARK 927      BINDING AFFINITY PREDICTED BY RF-SCORE:    0.00 PKD
ROOT
HETATM    1  O   UNK A   1      -9.981  20.648  67.441  1.00  0.00    -0.438 OA 
HETATM    2  H   UNK A   1     -10.902  20.866  67.515  1.00  0.00     0.000 HD 
HETATM    3  C   UNK A   1      -9.690  20.097  66.156  1.00  0.00    -0.366 C  
ENDROOT
BRANCH   3   4
HETATM    4  C   UNK A   1      -8.186  19.742  66.036  1.00  0.00    -0.311 C  
HETATM    5  N   UNK A   1      -7.317  20.728  66.718  1.00  0.00    -0.503 NA 
HETATM    6  C   UNK A   0      -7.361  20.578  68.180  1.00  0.00    -0.103 C  
HETATM    7  H   UNK A   1      -7.545  21.681  66.436  1.00  0.00     0.000 HD 
HETATM    8  C   UNK A   1      -6.974  19.163  68.656  1.00  0.00    -0.301 C  
HETATM    9  C   UNK A   1      -7.831  18.095  67.973  1.00  0.00    -0.261 C  
HETATM   10  O   UNK A   1      -5.590  18.893  68.397  1.00  0.00    -0.192 OA 
HETATM   11  O   UNK A   1      -9.181  18.138  68.463  1.00  0.00    -0.306 OA 
HETATM   12  C   UNK A   1      -7.828  18.282  66.448  1.00  0.00    -0.260 C  
HETATM   13  H   UNK A   1      -5.352  18.021  68.690  1.00  0.00     0.000 HD 
HETATM   14  H   UNK A   1      -9.713  17.475  68.039  1.00  0.00     0.000 HD 
HETATM   15  O   UNK A   1      -8.701  17.297  65.873  1.00  0.00    -0.528 OA 
HETATM   16  H   UNK A   1      -8.483  16.406  66.124  1.00  0.00     0.000 HD 
ENDBRANCH   3   4
TORSDOF 1
ENDMDL
MODEL      131
REMARK 921   NORMALIZED FREE ENERGY PREDICTED BY IDOCK:   -2.74 KCAL/MOL
REMARK 922        TOTAL FREE ENERGY PREDICTED BY IDOCK:   -3.16 KCAL/MOL
REMARK 923 INTER-LIGAND FREE ENERGY PREDICTED BY IDOCK:   -2.90 KCAL/MOL
REMARK 924 INTRA-LIGAND FREE ENERGY PREDICTED BY IDOCK:   -0.27 KCAL/MOL
REMARK 927      BINDING AFFINITY PREDICTED BY RF-SCORE:    0.00 PKD
ROOT
HETATM    1  O   UNK A   1      -9.304   8.966  64.934  1.00  0.00    -0.437 OA 
HETATM    2  H   UNK A   1      -9.773   9.527  64.328  1.00  0.00     0.000 HD 
HETATM    3  C   UNK A   1      -9.892   9.020  66.235  1.00  0.00    -0.291 C  
ENDROOT
BRANCH   3   4
HETATM    4  C   UNK A   1      -9.127   8.103  67.224  1.00  0.00    -0.138 C  
HETATM    5  N   UNK A   1      -9.352   8.484  68.637  1.00  0.00    -0.142 NA 
HETATM    6  C   UNK A   0     -10.687   8.085  69.107  1.00  0.00    -0.106 C  
HETATM    7  H   UNK A   1      -9.191   9.482  68.782  1.00  0.00     0.000 HD 
HETATM    8  C   UNK A   1     -10.957   6.574  68.953  1.00  0.00    -0.314 C  
HETATM    9  C   UNK A   1     -10.727   6.115  67.511  1.00  0.00    -0.313 C  
HETATM   10  O   UNK A   1     -10.120   5.810  69.830  1.00  0.00    -0.178 OA 
HETATM   11  O   UNK A   1     -11.758   6.618  66.648  1.00  0.00    -0.492 OA 
HETATM   12  C   UNK A   1      -9.353   6.576  67.001  1.00  0.00    -0.139 C  
HETATM   13  H   UNK A   1     -10.286   4.880  69.735  1.00  0.00     0.000 HD 
HETATM   14  H   UNK A   1     -11.615   6.333  65.753  1.00  0.00     0.000 HD 
HETATM   15  O   UNK A   1      -9.226   6.176  65.627  1.00  0.00    -0.347 OA 
HETATM   16  H   UNK A   1      -9.364   5.245  65.491  1.00  0.00     0.000 HD 
ENDBRANCH   3   4
TORSDOF 1
ENDMDL
MODEL      132
REMARK 921   NORMALIZED FREE ENERGY PREDICTED BY IDOCK:   -2.72 KCAL/MOL
REMARK 922        TOTAL FREE ENERGY PREDICTED BY IDOCK:   -3.14 KCAL/MOL
REMARK 923 INTER-LIGAND FREE ENERGY PREDICTED BY IDOCK:   -3.11 KCAL/MOL
REMARK 924 INTRA-LIGAND FREE ENERGY PREDICTED BY IDOCK:   -0.03 KCAL/MOL
REMARK 927      BINDING AFFINITY PREDICTED BY RF-SCORE:    0.00 PKD
ROOT
HETATM    1  O   UNK A   1      -7.171  13.372  68.692  1.00  0.00    -0.101 OA 
HETATM    2  H   UNK A   1      -6.273  13.490  68.405  1.00  0.00     0.000 HD 
HETATM    3  C   UNK A   1      -8.062  13.349  67.576  1.00  0.00    -0.181 C  
ENDROOT
BRANCH   3   4
HETATM    4  C   UNK A   1      -9.527  13.156  68.045  1.00  0.00    -0.220 C  
HETATM    5  N   UNK A   1     -10.193  14.439  68.360  1.00  0.00    -0.236 NA 
HETATM    6  C   UNK A   0     -10.551  15.185  67.144  1.00  0.00    -0.295 C  
HETATM    7  H   UNK A   1      -9.625  15.007  68.990  1.00  0.00     0.000 HD 
HETATM    8  C   UNK A   1     -11.453  14.382  66.184  1.00  0.00    -0.357 C  
HETATM    9  C   UNK A   1     -10.822  13.034  65.830  1.00  0.00    -0.272 C  
HETATM   10  O   UNK A   1     -12.747  14.161  66.758  1.00  0.00    -0.510 OA 
HETATM   11  O   UNK A   1      -9.684  13.215  64.974  1.00  0.00    -0.527 OA 
HETATM   12  C   UNK A   1     -10.400  12.276  67.098  1.00  0.00    -0.218 C  
HETATM   13  H   UNK A   1     -13.302  13.667  66.167  1.00  0.00     0.000 HD 
HETATM   14  H   UNK A   1      -9.292  12.378  64.754  1.00  0.00     0.000 HD 
HETATM   15  O   UNK A   1      -9.756  11.056  66.699  1.00  0.00    -0.188 OA 
HETATM   16  H   UNK A   1     -10.288  10.519  66.122  1.00  0.00     0.000 HD 
ENDBRANCH   3   4
TORSDOF 1
ENDMDL
MODEL      133
REMARK 921   NORMALIZED FREE ENERGY PREDICTED BY IDOCK:   -2.68 KCAL/MOL
REMARK 922        TOTAL FREE ENERGY PREDICTED BY IDOCK:   -3.10 KCAL/MOL
REMARK 923 INTER-LIGAND FREE ENERGY PREDICTED BY IDOCK:   -2.84 KCAL/MOL
REMARK 924 INTRA-LIGAND FREE ENERGY PREDICTED BY IDOCK:   -0.26 KCAL/MOL
REMARK 927      BINDING AFFINITY PREDICTED BY RF-SCORE:    0.00 PKD
ROOT
HETATM    1  O   UNK A   1      -7.602   8.282  66.508  1.00  0.00    -0.089 OA 
HETATM    2  H   UNK A   1      -6.667   8.440  66.454  1.00  0.00     0.000 HD 
HETATM    3  C   UNK A   1      -8.145   8.850  67.701  1.00  0.00    -0.106 C  
ENDROOT
BRANCH   3   4
HETATM    4  C   UNK A   1      -9.672   8.594  67.788  1.00  0.00    -0.165 C  
HETATM    5  N   UNK A   1     -10.171   8.625  69.181  1.00  0.00    -0.204 NA 
HETATM    6  C   UNK A   0     -10.247   9.996  69.706  1.00  0.00    -0.250 C  
HETATM    7  H   UNK A   1      -9.612   8.026  69.789  1.00  0.00     0.000 HD 
HETATM    8  C   UNK A   1     -11.125  10.927  68.844  1.00  0.00    -0.252 C  
HETATM    9  C   UNK A   1     -10.665  10.927  67.385  1.00  0.00    -0.257 C  
HETATM   10  O   UNK A   1     -12.503  10.536  68.904  1.00  0.00    -0.776 OA 
HETATM   11  O   UNK A   1      -9.409  11.610  67.248  1.00  0.00    -0.166 OA 
HETATM   12  C   UNK A   1     -10.535   9.492  66.851  1.00  0.00    -0.208 C  
HETATM   13  H   UNK A   1     -13.043  11.109  68.374  1.00  0.00     0.000 HD 
HETATM   14  H   UNK A   1      -9.124  11.609  66.342  1.00  0.00     0.000 HD 
HETATM   15  O   UNK A   1     -10.037   9.557  65.505  1.00  0.00    -0.366 OA 
HETATM   16  H   UNK A   1     -10.563  10.105  64.933  1.00  0.00     0.000 HD 
ENDBRANCH   3   4
TORSDOF 1
ENDMDL
MODEL      134
REMARK 921   NORMALIZED FREE ENERGY PREDICTED BY IDOCK:   -2.66 KCAL/MOL
REMARK 922        TOTAL FREE ENERGY PREDICTED BY IDOCK:   -3.08 KCAL/MOL
REMARK 923 INTER-LIGAND FREE ENERGY PREDICTED BY IDOCK:   -2.88 KCAL/MOL
REMARK 924 INTRA-LIGAND FREE ENERGY PREDICTED BY IDOCK:   -0.20 KCAL/MOL
REMARK 927      BINDING AFFINITY PREDICTED BY RF-SCORE:    0.00 PKD
ROOT
HETATM    1  O   UNK A   1     -12.227  10.452  69.007  1.00  0.00    -0.701 OA 
HETATM    2  H   UNK A   1     -12.188  11.395  68.903  1.00  0.00     0.000 HD 
HETATM    3  C   UNK A   1     -11.524  10.041  70.181  1.00  0.00    -0.277 C  
ENDROOT
BRANCH   3   4
HETATM    4  C   UNK A   1     -11.587   8.502  70.352  1.00  0.00    -0.069 C  
HETATM    5  N   UNK A   1     -10.312   7.936  70.848  1.00  0.00    -0.200 NA 
HETATM    6  C   UNK A   0     -10.111   8.209  72.278  1.00  0.00    -0.269 C  
HETATM    7  H   UNK A   1      -9.521   8.262  70.292  1.00  0.00     0.000 HD 
HETATM    8  C   UNK A   1     -11.262   7.688  73.163  1.00  0.00    -0.256 C  
HETATM    9  C   UNK A   1     -12.612   8.229  72.690  1.00  0.00    -0.123 C  
HETATM   10  O   UNK A   1     -11.302   6.255  73.163  1.00  0.00    -0.453 OA 
HETATM   11  O   UNK A   1     -12.725   9.632  72.976  1.00  0.00     0.030 OA 
HETATM   12  C   UNK A   1     -12.802   7.990  71.184  1.00  0.00    -0.103 C  
HETATM   13  H   UNK A   1     -12.011   5.934  73.708  1.00  0.00     0.000 HD 
HETATM   14  H   UNK A   1     -13.564   9.968  72.681  1.00  0.00     0.000 HD 
HETATM   15  O   UNK A   1     -14.052   8.579  70.790  1.00  0.00    -0.457 OA 
HETATM   16  H   UNK A   1     -14.793   8.267  71.297  1.00  0.00     0.000 HD 
ENDBRANCH   3   4
TORSDOF 1
ENDMDL
MODEL      135
REMARK 921   NORMALIZED FREE ENERGY PREDICTED BY IDOCK:   -2.65 KCAL/MOL
REMARK 922        TOTAL FREE ENERGY PREDICTED BY IDOCK:   -3.07 KCAL/MOL
REMARK 923 INTER-LIGAND FREE ENERGY PREDICTED BY IDOCK:   -3.02 KCAL/MOL
REMARK 924 INTRA-LIGAND FREE ENERGY PREDICTED BY IDOCK:   -0.05 KCAL/MOL
REMARK 927      BINDING AFFINITY PREDICTED BY RF-SCORE:    0.00 PKD
ROOT
HETATM    1  O   UNK A   1      -6.900  10.196  65.214  1.00  0.00    -0.125 OA 
HETATM    2  H   UNK A   1      -6.027   9.876  65.404  1.00  0.00     0.000 HD 
HETATM    3  C   UNK A   1      -7.730  10.132  66.375  1.00  0.00    -0.111 C  
ENDROOT
BRANCH   3   4
HETATM    4  C   UNK A   1      -9.155  10.655  66.064  1.00  0.00    -0.180 C  
HETATM    5  N   UNK A   1     -10.189   9.607  66.222  1.00  0.00    -0.246 NA 
HETATM    6  C   UNK A   0     -10.469   9.323  67.637  1.00  0.00    -0.264 C  
HETATM    7  H   UNK A   1      -9.936   8.758  65.716  1.00  0.00     0.000 HD 
HETATM    8  C   UNK A   1     -10.904  10.571  68.432  1.00  0.00    -0.240 C  
HETATM    9  C   UNK A   1      -9.879  11.698  68.296  1.00  0.00    -0.199 C  
HETATM   10  O   UNK A   1     -12.184  11.042  67.991  1.00  0.00    -0.703 OA 
HETATM   11  O   UNK A   1      -8.677  11.381  69.014  1.00  0.00    -0.357 OA 
HETATM   12  C   UNK A   1      -9.546  11.962  66.819  1.00  0.00    -0.204 C  
HETATM   13  H   UNK A   1     -12.452  11.810  68.480  1.00  0.00     0.000 HD 
HETATM   14  H   UNK A   1      -8.040  12.081  68.929  1.00  0.00     0.000 HD 
HETATM   15  O   UNK A   1      -8.533  12.979  66.762  1.00  0.00    -0.392 OA 
HETATM   16  H   UNK A   1      -8.771  13.776  67.222  1.00  0.00     0.000 HD 
ENDBRANCH   3   4
TORSDOF 1
ENDMDL
MODEL      136
REMARK 921   NORMALIZED FREE ENERGY PREDICTED BY IDOCK:   -2.64 KCAL/MOL
REMARK 922        TOTAL FREE ENERGY PREDICTED BY IDOCK:   -3.06 KCAL/MOL
REMARK 923 INTER-LIGAND FREE ENERGY PREDICTED BY IDOCK:   -2.79 KCAL/MOL
REMARK 924 INTRA-LIGAND FREE ENERGY PREDICTED BY IDOCK:   -0.26 KCAL/MOL
REMARK 927      BINDING AFFINITY PREDICTED BY RF-SCORE:    0.00 PKD
ROOT
HETATM    1  O   UNK A   1     -11.653   4.703  65.187  1.00  0.00    -1.107 OA 
HETATM    2  H   UNK A   1     -12.478   4.926  65.603  1.00  0.00     0.000 HD 
HETATM    3  C   UNK A   1     -10.552   5.025  66.038  1.00  0.00    -0.232 C  
ENDROOT
BRANCH   3   4
HETATM    4  C   UNK A   1      -9.206   4.660  65.360  1.00  0.00    -0.155 C  
HETATM    5  N   UNK A   1      -8.052   5.333  65.997  1.00  0.00    -0.108 NA 
HETATM    6  C   UNK A   0      -7.707   4.723  67.290  1.00  0.00    -0.091 C  
HETATM    7  H   UNK A   1      -8.214   6.336  66.092  1.00  0.00     0.000 HD 
HETATM    8  C   UNK A   1      -7.406   3.214  67.187  1.00  0.00    -0.062 C  
HETATM    9  C   UNK A   1      -8.561   2.463  66.522  1.00  0.00    -0.114 C  
HETATM   10  O   UNK A   1      -6.202   2.979  66.446  1.00  0.00    -0.024 OA 
HETATM   11  O   UNK A   1      -9.700   2.407  67.395  1.00  0.00    -0.404 OA 
HETATM   12  C   UNK A   1      -8.957   3.130  65.195  1.00  0.00    -0.142 C  
HETATM   13  H   UNK A   1      -6.016   2.050  66.383  1.00  0.00     0.000 HD 
HETATM   14  H   UNK A   1     -10.417   1.941  66.981  1.00  0.00     0.000 HD 
HETATM   15  O   UNK A   1     -10.085   2.423  64.656  1.00  0.00    -0.354 OA 
HETATM   16  H   UNK A   1      -9.934   1.490  64.556  1.00  0.00     0.000 HD 
ENDBRANCH   3   4
TORSDOF 1
ENDMDL
MODEL      137
REMARK 921   NORMALIZED FREE ENERGY PREDICTED BY IDOCK:   -2.59 KCAL/MOL
REMARK 922        TOTAL FREE ENERGY PREDICTED BY IDOCK:   -3.00 KCAL/MOL
REMARK 923 INTER-LIGAND FREE ENERGY PREDICTED BY IDOCK:   -2.95 KCAL/MOL
REMARK 924 INTRA-LIGAND FREE ENERGY PREDICTED BY IDOCK:   -0.05 KCAL/MOL
REMARK 927      BINDING AFFINITY PREDICTED BY RF-SCORE:    0.00 PKD
ROOT
HETATM    1  O   UNK A   1      -9.234  13.908  66.067  1.00  0.00    -0.494 OA 
HETATM    2  H   UNK A   1      -9.715  14.509  65.511  1.00  0.00     0.000 HD 
HETATM    3  C   UNK A   1      -9.901  12.648  66.149  1.00  0.00    -0.259 C  
ENDROOT
BRANCH   3   4
HETATM    4  C   UNK A   1      -9.115  11.666  67.056  1.00  0.00    -0.179 C  
HETATM    5  N   UNK A   1      -9.949  11.118  68.150  1.00  0.00    -0.172 NA 
HETATM    6  C   UNK A   0     -10.895  10.103  67.662  1.00  0.00    -0.290 C  
HETATM    7  H   UNK A   1     -10.430  11.861  68.657  1.00  0.00     0.000 HD 
HETATM    8  C   UNK A   1     -10.205   8.933  66.930  1.00  0.00    -0.276 C  
HETATM    9  C   UNK A   1      -9.315   9.440  65.793  1.00  0.00    -0.239 C  
HETATM   10  O   UNK A   1      -9.414   8.154  67.837  1.00  0.00    -0.143 OA 
HETATM   11  O   UNK A   1     -10.113   9.944  64.711  1.00  0.00    -0.386 OA 
HETATM   12  C   UNK A   1      -8.361  10.537  66.290  1.00  0.00    -0.152 C  
HETATM   13  H   UNK A   1      -8.990   7.434  67.386  1.00  0.00     0.000 HD 
HETATM   14  H   UNK A   1      -9.560  10.259  64.005  1.00  0.00     0.000 HD 
HETATM   15  O   UNK A   1      -7.605  11.016  65.167  1.00  0.00    -0.354 OA 
HETATM   16  H   UNK A   1      -7.145  10.328  64.700  1.00  0.00     0.000 HD 
ENDBRANCH   3   4
TORSDOF 1
ENDMDL
MODEL      138
REMARK 921   NORMALIZED FREE ENERGY PREDICTED BY IDOCK:   -2.58 KCAL/MOL
REMARK 922        TOTAL FREE ENERGY PREDICTED BY IDOCK:   -2.99 KCAL/MOL
REMARK 923 INTER-LIGAND FREE ENERGY PREDICTED BY IDOCK:   -2.96 KCAL/MOL
REMARK 924 INTRA-LIGAND FREE ENERGY PREDICTED BY IDOCK:   -0.04 KCAL/MOL
REMARK 927      BINDING AFFINITY PREDICTED BY RF-SCORE:    0.00 PKD
ROOT
HETATM    1  O   UNK A   1      -9.630   9.317  66.315  1.00  0.00    -0.205 OA 
HETATM    2  H   UNK A   1     -10.256   8.662  66.600  1.00  0.00     0.000 HD 
HETATM    3  C   UNK A   1      -9.810  10.538  67.034  1.00  0.00    -0.183 C  
ENDROOT
BRANCH   3   4
HETATM    4  C   UNK A   1      -8.788  11.607  66.571  1.00  0.00    -0.188 C  
HETATM    5  N   UNK A   1      -9.215  12.300  65.335  1.00  0.00    -0.420 NA 
HETATM    6  C   UNK A   0     -10.294  13.265  65.592  1.00  0.00    -0.287 C  
HETATM    7  H   UNK A   1      -9.479  11.633  64.609  1.00  0.00     0.000 HD 
HETATM    8  C   UNK A   1      -9.919  14.325  66.649  1.00  0.00    -0.275 C  
HETATM    9  C   UNK A   1      -9.454  13.668  67.950  1.00  0.00    -0.213 C  
HETATM   10  O   UNK A   1      -8.887  15.193  66.164  1.00  0.00    -0.449 OA 
HETATM   11  O   UNK A   1     -10.559  13.051  68.630  1.00  0.00    -0.249 OA 
HETATM   12  C   UNK A   1      -8.364  12.621  67.677  1.00  0.00    -0.174 C  
HETATM   13  H   UNK A   1      -8.657  15.845  66.814  1.00  0.00     0.000 HD 
HETATM   14  H   UNK A   1     -10.270  12.643  69.438  1.00  0.00     0.000 HD 
HETATM   15  O   UNK A   1      -8.020  11.995  68.924  1.00  0.00    -0.316 OA 
HETATM   16  H   UNK A   1      -7.761  12.613  69.598  1.00  0.00     0.000 HD 
ENDBRANCH   3   4
TORSDOF 1
ENDMDL
MODEL      139
REMARK 921   NORMALIZED FREE ENERGY PREDICTED BY IDOCK:   -2.56 KCAL/MOL
REMARK 922        TOTAL FREE ENERGY PREDICTED BY IDOCK:   -2.97 KCAL/MOL
REMARK 923 INTER-LIGAND FREE ENERGY PREDICTED BY IDOCK:   -2.71 KCAL/MOL
REMARK 924 INTRA-LIGAND FREE ENERGY PREDICTED BY IDOCK:   -0.26 KCAL/MOL
REMARK 927      BINDING AFFINITY PREDICTED BY RF-SCORE:    0.00 PKD
ROOT
HETATM    1  O   UNK A   1      -7.853   7.215  67.971  1.00  0.00    -0.114 OA 
HETATM    2  H   UNK A   1      -6.921   7.064  67.867  1.00  0.00     0.000 HD 
HETATM    3  C   UNK A   1      -8.121   8.596  68.216  1.00  0.00    -0.118 C  
ENDROOT
BRANCH   3   4
HETATM    4  C   UNK A   1      -9.642   8.842  68.385  1.00  0.00    -0.147 C  
HETATM    5  N   UNK A   1      -9.934  10.057  69.177  1.00  0.00    -0.192 NA 
HETATM    6  C   UNK A   0      -9.697  11.286  68.405  1.00  0.00    -0.194 C  
HETATM    7  H   UNK A   1      -9.411  10.063  70.054  1.00  0.00     0.000 HD 
HETATM    8  C   UNK A   1     -10.507  11.344  67.094  1.00  0.00    -0.224 C  
HETATM    9  C   UNK A   1     -10.257  10.103  66.234  1.00  0.00    -0.219 C  
HETATM   10  O   UNK A   1     -11.910  11.458  67.361  1.00  0.00    -0.609 OA 
HETATM   11  O   UNK A   1      -8.932  10.126  65.682  1.00  0.00    -0.157 OA 
HETATM   12  C   UNK A   1     -10.454   8.818  67.054  1.00  0.00    -0.268 C  
HETATM   13  H   UNK A   1     -12.409  11.493  66.554  1.00  0.00     0.000 HD 
HETATM   14  H   UNK A   1      -8.777   9.356  65.149  1.00  0.00     0.000 HD 
HETATM   15  O   UNK A   1     -10.140   7.697  66.213  1.00  0.00    -0.468 OA 
HETATM   16  H   UNK A   1     -10.635   7.682  65.402  1.00  0.00     0.000 HD 
ENDBRANCH   3   4
TORSDOF 1
ENDMDL
MODEL      140
REMARK 921   NORMALIZED FREE ENERGY PREDICTED BY IDOCK:   -2.54 KCAL/MOL
REMARK 922        TOTAL FREE ENERGY PREDICTED BY IDOCK:   -2.95 KCAL/MOL
REMARK 923 INTER-LIGAND FREE ENERGY PREDICTED BY IDOCK:   -2.71 KCAL/MOL
REMARK 924 INTRA-LIGAND FREE ENERGY PREDICTED BY IDOCK:   -0.25 KCAL/MOL
REMARK 927      BINDING AFFINITY PREDICTED BY RF-SCORE:    0.00 PKD
ROOT
HETATM    1  O   UNK A   1      -8.191  14.418  69.586  1.00  0.00    -0.359 OA 
HETATM    2  H   UNK A   1      -7.782  14.297  70.434  1.00  0.00     0.000 HD 
HETATM    3  C   UNK A   1      -8.507  13.160  68.989  1.00  0.00     0.433 C  
ENDROOT
BRANCH   3   4
HETATM    4  C   UNK A   1      -9.176  13.358  67.604  1.00  0.00    -0.212 C  
HETATM    5  N   UNK A   1      -9.328  12.086  66.863  1.00  0.00    -0.194 NA 
HETATM    6  C   UNK A   0     -10.417  11.261  67.407  1.00  0.00    -0.212 C  
HETATM    7  H   UNK A   1      -8.450  11.568  66.832  1.00  0.00     0.000 HD 
HETATM    8  C   UNK A   1     -11.777  11.989  67.427  1.00  0.00    -0.281 C  
HETATM    9  C   UNK A   1     -11.680  13.323  68.171  1.00  0.00    -0.362 C  
HETATM   10  O   UNK A   1     -12.254  12.224  66.097  1.00  0.00    -0.647 OA 
HETATM   11  O   UNK A   1     -11.518  13.107  69.581  1.00  0.00    -0.396 OA 
HETATM   12  C   UNK A   1     -10.510  14.164  67.638  1.00  0.00    -0.245 C  
HETATM   13  H   UNK A   1     -13.091  12.672  66.109  1.00  0.00     0.000 HD 
HETATM   14  H   UNK A   1     -11.457  13.935  70.043  1.00  0.00     0.000 HD 
HETATM   15  O   UNK A   1     -10.430  15.368  68.418  1.00  0.00    -0.232 OA 
HETATM   16  H   UNK A   1     -11.244  15.859  68.439  1.00  0.00     0.000 HD 
ENDBRANCH   3   4
TORSDOF 1
ENDMDL
MODEL      141
REMARK 921   NORMALIZED FREE ENERGY PREDICTED BY IDOCK:   -2.54 KCAL/MOL
REMARK 922        TOTAL FREE ENERGY PREDICTED BY IDOCK:   -2.95 KCAL/MOL
REMARK 923 INTER-LIGAND FREE ENERGY PREDICTED BY IDOCK:   -2.82 KCAL/MOL
REMARK 924 INTRA-LIGAND FREE ENERGY PREDICTED BY IDOCK:   -0.13 KCAL/MOL
REMARK 927      BINDING AFFINITY PREDICTED BY RF-SCORE:    0.00 PKD
ROOT
HETATM    1  O   UNK A   1      -6.848   9.618  67.239  1.00  0.00    -0.081 OA 
HETATM    2  H   UNK A   1      -6.182   9.730  66.571  1.00  0.00     0.000 HD 
HETATM    3  C   UNK A   1      -7.468  10.866  67.552  1.00  0.00    -0.097 C  
ENDROOT
BRANCH   3   4
HETATM    4  C   UNK A   1      -8.555  10.683  68.642  1.00  0.00    -0.144 C  
HETATM    5  N   UNK A   1      -9.344  11.915  68.864  1.00  0.00    -0.404 NA 
HETATM    6  C   UNK A   0     -10.303  12.156  67.775  1.00  0.00    -0.206 C  
HETATM    7  H   UNK A   1      -8.738  12.723  69.011  1.00  0.00     0.000 HD 
HETATM    8  C   UNK A   1     -11.274  10.979  67.551  1.00  0.00    -0.302 C  
HETATM    9  C   UNK A   1     -10.514   9.670  67.328  1.00  0.00    -0.258 C  
HETATM   10  O   UNK A   1     -12.162  10.826  68.665  1.00  0.00    -0.813 OA 
HETATM   11  O   UNK A   1      -9.863   9.673  66.049  1.00  0.00    -0.239 OA 
HETATM   12  C   UNK A   1      -9.476   9.442  68.438  1.00  0.00    -0.141 C  
HETATM   13  H   UNK A   1     -12.760  10.101  68.527  1.00  0.00     0.000 HD 
HETATM   14  H   UNK A   1      -9.391   8.860  65.911  1.00  0.00     0.000 HD 
HETATM   15  O   UNK A   1      -8.753   8.238  68.136  1.00  0.00    -0.135 OA 
HETATM   16  H   UNK A   1      -9.315   7.481  68.012  1.00  0.00     0.000 HD 
ENDBRANCH   3   4
TORSDOF 1
ENDMDL
MODEL      142
REMARK 921   NORMALIZED FREE ENERGY PREDICTED BY IDOCK:   -2.53 KCAL/MOL
REMARK 922        TOTAL FREE ENERGY PREDICTED BY IDOCK:   -2.94 KCAL/MOL
REMARK 923 INTER-LIGAND FREE ENERGY PREDICTED BY IDOCK:   -2.89 KCAL/MOL
REMARK 924 INTRA-LIGAND FREE ENERGY PREDICTED BY IDOCK:   -0.05 KCAL/MOL
REMARK 927      BINDING AFFINITY PREDICTED BY RF-SCORE:    0.00 PKD
ROOT
HETATM    1  O   UNK A   1     -11.424   6.626  66.742  1.00  0.00    -0.776 OA 
HETATM    2  H   UNK A   1     -12.220   6.343  67.178  1.00  0.00     0.000 HD 
HETATM    3  C   UNK A   1     -10.650   7.470  67.595  1.00  0.00    -0.233 C  
ENDROOT
BRANCH   3   4
HETATM    4  C   UNK A   1      -9.352   7.930  66.884  1.00  0.00    -0.164 C  
HETATM    5  N   UNK A   1      -9.622   8.593  65.588  1.00  0.00    -0.453 NA 
HETATM    6  C   UNK A   0     -10.152   9.952  65.768  1.00  0.00    -0.247 C  
HETATM    7  H   UNK A   1     -10.239   8.028  65.005  1.00  0.00     0.000 HD 
HETATM    8  C   UNK A   1      -9.225  10.859  66.604  1.00  0.00    -0.168 C  
HETATM    9  C   UNK A   1      -8.898  10.220  67.954  1.00  0.00    -0.122 C  
HETATM   10  O   UNK A   1      -8.005  11.133  65.903  1.00  0.00    -0.313 OA 
HETATM   11  O   UNK A   1     -10.050  10.223  68.811  1.00  0.00    -0.170 OA 
HETATM   12  C   UNK A   1      -8.392   8.780  67.772  1.00  0.00    -0.118 C  
HETATM   13  H   UNK A   1      -7.435  11.691  66.418  1.00  0.00     0.000 HD 
HETATM   14  H   UNK A   1      -9.847   9.826  69.649  1.00  0.00     0.000 HD 
HETATM   15  O   UNK A   1      -8.168   8.214  69.073  1.00  0.00    -0.123 OA 
HETATM   16  H   UNK A   1      -7.583   8.732  69.615  1.00  0.00     0.000 HD 
ENDBRANCH   3   4
TORSDOF 1
ENDMDL
MODEL      143
REMARK 921   NORMALIZED FREE ENERGY PREDICTED BY IDOCK:   -2.53 KCAL/MOL
REMARK 922        TOTAL FREE ENERGY PREDICTED BY IDOCK:   -2.94 KCAL/MOL
REMARK 923 INTER-LIGAND FREE ENERGY PREDICTED BY IDOCK:   -2.75 KCAL/MOL
REMARK 924 INTRA-LIGAND FREE ENERGY PREDICTED BY IDOCK:   -0.19 KCAL/MOL
REMARK 927      BINDING AFFINITY PREDICTED BY RF-SCORE:    0.00 PKD
ROOT
HETATM    1  O   UNK A   1      -9.878   7.179  67.497  1.00  0.00    -0.138 OA 
HETATM    2  H   UNK A   1     -10.463   6.482  67.224  1.00  0.00     0.000 HD 
HETATM    3  C   UNK A   1     -10.535   8.446  67.436  1.00  0.00    -0.283 C  
ENDROOT
BRANCH   3   4
HETATM    4  C   UNK A   1      -9.581   9.584  67.882  1.00  0.00    -0.133 C  
HETATM    5  N   UNK A   1      -9.709  10.792  67.037  1.00  0.00    -0.173 NA 
HETATM    6  C   UNK A   0     -10.939  11.541  67.334  1.00  0.00    -0.265 C  
HETATM    7  H   UNK A   1      -9.647  10.560  66.046  1.00  0.00     0.000 HD 
HETATM    8  C   UNK A   1     -11.053  11.958  68.815  1.00  0.00    -0.245 C  
HETATM    9  C   UNK A   1     -10.913  10.749  69.742  1.00  0.00    -0.252 C  
HETATM   10  O   UNK A   1     -10.055  12.930  69.154  1.00  0.00    -0.414 OA 
HETATM   11  O   UNK A   1     -12.073   9.907  69.655  1.00  0.00    -0.465 OA 
HETATM   12  C   UNK A   1      -9.655   9.936  69.399  1.00  0.00    -0.215 C  
HETATM   13  H   UNK A   1     -10.124  13.186  70.066  1.00  0.00     0.000 HD 
HETATM   14  H   UNK A   1     -11.986   9.156  70.231  1.00  0.00     0.000 HD 
HETATM   15  O   UNK A   1      -9.618   8.783  70.255  1.00  0.00    -0.165 OA 
HETATM   16  H   UNK A   1      -9.664   8.997  71.180  1.00  0.00     0.000 HD 
ENDBRANCH   3   4
TORSDOF 1
ENDMDL
MODEL      144
REMARK 921   NORMALIZED FREE ENERGY PREDICTED BY IDOCK:   -2.50 KCAL/MOL
REMARK 922        TOTAL FREE ENERGY PREDICTED BY IDOCK:   -2.91 KCAL/MOL
REMARK 923 INTER-LIGAND FREE ENERGY PREDICTED BY IDOCK:   -2.85 KCAL/MOL
REMARK 924 INTRA-LIGAND FREE ENERGY PREDICTED BY IDOCK:   -0.05 KCAL/MOL
REMARK 927      BINDING AFFINITY PREDICTED BY RF-SCORE:    0.00 PKD
ROOT
HETATM    1  O   UNK A   1     -11.155   9.020  67.617  1.00  0.00    -0.484 OA 
HETATM    2  H   UNK A   1     -11.221   8.481  68.396  1.00  0.00     0.000 HD 
HETATM    3  C   UNK A   1     -10.563  10.283  67.924  1.00  0.00    -0.239 C  
ENDROOT
BRANCH   3   4
HETATM    4  C   UNK A   1     -10.453  11.164  66.652  1.00  0.00    -0.250 C  
HETATM    5  N   UNK A   1     -11.222  12.423  66.769  1.00  0.00    -0.292 NA 
HETATM    6  C   UNK A   0     -10.554  13.394  67.648  1.00  0.00    -0.243 C  
HETATM    7  H   UNK A   1     -12.180  12.246  67.072  1.00  0.00     0.000 HD 
HETATM    8  C   UNK A   1      -9.117  13.730  67.198  1.00  0.00    -0.239 C  
HETATM    9  C   UNK A   1      -8.274  12.463  67.045  1.00  0.00    -0.141 C  
HETATM   10  O   UNK A   1      -9.121  14.446  65.956  1.00  0.00    -0.502 OA 
HETATM   11  O   UNK A   1      -7.981  11.891  68.330  1.00  0.00    -0.134 OA 
HETATM   12  C   UNK A   1      -8.994  11.426  66.169  1.00  0.00    -0.201 C  
HETATM   13  H   UNK A   1      -8.237  14.653  65.679  1.00  0.00     0.000 HD 
HETATM   14  H   UNK A   1      -7.457  11.104  68.235  1.00  0.00     0.000 HD 
HETATM   15  O   UNK A   1      -8.187  10.240  66.121  1.00  0.00    -0.128 OA 
HETATM   16  H   UNK A   1      -7.297  10.399  65.827  1.00  0.00     0.000 HD 
ENDBRANCH   3   4
TORSDOF 1
ENDMDL
MODEL      145
REMARK 921   NORMALIZED FREE ENERGY PREDICTED BY IDOCK:   -2.50 KCAL/MOL
REMARK 922        TOTAL FREE ENERGY PREDICTED BY IDOCK:   -2.90 KCAL/MOL
REMARK 923 INTER-LIGAND FREE ENERGY PREDICTED BY IDOCK:   -2.85 KCAL/MOL
REMARK 924 INTRA-LIGAND FREE ENERGY PREDICTED BY IDOCK:   -0.05 KCAL/MOL
REMARK 927      BINDING AFFINITY PREDICTED BY RF-SCORE:    0.00 PKD
ROOT
HETATM    1  O   UNK A   1      -7.816   3.619  67.890  1.00  0.00    -0.069 OA 
HETATM    2  H   UNK A   1      -7.056   3.320  67.405  1.00  0.00     0.000 HD 
HETATM    3  C   UNK A   1      -8.658   4.428  67.066  1.00  0.00    -0.104 C  
ENDROOT
BRANCH   3   4
HETATM    4  C   UNK A   1      -9.899   4.914  67.857  1.00  0.00    -0.143 C  
HETATM    5  N   UNK A   1      -9.538   5.534  69.152  1.00  0.00    -0.135 NA 
HETATM    6  C   UNK A   0      -8.970   6.879  68.976  1.00  0.00    -0.132 C  
HETATM    7  H   UNK A   1      -8.910   4.934  69.688  1.00  0.00     0.000 HD 
HETATM    8  C   UNK A   1      -9.907   7.837  68.213  1.00  0.00    -0.167 C  
HETATM    9  C   UNK A   1     -10.328   7.244  66.867  1.00  0.00    -0.288 C  
HETATM   10  O   UNK A   1     -11.078   8.135  68.984  1.00  0.00    -0.429 OA 
HETATM   11  O   UNK A   1      -9.223   7.230  65.950  1.00  0.00    -0.354 OA 
HETATM   12  C   UNK A   1     -10.874   5.819  67.042  1.00  0.00    -0.241 C  
HETATM   13  H   UNK A   1     -11.655   8.725  68.514  1.00  0.00     0.000 HD 
HETATM   14  H   UNK A   1      -9.485   6.862  65.115  1.00  0.00     0.000 HD 
HETATM   15  O   UNK A   1     -11.187   5.294  65.742  1.00  0.00    -0.791 OA 
HETATM   16  H   UNK A   1     -11.781   5.845  65.245  1.00  0.00     0.000 HD 
ENDBRANCH   3   4
TORSDOF 1
ENDMDL
MODEL      146
REMARK 921   NORMALIZED FREE ENERGY PREDICTED BY IDOCK:   -2.48 KCAL/MOL
REMARK 922        TOTAL FREE ENERGY PREDICTED BY IDOCK:   -2.89 KCAL/MOL
REMARK 923 INTER-LIGAND FREE ENERGY PREDICTED BY IDOCK:   -2.97 KCAL/MOL
REMARK 924 INTRA-LIGAND FREE ENERGY PREDICTED BY IDOCK:    0.08 KCAL/MOL
REMARK 927      BINDING AFFINITY PREDICTED BY RF-SCORE:    0.00 PKD
ROOT
HETATM    1  O   UNK A   1      -9.806   8.362  67.846  1.00  0.00    -0.157 OA 
HETATM    2  H   UNK A   1      -9.970   7.573  67.344  1.00  0.00     0.000 HD 
HETATM    3  C   UNK A   1      -9.929   8.107  69.246  1.00  0.00    -0.188 C  
ENDROOT
BRANCH   3   4
HETATM    4  C   UNK A   1      -9.660   9.394  70.067  1.00  0.00    -0.226 C  
HETATM    5  N   UNK A   1      -9.902  10.626  69.282  1.00  0.00    -0.328 NA 
HETATM    6  C   UNK A   0     -11.338  10.890  69.107  1.00  0.00    -0.283 C  
HETATM    7  H   UNK A   1      -9.419  10.594  68.384  1.00  0.00     0.000 HD 
HETATM    8  C   UNK A   1     -12.102  10.996  70.442  1.00  0.00    -0.373 C  
HETATM    9  C   UNK A   1     -11.879   9.754  71.307  1.00  0.00    -0.399 C  
HETATM   10  O   UNK A   1     -11.699  12.160  71.175  1.00  0.00    -0.006 OA 
HETATM   11  O   UNK A   1     -12.556   8.618  70.748  1.00  0.00    -0.498 OA 
HETATM   12  C   UNK A   1     -10.380   9.446  71.449  1.00  0.00    -0.256 C  
HETATM   13  H   UNK A   1     -12.170  12.225  71.998  1.00  0.00     0.000 HD 
HETATM   14  H   UNK A   1     -12.417   7.846  71.285  1.00  0.00     0.000 HD 
HETATM   15  O   UNK A   1     -10.240   8.236  72.210  1.00  0.00    -0.250 OA 
HETATM   16  H   UNK A   1     -10.679   8.267  73.053  1.00  0.00     0.000 HD 
ENDBRANCH   3   4
TORSDOF 1
ENDMDL
MODEL      147
REMARK 921   NORMALIZED FREE ENERGY PREDICTED BY IDOCK:   -2.47 KCAL/MOL
REMARK 922        TOTAL FREE ENERGY PREDICTED BY IDOCK:   -2.88 KCAL/MOL
REMARK 923 INTER-LIGAND FREE ENERGY PREDICTED BY IDOCK:   -2.85 KCAL/MOL
REMARK 924 INTRA-LIGAND FREE ENERGY PREDICTED BY IDOCK:   -0.03 KCAL/MOL
REMARK 927      BINDING AFFINITY PREDICTED BY RF-SCORE:    0.00 PKD
ROOT
HETATM    1  O   UNK A   1      -8.311   7.722  68.159  1.00  0.00    -0.123 OA 
HETATM    2  H   UNK A   1      -7.450   7.408  67.909  1.00  0.00     0.000 HD 
HETATM    3  C   UNK A   1      -8.381   7.948  69.567  1.00  0.00    -0.131 C  
ENDROOT
BRANCH   3   4
HETATM    4  C   UNK A   1      -9.786   8.462  69.974  1.00  0.00    -0.176 C  
HETATM    5  N   UNK A   1     -10.873   7.776  69.240  1.00  0.00    -0.400 NA 
HETATM    6  C   UNK A   0     -11.093   6.410  69.737  1.00  0.00    -0.396 C  
HETATM    7  H   UNK A   1     -10.701   7.781  68.234  1.00  0.00     0.000 HD 
HETATM    8  C   UNK A   1     -11.406   6.358  71.247  1.00  0.00    -0.306 C  
HETATM    9  C   UNK A   1     -10.321   7.066  72.061  1.00  0.00    -0.198 C  
HETATM   10  O   UNK A   1     -12.676   6.959  71.531  1.00  0.00    -0.370 OA 
HETATM   11  O   UNK A   1      -9.104   6.304  72.056  1.00  0.00    -0.143 OA 
HETATM   12  C   UNK A   1     -10.053   8.475  71.510  1.00  0.00    -0.245 C  
HETATM   13  H   UNK A   1     -12.868   6.927  72.460  1.00  0.00     0.000 HD 
HETATM   14  H   UNK A   1      -8.430   6.744  72.561  1.00  0.00     0.000 HD 
HETATM   15  O   UNK A   1      -8.982   9.058  72.270  1.00  0.00    -0.360 OA 
HETATM   16  H   UNK A   1      -9.145   9.066  73.207  1.00  0.00     0.000 HD 
ENDBRANCH   3   4
TORSDOF 1
ENDMDL
MODEL      148
REMARK 921   NORMALIZED FREE ENERGY PREDICTED BY IDOCK:   -2.47 KCAL/MOL
REMARK 922        TOTAL FREE ENERGY PREDICTED BY IDOCK:   -2.88 KCAL/MOL
REMARK 923 INTER-LIGAND FREE ENERGY PREDICTED BY IDOCK:   -2.61 KCAL/MOL
REMARK 924 INTRA-LIGAND FREE ENERGY PREDICTED BY IDOCK:   -0.27 KCAL/MOL
REMARK 927      BINDING AFFINITY PREDICTED BY RF-SCORE:    0.00 PKD
ROOT
HETATM    1  O   UNK A   1      -7.813   8.422  67.533  1.00  0.00    -0.097 OA 
HETATM    2  H   UNK A   1      -6.919   8.120  67.429  1.00  0.00     0.000 HD 
HETATM    3  C   UNK A   1      -7.851   9.835  67.740  1.00  0.00    -0.094 C  
ENDROOT
BRANCH   3   4
HETATM    4  C   UNK A   1      -9.311  10.328  67.909  1.00  0.00    -0.138 C  
HETATM    5  N   UNK A   1      -9.387  11.658  68.554  1.00  0.00    -0.269 NA 
HETATM    6  C   UNK A   0      -8.999  12.737  67.633  1.00  0.00    -0.191 C  
HETATM    7  H   UNK A   1      -8.835  11.687  69.412  1.00  0.00     0.000 HD 
HETATM    8  C   UNK A   1      -9.843  12.764  66.342  1.00  0.00    -0.269 C  
HETATM    9  C   UNK A   1      -9.815  11.407  65.635  1.00  0.00    -0.235 C  
HETATM   10  O   UNK A   1     -11.202  13.122  66.622  1.00  0.00    -0.289 OA 
HETATM   11  O   UNK A   1      -8.524  11.163  65.056  1.00  0.00    -0.379 OA 
HETATM   12  C   UNK A   1     -10.170  10.273  66.609  1.00  0.00    -0.233 C  
HETATM   13  H   UNK A   1     -11.721  13.138  65.828  1.00  0.00     0.000 HD 
HETATM   14  H   UNK A   1      -8.507  10.321  64.617  1.00  0.00     0.000 HD 
HETATM   15  O   UNK A   1     -10.060   9.026  65.905  1.00  0.00    -0.418 OA 
HETATM   16  H   UNK A   1     -10.583   8.992  65.112  1.00  0.00     0.000 HD 
ENDBRANCH   3   4
TORSDOF 1
ENDMDL
MODEL      149
REMARK 921   NORMALIZED FREE ENERGY PREDICTED BY IDOCK:   -2.47 KCAL/MOL
REMARK 922        TOTAL FREE ENERGY PREDICTED BY IDOCK:   -2.87 KCAL/MOL
REMARK 923 INTER-LIGAND FREE ENERGY PREDICTED BY IDOCK:   -2.61 KCAL/MOL
REMARK 924 INTRA-LIGAND FREE ENERGY PREDICTED BY IDOCK:   -0.26 KCAL/MOL
REMARK 927      BINDING AFFINITY PREDICTED BY RF-SCORE:    0.00 PKD
ROOT
HETATM    1  O   UNK A   1     -10.843   7.676  71.529  1.00  0.00    -0.225 OA 
HETATM    2  H   UNK A   1     -11.597   7.853  72.077  1.00  0.00     0.000 HD 
HETATM    3  C   UNK A   1     -11.248   7.167  70.257  1.00  0.00    -0.276 C  
ENDROOT
BRANCH   3   4
HETATM    4  C   UNK A   1     -10.016   6.878  69.361  1.00  0.00    -0.160 C  
HETATM    5  N   UNK A   1     -10.355   6.040  68.189  1.00  0.00    -0.182 NA 
HETATM    6  C   UNK A   0     -11.078   6.803  67.160  1.00  0.00    -0.333 C  
HETATM    7  H   UNK A   1     -10.874   5.207  68.466  1.00  0.00     0.000 HD 
HETATM    8  C   UNK A   1     -10.307   8.047  66.674  1.00  0.00    -0.203 C  
HETATM    9  C   UNK A   1      -9.915   8.949  67.846  1.00  0.00    -0.179 C  
HETATM   10  O   UNK A   1      -9.126   7.672  65.953  1.00  0.00    -0.308 OA 
HETATM   11  O   UNK A   1     -11.072   9.600  68.394  1.00  0.00    -0.448 OA 
HETATM   12  C   UNK A   1      -9.205   8.143  68.945  1.00  0.00    -0.147 C  
HETATM   13  H   UNK A   1      -8.651   8.437  65.654  1.00  0.00     0.000 HD 
HETATM   14  H   UNK A   1     -10.829  10.159  69.122  1.00  0.00     0.000 HD 
HETATM   15  O   UNK A   1      -8.926   9.028  70.042  1.00  0.00    -0.151 OA 
HETATM   16  H   UNK A   1      -8.432   9.799  69.789  1.00  0.00     0.000 HD 
ENDBRANCH   3   4
TORSDOF 1
ENDMDL
MODEL      150
REMARK 921   NORMALIZED FREE ENERGY PREDICTED BY IDOCK:   -2.46 KCAL/MOL
REMARK 922        TOTAL FREE ENERGY PREDICTED BY IDOCK:   -2.86 KCAL/MOL
REMARK 923 INTER-LIGAND FREE ENERGY PREDICTED BY IDOCK:   -3.23 KCAL/MOL
REMARK 924 INTRA-LIGAND FREE ENERGY PREDICTED BY IDOCK:    0.37 KCAL/MOL
REMARK 927      BINDING AFFINITY PREDICTED BY RF-SCORE:    0.00 PKD
ROOT
HETATM    1  O   UNK A   1     -11.854  15.216  68.686  1.00  0.00    -0.418 OA 
HETATM    2  H   UNK A   1     -12.529  14.744  69.159  1.00  0.00     0.000 HD 
HETATM    3  C   UNK A   1     -11.771  14.763  67.334  1.00  0.00    -0.350 C  
ENDROOT
BRANCH   3   4
HETATM    4  C   UNK A   1     -10.670  15.533  66.561  1.00  0.00    -0.304 C  
HETATM    5  N   UNK A   1     -10.541  16.937  67.012  1.00  0.00    -0.276 NA 
HETATM    6  C   UNK A   0      -9.866  17.034  68.314  1.00  0.00    -0.278 C  
HETATM    7  H   UNK A   1     -11.447  17.407  67.027  1.00  0.00     0.000 HD 
HETATM    8  C   UNK A   1      -8.469  16.380  68.323  1.00  0.00    -0.195 C  
HETATM    9  C   UNK A   1      -8.535  14.927  67.852  1.00  0.00    -0.153 C  
HETATM   10  O   UNK A   1      -7.556  17.105  67.490  1.00  0.00    -0.164 OA 
HETATM   11  O   UNK A   1      -9.177  14.102  68.837  1.00  0.00    -0.357 OA 
HETATM   12  C   UNK A   1      -9.286  14.817  66.516  1.00  0.00    -0.290 C  
HETATM   13  H   UNK A   1      -6.696  16.703  67.495  1.00  0.00     0.000 HD 
HETATM   14  H   UNK A   1      -9.219  13.200  68.544  1.00  0.00     0.000 HD 
HETATM   15  O   UNK A   1      -9.374  13.427  66.162  1.00  0.00    -0.441 OA 
HETATM   16  H   UNK A   1      -8.530  12.990  66.135  1.00  0.00     0.000 HD 
ENDBRANCH   3   4
TORSDOF 1
ENDMDL
MODEL      151
REMARK 921   NORMALIZED FREE ENERGY PREDICTED BY IDOCK:   -2.45 KCAL/MOL
REMARK 922        TOTAL FREE ENERGY PREDICTED BY IDOCK:   -2.86 KCAL/MOL
REMARK 923 INTER-LIGAND FREE ENERGY PREDICTED BY IDOCK:   -2.60 KCAL/MOL
REMARK 924 INTRA-LIGAND FREE ENERGY PREDICTED BY IDOCK:   -0.26 KCAL/MOL
REMARK 927      BINDING AFFINITY PREDICTED BY RF-SCORE:    0.00 PKD
ROOT
HETATM    1  O   UNK A   1      -8.283  12.862  66.744  1.00  0.00    -0.395 OA 
HETATM    2  H   UNK A   1      -7.671  13.506  67.080  1.00  0.00     0.000 HD 
HETATM    3  C   UNK A   1      -8.034  11.578  67.317  1.00  0.00    -0.153 C  
ENDROOT
BRANCH   3   4
HETATM    4  C   UNK A   1      -9.033  10.527  66.770  1.00  0.00    -0.137 C  
HETATM    5  N   UNK A   1      -8.644   9.142  67.119  1.00  0.00    -0.120 NA 
HETATM    6  C   UNK A   0      -8.910   8.838  68.533  1.00  0.00    -0.138 C  
HETATM    7  H   UNK A   1      -7.670   8.958  66.877  1.00  0.00     0.000 HD 
HETATM    8  C   UNK A   1     -10.384   9.055  68.933  1.00  0.00    -0.215 C  
HETATM    9  C   UNK A   1     -10.850  10.469  68.583  1.00  0.00    -0.237 C  
HETATM   10  O   UNK A   1     -11.238   8.103  68.286  1.00  0.00    -0.298 OA 
HETATM   11  O   UNK A   1     -10.236  11.435  69.450  1.00  0.00    -0.429 OA 
HETATM   12  C   UNK A   1     -10.526  10.807  67.119  1.00  0.00    -0.237 C  
HETATM   13  H   UNK A   1     -12.145   8.236  68.532  1.00  0.00     0.000 HD 
HETATM   14  H   UNK A   1     -10.526  12.313  69.232  1.00  0.00     0.000 HD 
HETATM   15  O   UNK A   1     -10.925  12.165  66.873  1.00  0.00    -0.245 OA 
HETATM   16  H   UNK A   1     -11.835  12.336  67.086  1.00  0.00     0.000 HD 
ENDBRANCH   3   4
TORSDOF 1
ENDMDL
MODEL      152
REMARK 921   NORMALIZED FREE ENERGY PREDICTED BY IDOCK:   -2.45 KCAL/MOL
REMARK 922        TOTAL FREE ENERGY PREDICTED BY IDOCK:   -2.85 KCAL/MOL
REMARK 923 INTER-LIGAND FREE ENERGY PREDICTED BY IDOCK:   -2.59 KCAL/MOL
REMARK 924 INTRA-LIGAND FREE ENERGY PREDICTED BY IDOCK:   -0.26 KCAL/MOL
REMARK 927      BINDING AFFINITY PREDICTED BY RF-SCORE:    0.00 PKD
ROOT
HETATM    1  O   UNK A   1      -6.698  18.854  66.012  1.00  0.00    -0.211 OA 
HETATM    2  H   UNK A   1      -6.318  18.908  65.143  1.00  0.00     0.000 HD 
HETATM    3  C   UNK A   1      -7.628  17.773  66.093  1.00  0.00    -0.267 C  
ENDROOT
BRANCH   3   4
HETATM    4  C   UNK A   1      -8.248  17.685  67.511  1.00  0.00    -0.216 C  
HETATM    5  N   UNK A   1      -9.562  17.003  67.512  1.00  0.00    -0.246 NA 
HETATM    6  C   UNK A   0      -9.425  15.548  67.347  1.00  0.00    -0.211 C  
HETATM    7  H   UNK A   1     -10.186  17.399  66.808  1.00  0.00     0.000 HD 
HETATM    8  C   UNK A   1      -8.530  14.898  68.422  1.00  0.00    -0.153 C  
HETATM    9  C   UNK A   1      -7.157  15.572  68.479  1.00  0.00    -0.115 C  
HETATM   10  O   UNK A   1      -9.144  14.968  69.715  1.00  0.00    -0.448 OA 
HETATM   11  O   UNK A   1      -6.384  15.247  67.314  1.00  0.00    -0.310 OA 
HETATM   12  C   UNK A   1      -7.298  17.097  68.599  1.00  0.00    -0.238 C  
HETATM   13  H   UNK A   1      -8.592  14.569  70.377  1.00  0.00     0.000 HD 
HETATM   14  H   UNK A   1      -5.531  15.665  67.349  1.00  0.00     0.000 HD 
HETATM   15  O   UNK A   1      -5.983  17.673  68.579  1.00  0.00    -0.169 OA 
HETATM   16  H   UNK A   1      -5.403  17.315  69.243  1.00  0.00     0.000 HD 
ENDBRANCH   3   4
TORSDOF 1
ENDMDL
MODEL      153
REMARK 921   NORMALIZED FREE ENERGY PREDICTED BY IDOCK:   -2.44 KCAL/MOL
REMARK 922        TOTAL FREE ENERGY PREDICTED BY IDOCK:   -2.84 KCAL/MOL
REMARK 923 INTER-LIGAND FREE ENERGY PREDICTED BY IDOCK:   -2.59 KCAL/MOL
REMARK 924 INTRA-LIGAND FREE ENERGY PREDICTED BY IDOCK:   -0.25 KCAL/MOL
REMARK 927      BINDING AFFINITY PREDICTED BY RF-SCORE:    0.00 PKD
ROOT
HETATM    1  O   UNK A   1     -12.265  11.841  67.982  1.00  0.00    -0.518 OA 
HETATM    2  H   UNK A   1     -12.730  12.664  67.885  1.00  0.00     0.000 HD 
HETATM    3  C   UNK A   1     -11.328  11.659  66.919  1.00  0.00    -0.295 C  
ENDROOT
BRANCH   3   4
HETATM    4  C   UNK A   1     -10.568  10.317  67.078  1.00  0.00    -0.239 C  
HETATM    5  N   UNK A   1     -10.138   9.755  65.778  1.00  0.00    -0.278 NA 
HETATM    6  C   UNK A   0      -8.988  10.481  65.220  1.00  0.00    -0.189 C  
HETATM    7  H   UNK A   1     -10.913   9.720  65.115  1.00  0.00     0.000 HD 
HETATM    8  C   UNK A   1      -7.774  10.516  66.170  1.00  0.00    -0.142 C  
HETATM    9  C   UNK A   1      -8.159  11.077  67.540  1.00  0.00    -0.117 C  
HETATM   10  O   UNK A   1      -7.213   9.207  66.338  1.00  0.00    -0.089 OA 
HETATM   11  O   UNK A   1      -8.421  12.487  67.456  1.00  0.00    -0.157 OA 
HETATM   12  C   UNK A   1      -9.393  10.354  68.102  1.00  0.00    -0.145 C  
HETATM   13  H   UNK A   1      -6.466   9.229  66.923  1.00  0.00     0.000 HD 
HETATM   14  H   UNK A   1      -8.661  12.835  68.307  1.00  0.00     0.000 HD 
HETATM   15  O   UNK A   1      -9.744  10.969  69.352  1.00  0.00    -0.417 OA 
HETATM   16  H   UNK A   1      -9.028  10.992  69.976  1.00  0.00     0.000 HD 
ENDBRANCH   3   4
TORSDOF 1
ENDMDL
MODEL      154
REMARK 921   NORMALIZED FREE ENERGY PREDICTED BY IDOCK:   -2.43 KCAL/MOL
REMARK 922        TOTAL FREE ENERGY PREDICTED BY IDOCK:   -2.83 KCAL/MOL
REMARK 923 INTER-LIGAND FREE ENERGY PREDICTED BY IDOCK:   -2.83 KCAL/MOL
REMARK 924 INTRA-LIGAND FREE ENERGY PREDICTED BY IDOCK:   -0.00 KCAL/MOL
REMARK 927      BINDING AFFINITY PREDICTED BY RF-SCORE:    0.00 PKD
ROOT
HETATM    1  O   UNK A   1     -12.166  11.718  67.917  1.00  0.00    -0.538 OA 
HETATM    2  H   UNK A   1     -12.880  11.336  67.420  1.00  0.00     0.000 HD 
HETATM    3  C   UNK A   1     -11.259  12.406  67.054  1.00  0.00    -0.303 C  
ENDROOT
BRANCH   3   4
HETATM    4  C   UNK A   1     -10.094  13.030  67.864  1.00  0.00    -0.235 C  
HETATM    5  N   UNK A   1      -9.714  12.206  69.033  1.00  0.00    -0.400 NA 
HETATM    6  C   UNK A   0      -8.960  11.007  68.637  1.00  0.00    -0.167 C  
HETATM    7  H   UNK A   1     -10.530  11.962  69.596  1.00  0.00     0.000 HD 
HETATM    8  C   UNK A   1      -7.689  11.331  67.826  1.00  0.00    -0.113 C  
HETATM    9  C   UNK A   1      -8.016  12.196  66.607  1.00  0.00     0.058 C  
HETATM   10  O   UNK A   1      -6.719  12.006  68.637  1.00  0.00    -0.068 OA 
HETATM   11  O   UNK A   1      -8.727  11.433  65.619  1.00  0.00    -0.346 OA 
HETATM   12  C   UNK A   1      -8.848  13.422  67.012  1.00  0.00    -0.211 C  
HETATM   13  H   UNK A   1      -5.937  12.206  68.137  1.00  0.00     0.000 HD 
HETATM   14  H   UNK A   1      -8.930  11.970  64.863  1.00  0.00     0.000 HD 
HETATM   15  O   UNK A   1      -9.179  14.153  65.821  1.00  0.00    -0.505 OA 
HETATM   16  H   UNK A   1      -8.420  14.393  65.301  1.00  0.00     0.000 HD 
ENDBRANCH   3   4
TORSDOF 1
ENDMDL
MODEL      155
REMARK 921   NORMALIZED FREE ENERGY PREDICTED BY IDOCK:   -2.42 KCAL/MOL
REMARK 922        TOTAL FREE ENERGY PREDICTED BY IDOCK:   -2.83 KCAL/MOL
REMARK 923 INTER-LIGAND FREE ENERGY PREDICTED BY IDOCK:   -2.79 KCAL/MOL
REMARK 924 INTRA-LIGAND FREE ENERGY PREDICTED BY IDOCK:   -0.04 KCAL/MOL
REMARK 927      BINDING AFFINITY PREDICTED BY RF-SCORE:    0.00 PKD
ROOT
HETATM    1  O   UNK A   1      -9.095   9.165  71.791  1.00  0.00    -0.346 OA 
HETATM    2  H   UNK A   1      -9.429  10.053  71.829  1.00  0.00     0.000 HD 
HETATM    3  C   UNK A   1     -10.147   8.218  71.980  1.00  0.00    -0.261 C  
ENDROOT
BRANCH   3   4
HETATM    4  C   UNK A   1      -9.601   6.768  71.918  1.00  0.00    -0.148 C  
HETATM    5  N   UNK A   1      -9.034   6.322  73.210  1.00  0.00    -0.129 NA 
HETATM    6  C   UNK A   0     -10.084   6.014  74.192  1.00  0.00    -0.280 C  
HETATM    7  H   UNK A   1      -8.369   7.002  73.578  1.00  0.00     0.000 HD 
HETATM    8  C   UNK A   1     -11.085   4.951  73.697  1.00  0.00    -0.297 C  
HETATM    9  C   UNK A   1     -11.697   5.351  72.353  1.00  0.00    -0.047 C  
HETATM   10  O   UNK A   1     -10.454   3.671  73.566  1.00  0.00    -0.148 OA 
HETATM   11  O   UNK A   1     -12.601   6.454  72.515  1.00  0.00    -0.531 OA 
HETATM   12  C   UNK A   1     -10.603   5.722  71.340  1.00  0.00    -0.253 C  
HETATM   13  H   UNK A   1     -11.070   3.016  73.260  1.00  0.00     0.000 HD 
HETATM   14  H   UNK A   1     -12.981   6.703  71.680  1.00  0.00     0.000 HD 
HETATM   15  O   UNK A   1     -11.240   6.152  70.127  1.00  0.00    -0.351 OA 
HETATM   16  H   UNK A   1     -11.851   5.514  69.775  1.00  0.00     0.000 HD 
ENDBRANCH   3   4
TORSDOF 1
ENDMDL
MODEL      156
REMARK 921   NORMALIZED FREE ENERGY PREDICTED BY IDOCK:   -2.40 KCAL/MOL
REMARK 922        TOTAL FREE ENERGY PREDICTED BY IDOCK:   -2.81 KCAL/MOL
REMARK 923 INTER-LIGAND FREE ENERGY PREDICTED BY IDOCK:   -2.76 KCAL/MOL
REMARK 924 INTRA-LIGAND FREE ENERGY PREDICTED BY IDOCK:   -0.05 KCAL/MOL
REMARK 927      BINDING AFFINITY PREDICTED BY RF-SCORE:    0.00 PKD
ROOT
HETATM    1  O   UNK A   1     -10.289   4.620  72.358  1.00  0.00    -0.193 OA 
HETATM    2  H   UNK A   1     -10.453   3.735  72.053  1.00  0.00     0.000 HD 
HETATM    3  C   UNK A   1     -11.096   5.560  71.648  1.00  0.00    -0.122 C  
ENDROOT
BRANCH   3   4
HETATM    4  C   UNK A   1     -10.829   7.004  72.147  1.00  0.00    -0.224 C  
HETATM    5  N   UNK A   1      -9.386   7.285  72.316  1.00  0.00    -0.138 NA 
HETATM    6  C   UNK A   0      -8.709   7.475  71.025  1.00  0.00    -0.134 C  
HETATM    7  H   UNK A   1      -8.930   6.560  72.871  1.00  0.00     0.000 HD 
HETATM    8  C   UNK A   1      -9.336   8.597  70.171  1.00  0.00    -0.164 C  
HETATM    9  C   UNK A   1     -10.836   8.369  69.972  1.00  0.00    -0.225 C  
HETATM   10  O   UNK A   1      -9.131   9.880  70.777  1.00  0.00    -0.340 OA 
HETATM   11  O   UNK A   1     -11.067   7.258  69.091  1.00  0.00    -0.422 OA 
HETATM   12  C   UNK A   1     -11.536   8.118  71.317  1.00  0.00    -0.273 C  
HETATM   13  H   UNK A   1      -9.516  10.570  70.252  1.00  0.00     0.000 HD 
HETATM   14  H   UNK A   1     -11.999   7.117  68.968  1.00  0.00     0.000 HD 
HETATM   15  O   UNK A   1     -12.922   7.844  71.057  1.00  0.00    -0.524 OA 
HETATM   16  H   UNK A   1     -13.353   8.524  70.551  1.00  0.00     0.000 HD 
ENDBRANCH   3   4
TORSDOF 1
ENDMDL
MODEL      157
REMARK 921   NORMALIZED FREE ENERGY PREDICTED BY IDOCK:   -2.40 KCAL/MOL
REMARK 922        TOTAL FREE ENERGY PREDICTED BY IDOCK:   -2.81 KCAL/MOL
REMARK 923 INTER-LIGAND FREE ENERGY PREDICTED BY IDOCK:   -2.54 KCAL/MOL
REMARK 924 INTRA-LIGAND FREE ENERGY PREDICTED BY IDOCK:   -0.26 KCAL/MOL
REMARK 927      BINDING AFFINITY PREDICTED BY RF-SCORE:    0.00 PKD
ROOT
HETATM    1  O   UNK A   1     -10.204   7.020  66.548  1.00  0.00    -0.419 OA 
HETATM    2  H   UNK A   1      -9.738   6.194  66.508  1.00  0.00     0.000 HD 
HETATM    3  C   UNK A   1      -9.887   7.725  67.749  1.00  0.00    -0.161 C  
ENDROOT
BRANCH   3   4
HETATM    4  C   UNK A   1     -10.648   9.075  67.813  1.00  0.00    -0.214 C  
HETATM    5  N   UNK A   1     -10.687   9.636  69.182  1.00  0.00    -0.221 NA 
HETATM    6  C   UNK A   0      -9.391  10.207  69.578  1.00  0.00    -0.210 C  
HETATM    7  H   UNK A   1     -11.009   8.943  69.858  1.00  0.00     0.000 HD 
HETATM    8  C   UNK A   1      -8.888  11.298  68.610  1.00  0.00    -0.141 C  
HETATM    9  C   UNK A   1      -8.838  10.780  67.171  1.00  0.00    -0.134 C  
HETATM   10  O   UNK A   1      -9.725  12.460  68.665  1.00  0.00    -0.358 OA 
HETATM   11  O   UNK A   1      -7.776   9.827  67.011  1.00  0.00    -0.095 OA 
HETATM   12  C   UNK A   1     -10.175  10.136  66.773  1.00  0.00    -0.228 C  
HETATM   13  H   UNK A   1      -9.415  13.131  68.068  1.00  0.00     0.000 HD 
HETATM   14  H   UNK A   1      -7.745   9.506  66.118  1.00  0.00     0.000 HD 
HETATM   15  O   UNK A   1     -10.043   9.611  65.443  1.00  0.00    -0.358 OA 
HETATM   16  H   UNK A   1      -9.755  10.258  64.808  1.00  0.00     0.000 HD 
ENDBRANCH   3   4
TORSDOF 1
ENDMDL
MODEL      158
REMARK 921   NORMALIZED FREE ENERGY PREDICTED BY IDOCK:   -2.38 KCAL/MOL
REMARK 922        TOTAL FREE ENERGY PREDICTED BY IDOCK:   -2.78 KCAL/MOL
REMARK 923 INTER-LIGAND FREE ENERGY PREDICTED BY IDOCK:   -2.74 KCAL/MOL
REMARK 924 INTRA-LIGAND FREE ENERGY PREDICTED BY IDOCK:   -0.05 KCAL/MOL
REMARK 927      BINDING AFFINITY PREDICTED BY RF-SCORE:    0.00 PKD
ROOT
HETATM    1  O   UNK A   1     -11.175   1.633  63.884  1.00  0.00    -0.436 OA 
HETATM    2  H   UNK A   1     -11.005   0.699  63.909  1.00  0.00     0.000 HD 
HETATM    3  C   UNK A   1      -9.962   2.367  63.712  1.00  0.00    -0.142 C  
ENDROOT
BRANCH   3   4
HETATM    4  C   UNK A   1     -10.240   3.891  63.671  1.00  0.00    -0.184 C  
HETATM    5  N   UNK A   1     -11.177   4.324  64.731  1.00  0.00    -0.980 NA 
HETATM    6  C   UNK A   0     -10.534   4.353  66.053  1.00  0.00    -0.099 C  
HETATM    7  H   UNK A   1     -12.018   3.746  64.741  1.00  0.00     0.000 HD 
HETATM    8  C   UNK A   1      -9.283   5.256  66.099  1.00  0.00    -0.154 C  
HETATM    9  C   UNK A   1      -8.279   4.865  65.012  1.00  0.00    -0.129 C  
HETATM   10  O   UNK A   1      -9.638   6.635  65.938  1.00  0.00    -0.391 OA 
HETATM   11  O   UNK A   1      -7.661   3.607  65.322  1.00  0.00    -0.083 OA 
HETATM   12  C   UNK A   1      -8.961   4.783  63.638  1.00  0.00    -0.072 C  
HETATM   13  H   UNK A   1      -8.869   7.191  65.966  1.00  0.00     0.000 HD 
HETATM   14  H   UNK A   1      -7.038   3.364  64.647  1.00  0.00     0.000 HD 
HETATM   15  O   UNK A   1      -7.986   4.348  62.678  1.00  0.00    -0.064 OA 
HETATM   16  H   UNK A   1      -7.207   4.892  62.657  1.00  0.00     0.000 HD 
ENDBRANCH   3   4
TORSDOF 1
ENDMDL
MODEL      159
REMARK 921   NORMALIZED FREE ENERGY PREDICTED BY IDOCK:   -2.36 KCAL/MOL
REMARK 922        TOTAL FREE ENERGY PREDICTED BY IDOCK:   -2.76 KCAL/MOL
REMARK 923 INTER-LIGAND FREE ENERGY PREDICTED BY IDOCK:   -2.50 KCAL/MOL
REMARK 924 INTRA-LIGAND FREE ENERGY PREDICTED BY IDOCK:   -0.26 KCAL/MOL
REMARK 927      BINDING AFFINITY PREDICTED BY RF-SCORE:    0.00 PKD
ROOT
HETATM    1  O   UNK A   1     -11.622   4.283  64.832  1.00  0.00    -0.990 OA 
HETATM    2  H   UNK A   1     -12.305   4.263  64.173  1.00  0.00     0.000 HD 
HETATM    3  C   UNK A   1     -10.440   3.636  64.358  1.00  0.00    -0.179 C  
ENDROOT
BRANCH   3   4
HETATM    4  C   UNK A   1      -9.324   3.668  65.434  1.00  0.00    -0.159 C  
HETATM    5  N   UNK A   1      -8.213   2.740  65.124  1.00  0.00    -0.090 NA 
HETATM    6  C   UNK A   0      -7.356   3.251  64.044  1.00  0.00    -0.062 C  
HETATM    7  H   UNK A   1      -8.561   1.804  64.911  1.00  0.00     0.000 HD 
HETATM    8  C   UNK A   1      -6.768   4.644  64.345  1.00  0.00    -0.044 C  
HETATM    9  C   UNK A   1      -7.870   5.649  64.687  1.00  0.00    -0.113 C  
HETATM   10  O   UNK A   1      -5.831   4.584  65.429  1.00  0.00    -0.021 OA 
HETATM   11  O   UNK A   1      -8.639   5.976  63.519  1.00  0.00    -0.336 OA 
HETATM   12  C   UNK A   1      -8.797   5.095  65.780  1.00  0.00    -0.143 C  
HETATM   13  H   UNK A   1      -5.469   5.442  65.614  1.00  0.00     0.000 HD 
HETATM   14  H   UNK A   1      -9.324   6.599  63.732  1.00  0.00     0.000 HD 
HETATM   15  O   UNK A   1      -9.846   6.050  66.006  1.00  0.00    -0.368 OA 
HETATM   16  H   UNK A   1      -9.525   6.920  66.217  1.00  0.00     0.000 HD 
ENDBRANCH   3   4
TORSDOF 1
ENDMDL
MODEL      160
REMARK 921   NORMALIZED FREE ENERGY PREDICTED BY IDOCK:   -2.36 KCAL/MOL
REMARK 922        TOTAL FREE ENERGY PREDICTED BY IDOCK:   -2.76 KCAL/MOL
REMARK 923 INTER-LIGAND FREE ENERGY PREDICTED BY IDOCK:   -2.50 KCAL/MOL
REMARK 924 INTRA-LIGAND FREE ENERGY PREDICTED BY IDOCK:   -0.26 KCAL/MOL
REMARK 927      BINDING AFFINITY PREDICTED BY RF-SCORE:    0.00 PKD
ROOT
HETATM    1  O   UNK A   1     -10.010  11.942  67.186  1.00  0.00    -0.193 OA 
HETATM    2  H   UNK A   1      -9.753  12.814  67.460  1.00  0.00     0.000 HD 
HETATM    3  C   UNK A   1      -9.615  11.696  65.836  1.00  0.00    -0.229 C  
ENDROOT
BRANCH   3   4
HETATM    4  C   UNK A   1     -10.035  10.273  65.389  1.00  0.00    -0.302 C  
HETATM    5  N   UNK A   1     -10.270  10.185  63.930  1.00  0.00    -0.427 NA 
HETATM    6  C   UNK A   0      -9.011  10.185  63.171  1.00  0.00    -0.248 C  
HETATM    7  H   UNK A   1     -10.896  10.925  63.610  1.00  0.00     0.000 HD 
HETATM    8  C   UNK A   1      -8.052   9.051  63.587  1.00  0.00    -0.164 C  
HETATM    9  C   UNK A   1      -7.780   9.081  65.092  1.00  0.00    -0.101 C  
HETATM   10  O   UNK A   1      -8.585   7.769  63.229  1.00  0.00    -0.378 OA 
HETATM   11  O   UNK A   1      -6.960  10.208  65.438  1.00  0.00    -0.126 OA 
HETATM   12  C   UNK A   1      -9.094   9.133  65.886  1.00  0.00    -0.205 C  
HETATM   13  H   UNK A   1      -7.994   7.071  63.485  1.00  0.00     0.000 HD 
HETATM   14  H   UNK A   1      -6.792  10.226  66.373  1.00  0.00     0.000 HD 
HETATM   15  O   UNK A   1      -8.772   9.227  67.283  1.00  0.00    -0.127 OA 
HETATM   16  H   UNK A   1      -8.199   8.532  67.586  1.00  0.00     0.000 HD 
ENDBRANCH   3   4
TORSDOF 1
ENDMDL
MODEL      161
REMARK 921   NORMALIZED FREE ENERGY PREDICTED BY IDOCK:   -2.35 KCAL/MOL
REMARK 922        TOTAL FREE ENERGY PREDICTED BY IDOCK:   -2.75 KCAL/MOL
REMARK 923 INTER-LIGAND FREE ENERGY PREDICTED BY IDOCK:   -2.70 KCAL/MOL
REMARK 924 INTRA-LIGAND FREE ENERGY PREDICTED BY IDOCK:   -0.05 KCAL/MOL
REMARK 927      BINDING AFFINITY PREDICTED BY RF-SCORE:    0.00 PKD
ROOT
HETATM    1  O   UNK A   1      -8.209  10.813  67.639  1.00  0.00    -0.114 OA 
HETATM    2  H   UNK A   1      -7.369  10.899  67.204  1.00  0.00     0.000 HD 
HETATM    3  C   UNK A   1      -8.542   9.438  67.833  1.00  0.00    -0.120 C  
ENDROOT
BRANCH   3   4
HETATM    4  C   UNK A   1      -9.913   9.297  68.543  1.00  0.00    -0.175 C  
HETATM    5  N   UNK A   1     -10.891   8.534  67.736  1.00  0.00    -0.495 NA 
HETATM    6  C   UNK A   0     -10.601   7.092  67.744  1.00  0.00    -0.225 C  
HETATM    7  H   UNK A   1     -10.949   8.896  66.784  1.00  0.00     0.000 HD 
HETATM    8  C   UNK A   1     -10.553   6.491  69.163  1.00  0.00    -0.243 C  
HETATM    9  C   UNK A   1      -9.566   7.249  70.052  1.00  0.00    -0.167 C  
HETATM   10  O   UNK A   1     -11.850   6.510  69.775  1.00  0.00    -0.628 OA 
HETATM   11  O   UNK A   1      -8.213   6.985  69.649  1.00  0.00    -0.127 OA 
HETATM   12  C   UNK A   1      -9.835   8.761  70.005  1.00  0.00    -0.178 C  
HETATM   13  H   UNK A   1     -11.820   6.140  70.648  1.00  0.00     0.000 HD 
HETATM   14  H   UNK A   1      -7.600   7.456  70.201  1.00  0.00     0.000 HD 
HETATM   15  O   UNK A   1      -8.837   9.420  70.802  1.00  0.00    -0.226 OA 
HETATM   16  H   UNK A   1      -8.789   9.093  71.693  1.00  0.00     0.000 HD 
ENDBRANCH   3   4
TORSDOF 1
ENDMDL
MODEL      162
REMARK 921   NORMALIZED FREE ENERGY PREDICTED BY IDOCK:   -2.34 KCAL/MOL
REMARK 922        TOTAL FREE ENERGY PREDICTED BY IDOCK:   -2.74 KCAL/MOL
REMARK 923 INTER-LIGAND FREE ENERGY PREDICTED BY IDOCK:   -2.78 KCAL/MOL
REMARK 924 INTRA-LIGAND FREE ENERGY PREDICTED BY IDOCK:    0.04 KCAL/MOL
REMARK 927      BINDING AFFINITY PREDICTED BY RF-SCORE:    0.00 PKD
ROOT
HETATM    1  O   UNK A   1     -10.008   8.359  65.844  1.00  0.00    -0.465 OA 
HETATM    2  H   UNK A   1     -10.504   7.833  66.461  1.00  0.00     0.000 HD 
HETATM    3  C   UNK A   1      -9.920   9.714  66.288  1.00  0.00    -0.264 C  
ENDROOT
BRANCH   3   4
HETATM    4  C   UNK A   1      -9.110  10.572  65.282  1.00  0.00    -0.190 C  
HETATM    5  N   UNK A   1      -8.347  11.651  65.947  1.00  0.00    -0.373 NA 
HETATM    6  C   UNK A   0      -7.162  11.134  66.648  1.00  0.00    -0.144 C  
HETATM    7  H   UNK A   1      -8.942  12.194  66.575  1.00  0.00     0.000 HD 
HETATM    8  C   UNK A   1      -6.207  10.348  65.727  1.00  0.00    -0.123 C  
HETATM    9  C   UNK A   1      -6.944   9.223  64.998  1.00  0.00    -0.086 C  
HETATM   10  O   UNK A   1      -5.595  11.214  64.762  1.00  0.00    -0.471 OA 
HETATM   11  O   UNK A   1      -7.293   8.171  65.911  1.00  0.00    -0.074 OA 
HETATM   12  C   UNK A   1      -8.210   9.752  64.307  1.00  0.00    -0.160 C  
HETATM   13  H   UNK A   1      -5.008  10.730  64.194  1.00  0.00     0.000 HD 
HETATM   14  H   UNK A   1      -7.751   7.472  65.458  1.00  0.00     0.000 HD 
HETATM   15  O   UNK A   1      -8.890   8.641  63.702  1.00  0.00    -0.427 OA 
HETATM   16  H   UNK A   1      -8.341   8.141  63.108  1.00  0.00     0.000 HD 
ENDBRANCH   3   4
TORSDOF 1
ENDMDL
MODEL      163
REMARK 921   NORMALIZED FREE ENERGY PREDICTED BY IDOCK:   -2.32 KCAL/MOL
REMARK 922        TOTAL FREE ENERGY PREDICTED BY IDOCK:   -2.72 KCAL/MOL
REMARK 923 INTER-LIGAND FREE ENERGY PREDICTED BY IDOCK:   -2.67 KCAL/MOL
REMARK 924 INTRA-LIGAND FREE ENERGY PREDICTED BY IDOCK:   -0.05 KCAL/MOL
REMARK 927      BINDING AFFINITY PREDICTED BY RF-SCORE:    0.00 PKD
ROOT
HETATM    1  O   UNK A   1     -11.516   8.900  70.494  1.00  0.00    -0.301 OA 
HETATM    2  H   UNK A   1     -11.922   9.726  70.729  1.00  0.00     0.000 HD 
HETATM    3  C   UNK A   1     -11.623   7.959  71.564  1.00  0.00    -0.270 C  
ENDROOT
BRANCH   3   4
HETATM    4  C   UNK A   1     -10.961   6.611  71.180  1.00  0.00    -0.257 C  
HETATM    5  N   UNK A   1      -9.614   6.790  70.592  1.00  0.00    -0.169 NA 
HETATM    6  C   UNK A   0      -8.612   7.132  71.612  1.00  0.00    -0.114 C  
HETATM    7  H   UNK A   1      -9.627   7.478  69.838  1.00  0.00     0.000 HD 
HETATM    8  C   UNK A   1      -8.522   6.092  72.747  1.00  0.00    -0.123 C  
HETATM    9  C   UNK A   1      -9.891   5.853  73.387  1.00  0.00    -0.163 C  
HETATM   10  O   UNK A   1      -8.003   4.846  72.264  1.00  0.00    -0.105 OA 
HETATM   11  O   UNK A   1     -10.297   6.994  74.158  1.00  0.00    -0.390 OA 
HETATM   12  C   UNK A   1     -10.951   5.546  72.319  1.00  0.00    -0.239 C  
HETATM   13  H   UNK A   1      -7.948   4.206  72.963  1.00  0.00     0.000 HD 
HETATM   14  H   UNK A   1     -11.147   6.846  74.555  1.00  0.00     0.000 HD 
HETATM   15  O   UNK A   1     -12.221   5.399  72.974  1.00  0.00    -0.533 OA 
HETATM   16  H   UNK A   1     -12.215   4.750  73.668  1.00  0.00     0.000 HD 
ENDBRANCH   3   4
TORSDOF 1
ENDMDL
MODEL      164
REMARK 921   NORMALIZED FREE ENERGY PREDICTED BY IDOCK:   -2.31 KCAL/MOL
REMARK 922        TOTAL FREE ENERGY PREDICTED BY IDOCK:   -2.71 KCAL/MOL
REMARK 923 INTER-LIGAND FREE ENERGY PREDICTED BY IDOCK:   -2.47 KCAL/MOL
REMARK 924 INTRA-LIGAND FREE ENERGY PREDICTED BY IDOCK:   -0.24 KCAL/MOL
REMARK 927      BINDING AFFINITY PREDICTED BY RF-SCORE:    0.00 PKD
ROOT
HETATM    1  O   UNK A   1     -11.342   5.104  65.582  1.00  0.00    -0.818 OA 
HETATM    2  H   UNK A   1     -11.968   5.060  66.295  1.00  0.00     0.000 HD 
HETATM    3  C   UNK A   1     -10.206   4.282  65.852  1.00  0.00    -0.173 C  
ENDROOT
BRANCH   3   4
HETATM    4  C   UNK A   1      -9.184   4.354  64.688  1.00  0.00    -0.156 C  
HETATM    5  N   UNK A   1      -7.907   3.681  65.016  1.00  0.00    -0.085 NA 
HETATM    6  C   UNK A   0      -8.034   2.216  64.977  1.00  0.00    -0.078 C  
HETATM    7  H   UNK A   1      -7.540   3.998  65.913  1.00  0.00     0.000 HD 
HETATM    8  C   UNK A   1      -8.539   1.687  63.620  1.00  0.00    -0.077 C  
HETATM    9  C   UNK A   1      -9.854   2.358  63.219  1.00  0.00    -0.112 C  
HETATM   10  O   UNK A   1      -7.566   1.902  62.589  1.00  0.00    -0.043 OA 
HETATM   11  O   UNK A   1     -10.931   1.903  64.053  1.00  0.00    -0.406 OA 
HETATM   12  C   UNK A   1      -9.740   3.887  63.308  1.00  0.00    -0.151 C  
HETATM   13  H   UNK A   1      -7.877   1.576  61.753  1.00  0.00     0.000 HD 
HETATM   14  H   UNK A   1     -11.747   2.320  63.804  1.00  0.00     0.000 HD 
HETATM   15  O   UNK A   1     -11.020   4.453  62.987  1.00  0.00    -0.369 OA 
HETATM   16  H   UNK A   1     -11.359   4.169  62.146  1.00  0.00     0.000 HD 
ENDBRANCH   3   4
TORSDOF 1
ENDMDL
MODEL      165
REMARK 921   NORMALIZED FREE ENERGY PREDICTED BY IDOCK:   -2.28 KCAL/MOL
REMARK 922        TOTAL FREE ENERGY PREDICTED BY IDOCK:   -2.68 KCAL/MOL
REMARK 923 INTER-LIGAND FREE ENERGY PREDICTED BY IDOCK:   -2.55 KCAL/MOL
REMARK 924 INTRA-LIGAND FREE ENERGY PREDICTED BY IDOCK:   -0.13 KCAL/MOL
REMARK 927      BINDING AFFINITY PREDICTED BY RF-SCORE:    0.00 PKD
ROOT
HETATM    1  O   UNK A   1      -8.690  10.918  69.113  1.00  0.00    -0.302 OA 
HETATM    2  H   UNK A   1      -8.957  11.433  69.865  1.00  0.00     0.000 HD 
HETATM    3  C   UNK A   1      -8.685   9.525  69.427  1.00  0.00    -0.165 C  
ENDROOT
BRANCH   3   4
HETATM    4  C   UNK A   1      -8.250   8.684  68.200  1.00  0.00    -0.115 C  
HETATM    5  N   UNK A   1      -8.286   7.229  68.470  1.00  0.00    -0.125 NA 
HETATM    6  C   UNK A   0      -9.662   6.710  68.492  1.00  0.00    -0.131 C  
HETATM    7  H   UNK A   1      -7.789   7.000  69.331  1.00  0.00     0.000 HD 
HETATM    8  C   UNK A   1     -10.437   6.991  67.189  1.00  0.00    -0.312 C  
HETATM    9  C   UNK A   1     -10.424   8.482  66.848  1.00  0.00    -0.275 C  
HETATM   10  O   UNK A   1      -9.886   6.251  66.092  1.00  0.00    -0.368 OA 
HETATM   11  O   UNK A   1     -11.247   9.220  67.765  1.00  0.00    -0.484 OA 
HETATM   12  C   UNK A   1      -8.992   9.039  66.875  1.00  0.00    -0.123 C  
HETATM   13  H   UNK A   1     -10.363   6.424  65.290  1.00  0.00     0.000 HD 
HETATM   14  H   UNK A   1     -11.238  10.146  67.553  1.00  0.00     0.000 HD 
HETATM   15  O   UNK A   1      -9.053  10.450  66.615  1.00  0.00    -0.149 OA 
HETATM   16  H   UNK A   1      -9.506  10.666  65.808  1.00  0.00     0.000 HD 
ENDBRANCH   3   4
TORSDOF 1
ENDMDL
MODEL      166
REMARK 921   NORMALIZED FREE ENERGY PREDICTED BY IDOCK:   -2.26 KCAL/MOL
REMARK 922        TOTAL FREE ENERGY PREDICTED BY IDOCK:   -2.65 KCAL/MOL
REMARK 923 INTER-LIGAND FREE ENERGY PREDICTED BY IDOCK:   -2.62 KCAL/MOL
REMARK 924 INTRA-LIGAND FREE ENERGY PREDICTED BY IDOCK:   -0.03 KCAL/MOL
REMARK 927      BINDING AFFINITY PREDICTED BY RF-SCORE:    0.00 PKD
ROOT
HETATM    1  O   UNK A   1      -9.197   8.049  65.433  1.00  0.00    -0.402 OA 
HETATM    2  H   UNK A   1      -8.356   8.143  65.001  1.00  0.00     0.000 HD 
HETATM    3  C   UNK A   1      -9.201   8.728  66.690  1.00  0.00    -0.177 C  
ENDROOT
BRANCH   3   4
HETATM    4  C   UNK A   1     -10.573   8.576  67.395  1.00  0.00    -0.234 C  
HETATM    5  N   UNK A   1     -10.628   7.387  68.275  1.00  0.00    -0.323 NA 
HETATM    6  C   UNK A   0      -9.873   7.592  69.520  1.00  0.00    -0.178 C  
HETATM    7  H   UNK A   1     -10.315   6.548  67.786  1.00  0.00     0.000 HD 
HETATM    8  C   UNK A   1     -10.347   8.823  70.320  1.00  0.00    -0.203 C  
HETATM    9  C   UNK A   1     -10.326  10.086  69.456  1.00  0.00    -0.235 C  
HETATM   10  O   UNK A   1     -11.670   8.625  70.834  1.00  0.00    -0.282 OA 
HETATM   11  O   UNK A   1      -8.976  10.496  69.189  1.00  0.00    -0.173 OA 
HETATM   12  C   UNK A   1     -11.070   9.857  68.132  1.00  0.00    -0.156 C  
HETATM   13  H   UNK A   1     -11.962   9.383  71.326  1.00  0.00     0.000 HD 
HETATM   14  H   UNK A   1      -8.963  11.279  68.652  1.00  0.00     0.000 HD 
HETATM   15  O   UNK A   1     -10.956  11.050  67.340  1.00  0.00    -0.255 OA 
HETATM   16  H   UNK A   1     -11.259  11.832  67.789  1.00  0.00     0.000 HD 
ENDBRANCH   3   4
TORSDOF 1
ENDMDL
MODEL      167
REMARK 921   NORMALIZED FREE ENERGY PREDICTED BY IDOCK:   -2.25 KCAL/MOL
REMARK 922        TOTAL FREE ENERGY PREDICTED BY IDOCK:   -2.64 KCAL/MOL
REMARK 923 INTER-LIGAND FREE ENERGY PREDICTED BY IDOCK:   -2.37 KCAL/MOL
REMARK 924 INTRA-LIGAND FREE ENERGY PREDICTED BY IDOCK:   -0.27 KCAL/MOL
REMARK 927      BINDING AFFINITY PREDICTED BY RF-SCORE:    0.00 PKD
ROOT
HETATM    1  O   UNK A   1      -9.870   3.021  66.694  1.00  0.00    -0.395 OA 
HETATM    2  H   UNK A   1     -10.397   2.449  66.150  1.00  0.00     0.000 HD 
HETATM    3  C   UNK A   1      -9.534   4.220  65.994  1.00  0.00    -0.177 C  
ENDROOT
BRANCH   3   4
HETATM    4  C   UNK A   1      -8.675   5.156  66.883  1.00  0.00    -0.107 C  
HETATM    5  N   UNK A   1      -7.913   6.146  66.090  1.00  0.00    -0.105 NA 
HETATM    6  C   UNK A   0      -8.776   7.221  65.579  1.00  0.00    -0.024 C  
HETATM    7  H   UNK A   1      -7.395   5.696  65.334  1.00  0.00     0.000 HD 
HETATM    8  C   UNK A   1      -9.542   7.964  66.693  1.00  0.00    -0.226 C  
HETATM    9  C   UNK A   1     -10.341   6.988  67.560  1.00  0.00    -0.225 C  
HETATM   10  O   UNK A   1      -8.645   8.708  67.527  1.00  0.00    -0.132 OA 
HETATM   11  O   UNK A   1     -11.459   6.460  66.830  1.00  0.00    -0.733 OA 
HETATM   12  C   UNK A   1      -9.453   5.835  68.051  1.00  0.00    -0.110 C  
HETATM   13  H   UNK A   1      -9.116   9.165  68.213  1.00  0.00     0.000 HD 
HETATM   14  H   UNK A   1     -11.955   5.854  67.368  1.00  0.00     0.000 HD 
HETATM   15  O   UNK A   1     -10.273   4.923  68.798  1.00  0.00    -0.142 OA 
HETATM   16  H   UNK A   1     -10.747   5.337  69.510  1.00  0.00     0.000 HD 
ENDBRANCH   3   4
TORSDOF 1
ENDMDL
MODEL      168
REMARK 921   NORMALIZED FREE ENERGY PREDICTED BY IDOCK:   -2.23 KCAL/MOL
REMARK 922        TOTAL FREE ENERGY PREDICTED BY IDOCK:   -2.62 KCAL/MOL
REMARK 923 INTER-LIGAND FREE ENERGY PREDICTED BY IDOCK:   -2.50 KCAL/MOL
REMARK 924 INTRA-LIGAND FREE ENERGY PREDICTED BY IDOCK:   -0.12 KCAL/MOL
REMARK 927      BINDING AFFINITY PREDICTED BY RF-SCORE:    0.00 PKD
ROOT
HETATM    1  O   UNK A   1      -7.604  10.409  64.554  1.00  0.00    -0.260 OA 
HETATM    2  H   UNK A   1      -6.968  10.682  63.904  1.00  0.00     0.000 HD 
HETATM    3  C   UNK A   1      -7.117  10.649  65.875  1.00  0.00    -0.115 C  
ENDROOT
BRANCH   3   4
HETATM    4  C   UNK A   1      -8.157  10.204  66.935  1.00  0.00    -0.121 C  
HETATM    5  N   UNK A   1      -7.830  10.701  68.291  1.00  0.00    -0.108 NA 
HETATM    6  C   UNK A   0      -8.117  12.136  68.433  1.00  0.00    -0.149 C  
HETATM    7  H   UNK A   1      -6.863  10.490  68.540  1.00  0.00     0.000 HD 
HETATM    8  C   UNK A   1      -9.583  12.495  68.114  1.00  0.00    -0.215 C  
HETATM    9  C   UNK A   1      -9.986  11.994  66.726  1.00  0.00    -0.201 C  
HETATM   10  O   UNK A   1     -10.473  11.942  69.093  1.00  0.00    -0.396 OA 
HETATM   11  O   UNK A   1      -9.337  12.762  65.701  1.00  0.00    -0.459 OA 
HETATM   12  C   UNK A   1      -9.639  10.507  66.558  1.00  0.00    -0.174 C  
HETATM   13  H   UNK A   1     -11.375  12.163  68.896  1.00  0.00     0.000 HD 
HETATM   14  H   UNK A   1      -9.588  12.450  64.839  1.00  0.00     0.000 HD 
HETATM   15  O   UNK A   1      -9.978  10.115  65.218  1.00  0.00    -0.300 OA 
HETATM   16  H   UNK A   1     -10.881  10.300  64.987  1.00  0.00     0.000 HD 
ENDBRANCH   3   4
TORSDOF 1
ENDMDL
MODEL      169
REMARK 921   NORMALIZED FREE ENERGY PREDICTED BY IDOCK:   -2.22 KCAL/MOL
REMARK 922        TOTAL FREE ENERGY PREDICTED BY IDOCK:   -2.61 KCAL/MOL
REMARK 923 INTER-LIGAND FREE ENERGY PREDICTED BY IDOCK:   -2.57 KCAL/MOL
REMARK 924 INTRA-LIGAND FREE ENERGY PREDICTED BY IDOCK:   -0.05 KCAL/MOL
REMARK 927      BINDING AFFINITY PREDICTED BY RF-SCORE:    0.00 PKD
ROOT
HETATM    1  O   UNK A   1     -11.654   4.287  64.633  1.00  0.00    -0.901 OA 
HETATM    2  H   UNK A   1     -11.823   4.010  63.740  1.00  0.00     0.000 HD 
HETATM    3  C   UNK A   1     -10.273   4.125  64.961  1.00  0.00    -0.203 C  
ENDROOT
BRANCH   3   4
HETATM    4  C   UNK A   1      -9.996   4.578  66.418  1.00  0.00    -0.245 C  
HETATM    5  N   UNK A   1      -9.562   3.459  67.284  1.00  0.00    -0.333 NA 
HETATM    6  C   UNK A   0      -8.172   3.063  67.013  1.00  0.00    -0.085 C  
HETATM    7  H   UNK A   1     -10.196   2.663  67.208  1.00  0.00     0.000 HD 
HETATM    8  C   UNK A   1      -7.169   4.225  67.165  1.00  0.00    -0.068 C  
HETATM    9  C   UNK A   1      -7.573   5.421  66.301  1.00  0.00    -0.087 C  
HETATM   10  O   UNK A   1      -7.070   4.644  68.533  1.00  0.00    -0.055 OA 
HETATM   11  O   UNK A   1      -7.374   5.131  64.909  1.00  0.00    -0.065 OA 
HETATM   12  C   UNK A   1      -9.041   5.804  66.545  1.00  0.00    -0.141 C  
HETATM   13  H   UNK A   1      -6.453   5.359  68.626  1.00  0.00     0.000 HD 
HETATM   14  H   UNK A   1      -7.625   5.874  64.372  1.00  0.00     0.000 HD 
HETATM   15  O   UNK A   1      -9.377   6.883  65.659  1.00  0.00    -0.382 OA 
HETATM   16  H   UNK A   1      -8.796   7.631  65.737  1.00  0.00     0.000 HD 
ENDBRANCH   3   4
TORSDOF 1
ENDMDL
MODEL      170
REMARK 921   NORMALIZED FREE ENERGY PREDICTED BY IDOCK:   -2.18 KCAL/MOL
REMARK 922        TOTAL FREE ENERGY PREDICTED BY IDOCK:   -2.57 KCAL/MOL
REMARK 923 INTER-LIGAND FREE ENERGY PREDICTED BY IDOCK:   -2.53 KCAL/MOL
REMARK 924 INTRA-LIGAND FREE ENERGY PREDICTED BY IDOCK:   -0.04 KCAL/MOL
REMARK 927      BINDING AFFINITY PREDICTED BY RF-SCORE:    0.00 PKD
ROOT
HETATM    1  O   UNK A   1      -7.891  10.523  69.601  1.00  0.00    -0.247 OA 
HETATM    2  H   UNK A   1      -7.623  11.313  70.054  1.00  0.00     0.000 HD 
HETATM    3  C   UNK A   1      -8.702   9.705  70.445  1.00  0.00    -0.166 C  
ENDROOT
BRANCH   3   4
HETATM    4  C   UNK A   1      -9.141   8.414  69.707  1.00  0.00    -0.153 C  
HETATM    5  N   UNK A   1      -8.349   7.233  70.115  1.00  0.00    -0.135 NA 
HETATM    6  C   UNK A   0      -8.735   6.747  71.448  1.00  0.00    -0.131 C  
HETATM    7  H   UNK A   1      -7.347   7.422  70.064  1.00  0.00     0.000 HD 
HETATM    8  C   UNK A   1     -10.234   6.400  71.556  1.00  0.00    -0.194 C  
HETATM    9  C   UNK A   1     -11.108   7.582  71.133  1.00  0.00    -0.251 C  
HETATM   10  O   UNK A   1     -10.558   5.261  70.748  1.00  0.00    -0.245 OA 
HETATM   11  O   UNK A   1     -11.048   8.633  72.110  1.00  0.00    -0.340 OA 
HETATM   12  C   UNK A   1     -10.672   8.124  69.762  1.00  0.00    -0.229 C  
HETATM   13  H   UNK A   1     -11.480   5.047  70.815  1.00  0.00     0.000 HD 
HETATM   14  H   UNK A   1     -11.590   9.367  71.847  1.00  0.00     0.000 HD 
HETATM   15  O   UNK A   1     -11.482   9.269  69.454  1.00  0.00    -0.436 OA 
HETATM   16  H   UNK A   1     -12.415   9.092  69.488  1.00  0.00     0.000 HD 
ENDBRANCH   3   4
TORSDOF 1
ENDMDL
MODEL      171
REMARK 921   NORMALIZED FREE ENERGY PREDICTED BY IDOCK:   -2.15 KCAL/MOL
REMARK 922        TOTAL FREE ENERGY PREDICTED BY IDOCK:   -2.54 KCAL/MOL
REMARK 923 INTER-LIGAND FREE ENERGY PREDICTED BY IDOCK:   -2.27 KCAL/MOL
REMARK 924 INTRA-LIGAND FREE ENERGY PREDICTED BY IDOCK:   -0.26 KCAL/MOL
REMARK 927      BINDING AFFINITY PREDICTED BY RF-SCORE:    0.00 PKD
ROOT
HETATM    1  O   UNK A   1      -6.306  12.430  70.140  1.00  0.00    -0.332 OA 
HETATM    2  H   UNK A   1      -6.616  11.642  70.570  1.00  0.00     0.000 HD 
HETATM    3  C   UNK A   1      -7.136  12.759  69.024  1.00  0.00    -0.025 C  
ENDROOT
BRANCH   3   4
HETATM    4  C   UNK A   1      -6.630  14.046  68.322  1.00  0.00    -0.110 C  
HETATM    5  N   UNK A   1      -7.189  14.203  66.961  1.00  0.00    -0.340 NA 
HETATM    6  C   UNK A   0      -8.597  14.626  66.991  1.00  0.00    -0.224 C  
HETATM    7  H   UNK A   1      -7.069  13.352  66.410  1.00  0.00     0.000 HD 
HETATM    8  C   UNK A   1      -8.819  15.937  67.772  1.00  0.00    -0.175 C  
HETATM    9  C   UNK A   1      -8.248  15.841  69.189  1.00  0.00    -0.247 C  
HETATM   10  O   UNK A   1      -8.217  17.048  67.096  1.00  0.00    -0.179 OA 
HETATM   11  O   UNK A   1      -9.042  14.959  69.997  1.00  0.00    -0.411 OA 
HETATM   12  C   UNK A   1      -6.793  15.350  69.162  1.00  0.00    -0.144 C  
HETATM   13  H   UNK A   1      -8.353  17.855  67.577  1.00  0.00     0.000 HD 
HETATM   14  H   UNK A   1      -8.688  14.899  70.876  1.00  0.00     0.000 HD 
HETATM   15  O   UNK A   1      -6.339  15.216  70.518  1.00  0.00    -0.088 OA 
HETATM   16  H   UNK A   1      -6.438  16.010  71.030  1.00  0.00     0.000 HD 
ENDBRANCH   3   4
TORSDOF 1
ENDMDL
MODEL      172
REMARK 921   NORMALIZED FREE ENERGY PREDICTED BY IDOCK:   -2.14 KCAL/MOL
REMARK 922        TOTAL FREE ENERGY PREDICTED BY IDOCK:   -2.52 KCAL/MOL
REMARK 923 INTER-LIGAND FREE ENERGY PREDICTED BY IDOCK:   -2.30 KCAL/MOL
REMARK 924 INTRA-LIGAND FREE ENERGY PREDICTED BY IDOCK:   -0.23 KCAL/MOL
REMARK 927      BINDING AFFINITY PREDICTED BY RF-SCORE:    0.00 PKD
ROOT
HETATM    1  O   UNK A   1      -6.290  12.418  70.228  1.00  0.00    -0.358 OA 
HETATM    2  H   UNK A   1      -6.110  12.097  71.104  1.00  0.00     0.000 HD 
HETATM    3  C   UNK A   1      -7.009  11.445  69.469  1.00  0.00    -0.063 C  
ENDROOT
BRANCH   3   4
HETATM    4  C   UNK A   1      -7.305  11.968  68.040  1.00  0.00    -0.102 C  
HETATM    5  N   UNK A   1      -7.255  10.894  67.024  1.00  0.00    -0.107 NA 
HETATM    6  C   UNK A   0      -8.441  10.027  67.083  1.00  0.00    -0.125 C  
HETATM    7  H   UNK A   1      -6.394  10.351  67.100  1.00  0.00     0.000 HD 
HETATM    8  C   UNK A   1      -9.766  10.800  66.922  1.00  0.00    -0.178 C  
HETATM    9  C   UNK A   1      -9.870  11.937  67.941  1.00  0.00    -0.190 C  
HETATM   10  O   UNK A   1      -9.890  11.339  65.600  1.00  0.00    -0.214 OA 
HETATM   11  O   UNK A   1     -10.072  11.416  69.264  1.00  0.00    -0.413 OA 
HETATM   12  C   UNK A   1      -8.609  12.814  67.916  1.00  0.00    -0.181 C  
HETATM   13  H   UNK A   1     -10.705  11.815  65.501  1.00  0.00     0.000 HD 
HETATM   14  H   UNK A   1     -10.136  12.122  69.896  1.00  0.00     0.000 HD 
HETATM   15  O   UNK A   1      -8.738  13.817  68.936  1.00  0.00    -0.364 OA 
HETATM   16  H   UNK A   1      -9.533  14.332  68.861  1.00  0.00     0.000 HD 
ENDBRANCH   3   4
TORSDOF 1
ENDMDL
MODEL      173
REMARK 921   NORMALIZED FREE ENERGY PREDICTED BY IDOCK:   -2.14 KCAL/MOL
REMARK 922        TOTAL FREE ENERGY PREDICTED BY IDOCK:   -2.52 KCAL/MOL
REMARK 923 INTER-LIGAND FREE ENERGY PREDICTED BY IDOCK:   -2.42 KCAL/MOL
REMARK 924 INTRA-LIGAND FREE ENERGY PREDICTED BY IDOCK:   -0.10 KCAL/MOL
REMARK 927      BINDING AFFINITY PREDICTED BY RF-SCORE:    0.00 PKD
ROOT
HETATM    1  O   UNK A   1      -9.397  11.620  69.204  1.00  0.00    -0.404 OA 
HETATM    2  H   UNK A   1      -8.731  12.020  69.751  1.00  0.00     0.000 HD 
HETATM    3  C   UNK A   1      -8.804  10.942  68.095  1.00  0.00    -0.137 C  
ENDROOT
BRANCH   3   4
HETATM    4  C   UNK A   1      -9.891  10.288  67.204  1.00  0.00    -0.185 C  
HETATM    5  N   UNK A   1      -9.333   9.267  66.290  1.00  0.00    -0.182 NA 
HETATM    6  C   UNK A   0      -8.992   8.024  66.999  1.00  0.00    -0.138 C  
HETATM    7  H   UNK A   1      -8.532   9.630  65.773  1.00  0.00     0.000 HD 
HETATM    8  C   UNK A   1     -10.188   7.411  67.756  1.00  0.00    -0.196 C  
HETATM    9  C   UNK A   1     -10.818   8.427  68.710  1.00  0.00     0.052 C  
HETATM   10  O   UNK A   1     -11.186   6.937  66.844  1.00  0.00    -0.597 OA 
HETATM   11  O   UNK A   1      -9.951   8.682  69.826  1.00  0.00    -0.183 OA 
HETATM   12  C   UNK A   1     -11.128   9.744  67.983  1.00  0.00    -0.106 C  
HETATM   13  H   UNK A   1     -11.923   6.560  67.310  1.00  0.00     0.000 HD 
HETATM   14  H   UNK A   1     -10.343   9.313  70.418  1.00  0.00     0.000 HD 
HETATM   15  O   UNK A   1     -11.652  10.675  68.943  1.00  0.00    -0.341 OA 
HETATM   16  H   UNK A   1     -12.406  10.344  69.418  1.00  0.00     0.000 HD 
ENDBRANCH   3   4
TORSDOF 1
ENDMDL
MODEL      174
REMARK 921   NORMALIZED FREE ENERGY PREDICTED BY IDOCK:   -2.13 KCAL/MOL
REMARK 922        TOTAL FREE ENERGY PREDICTED BY IDOCK:   -2.52 KCAL/MOL
REMARK 923 INTER-LIGAND FREE ENERGY PREDICTED BY IDOCK:   -2.52 KCAL/MOL
REMARK 924 INTRA-LIGAND FREE ENERGY PREDICTED BY IDOCK:    0.00 KCAL/MOL
REMARK 927      BINDING AFFINITY PREDICTED BY RF-SCORE:    0.00 PKD
ROOT
HETATM    1  O   UNK A   1     -10.256   5.254  68.559  1.00  0.00    -0.174 OA 
HETATM    2  H   UNK A   1     -10.231   4.421  68.105  1.00  0.00     0.000 HD 
HETATM    3  C   UNK A   1      -9.609   5.160  69.829  1.00  0.00    -0.175 C  
ENDROOT
BRANCH   3   4
HETATM    4  C   UNK A   1      -9.649   6.521  70.570  1.00  0.00    -0.169 C  
HETATM    5  N   UNK A   1     -10.878   7.291  70.273  1.00  0.00    -0.240 NA 
HETATM    6  C   UNK A   0     -12.052   6.740  70.967  1.00  0.00    -0.372 C  
HETATM    7  H   UNK A   1     -11.039   7.358  69.267  1.00  0.00     0.000 HD 
HETATM    8  C   UNK A   1     -11.872   6.665  72.497  1.00  0.00    -0.113 C  
HETATM    9  C   UNK A   1     -10.606   5.891  72.868  1.00  0.00    -0.235 C  
HETATM   10  O   UNK A   1     -11.808   7.977  73.072  1.00  0.00    -0.587 OA 
HETATM   11  O   UNK A   1     -10.768   4.491  72.592  1.00  0.00    -0.200 OA 
HETATM   12  C   UNK A   1      -9.387   6.432  72.105  1.00  0.00    -0.149 C  
HETATM   13  H   UNK A   1     -11.697   7.932  74.013  1.00  0.00     0.000 HD 
HETATM   14  H   UNK A   1      -9.981   4.011  72.822  1.00  0.00     0.000 HD 
HETATM   15  O   UNK A   1      -8.249   5.624  72.443  1.00  0.00    -0.110 OA 
HETATM   16  H   UNK A   1      -8.089   5.570  73.379  1.00  0.00     0.000 HD 
ENDBRANCH   3   4
TORSDOF 1
ENDMDL
MODEL      175
REMARK 921   NORMALIZED FREE ENERGY PREDICTED BY IDOCK:   -2.12 KCAL/MOL
REMARK 922        TOTAL FREE ENERGY PREDICTED BY IDOCK:   -2.51 KCAL/MOL
REMARK 923 INTER-LIGAND FREE ENERGY PREDICTED BY IDOCK:   -2.71 KCAL/MOL
REMARK 924 INTRA-LIGAND FREE ENERGY PREDICTED BY IDOCK:    0.20 KCAL/MOL
REMARK 927      BINDING AFFINITY PREDICTED BY RF-SCORE:    0.00 PKD
ROOT
HETATM    1  O   UNK A   1     -10.462   5.115  72.194  1.00  0.00    -0.211 OA 
HETATM    2  H   UNK A   1     -11.063   4.444  72.494  1.00  0.00     0.000 HD 
HETATM    3  C   UNK A   1     -11.162   6.319  71.877  1.00  0.00    -0.283 C  
ENDROOT
BRANCH   3   4
HETATM    4  C   UNK A   1     -10.180   7.415  71.387  1.00  0.00    -0.187 C  
HETATM    5  N   UNK A   1      -8.829   6.878  71.106  1.00  0.00    -0.142 NA 
HETATM    6  C   UNK A   0      -8.794   6.112  69.851  1.00  0.00    -0.140 C  
HETATM    7  H   UNK A   1      -8.480   6.324  71.888  1.00  0.00     0.000 HD 
HETATM    8  C   UNK A   1      -9.267   6.927  68.630  1.00  0.00    -0.130 C  
HETATM    9  C   UNK A   1     -10.657   7.521  68.866  1.00  0.00    -0.169 C  
HETATM   10  O   UNK A   1      -8.347   7.984  68.329  1.00  0.00    -0.122 OA 
HETATM   11  O   UNK A   1     -11.658   6.492  68.853  1.00  0.00    -0.606 OA 
HETATM   12  C   UNK A   1     -10.711   8.278  70.202  1.00  0.00    -0.239 C  
HETATM   13  H   UNK A   1      -8.639   8.486  67.577  1.00  0.00     0.000 HD 
HETATM   14  H   UNK A   1     -12.521   6.861  69.000  1.00  0.00     0.000 HD 
HETATM   15  O   UNK A   1     -12.053   8.752  70.397  1.00  0.00    -0.477 OA 
HETATM   16  H   UNK A   1     -12.376   9.278  69.675  1.00  0.00     0.000 HD 
ENDBRANCH   3   4
TORSDOF 1
ENDMDL
MODEL      176
REMARK 921   NORMALIZED FREE ENERGY PREDICTED BY IDOCK:   -2.09 KCAL/MOL
REMARK 922        TOTAL FREE ENERGY PREDICTED BY IDOCK:   -2.48 KCAL/MOL
REMARK 923 INTER-LIGAND FREE ENERGY PREDICTED BY IDOCK:   -2.67 KCAL/MOL
REMARK 924 INTRA-LIGAND FREE ENERGY PREDICTED BY IDOCK:    0.20 KCAL/MOL
REMARK 927      BINDING AFFINITY PREDICTED BY RF-SCORE:    0.00 PKD
ROOT
HETATM    1  O   UNK A   1      -8.060   8.730  68.987  1.00  0.00    -0.112 OA 
HETATM    2  H   UNK A   1      -7.306   8.867  69.548  1.00  0.00     0.000 HD 
HETATM    3  C   UNK A   1      -9.133   8.132  69.716  1.00  0.00    -0.148 C  
ENDROOT
BRANCH   3   4
HETATM    4  C   UNK A   1     -10.364   7.910  68.800  1.00  0.00    -0.203 C  
HETATM    5  N   UNK A   1     -10.044   8.098  67.368  1.00  0.00    -0.210 NA 
HETATM    6  C   UNK A   0      -9.281   6.965  66.823  1.00  0.00    -0.152 C  
HETATM    7  H   UNK A   1      -9.560   8.982  67.209  1.00  0.00     0.000 HD 
HETATM    8  C   UNK A   1     -10.000   5.611  66.997  1.00  0.00    -0.169 C  
HETATM    9  C   UNK A   1     -10.370   5.365  68.461  1.00  0.00    -0.149 C  
HETATM   10  O   UNK A   1     -11.186   5.550  66.194  1.00  0.00    -0.774 OA 
HETATM   11  O   UNK A   1      -9.195   5.100  69.243  1.00  0.00    -0.102 OA 
HETATM   12  C   UNK A   1     -11.122   6.569  69.047  1.00  0.00    -0.310 C  
HETATM   13  H   UNK A   1     -11.628   4.717  66.301  1.00  0.00     0.000 HD 
HETATM   14  H   UNK A   1      -9.425   4.947  70.152  1.00  0.00     0.000 HD 
HETATM   15  O   UNK A   1     -11.380   6.306  70.435  1.00  0.00    -0.345 OA 
HETATM   16  H   UNK A   1     -11.842   5.489  70.585  1.00  0.00     0.000 HD 
ENDBRANCH   3   4
TORSDOF 1
ENDMDL
MODEL      177
REMARK 921   NORMALIZED FREE ENERGY PREDICTED BY IDOCK:   -2.07 KCAL/MOL
REMARK 922        TOTAL FREE ENERGY PREDICTED BY IDOCK:   -2.45 KCAL/MOL
REMARK 923 INTER-LIGAND FREE ENERGY PREDICTED BY IDOCK:   -2.45 KCAL/MOL
REMARK 924 INTRA-LIGAND FREE ENERGY PREDICTED BY IDOCK:   -0.01 KCAL/MOL
REMARK 927      BINDING AFFINITY PREDICTED BY RF-SCORE:    0.00 PKD
ROOT
HETATM    1  O   UNK A   1     -11.270   5.972  66.292  1.00  0.00    -0.709 OA 
HETATM    2  H   UNK A   1     -12.219   5.960  66.256  1.00  0.00     0.000 HD 
HETATM    3  C   UNK A   1     -10.813   6.017  67.644  1.00  0.00    -0.295 C  
ENDROOT
BRANCH   3   4
HETATM    4  C   UNK A   1      -9.264   6.035  67.703  1.00  0.00    -0.107 C  
HETATM    5  N   UNK A   1      -8.738   5.424  68.944  1.00  0.00    -0.098 NA 
HETATM    6  C   UNK A   0      -8.842   3.957  68.919  1.00  0.00    -0.107 C  
HETATM    7  H   UNK A   1      -9.192   5.813  69.771  1.00  0.00     0.000 HD 
HETATM    8  C   UNK A   1      -8.126   3.319  67.710  1.00  0.00    -0.079 C  
HETATM    9  C   UNK A   1      -8.619   3.923  66.393  1.00  0.00    -0.111 C  
HETATM   10  O   UNK A   1      -6.706   3.490  67.804  1.00  0.00    -0.041 OA 
HETATM   11  O   UNK A   1      -9.961   3.498  66.111  1.00  0.00    -0.414 OA 
HETATM   12  C   UNK A   1      -8.560   5.458  66.437  1.00  0.00    -0.119 C  
HETATM   13  H   UNK A   1      -6.265   3.097  67.060  1.00  0.00     0.000 HD 
HETATM   14  H   UNK A   1     -10.268   3.873  65.294  1.00  0.00     0.000 HD 
HETATM   15  O   UNK A   1      -9.098   5.963  65.205  1.00  0.00    -0.364 OA 
HETATM   16  H   UNK A   1      -8.668   5.611  64.433  1.00  0.00     0.000 HD 
ENDBRANCH   3   4
TORSDOF 1
ENDMDL
MODEL      178
REMARK 921   NORMALIZED FREE ENERGY PREDICTED BY IDOCK:   -2.01 KCAL/MOL
REMARK 922        TOTAL FREE ENERGY PREDICTED BY IDOCK:   -2.39 KCAL/MOL
REMARK 923 INTER-LIGAND FREE ENERGY PREDICTED BY IDOCK:   -2.14 KCAL/MOL
REMARK 924 INTRA-LIGAND FREE ENERGY PREDICTED BY IDOCK:   -0.25 KCAL/MOL
REMARK 927      BINDING AFFINITY PREDICTED BY RF-SCORE:    0.00 PKD
ROOT
HETATM    1  O   UNK A   1      -8.158   7.020  68.849  1.00  0.00    -0.118 OA 
HETATM    2  H   UNK A   1      -8.181   6.075  68.944  1.00  0.00     0.000 HD 
HETATM    3  C   UNK A   1      -7.718   7.388  67.541  1.00  0.00    -0.111 C  
ENDROOT
BRANCH   3   4
HETATM    4  C   UNK A   1      -7.680   8.931  67.386  1.00  0.00    -0.096 C  
HETATM    5  N   UNK A   1      -6.995   9.357  66.145  1.00  0.00    -0.089 NA 
HETATM    6  C   UNK A   0      -7.827   9.134  64.954  1.00  0.00    -0.117 C  
HETATM    7  H   UNK A   1      -6.084   8.905  66.051  1.00  0.00     0.000 HD 
HETATM    8  C   UNK A   1      -9.197   9.841  65.031  1.00  0.00    -0.249 C  
HETATM    9  C   UNK A   1      -9.950   9.449  66.304  1.00  0.00    -0.283 C  
HETATM   10  O   UNK A   1      -9.043  11.265  64.993  1.00  0.00    -0.330 OA 
HETATM   11  O   UNK A   1     -10.402   8.088  66.228  1.00  0.00    -0.461 OA 
HETATM   12  C   UNK A   1      -9.063   9.632  67.545  1.00  0.00    -0.130 C  
HETATM   13  H   UNK A   1      -9.886  11.700  65.040  1.00  0.00     0.000 HD 
HETATM   14  H   UNK A   1     -10.870   7.846  67.018  1.00  0.00     0.000 HD 
HETATM   15  O   UNK A   1      -9.801   9.186  68.694  1.00  0.00    -0.156 OA 
HETATM   16  H   UNK A   1     -10.644   9.614  68.791  1.00  0.00     0.000 HD 
ENDBRANCH   3   4
TORSDOF 1
ENDMDL
MODEL      179
REMARK 921   NORMALIZED FREE ENERGY PREDICTED BY IDOCK:   -2.00 KCAL/MOL
REMARK 922        TOTAL FREE ENERGY PREDICTED BY IDOCK:   -2.37 KCAL/MOL
REMARK 923 INTER-LIGAND FREE ENERGY PREDICTED BY IDOCK:   -2.34 KCAL/MOL
REMARK 924 INTRA-LIGAND FREE ENERGY PREDICTED BY IDOCK:   -0.04 KCAL/MOL
REMARK 927      BINDING AFFINITY PREDICTED BY RF-SCORE:    0.00 PKD
ROOT
HETATM    1  O   UNK A   1     -12.209  12.777  66.778  1.00  0.00    -0.470 OA 
HETATM    2  H   UNK A   1     -12.642  13.016  65.967  1.00  0.00     0.000 HD 
HETATM    3  C   UNK A   1     -10.826  13.133  66.739  1.00  0.00    -0.276 C  
ENDROOT
BRANCH   3   4
HETATM    4  C   UNK A   1     -10.119  12.743  68.063  1.00  0.00    -0.230 C  
HETATM    5  N   UNK A   1      -9.400  11.453  67.960  1.00  0.00    -0.165 NA 
HETATM    6  C   UNK A   0      -8.155  11.580  67.189  1.00  0.00    -0.159 C  
HETATM    7  H   UNK A   1     -10.001  10.723  67.577  1.00  0.00     0.000 HD 
HETATM    8  C   UNK A   1      -7.192  12.640  67.763  1.00  0.00    -0.127 C  
HETATM    9  C   UNK A   1      -7.884  13.996  67.906  1.00  0.00    -0.160 C  
HETATM   10  O   UNK A   1      -6.681  12.234  69.039  1.00  0.00    -0.096 OA 
HETATM   11  O   UNK A   1      -8.123  14.582  66.617  1.00  0.00    -0.354 OA 
HETATM   12  C   UNK A   1      -9.211  13.858  68.666  1.00  0.00    -0.094 C  
HETATM   13  H   UNK A   1      -6.088  12.886  69.392  1.00  0.00     0.000 HD 
HETATM   14  H   UNK A   1      -8.553  15.425  66.705  1.00  0.00     0.000 HD 
HETATM   15  O   UNK A   1      -9.843  15.148  68.707  1.00  0.00    -0.208 OA 
HETATM   16  H   UNK A   1      -9.289  15.827  69.075  1.00  0.00     0.000 HD 
ENDBRANCH   3   4
TORSDOF 1
ENDMDL
MODEL      180
REMARK 921   NORMALIZED FREE ENERGY PREDICTED BY IDOCK:   -1.99 KCAL/MOL
REMARK 922        TOTAL FREE ENERGY PREDICTED BY IDOCK:   -2.37 KCAL/MOL
REMARK 923 INTER-LIGAND FREE ENERGY PREDICTED BY IDOCK:   -2.71 KCAL/MOL
REMARK 924 INTRA-LIGAND FREE ENERGY PREDICTED BY IDOCK:    0.35 KCAL/MOL
REMARK 927      BINDING AFFINITY PREDICTED BY RF-SCORE:    0.00 PKD
ROOT
HETATM    1  O   UNK A   1      -8.188  12.960  68.087  1.00  0.00    -0.148 OA 
HETATM    2  H   UNK A   1      -7.522  12.365  68.410  1.00  0.00     0.000 HD 
HETATM    3  C   UNK A   1      -7.608  14.200  67.680  1.00  0.00    -0.180 C  
ENDROOT
BRANCH   3   4
HETATM    4  C   UNK A   1      -8.696  15.170  67.151  1.00  0.00    -0.216 C  
HETATM    5  N   UNK A   1      -9.892  14.458  66.650  1.00  0.00    -0.269 NA 
HETATM    6  C   UNK A   0     -10.719  13.934  67.747  1.00  0.00    -0.246 C  
HETATM    7  H   UNK A   1      -9.637  13.720  65.993  1.00  0.00     0.000 HD 
HETATM    8  C   UNK A   1     -11.171  15.025  68.740  1.00  0.00    -0.277 C  
HETATM    9  C   UNK A   1      -9.975  15.808  69.284  1.00  0.00    -0.262 C  
HETATM   10  O   UNK A   1     -12.089  15.936  68.120  1.00  0.00    -0.283 OA 
HETATM   11  O   UNK A   1      -9.201  14.994  70.180  1.00  0.00    -0.397 OA 
HETATM   12  C   UNK A   1      -9.082  16.312  68.140  1.00  0.00    -0.188 C  
HETATM   13  H   UNK A   1     -12.367  16.607  68.731  1.00  0.00     0.000 HD 
HETATM   14  H   UNK A   1      -8.458  15.481  70.518  1.00  0.00     0.000 HD 
HETATM   15  O   UNK A   1      -7.946  16.977  68.716  1.00  0.00    -0.245 OA 
HETATM   16  H   UNK A   1      -8.182  17.673  69.319  1.00  0.00     0.000 HD 
ENDBRANCH   3   4
TORSDOF 1
ENDMDL
MODEL      181
REMARK 921   NORMALIZED FREE ENERGY PREDICTED BY IDOCK:   -1.97 KCAL/MOL
REMARK 922        TOTAL FREE ENERGY PREDICTED BY IDOCK:   -2.35 KCAL/MOL
REMARK 923 INTER-LIGAND FREE ENERGY PREDICTED BY IDOCK:   -2.30 KCAL/MOL
REMARK 924 INTRA-LIGAND FREE ENERGY PREDICTED BY IDOCK:   -0.05 KCAL/MOL
REMARK 927      BINDING AFFINITY PREDICTED BY RF-SCORE:    0.00 PKD
ROOT
HETATM    1  O   UNK A   1      -9.896   8.626  65.877  1.00  0.00    -0.452 OA 
HETATM    2  H   UNK A   1      -9.726   9.545  66.051  1.00  0.00     0.000 HD 
HETATM    3  C   UNK A   1      -9.208   7.797  66.814  1.00  0.00    -0.163 C  
ENDROOT
BRANCH   3   4
HETATM    4  C   UNK A   1      -9.486   6.298  66.532  1.00  0.00    -0.152 C  
HETATM    5  N   UNK A   1      -8.241   5.512  66.376  1.00  0.00    -0.105 NA 
HETATM    6  C   UNK A   0      -7.579   5.273  67.667  1.00  0.00    -0.088 C  
HETATM    7  H   UNK A   1      -7.606   5.952  65.709  1.00  0.00     0.000 HD 
HETATM    8  C   UNK A   1      -8.487   4.563  68.692  1.00  0.00    -0.085 C  
HETATM    9  C   UNK A   1      -9.801   5.323  68.886  1.00  0.00    -0.164 C  
HETATM   10  O   UNK A   1      -8.776   3.220  68.281  1.00  0.00    -0.089 OA 
HETATM   11  O   UNK A   1      -9.576   6.552  69.595  1.00  0.00    -0.148 OA 
HETATM   12  C   UNK A   1     -10.468   5.620  67.535  1.00  0.00    -0.229 C  
HETATM   13  H   UNK A   1      -9.335   2.784  68.912  1.00  0.00     0.000 HD 
HETATM   14  H   UNK A   1     -10.392   7.024  69.716  1.00  0.00     0.000 HD 
HETATM   15  O   UNK A   1     -11.655   6.391  67.780  1.00  0.00    -0.622 OA 
HETATM   16  H   UNK A   1     -12.255   5.978  68.391  1.00  0.00     0.000 HD 
ENDBRANCH   3   4
TORSDOF 1
ENDMDL
MODEL      182
REMARK 921   NORMALIZED FREE ENERGY PREDICTED BY IDOCK:   -1.95 KCAL/MOL
REMARK 922        TOTAL FREE ENERGY PREDICTED BY IDOCK:   -2.33 KCAL/MOL
REMARK 923 INTER-LIGAND FREE ENERGY PREDICTED BY IDOCK:   -2.29 KCAL/MOL
REMARK 924 INTRA-LIGAND FREE ENERGY PREDICTED BY IDOCK:   -0.04 KCAL/MOL
REMARK 927      BINDING AFFINITY PREDICTED BY RF-SCORE:    0.00 PKD
ROOT
HETATM    1  O   UNK A   1     -11.719   4.478  65.056  1.00  0.00    -1.044 OA 
HETATM    2  H   UNK A   1     -12.283   4.683  65.791  1.00  0.00     0.000 HD 
HETATM    3  C   UNK A   1     -10.348   4.460  65.456  1.00  0.00    -0.224 C  
ENDROOT
BRANCH   3   4
HETATM    4  C   UNK A   1      -9.427   4.123  64.256  1.00  0.00    -0.160 C  
HETATM    5  N   UNK A   1      -8.867   5.335  63.616  1.00  0.00    -0.340 NA 
HETATM    6  C   UNK A   0      -7.798   5.939  64.425  1.00  0.00    -0.112 C  
HETATM    7  H   UNK A   1      -9.599   6.014  63.403  1.00  0.00     0.000 HD 
HETATM    8  C   UNK A   1      -6.644   4.962  64.729  1.00  0.00    -0.043 C  
HETATM    9  C   UNK A   1      -7.162   3.679  65.382  1.00  0.00    -0.067 C  
HETATM   10  O   UNK A   1      -5.925   4.627  63.535  1.00  0.00    -0.017 OA 
HETATM   11  O   UNK A   1      -7.603   3.934  66.724  1.00  0.00    -0.082 OA 
HETATM   12  C   UNK A   1      -8.315   3.075  64.565  1.00  0.00    -0.090 C  
HETATM   13  H   UNK A   1      -5.214   4.025  63.723  1.00  0.00     0.000 HD 
HETATM   14  H   UNK A   1      -7.925   3.138  67.129  1.00  0.00     0.000 HD 
HETATM   15  O   UNK A   1      -8.801   1.917  65.262  1.00  0.00    -0.112 OA 
HETATM   16  H   UNK A   1      -8.123   1.277  65.450  1.00  0.00     0.000 HD 
ENDBRANCH   3   4
TORSDOF 1
ENDMDL
MODEL      183
REMARK 921   NORMALIZED FREE ENERGY PREDICTED BY IDOCK:   -1.93 KCAL/MOL
REMARK 922        TOTAL FREE ENERGY PREDICTED BY IDOCK:   -2.31 KCAL/MOL
REMARK 923 INTER-LIGAND FREE ENERGY PREDICTED BY IDOCK:   -2.18 KCAL/MOL
REMARK 924 INTRA-LIGAND FREE ENERGY PREDICTED BY IDOCK:   -0.12 KCAL/MOL
REMARK 927      BINDING AFFINITY PREDICTED BY RF-SCORE:    0.00 PKD
ROOT
HETATM    1  O   UNK A   1      -9.852   4.054  70.842  1.00  0.00    -0.185 OA 
HETATM    2  H   UNK A   1     -10.443   3.310  70.850  1.00  0.00     0.000 HD 
HETATM    3  C   UNK A   1     -10.566   5.272  71.058  1.00  0.00    -0.170 C  
ENDROOT
BRANCH   3   4
HETATM    4  C   UNK A   1      -9.603   6.486  71.045  1.00  0.00    -0.175 C  
HETATM    5  N   UNK A   1     -10.257   7.732  71.503  1.00  0.00    -0.181 NA 
HETATM    6  C   UNK A   0     -10.451   7.745  72.961  1.00  0.00    -0.369 C  
HETATM    7  H   UNK A   1     -11.137   7.891  71.011  1.00  0.00     0.000 HD 
HETATM    8  C   UNK A   1      -9.138   7.557  73.748  1.00  0.00    -0.260 C  
HETATM    9  C   UNK A   1      -8.405   6.288  73.307  1.00  0.00    -0.115 C  
HETATM   10  O   UNK A   1      -8.270   8.685  73.579  1.00  0.00    -0.404 OA 
HETATM   11  O   UNK A   1      -9.107   5.117  73.753  1.00  0.00    -0.123 OA 
HETATM   12  C   UNK A   1      -8.248   6.248  71.780  1.00  0.00    -0.117 C  
HETATM   13  H   UNK A   1      -7.462   8.569  74.063  1.00  0.00     0.000 HD 
HETATM   14  H   UNK A   1      -8.652   4.329  73.479  1.00  0.00     0.000 HD 
HETATM   15  O   UNK A   1      -7.618   5.006  71.426  1.00  0.00    -0.082 OA 
HETATM   16  H   UNK A   1      -6.792   4.861  71.874  1.00  0.00     0.000 HD 
ENDBRANCH   3   4
TORSDOF 1
ENDMDL
MODEL      184
REMARK 921   NORMALIZED FREE ENERGY PREDICTED BY IDOCK:   -1.93 KCAL/MOL
REMARK 922        TOTAL FREE ENERGY PREDICTED BY IDOCK:   -2.30 KCAL/MOL
REMARK 923 INTER-LIGAND FREE ENERGY PREDICTED BY IDOCK:   -2.18 KCAL/MOL
REMARK 924 INTRA-LIGAND FREE ENERGY PREDICTED BY IDOCK:   -0.12 KCAL/MOL
REMARK 927      BINDING AFFINITY PREDICTED BY RF-SCORE:    0.00 PKD
ROOT
HETATM    1  O   UNK A   1      -8.096  14.650  66.772  1.00  0.00    -0.370 OA 
HETATM    2  H   UNK A   1      -8.070  15.268  66.051  1.00  0.00     0.000 HD 
HETATM    3  C   UNK A   1      -9.264  13.830  66.697  1.00  0.00    -0.223 C  
ENDROOT
BRANCH   3   4
HETATM    4  C   UNK A   1      -9.306  12.822  67.874  1.00  0.00    -0.208 C  
HETATM    5  N   UNK A   1     -10.491  11.937  67.817  1.00  0.00    -0.198 NA 
HETATM    6  C   UNK A   0     -10.357  10.906  66.777  1.00  0.00    -0.241 C  
HETATM    7  H   UNK A   1     -11.350  12.475  67.697  1.00  0.00     0.000 HD 
HETATM    8  C   UNK A   1      -9.096  10.034  66.948  1.00  0.00    -0.139 C  
HETATM    9  C   UNK A   1      -7.834  10.896  67.027  1.00  0.00    -0.132 C  
HETATM   10  O   UNK A   1      -9.187   9.222  68.126  1.00  0.00    -0.131 OA 
HETATM   11  O   UNK A   1      -7.536  11.477  65.749  1.00  0.00    -0.312 OA 
HETATM   12  C   UNK A   1      -7.993  12.007  68.077  1.00  0.00    -0.149 C  
HETATM   13  H   UNK A   1      -8.411   8.686  68.231  1.00  0.00     0.000 HD 
HETATM   14  H   UNK A   1      -6.752  12.013  65.798  1.00  0.00     0.000 HD 
HETATM   15  O   UNK A   1      -6.808  12.818  68.055  1.00  0.00    -0.076 OA 
HETATM   16  H   UNK A   1      -6.007  12.321  68.179  1.00  0.00     0.000 HD 
ENDBRANCH   3   4
TORSDOF 1
ENDMDL
MODEL      185
REMARK 921   NORMALIZED FREE ENERGY PREDICTED BY IDOCK:   -1.91 KCAL/MOL
REMARK 922        TOTAL FREE ENERGY PREDICTED BY IDOCK:   -2.29 KCAL/MOL
REMARK 923 INTER-LIGAND FREE ENERGY PREDICTED BY IDOCK:   -2.04 KCAL/MOL
REMARK 924 INTRA-LIGAND FREE ENERGY PREDICTED BY IDOCK:   -0.25 KCAL/MOL
REMARK 927      BINDING AFFINITY PREDICTED BY RF-SCORE:    0.00 PKD
ROOT
HETATM    1  O   UNK A   1     -10.932   8.011  68.167  1.00  0.00    -0.447 OA 
HETATM    2  H   UNK A   1     -11.064   7.973  67.227  1.00  0.00     0.000 HD 
HETATM    3  C   UNK A   1     -10.729   6.703  68.705  1.00  0.00    -0.254 C  
ENDROOT
BRANCH   3   4
HETATM    4  C   UNK A   1     -10.513   6.765  70.239  1.00  0.00    -0.207 C  
HETATM    5  N   UNK A   1     -10.540   5.425  70.867  1.00  0.00    -0.237 NA 
HETATM    6  C   UNK A   0      -9.306   4.670  70.600  1.00  0.00    -0.154 C  
HETATM    7  H   UNK A   1     -11.366   4.898  70.582  1.00  0.00     0.000 HD 
HETATM    8  C   UNK A   1      -8.032   5.408  71.061  1.00  0.00    -0.105 C  
HETATM    9  C   UNK A   1      -7.955   6.810  70.453  1.00  0.00    -0.115 C  
HETATM   10  O   UNK A   1      -7.985   5.510  72.490  1.00  0.00    -0.102 OA 
HETATM   11  O   UNK A   1      -7.679   6.738  69.046  1.00  0.00    -0.105 OA 
HETATM   12  C   UNK A   1      -9.263   7.582  70.686  1.00  0.00    -0.159 C  
HETATM   13  H   UNK A   1      -7.201   5.965  72.773  1.00  0.00     0.000 HD 
HETATM   14  H   UNK A   1      -7.631   7.609  68.669  1.00  0.00     0.000 HD 
HETATM   15  O   UNK A   1      -9.153   8.858  70.036  1.00  0.00    -0.150 OA 
HETATM   16  H   UNK A   1      -8.391   9.357  70.308  1.00  0.00     0.000 HD 
ENDBRANCH   3   4
TORSDOF 1
ENDMDL
MODEL      186
REMARK 921   NORMALIZED FREE ENERGY PREDICTED BY IDOCK:   -1.91 KCAL/MOL
REMARK 922        TOTAL FREE ENERGY PREDICTED BY IDOCK:   -2.28 KCAL/MOL
REMARK 923 INTER-LIGAND FREE ENERGY PREDICTED BY IDOCK:   -2.64 KCAL/MOL
REMARK 924 INTRA-LIGAND FREE ENERGY PREDICTED BY IDOCK:    0.36 KCAL/MOL
REMARK 927      BINDING AFFINITY PREDICTED BY RF-SCORE:    0.00 PKD
ROOT
HETATM    1  O   UNK A   1     -11.654   4.283  64.859  1.00  0.00    -0.990 OA 
HETATM    2  H   UNK A   1     -12.354   4.901  65.034  1.00  0.00     0.000 HD 
HETATM    3  C   UNK A   1     -10.501   4.586  65.647  1.00  0.00    -0.229 C  
ENDROOT
BRANCH   3   4
HETATM    4  C   UNK A   1      -9.359   3.577  65.363  1.00  0.00    -0.158 C  
HETATM    5  N   UNK A   1      -9.867   2.236  64.999  1.00  0.00    -0.344 NA 
HETATM    6  C   UNK A   0     -10.401   2.204  63.629  1.00  0.00    -0.126 C  
HETATM    7  H   UNK A   1     -10.558   1.905  65.674  1.00  0.00     0.000 HD 
HETATM    8  C   UNK A   1      -9.373   2.649  62.569  1.00  0.00    -0.090 C  
HETATM    9  C   UNK A   1      -8.799   4.029  62.899  1.00  0.00    -0.107 C  
HETATM   10  O   UNK A   1      -8.300   1.705  62.464  1.00  0.00    -0.059 OA 
HETATM   11  O   UNK A   1      -9.787   5.051  62.698  1.00  0.00    -0.347 OA 
HETATM   12  C   UNK A   1      -8.288   4.078  64.347  1.00  0.00    -0.096 C  
HETATM   13  H   UNK A   1      -7.667   1.979  61.811  1.00  0.00     0.000 HD 
HETATM   14  H   UNK A   1      -9.431   5.907  62.904  1.00  0.00     0.000 HD 
HETATM   15  O   UNK A   1      -7.827   5.412  64.615  1.00  0.00    -0.092 OA 
HETATM   16  H   UNK A   1      -7.174   5.718  63.996  1.00  0.00     0.000 HD 
ENDBRANCH   3   4
TORSDOF 1
ENDMDL
MODEL      187
REMARK 921   NORMALIZED FREE ENERGY PREDICTED BY IDOCK:   -1.89 KCAL/MOL
REMARK 922        TOTAL FREE ENERGY PREDICTED BY IDOCK:   -2.26 KCAL/MOL
REMARK 923 INTER-LIGAND FREE ENERGY PREDICTED BY IDOCK:   -2.06 KCAL/MOL
REMARK 924 INTRA-LIGAND FREE ENERGY PREDICTED BY IDOCK:   -0.19 KCAL/MOL
REMARK 927      BINDING AFFINITY PREDICTED BY RF-SCORE:    0.00 PKD
ROOT
HETATM    1  O   UNK A   1     -11.456   5.949  66.149  1.00  0.00    -0.578 OA 
HETATM    2  H   UNK A   1     -12.384   6.100  66.284  1.00  0.00     0.000 HD 
HETATM    3  C   UNK A   1     -10.718   6.227  67.339  1.00  0.00    -0.331 C  
ENDROOT
BRANCH   3   4
HETATM    4  C   UNK A   1      -9.203   5.979  67.120  1.00  0.00    -0.117 C  
HETATM    5  N   UNK A   1      -8.362   7.009  67.771  1.00  0.00    -0.117 NA 
HETATM    6  C   UNK A   0      -8.305   6.828  69.229  1.00  0.00    -0.125 C  
HETATM    7  H   UNK A   1      -8.672   7.950  67.526  1.00  0.00     0.000 HD 
HETATM    8  C   UNK A   1      -7.795   5.434  69.648  1.00  0.00    -0.078 C  
HETATM    9  C   UNK A   1      -8.619   4.323  68.993  1.00  0.00    -0.083 C  
HETATM   10  O   UNK A   1      -6.415   5.265  69.299  1.00  0.00    -0.033 OA 
HETATM   11  O   UNK A   1      -9.934   4.263  69.565  1.00  0.00    -0.200 OA 
HETATM   12  C   UNK A   1      -8.723   4.539  67.475  1.00  0.00    -0.104 C  
HETATM   13  H   UNK A   1      -6.100   4.407  69.556  1.00  0.00     0.000 HD 
HETATM   14  H   UNK A   1     -10.446   3.574  69.158  1.00  0.00     0.000 HD 
HETATM   15  O   UNK A   1      -9.561   3.507  66.931  1.00  0.00    -0.299 OA 
HETATM   16  H   UNK A   1      -9.268   2.629  67.147  1.00  0.00     0.000 HD 
ENDBRANCH   3   4
TORSDOF 1
ENDMDL
MODEL      188
REMARK 921   NORMALIZED FREE ENERGY PREDICTED BY IDOCK:   -1.88 KCAL/MOL
REMARK 922        TOTAL FREE ENERGY PREDICTED BY IDOCK:   -2.25 KCAL/MOL
REMARK 923 INTER-LIGAND FREE ENERGY PREDICTED BY IDOCK:   -2.01 KCAL/MOL
REMARK 924 INTRA-LIGAND FREE ENERGY PREDICTED BY IDOCK:   -0.24 KCAL/MOL
REMARK 927      BINDING AFFINITY PREDICTED BY RF-SCORE:    0.00 PKD
ROOT
HETATM    1  O   UNK A   1      -9.000   3.513  69.439  1.00  0.00    -0.089 OA 
HETATM    2  H   UNK A   1      -9.310   3.077  68.655  1.00  0.00     0.000 HD 
HETATM    3  C   UNK A   1      -9.198   4.925  69.347  1.00  0.00    -0.109 C  
ENDROOT
BRANCH   3   4
HETATM    4  C   UNK A   1      -8.693   5.637  70.628  1.00  0.00    -0.134 C  
HETATM    5  N   UNK A   1      -8.142   6.982  70.346  1.00  0.00    -0.117 NA 
HETATM    6  C   UNK A   0      -9.202   7.963  70.070  1.00  0.00    -0.153 C  
HETATM    7  H   UNK A   1      -7.459   6.951  69.589  1.00  0.00     0.000 HD 
HETATM    8  C   UNK A   1     -10.233   8.079  71.213  1.00  0.00    -0.192 C  
HETATM    9  C   UNK A   1     -10.830   6.714  71.560  1.00  0.00    -0.239 C  
HETATM   10  O   UNK A   1      -9.637   8.646  72.387  1.00  0.00    -0.288 OA 
HETATM   11  O   UNK A   1     -11.703   6.261  70.513  1.00  0.00    -0.354 OA 
HETATM   12  C   UNK A   1      -9.724   5.675  71.798  1.00  0.00    -0.158 C  
HETATM   13  H   UNK A   1     -10.272   8.717  73.090  1.00  0.00     0.000 HD 
HETATM   14  H   UNK A   1     -12.073   5.413  70.729  1.00  0.00     0.000 HD 
HETATM   15  O   UNK A   1     -10.346   4.405  72.051  1.00  0.00    -0.181 OA 
HETATM   16  H   UNK A   1     -10.974   4.428  72.764  1.00  0.00     0.000 HD 
ENDBRANCH   3   4
TORSDOF 1
ENDMDL
MODEL      189
REMARK 921   NORMALIZED FREE ENERGY PREDICTED BY IDOCK:   -1.88 KCAL/MOL
REMARK 922        TOTAL FREE ENERGY PREDICTED BY IDOCK:   -2.25 KCAL/MOL
REMARK 923 INTER-LIGAND FREE ENERGY PREDICTED BY IDOCK:   -2.10 KCAL/MOL
REMARK 924 INTRA-LIGAND FREE ENERGY PREDICTED BY IDOCK:   -0.15 KCAL/MOL
REMARK 927      BINDING AFFINITY PREDICTED BY RF-SCORE:    0.00 PKD
ROOT
HETATM    1  O   UNK A   1      -8.907   8.439  62.636  1.00  0.00    -0.432 OA 
HETATM    2  H   UNK A   1      -9.273   7.562  62.626  1.00  0.00     0.000 HD 
HETATM    3  C   UNK A   1      -8.291   8.718  63.894  1.00  0.00    -0.141 C  
ENDROOT
BRANCH   3   4
HETATM    4  C   UNK A   1      -7.692  10.148  63.910  1.00  0.00    -0.140 C  
HETATM    5  N   UNK A   1      -8.000  10.875  65.162  1.00  0.00    -0.360 NA 
HETATM    6  C   UNK A   0      -7.191  10.391  66.290  1.00  0.00    -0.127 C  
HETATM    7  H   UNK A   1      -8.997  10.837  65.377  1.00  0.00     0.000 HD 
HETATM    8  C   UNK A   1      -5.673  10.477  66.028  1.00  0.00    -0.104 C  
HETATM    9  C   UNK A   1      -5.294   9.752  64.735  1.00  0.00    -0.061 C  
HETATM   10  O   UNK A   1      -5.241  11.841  65.949  1.00  0.00    -0.476 OA 
HETATM   11  O   UNK A   1      -5.416   8.330  64.896  1.00  0.00    -0.039 OA 
HETATM   12  C   UNK A   1      -6.173  10.219  63.566  1.00  0.00    -0.127 C  
HETATM   13  H   UNK A   1      -4.307  11.893  65.787  1.00  0.00     0.000 HD 
HETATM   14  H   UNK A   1      -5.180   7.881  64.093  1.00  0.00     0.000 HD 
HETATM   15  O   UNK A   1      -5.816   9.456  62.402  1.00  0.00    -0.089 OA 
HETATM   16  H   UNK A   1      -4.890   9.500  62.192  1.00  0.00     0.000 HD 
ENDBRANCH   3   4
TORSDOF 1
ENDMDL
MODEL      190
REMARK 921   NORMALIZED FREE ENERGY PREDICTED BY IDOCK:   -1.78 KCAL/MOL
REMARK 922        TOTAL FREE ENERGY PREDICTED BY IDOCK:   -2.15 KCAL/MOL
REMARK 923 INTER-LIGAND FREE ENERGY PREDICTED BY IDOCK:   -2.02 KCAL/MOL
REMARK 924 INTRA-LIGAND FREE ENERGY PREDICTED BY IDOCK:   -0.13 KCAL/MOL
REMARK 927      BINDING AFFINITY PREDICTED BY RF-SCORE:    0.00 PKD
ROOT
HETATM    1  O   UNK A   1      -8.634   5.988  67.928  1.00  0.00    -0.114 OA 
HETATM    2  H   UNK A   1      -8.845   5.122  67.600  1.00  0.00     0.000 HD 
HETATM    3  C   UNK A   1      -8.658   6.950  66.872  1.00  0.00    -0.116 C  
ENDROOT
BRANCH   3   4
HETATM    4  C   UNK A   1      -8.315   8.364  67.407  1.00  0.00    -0.124 C  
HETATM    5  N   UNK A   1      -8.519   9.418  66.388  1.00  0.00    -0.124 NA 
HETATM    6  C   UNK A   0      -9.944   9.710  66.178  1.00  0.00    -0.276 C  
HETATM    7  H   UNK A   1      -8.055   9.180  65.510  1.00  0.00     0.000 HD 
HETATM    8  C   UNK A   1     -10.676  10.124  67.471  1.00  0.00    -0.290 C  
HETATM    9  C   UNK A   1     -10.490   9.076  68.571  1.00  0.00    -0.196 C  
HETATM   10  O   UNK A   1     -10.206  11.393  67.944  1.00  0.00    -0.176 OA 
HETATM   11  O   UNK A   1     -11.229   7.884  68.265  1.00  0.00    -0.323 OA 
HETATM   12  C   UNK A   1      -9.004   8.732  68.756  1.00  0.00    -0.138 C  
HETATM   13  H   UNK A   1     -10.656  11.647  68.741  1.00  0.00     0.000 HD 
HETATM   14  H   UNK A   1     -11.113   7.233  68.948  1.00  0.00     0.000 HD 
HETATM   15  O   UNK A   1      -8.903   7.700  69.749  1.00  0.00    -0.139 OA 
HETATM   16  H   UNK A   1      -9.323   7.924  70.572  1.00  0.00     0.000 HD 
ENDBRANCH   3   4
TORSDOF 1
ENDMDL
MODEL      191
REMARK 921   NORMALIZED FREE ENERGY PREDICTED BY IDOCK:   -1.76 KCAL/MOL
REMARK 922        TOTAL FREE ENERGY PREDICTED BY IDOCK:   -2.13 KCAL/MOL
REMARK 923 INTER-LIGAND FREE ENERGY PREDICTED BY IDOCK:   -2.19 KCAL/MOL
REMARK 924 INTRA-LIGAND FREE ENERGY PREDICTED BY IDOCK:    0.07 KCAL/MOL
REMARK 927      BINDING AFFINITY PREDICTED BY RF-SCORE:    0.00 PKD
ROOT
HETATM    1  O   UNK A   1     -12.076  10.988  69.399  1.00  0.00    -0.333 OA 
HETATM    2  H   UNK A   1     -12.230  10.972  70.336  1.00  0.00     0.000 HD 
HETATM    3  C   UNK A   1     -11.280   9.873  68.996  1.00  0.00    -0.087 C  
ENDROOT
BRANCH   3   4
HETATM    4  C   UNK A   1     -11.029   9.898  67.466  1.00  0.00    -0.173 C  
HETATM    5  N   UNK A   1     -11.124  11.263  66.901  1.00  0.00    -0.293 NA 
HETATM    6  C   UNK A   0      -9.944  12.076  67.231  1.00  0.00    -0.194 C  
HETATM    7  H   UNK A   1     -11.986  11.725  67.191  1.00  0.00     0.000 HD 
HETATM    8  C   UNK A   1      -8.618  11.438  66.767  1.00  0.00    -0.166 C  
HETATM    9  C   UNK A   1      -8.469  10.015  67.310  1.00  0.00    -0.122 C  
HETATM   10  O   UNK A   1      -8.535  11.408  65.336  1.00  0.00    -0.387 OA 
HETATM   11  O   UNK A   1      -8.227  10.035  68.725  1.00  0.00    -0.104 OA 
HETATM   12  C   UNK A   1      -9.723   9.179  67.011  1.00  0.00    -0.188 C  
HETATM   13  H   UNK A   1      -7.720  11.015  65.050  1.00  0.00     0.000 HD 
HETATM   14  H   UNK A   1      -8.134   9.152  69.062  1.00  0.00     0.000 HD 
HETATM   15  O   UNK A   1      -9.549   7.882  67.602  1.00  0.00    -0.144 OA 
HETATM   16  H   UNK A   1      -8.753   7.443  67.325  1.00  0.00     0.000 HD 
ENDBRANCH   3   4
TORSDOF 1
ENDMDL
MODEL      192
REMARK 921   NORMALIZED FREE ENERGY PREDICTED BY IDOCK:   -1.76 KCAL/MOL
REMARK 922        TOTAL FREE ENERGY PREDICTED BY IDOCK:   -2.12 KCAL/MOL
REMARK 923 INTER-LIGAND FREE ENERGY PREDICTED BY IDOCK:   -2.01 KCAL/MOL
REMARK 924 INTRA-LIGAND FREE ENERGY PREDICTED BY IDOCK:   -0.11 KCAL/MOL
REMARK 927      BINDING AFFINITY PREDICTED BY RF-SCORE:    0.00 PKD
ROOT
HETATM    1  O   UNK A   1      -8.819   8.696  67.461  1.00  0.00    -0.133 OA 
HETATM    2  H   UNK A   1      -8.029   8.962  67.005  1.00  0.00     0.000 HD 
HETATM    3  C   UNK A   1      -8.711   7.347  67.918  1.00  0.00    -0.123 C  
ENDROOT
BRANCH   3   4
HETATM    4  C   UNK A   1      -9.999   6.912  68.662  1.00  0.00    -0.149 C  
HETATM    5  N   UNK A   1      -9.803   5.680  69.459  1.00  0.00    -0.166 NA 
HETATM    6  C   UNK A   0      -9.034   5.938  70.686  1.00  0.00    -0.145 C  
HETATM    7  H   UNK A   1      -9.373   4.942  68.901  1.00  0.00     0.000 HD 
HETATM    8  C   UNK A   1      -9.674   7.015  71.587  1.00  0.00    -0.160 C  
HETATM    9  C   UNK A   1      -9.916   8.312  70.812  1.00  0.00    -0.190 C  
HETATM   10  O   UNK A   1     -10.916   6.555  72.136  1.00  0.00    -0.231 OA 
HETATM   11  O   UNK A   1      -8.672   8.969  70.523  1.00  0.00    -0.166 OA 
HETATM   12  C   UNK A   1     -10.673   8.037  69.504  1.00  0.00    -0.181 C  
HETATM   13  H   UNK A   1     -11.310   7.218  72.690  1.00  0.00     0.000 HD 
HETATM   14  H   UNK A   1      -8.822   9.774  70.042  1.00  0.00     0.000 HD 
HETATM   15  O   UNK A   1     -10.808   9.279  68.794  1.00  0.00    -0.370 OA 
HETATM   16  H   UNK A   1     -11.219   9.965  69.307  1.00  0.00     0.000 HD 
ENDBRANCH   3   4
TORSDOF 1
ENDMDL
MODEL      193
REMARK 921   NORMALIZED FREE ENERGY PREDICTED BY IDOCK:   -1.76 KCAL/MOL
REMARK 922        TOTAL FREE ENERGY PREDICTED BY IDOCK:   -2.12 KCAL/MOL
REMARK 923 INTER-LIGAND FREE ENERGY PREDICTED BY IDOCK:   -2.07 KCAL/MOL
REMARK 924 INTRA-LIGAND FREE ENERGY PREDICTED BY IDOCK:   -0.05 KCAL/MOL
REMARK 927      BINDING AFFINITY PREDICTED BY RF-SCORE:    0.00 PKD
ROOT
HETATM    1  O   UNK A   1     -10.451   3.218  63.128  1.00  0.00    -0.170 OA 
HETATM    2  H   UNK A   1     -10.991   2.520  62.779  1.00  0.00     0.000 HD 
HETATM    3  C   UNK A   1      -9.691   2.761  64.248  1.00  0.00    -0.143 C  
ENDROOT
BRANCH   3   4
HETATM    4  C   UNK A   1      -8.808   3.901  64.818  1.00  0.00    -0.123 C  
HETATM    5  N   UNK A   1      -9.569   5.153  65.031  1.00  0.00    -0.362 NA 
HETATM    6  C   UNK A   0     -10.440   5.071  66.213  1.00  0.00    -0.303 C  
HETATM    7  H   UNK A   1     -10.099   5.411  64.198  1.00  0.00     0.000 HD 
HETATM    8  C   UNK A   1      -9.674   4.730  67.508  1.00  0.00    -0.171 C  
HETATM    9  C   UNK A   1      -8.854   3.449  67.345  1.00  0.00    -0.130 C  
HETATM   10  O   UNK A   1      -8.802   5.803  67.887  1.00  0.00    -0.111 OA 
HETATM   11  O   UNK A   1      -9.714   2.301  67.283  1.00  0.00    -0.401 OA 
HETATM   12  C   UNK A   1      -7.982   3.512  66.082  1.00  0.00    -0.092 C  
HETATM   13  H   UNK A   1      -8.330   5.594  68.684  1.00  0.00     0.000 HD 
HETATM   14  H   UNK A   1      -9.205   1.505  67.182  1.00  0.00     0.000 HD 
HETATM   15  O   UNK A   1      -7.292   2.259  65.949  1.00  0.00    -0.063 OA 
HETATM   16  H   UNK A   1      -6.788   2.021  66.719  1.00  0.00     0.000 HD 
ENDBRANCH   3   4
TORSDOF 1
ENDMDL
MODEL      194
REMARK 921   NORMALIZED FREE ENERGY PREDICTED BY IDOCK:   -1.74 KCAL/MOL
REMARK 922        TOTAL FREE ENERGY PREDICTED BY IDOCK:   -2.11 KCAL/MOL
REMARK 923 INTER-LIGAND FREE ENERGY PREDICTED BY IDOCK:   -2.07 KCAL/MOL
REMARK 924 INTRA-LIGAND FREE ENERGY PREDICTED BY IDOCK:   -0.04 KCAL/MOL
REMARK 927      BINDING AFFINITY PREDICTED BY RF-SCORE:    0.00 PKD
ROOT
HETATM    1  O   UNK A   1     -11.626  11.230  66.996  1.00  0.00    -0.496 OA 
HETATM    2  H   UNK A   1     -12.216  11.579  66.339  1.00  0.00     0.000 HD 
HETATM    3  C   UNK A   1     -10.360  10.904  66.419  1.00  0.00    -0.251 C  
ENDROOT
BRANCH   3   4
HETATM    4  C   UNK A   1      -9.396  10.335  67.491  1.00  0.00    -0.148 C  
HETATM    5  N   UNK A   1      -9.809   8.997  67.970  1.00  0.00    -0.160 NA 
HETATM    6  C   UNK A   0      -9.523   7.948  66.980  1.00  0.00    -0.174 C  
HETATM    7  H   UNK A   1     -10.792   8.989  68.246  1.00  0.00     0.000 HD 
HETATM    8  C   UNK A   1      -8.038   7.890  66.570  1.00  0.00    -0.107 C  
HETATM    9  C   UNK A   1      -7.546   9.253  66.077  1.00  0.00    -0.096 C  
HETATM   10  O   UNK A   1      -7.218   7.461  67.664  1.00  0.00    -0.088 OA 
HETATM   11  O   UNK A   1      -8.122   9.568  64.800  1.00  0.00    -0.117 OA 
HETATM   12  C   UNK A   1      -7.890  10.358  67.087  1.00  0.00    -0.110 C  
HETATM   13  H   UNK A   1      -6.303   7.426  67.412  1.00  0.00     0.000 HD 
HETATM   14  H   UNK A   1      -7.817  10.414  64.494  1.00  0.00     0.000 HD 
HETATM   15  O   UNK A   1      -7.466  11.616  66.538  1.00  0.00    -0.318 OA 
HETATM   16  H   UNK A   1      -6.548  11.631  66.292  1.00  0.00     0.000 HD 
ENDBRANCH   3   4
TORSDOF 1
ENDMDL
MODEL      195
REMARK 921   NORMALIZED FREE ENERGY PREDICTED BY IDOCK:   -1.71 KCAL/MOL
REMARK 922        TOTAL FREE ENERGY PREDICTED BY IDOCK:   -2.07 KCAL/MOL
REMARK 923 INTER-LIGAND FREE ENERGY PREDICTED BY IDOCK:   -1.82 KCAL/MOL
REMARK 924 INTRA-LIGAND FREE ENERGY PREDICTED BY IDOCK:   -0.25 KCAL/MOL
REMARK 927      BINDING AFFINITY PREDICTED BY RF-SCORE:    0.00 PKD
ROOT
HETATM    1  O   UNK A   1      -7.718   4.366  68.091  1.00  0.00    -0.078 OA 
HETATM    2  H   UNK A   1      -7.927   3.563  67.629  1.00  0.00     0.000 HD 
HETATM    3  C   UNK A   1      -8.680   5.382  67.804  1.00  0.00    -0.106 C  
ENDROOT
BRANCH   3   4
HETATM    4  C   UNK A   1      -8.339   6.693  68.559  1.00  0.00    -0.122 C  
HETATM    5  N   UNK A   1      -8.797   7.898  67.832  1.00  0.00    -0.124 NA 
HETATM    6  C   UNK A   0     -10.253   8.077  67.929  1.00  0.00    -0.212 C  
HETATM    7  H   UNK A   1      -8.488   7.884  66.859  1.00  0.00     0.000 HD 
HETATM    8  C   UNK A   1     -10.759   8.154  69.384  1.00  0.00    -0.156 C  
HETATM    9  C   UNK A   1     -10.305   6.937  70.193  1.00  0.00    -0.199 C  
HETATM   10  O   UNK A   1     -10.296   9.348  70.027  1.00  0.00    -0.202 OA 
HETATM   11  O   UNK A   1     -11.006   5.757  69.771  1.00  0.00    -0.357 OA 
HETATM   12  C   UNK A   1      -8.791   6.718  70.051  1.00  0.00    -0.142 C  
HETATM   13  H   UNK A   1     -10.607   9.395  70.923  1.00  0.00     0.000 HD 
HETATM   14  H   UNK A   1     -10.723   5.002  70.274  1.00  0.00     0.000 HD 
HETATM   15  O   UNK A   1      -8.439   5.528  70.774  1.00  0.00    -0.118 OA 
HETATM   16  H   UNK A   1      -8.714   5.543  71.684  1.00  0.00     0.000 HD 
ENDBRANCH   3   4
TORSDOF 1
ENDMDL
MODEL      196
REMARK 921   NORMALIZED FREE ENERGY PREDICTED BY IDOCK:   -1.69 KCAL/MOL
REMARK 922        TOTAL FREE ENERGY PREDICTED BY IDOCK:   -2.04 KCAL/MOL
REMARK 923 INTER-LIGAND FREE ENERGY PREDICTED BY IDOCK:   -1.98 KCAL/MOL
REMARK 924 INTRA-LIGAND FREE ENERGY PREDICTED BY IDOCK:   -0.07 KCAL/MOL
REMARK 927      BINDING AFFINITY PREDICTED BY RF-SCORE:    0.00 PKD
ROOT
HETATM    1  O   UNK A   1      -6.380   8.475  69.629  1.00  0.00    -0.038 OA 
HETATM    2  H   UNK A   1      -5.780   7.739  69.622  1.00  0.00     0.000 HD 
HETATM    3  C   UNK A   1      -7.162   8.506  68.434  1.00  0.00    -0.085 C  
ENDROOT
BRANCH   3   4
HETATM    4  C   UNK A   1      -8.142   9.707  68.447  1.00  0.00    -0.104 C  
HETATM    5  N   UNK A   1      -9.293   9.506  67.538  1.00  0.00    -0.126 NA 
HETATM    6  C   UNK A   0     -10.265   8.550  68.088  1.00  0.00    -0.208 C  
HETATM    7  H   UNK A   1      -8.985   9.228  66.606  1.00  0.00     0.000 HD 
HETATM    8  C   UNK A   1     -10.796   8.957  69.478  1.00  0.00    -0.153 C  
HETATM    9  C   UNK A   1      -9.648   9.193  70.461  1.00  0.00    -0.243 C  
HETATM   10  O   UNK A   1     -11.598  10.142  69.395  1.00  0.00    -0.410 OA 
HETATM   11  O   UNK A   1      -9.019   7.951  70.814  1.00  0.00    -0.138 OA 
HETATM   12  C   UNK A   1      -8.605  10.152  69.868  1.00  0.00    -0.072 C  
HETATM   13  H   UNK A   1     -11.925  10.393  70.251  1.00  0.00     0.000 HD 
HETATM   14  H   UNK A   1      -8.306   8.098  71.424  1.00  0.00     0.000 HD 
HETATM   15  O   UNK A   1      -7.525  10.278  70.806  1.00  0.00    -0.399 OA 
HETATM   16  H   UNK A   1      -7.807  10.549  71.672  1.00  0.00     0.000 HD 
ENDBRANCH   3   4
TORSDOF 1
ENDMDL
MODEL      197
REMARK 921   NORMALIZED FREE ENERGY PREDICTED BY IDOCK:   -1.62 KCAL/MOL
REMARK 922        TOTAL FREE ENERGY PREDICTED BY IDOCK:   -1.97 KCAL/MOL
REMARK 923 INTER-LIGAND FREE ENERGY PREDICTED BY IDOCK:   -1.71 KCAL/MOL
REMARK 924 INTRA-LIGAND FREE ENERGY PREDICTED BY IDOCK:   -0.26 KCAL/MOL
REMARK 927      BINDING AFFINITY PREDICTED BY RF-SCORE:    0.00 PKD
ROOT
HETATM    1  O   UNK A   1      -9.261  12.977  68.504  1.00  0.00    -0.330 OA 
HETATM    2  H   UNK A   1      -8.837  13.721  68.914  1.00  0.00     0.000 HD 
HETATM    3  C   UNK A   1      -8.424  12.405  67.498  1.00  0.00    -0.175 C  
ENDROOT
BRANCH   3   4
HETATM    4  C   UNK A   1      -9.116  11.190  66.829  1.00  0.00    -0.166 C  
HETATM    5  N   UNK A   1      -8.620  10.943  65.456  1.00  0.00    -0.257 NA 
HETATM    6  C   UNK A   0      -7.281  10.335  65.458  1.00  0.00    -0.149 C  
HETATM    7  H   UNK A   1      -8.640  11.795  64.896  1.00  0.00     0.000 HD 
HETATM    8  C   UNK A   1      -7.215   9.016  66.254  1.00  0.00    -0.090 C  
HETATM    9  C   UNK A   1      -7.729   9.205  67.682  1.00  0.00    -0.089 C  
HETATM   10  O   UNK A   1      -7.979   7.987  65.610  1.00  0.00    -0.100 OA 
HETATM   11  O   UNK A   1      -6.803   9.982  68.456  1.00  0.00    -0.054 OA 
HETATM   12  C   UNK A   1      -9.106   9.886  67.684  1.00  0.00    -0.131 C  
HETATM   13  H   UNK A   1      -7.938   7.175  66.100  1.00  0.00     0.000 HD 
HETATM   14  H   UNK A   1      -7.122  10.099  69.343  1.00  0.00     0.000 HD 
HETATM   15  O   UNK A   1      -9.501  10.096  69.049  1.00  0.00    -0.170 OA 
HETATM   16  H   UNK A   1      -9.495   9.302  69.571  1.00  0.00     0.000 HD 
ENDBRANCH   3   4
TORSDOF 1
ENDMDL
MODEL      198
REMARK 921   NORMALIZED FREE ENERGY PREDICTED BY IDOCK:   -1.62 KCAL/MOL
REMARK 922        TOTAL FREE ENERGY PREDICTED BY IDOCK:   -1.97 KCAL/MOL
REMARK 923 INTER-LIGAND FREE ENERGY PREDICTED BY IDOCK:   -2.33 KCAL/MOL
REMARK 924 INTRA-LIGAND FREE ENERGY PREDICTED BY IDOCK:    0.36 KCAL/MOL
REMARK 927      BINDING AFFINITY PREDICTED BY RF-SCORE:    0.00 PKD
ROOT
HETATM    1  O   UNK A   1     -10.119   4.486  63.343  1.00  0.00    -0.380 OA 
HETATM    2  H   UNK A   1     -10.833   4.272  62.754  1.00  0.00     0.000 HD 
HETATM    3  C   UNK A   1      -9.743   3.348  64.120  1.00  0.00    -0.164 C  
ENDROOT
BRANCH   3   4
HETATM    4  C   UNK A   1      -8.577   3.696  65.081  1.00  0.00    -0.113 C  
HETATM    5  N   UNK A   1      -7.678   4.732  64.524  1.00  0.00    -0.080 NA 
HETATM    6  C   UNK A   0      -8.283   6.070  64.577  1.00  0.00    -0.095 C  
HETATM    7  H   UNK A   1      -7.381   4.495  63.577  1.00  0.00     0.000 HD 
HETATM    8  C   UNK A   1      -8.702   6.491  66.001  1.00  0.00    -0.148 C  
HETATM    9  C   UNK A   1      -9.625   5.450  66.636  1.00  0.00    -0.151 C  
HETATM   10  O   UNK A   1      -7.555   6.679  66.840  1.00  0.00    -0.091 OA 
HETATM   11  O   UNK A   1     -10.916   5.465  66.008  1.00  0.00    -0.712 OA 
HETATM   12  C   UNK A   1      -9.017   4.042  66.536  1.00  0.00    -0.129 C  
HETATM   13  H   UNK A   1      -7.812   6.937  67.717  1.00  0.00     0.000 HD 
HETATM   14  H   UNK A   1     -11.489   4.818  66.402  1.00  0.00     0.000 HD 
HETATM   15  O   UNK A   1      -9.957   3.106  67.086  1.00  0.00    -0.264 OA 
HETATM   16  H   UNK A   1     -10.225   3.317  67.973  1.00  0.00     0.000 HD 
ENDBRANCH   3   4
TORSDOF 1
ENDMDL
MODEL      199
REMARK 921   NORMALIZED FREE ENERGY PREDICTED BY IDOCK:   -1.55 KCAL/MOL
REMARK 922        TOTAL FREE ENERGY PREDICTED BY IDOCK:   -1.90 KCAL/MOL
REMARK 923 INTER-LIGAND FREE ENERGY PREDICTED BY IDOCK:   -1.64 KCAL/MOL
REMARK 924 INTRA-LIGAND FREE ENERGY PREDICTED BY IDOCK:   -0.26 KCAL/MOL
REMARK 927      BINDING AFFINITY PREDICTED BY RF-SCORE:    0.00 PKD
ROOT
HETATM    1  O   UNK A   1      -9.667   2.625  67.318  1.00  0.00    -0.398 OA 
HETATM    2  H   UNK A   1     -10.548   2.281  67.405  1.00  0.00     0.000 HD 
HETATM    3  C   UNK A   1      -9.488   3.242  66.042  1.00  0.00    -0.076 C  
ENDROOT
BRANCH   3   4
HETATM    4  C   UNK A   1      -8.050   3.805  65.899  1.00  0.00    -0.097 C  
HETATM    5  N   UNK A   1      -7.638   3.948  64.484  1.00  0.00    -0.078 NA 
HETATM    6  C   UNK A   0      -8.285   5.100  63.839  1.00  0.00    -0.130 C  
HETATM    7  H   UNK A   1      -7.803   3.088  63.961  1.00  0.00     0.000 HD 
HETATM    8  C   UNK A   1      -8.020   6.432  64.569  1.00  0.00    -0.117 C  
HETATM    9  C   UNK A   1      -8.415   6.342  66.045  1.00  0.00    -0.144 C  
HETATM   10  O   UNK A   1      -6.640   6.807  64.473  1.00  0.00    -0.040 OA 
HETATM   11  O   UNK A   1      -9.843   6.287  66.185  1.00  0.00    -0.368 OA 
HETATM   12  C   UNK A   1      -7.781   5.110  66.708  1.00  0.00    -0.092 C  
HETATM   13  H   UNK A   1      -6.477   7.627  64.923  1.00  0.00     0.000 HD 
HETATM   14  H   UNK A   1     -10.088   6.231  67.102  1.00  0.00     0.000 HD 
HETATM   15  O   UNK A   1      -8.243   5.044  68.067  1.00  0.00    -0.097 OA 
HETATM   16  H   UNK A   1      -8.078   5.839  68.561  1.00  0.00     0.000 HD 
ENDBRANCH   3   4
TORSDOF 1
ENDMDL
MODEL      200
REMARK 921   NORMALIZED FREE ENERGY PREDICTED BY IDOCK:   -1.52 KCAL/MOL
REMARK 922        TOTAL FREE ENERGY PREDICTED BY IDOCK:   -1.87 KCAL/MOL
REMARK 923 INTER-LIGAND FREE ENERGY PREDICTED BY IDOCK:   -1.83 KCAL/MOL
REMARK 924 INTRA-LIGAND FREE ENERGY PREDICTED BY IDOCK:   -0.04 KCAL/MOL
REMARK 927      BINDING AFFINITY PREDICTED BY RF-SCORE:    0.00 PKD
ROOT
HETATM    1  O   UNK A   1      -8.401   5.911  67.609  1.00  0.00    -0.105 OA 
HETATM    2  H   UNK A   1      -8.553   5.032  67.286  1.00  0.00     0.000 HD 
HETATM    3  C   UNK A   1      -8.612   6.876  66.577  1.00  0.00    -0.129 C  
ENDROOT
BRANCH   3   4
HETATM    4  C   UNK A   1      -8.363   8.312  67.106  1.00  0.00    -0.123 C  
HETATM    5  N   UNK A   1      -6.929   8.585  67.347  1.00  0.00    -0.077 NA 
HETATM    6  C   UNK A   0      -6.191   8.788  66.091  1.00  0.00    -0.059 C  
HETATM    7  H   UNK A   1      -6.502   7.852  67.914  1.00  0.00     0.000 HD 
HETATM    8  C   UNK A   1      -6.772   9.922  65.223  1.00  0.00    -0.106 C  
HETATM    9  C   UNK A   1      -8.261   9.703  64.950  1.00  0.00    -0.143 C  
HETATM   10  O   UNK A   1      -6.590  11.197  65.853  1.00  0.00    -0.342 OA 
HETATM   11  O   UNK A   1      -8.455   8.604  64.046  1.00  0.00    -0.303 OA 
HETATM   12  C   UNK A   1      -9.026   9.440  66.257  1.00  0.00    -0.156 C  
HETATM   13  H   UNK A   1      -6.948  11.896  65.318  1.00  0.00     0.000 HD 
HETATM   14  H   UNK A   1      -9.380   8.468  63.877  1.00  0.00     0.000 HD 
HETATM   15  O   UNK A   1     -10.399   9.175  65.928  1.00  0.00    -0.289 OA 
HETATM   16  H   UNK A   1     -10.803   9.862  65.411  1.00  0.00     0.000 HD 
ENDBRANCH   3   4
TORSDOF 1
ENDMDL
MODEL      201
REMARK 921   NORMALIZED FREE ENERGY PREDICTED BY IDOCK:   -1.49 KCAL/MOL
REMARK 922        TOTAL FREE ENERGY PREDICTED BY IDOCK:   -1.84 KCAL/MOL
REMARK 923 INTER-LIGAND FREE ENERGY PREDICTED BY IDOCK:   -2.19 KCAL/MOL
REMARK 924 INTRA-LIGAND FREE ENERGY PREDICTED BY IDOCK:    0.35 KCAL/MOL
REMARK 927      BINDING AFFINITY PREDICTED BY RF-SCORE:    0.00 PKD
ROOT
HETATM    1  O   UNK A   1      -9.526   6.525  68.317  1.00  0.00    -0.121 OA 
HETATM    2  H   UNK A   1      -9.930   5.668  68.249  1.00  0.00     0.000 HD 
HETATM    3  C   UNK A   1     -10.275   7.371  69.190  1.00  0.00    -0.196 C  
ENDROOT
BRANCH   3   4
HETATM    4  C   UNK A   1      -9.616   8.770  69.302  1.00  0.00    -0.162 C  
HETATM    5  N   UNK A   1      -8.146   8.716  69.142  1.00  0.00    -0.114 NA 
HETATM    6  C   UNK A   0      -7.753   8.507  67.740  1.00  0.00    -0.103 C  
HETATM    7  H   UNK A   1      -7.732   8.009  69.752  1.00  0.00     0.000 HD 
HETATM    8  C   UNK A   1      -8.316   9.582  66.788  1.00  0.00    -0.116 C  
HETATM    9  C   UNK A   1      -9.836   9.696  66.917  1.00  0.00    -0.200 C  
HETATM   10  O   UNK A   1      -7.724  10.861  67.048  1.00  0.00    -0.117 OA 
HETATM   11  O   UNK A   1     -10.480   8.540  66.359  1.00  0.00    -0.353 OA 
HETATM   12  C   UNK A   1     -10.251   9.861  68.387  1.00  0.00    -0.178 C  
HETATM   13  H   UNK A   1      -8.070  11.523  66.462  1.00  0.00     0.000 HD 
HETATM   14  H   UNK A   1     -11.424   8.610  66.440  1.00  0.00     0.000 HD 
HETATM   15  O   UNK A   1     -11.686   9.893  68.448  1.00  0.00    -0.534 OA 
HETATM   16  H   UNK A   1     -12.073  10.558  67.891  1.00  0.00     0.000 HD 
ENDBRANCH   3   4
TORSDOF 1
ENDMDL
MODEL      202
REMARK 921   NORMALIZED FREE ENERGY PREDICTED BY IDOCK:   -1.44 KCAL/MOL
REMARK 922        TOTAL FREE ENERGY PREDICTED BY IDOCK:   -1.79 KCAL/MOL
REMARK 923 INTER-LIGAND FREE ENERGY PREDICTED BY IDOCK:   -2.33 KCAL/MOL
REMARK 924 INTRA-LIGAND FREE ENERGY PREDICTED BY IDOCK:    0.54 KCAL/MOL
REMARK 927      BINDING AFFINITY PREDICTED BY RF-SCORE:    0.00 PKD
ROOT
HETATM    1  O   UNK A   1      -7.872  15.202  66.371  1.00  0.00    -0.190 OA 
HETATM    2  H   UNK A   1      -7.269  15.875  66.079  1.00  0.00     0.000 HD 
HETATM    3  C   UNK A   1      -9.219  15.554  66.050  1.00  0.00    -0.326 C  
ENDROOT
BRANCH   3   4
HETATM    4  C   UNK A   1     -10.204  14.456  66.526  1.00  0.00    -0.274 C  
HETATM    5  N   UNK A   1      -9.757  13.096  66.154  1.00  0.00    -0.352 NA 
HETATM    6  C   UNK A   0      -8.644  12.635  66.997  1.00  0.00    -0.181 C  
HETATM    7  H   UNK A   1      -9.518  13.041  65.163  1.00  0.00     0.000 HD 
HETATM    8  C   UNK A   1      -8.977  12.652  68.503  1.00  0.00    -0.046 C  
HETATM    9  C   UNK A   1      -9.460  14.034  68.947  1.00  0.00     0.012 C  
HETATM   10  O   UNK A   1      -9.979  11.678  68.820  1.00  0.00    -0.284 OA 
HETATM   11  O   UNK A   1      -8.377  14.976  68.944  1.00  0.00    -0.163 OA 
HETATM   12  C   UNK A   1     -10.589  14.540  68.035  1.00  0.00    -0.237 C  
HETATM   13  H   UNK A   1     -10.184  11.689  69.747  1.00  0.00     0.000 HD 
HETATM   14  H   UNK A   1      -8.677  15.834  69.220  1.00  0.00     0.000 HD 
HETATM   15  O   UNK A   1     -10.950  15.864  68.459  1.00  0.00    -0.288 OA 
HETATM   16  H   UNK A   1     -11.185  15.915  69.379  1.00  0.00     0.000 HD 
ENDBRANCH   3   4
TORSDOF 1
ENDMDL
MODEL      203
REMARK 921   NORMALIZED FREE ENERGY PREDICTED BY IDOCK:   -1.44 KCAL/MOL
REMARK 922        TOTAL FREE ENERGY PREDICTED BY IDOCK:   -1.79 KCAL/MOL
REMARK 923 INTER-LIGAND FREE ENERGY PREDICTED BY IDOCK:   -1.53 KCAL/MOL
REMARK 924 INTRA-LIGAND FREE ENERGY PREDICTED BY IDOCK:   -0.26 KCAL/MOL
REMARK 927      BINDING AFFINITY PREDICTED BY RF-SCORE:    0.00 PKD
ROOT
HETATM    1  O   UNK A   1      -6.711   3.095  69.239  1.00  0.00    -0.033 OA 
HETATM    2  H   UNK A   1      -6.612   2.187  68.978  1.00  0.00     0.000 HD 
HETATM    3  C   UNK A   1      -7.893   3.662  68.672  1.00  0.00    -0.055 C  
ENDROOT
BRANCH   3   4
HETATM    4  C   UNK A   1      -8.054   5.143  69.100  1.00  0.00    -0.084 C  
HETATM    5  N   UNK A   1      -9.066   5.858  68.289  1.00  0.00    -0.118 NA 
HETATM    6  C   UNK A   0     -10.436   5.474  68.659  1.00  0.00    -0.169 C  
HETATM    7  H   UNK A   1      -8.900   5.727  67.291  1.00  0.00     0.000 HD 
HETATM    8  C   UNK A   1     -10.747   5.701  70.153  1.00  0.00    -0.305 C  
HETATM    9  C   UNK A   1      -9.724   4.996  71.045  1.00  0.00    -0.184 C  
HETATM   10  O   UNK A   1     -10.763   7.100  70.468  1.00  0.00    -0.227 OA 
HETATM   11  O   UNK A   1      -9.901   3.572  70.991  1.00  0.00    -0.171 OA 
HETATM   12  C   UNK A   1      -8.290   5.355  70.627  1.00  0.00    -0.115 C  
HETATM   13  H   UNK A   1     -10.954   7.240  71.387  1.00  0.00     0.000 HD 
HETATM   14  H   UNK A   1      -9.266   3.133  71.545  1.00  0.00     0.000 HD 
HETATM   15  O   UNK A   1      -7.381   4.612  71.453  1.00  0.00    -0.063 OA 
HETATM   16  H   UNK A   1      -7.525   4.741  72.384  1.00  0.00     0.000 HD 
ENDBRANCH   3   4
TORSDOF 1
ENDMDL
MODEL      204
REMARK 921   NORMALIZED FREE ENERGY PREDICTED BY IDOCK:   -1.41 KCAL/MOL
REMARK 922        TOTAL FREE ENERGY PREDICTED BY IDOCK:   -1.75 KCAL/MOL
REMARK 923 INTER-LIGAND FREE ENERGY PREDICTED BY IDOCK:   -2.10 KCAL/MOL
REMARK 924 INTRA-LIGAND FREE ENERGY PREDICTED BY IDOCK:    0.35 KCAL/MOL
REMARK 927      BINDING AFFINITY PREDICTED BY RF-SCORE:    0.00 PKD
ROOT
HETATM    1  O   UNK A   1      -9.696   8.462  68.057  1.00  0.00    -0.150 OA 
HETATM    2  H   UNK A   1     -10.297   7.729  67.986  1.00  0.00     0.000 HD 
HETATM    3  C   UNK A   1     -10.314   9.562  68.727  1.00  0.00    -0.208 C  
ENDROOT
BRANCH   3   4
HETATM    4  C   UNK A   1      -9.333  10.757  68.845  1.00  0.00    -0.175 C  
HETATM    5  N   UNK A   1      -7.918  10.340  68.722  1.00  0.00    -0.105 NA 
HETATM    6  C   UNK A   0      -7.558  10.024  67.331  1.00  0.00    -0.091 C  
HETATM    7  H   UNK A   1      -7.705   9.562  69.346  1.00  0.00     0.000 HD 
HETATM    8  C   UNK A   1      -7.818  11.192  66.358  1.00  0.00    -0.136 C  
HETATM    9  C   UNK A   1      -9.266  11.677  66.449  1.00  0.00    -0.212 C  
HETATM   10  O   UNK A   1      -6.935  12.289  66.623  1.00  0.00    -0.371 OA 
HETATM   11  O   UNK A   1     -10.162  10.708  65.884  1.00  0.00    -0.248 OA 
HETATM   12  C   UNK A   1      -9.659  11.959  67.907  1.00  0.00    -0.193 C  
HETATM   13  H   UNK A   1      -7.095  13.008  66.024  1.00  0.00     0.000 HD 
HETATM   14  H   UNK A   1     -11.061  11.010  65.941  1.00  0.00     0.000 HD 
HETATM   15  O   UNK A   1     -11.043  12.343  67.933  1.00  0.00    -0.214 OA 
HETATM   16  H   UNK A   1     -11.242  13.076  67.361  1.00  0.00     0.000 HD 
ENDBRANCH   3   4
TORSDOF 1
ENDMDL
MODEL      205
REMARK 921   NORMALIZED FREE ENERGY PREDICTED BY IDOCK:   -1.40 KCAL/MOL
REMARK 922        TOTAL FREE ENERGY PREDICTED BY IDOCK:   -1.75 KCAL/MOL
REMARK 923 INTER-LIGAND FREE ENERGY PREDICTED BY IDOCK:   -1.62 KCAL/MOL
REMARK 924 INTRA-LIGAND FREE ENERGY PREDICTED BY IDOCK:   -0.13 KCAL/MOL
REMARK 927      BINDING AFFINITY PREDICTED BY RF-SCORE:    0.00 PKD
ROOT
HETATM    1  O   UNK A   1     -10.527   5.762  72.479  1.00  0.00    -0.192 OA 
HETATM    2  H   UNK A   1     -11.449   5.534  72.441  1.00  0.00     0.000 HD 
HETATM    3  C   UNK A   1      -9.995   5.945  71.166  1.00  0.00    -0.189 C  
ENDROOT
BRANCH   3   4
HETATM    4  C   UNK A   1      -8.492   6.317  71.227  1.00  0.00    -0.124 C  
HETATM    5  N   UNK A   1      -7.921   6.583  69.887  1.00  0.00    -0.114 NA 
HETATM    6  C   UNK A   0      -8.348   7.888  69.359  1.00  0.00    -0.132 C  
HETATM    7  H   UNK A   1      -8.138   5.830  69.235  1.00  0.00     0.000 HD 
HETATM    8  C   UNK A   1      -7.994   9.064  70.292  1.00  0.00    -0.121 C  
HETATM    9  C   UNK A   1      -8.547   8.839  71.701  1.00  0.00    -0.159 C  
HETATM   10  O   UNK A   1      -6.575   9.253  70.367  1.00  0.00    -0.052 OA 
HETATM   11  O   UNK A   1      -9.978   8.965  71.710  1.00  0.00    -0.300 OA 
HETATM   12  C   UNK A   1      -8.145   7.456  72.234  1.00  0.00    -0.101 C  
HETATM   13  H   UNK A   1      -6.358   9.977  70.941  1.00  0.00     0.000 HD 
HETATM   14  H   UNK A   1     -10.321   8.825  72.585  1.00  0.00     0.000 HD 
HETATM   15  O   UNK A   1      -8.749   7.279  73.525  1.00  0.00    -0.135 OA 
HETATM   16  H   UNK A   1      -8.538   7.973  74.139  1.00  0.00     0.000 HD 
ENDBRANCH   3   4
TORSDOF 1
ENDMDL
MODEL      206
REMARK 921   NORMALIZED FREE ENERGY PREDICTED BY IDOCK:   -1.38 KCAL/MOL
REMARK 922        TOTAL FREE ENERGY PREDICTED BY IDOCK:   -1.72 KCAL/MOL
REMARK 923 INTER-LIGAND FREE ENERGY PREDICTED BY IDOCK:   -1.68 KCAL/MOL
REMARK 924 INTRA-LIGAND FREE ENERGY PREDICTED BY IDOCK:   -0.04 KCAL/MOL
REMARK 927      BINDING AFFINITY PREDICTED BY RF-SCORE:    0.00 PKD
ROOT
HETATM    1  O   UNK A   1     -11.215   5.965  71.521  1.00  0.00    -0.272 OA 
HETATM    2  H   UNK A   1     -12.137   5.741  71.496  1.00  0.00     0.000 HD 
HETATM    3  C   UNK A   1     -10.691   6.109  70.200  1.00  0.00    -0.302 C  
ENDROOT
BRANCH   3   4
HETATM    4  C   UNK A   1      -9.185   6.474  70.240  1.00  0.00    -0.155 C  
HETATM    5  N   UNK A   1      -8.319   5.343  69.839  1.00  0.00    -0.098 NA 
HETATM    6  C   UNK A   0      -8.350   5.116  68.386  1.00  0.00    -0.089 C  
HETATM    7  H   UNK A   1      -8.556   4.494  70.352  1.00  0.00     0.000 HD 
HETATM    8  C   UNK A   1      -7.949   6.362  67.569  1.00  0.00    -0.116 C  
HETATM    9  C   UNK A   1      -8.804   7.572  67.951  1.00  0.00    -0.126 C  
HETATM   10  O   UNK A   1      -6.565   6.681  67.764  1.00  0.00    -0.053 OA 
HETATM   11  O   UNK A   1     -10.149   7.414  67.475  1.00  0.00    -0.161 OA 
HETATM   12  C   UNK A   1      -8.813   7.780  69.473  1.00  0.00    -0.139 C  
HETATM   13  H   UNK A   1      -6.319   7.448  67.262  1.00  0.00     0.000 HD 
HETATM   14  H   UNK A   1     -10.680   8.165  67.712  1.00  0.00     0.000 HD 
HETATM   15  O   UNK A   1      -9.683   8.883  69.771  1.00  0.00    -0.168 OA 
HETATM   16  H   UNK A   1      -9.457   9.680  69.304  1.00  0.00     0.000 HD 
ENDBRANCH   3   4
TORSDOF 1
ENDMDL
MODEL      207
REMARK 921   NORMALIZED FREE ENERGY PREDICTED BY IDOCK:   -1.37 KCAL/MOL
REMARK 922        TOTAL FREE ENERGY PREDICTED BY IDOCK:   -1.71 KCAL/MOL
REMARK 923 INTER-LIGAND FREE ENERGY PREDICTED BY IDOCK:   -1.60 KCAL/MOL
REMARK 924 INTRA-LIGAND FREE ENERGY PREDICTED BY IDOCK:   -0.11 KCAL/MOL
REMARK 927      BINDING AFFINITY PREDICTED BY RF-SCORE:    0.00 PKD
ROOT
HETATM    1  O   UNK A   1      -7.717  15.018  66.940  1.00  0.00    -0.289 OA 
HETATM    2  H   UNK A   1      -7.615  15.209  66.016  1.00  0.00     0.000 HD 
HETATM    3  C   UNK A   1      -7.619  13.613  67.182  1.00  0.00     0.070 C  
ENDROOT
BRANCH   3   4
HETATM    4  C   UNK A   1      -7.785  13.301  68.692  1.00  0.00    -0.080 C  
HETATM    5  N   UNK A   1      -8.760  12.216  68.941  1.00  0.00    -0.363 NA 
HETATM    6  C   UNK A   0      -8.209  10.895  68.603  1.00  0.00    -0.146 C  
HETATM    7  H   UNK A   1      -9.639  12.388  68.452  1.00  0.00     0.000 HD 
HETATM    8  C   UNK A   1      -6.904  10.571  69.359  1.00  0.00    -0.088 C  
HETATM    9  C   UNK A   1      -5.858  11.668  69.150  1.00  0.00    -0.060 C  
HETATM   10  O   UNK A   1      -7.148  10.412  70.762  1.00  0.00    -0.431 OA 
HETATM   11  O   UNK A   1      -5.354  11.639  67.806  1.00  0.00    -0.045 OA 
HETATM   12  C   UNK A   1      -6.447  13.054  69.454  1.00  0.00    -0.094 C  
HETATM   13  H   UNK A   1      -6.345  10.213  71.227  1.00  0.00     0.000 HD 
HETATM   14  H   UNK A   1      -4.704  12.320  67.677  1.00  0.00     0.000 HD 
HETATM   15  O   UNK A   1      -5.441  14.040  69.175  1.00  0.00    -0.077 OA 
HETATM   16  H   UNK A   1      -4.625  13.890  69.639  1.00  0.00     0.000 HD 
ENDBRANCH   3   4
TORSDOF 1
ENDMDL
MODEL      208
REMARK 921   NORMALIZED FREE ENERGY PREDICTED BY IDOCK:   -1.33 KCAL/MOL
REMARK 922        TOTAL FREE ENERGY PREDICTED BY IDOCK:   -1.67 KCAL/MOL
REMARK 923 INTER-LIGAND FREE ENERGY PREDICTED BY IDOCK:   -1.46 KCAL/MOL
REMARK 924 INTRA-LIGAND FREE ENERGY PREDICTED BY IDOCK:   -0.21 KCAL/MOL
REMARK 927      BINDING AFFINITY PREDICTED BY RF-SCORE:    0.00 PKD
ROOT
HETATM    1  O   UNK A   1      -6.946  10.364  64.426  1.00  0.00    -0.285 OA 
HETATM    2  H   UNK A   1      -6.815  10.941  63.683  1.00  0.00     0.000 HD 
HETATM    3  C   UNK A   1      -6.462  10.966  65.627  1.00  0.00     0.023 C  
ENDROOT
BRANCH   3   4
HETATM    4  C   UNK A   1      -6.678  10.025  66.841  1.00  0.00    -0.079 C  
HETATM    5  N   UNK A   1      -5.559  10.086  67.808  1.00  0.00    -0.039 NA 
HETATM    6  C   UNK A   0      -5.589  11.322  68.604  1.00  0.00    -0.042 C  
HETATM    7  H   UNK A   1      -4.659   9.967  67.342  1.00  0.00     0.000 HD 
HETATM    8  C   UNK A   1      -6.915  11.518  69.368  1.00  0.00    -0.071 C  
HETATM    9  C   UNK A   1      -8.114  11.452  68.420  1.00  0.00    -0.145 C  
HETATM   10  O   UNK A   1      -7.069  10.530  70.394  1.00  0.00    -0.401 OA 
HETATM   11  O   UNK A   1      -8.162  12.615  67.580  1.00  0.00    -0.156 OA 
HETATM   12  C   UNK A   1      -8.057  10.187  67.550  1.00  0.00    -0.113 C  
HETATM   13  H   UNK A   1      -7.885  10.651  70.864  1.00  0.00     0.000 HD 
HETATM   14  H   UNK A   1      -8.906  12.574  66.991  1.00  0.00     0.000 HD 
HETATM   15  O   UNK A   1      -9.167  10.217  66.639  1.00  0.00    -0.151 OA 
HETATM   16  H   UNK A   1     -10.008  10.315  67.072  1.00  0.00     0.000 HD 
ENDBRANCH   3   4
TORSDOF 1
ENDMDL
MODEL      209
REMARK 921   NORMALIZED FREE ENERGY PREDICTED BY IDOCK:   -1.29 KCAL/MOL
REMARK 922        TOTAL FREE ENERGY PREDICTED BY IDOCK:   -1.63 KCAL/MOL
REMARK 923 INTER-LIGAND FREE ENERGY PREDICTED BY IDOCK:   -1.99 KCAL/MOL
REMARK 924 INTRA-LIGAND FREE ENERGY PREDICTED BY IDOCK:    0.36 KCAL/MOL
REMARK 927      BINDING AFFINITY PREDICTED BY RF-SCORE:    0.00 PKD
ROOT
HETATM    1  O   UNK A   1      -8.422   8.303  66.334  1.00  0.00    -0.112 OA 
HETATM    2  H   UNK A   1      -8.686   9.184  66.099  1.00  0.00     0.000 HD 
HETATM    3  C   UNK A   1      -8.258   7.494  65.168  1.00  0.00    -0.120 C  
ENDROOT
BRANCH   3   4
HETATM    4  C   UNK A   1      -7.826   6.055  65.551  1.00  0.00    -0.105 C  
HETATM    5  N   UNK A   1      -7.259   5.980  66.917  1.00  0.00    -0.070 NA 
HETATM    6  C   UNK A   0      -8.302   6.074  67.949  1.00  0.00    -0.116 C  
HETATM    7  H   UNK A   1      -6.534   6.685  67.056  1.00  0.00     0.000 HD 
HETATM    8  C   UNK A   1      -9.395   4.996  67.807  1.00  0.00    -0.127 C  
HETATM    9  C   UNK A   1     -10.012   5.014  66.407  1.00  0.00    -0.226 C  
HETATM   10  O   UNK A   1      -8.867   3.690  68.073  1.00  0.00    -0.099 OA 
HETATM   11  O   UNK A   1     -10.824   6.184  66.226  1.00  0.00    -0.523 OA 
HETATM   12  C   UNK A   1      -8.921   4.968  65.326  1.00  0.00    -0.151 C  
HETATM   13  H   UNK A   1      -9.540   3.026  67.985  1.00  0.00     0.000 HD 
HETATM   14  H   UNK A   1     -11.207   6.196  65.356  1.00  0.00     0.000 HD 
HETATM   15  O   UNK A   1      -9.558   5.057  64.041  1.00  0.00    -0.340 OA 
HETATM   16  H   UNK A   1     -10.225   4.394  63.904  1.00  0.00     0.000 HD 
ENDBRANCH   3   4
TORSDOF 1
ENDMDL
MODEL      210
REMARK 921   NORMALIZED FREE ENERGY PREDICTED BY IDOCK:   -1.27 KCAL/MOL
REMARK 922        TOTAL FREE ENERGY PREDICTED BY IDOCK:   -1.61 KCAL/MOL
REMARK 923 INTER-LIGAND FREE ENERGY PREDICTED BY IDOCK:   -1.53 KCAL/MOL
REMARK 924 INTRA-LIGAND FREE ENERGY PREDICTED BY IDOCK:   -0.08 KCAL/MOL
REMARK 927      BINDING AFFINITY PREDICTED BY RF-SCORE:    0.00 PKD
ROOT
HETATM    1  O   UNK A   1      -8.583   2.585  66.420  1.00  0.00    -0.101 OA 
HETATM    2  H   UNK A   1      -8.977   1.786  66.092  1.00  0.00     0.000 HD 
HETATM    3  C   UNK A   1      -9.323   3.729  65.992  1.00  0.00    -0.170 C  
ENDROOT
BRANCH   3   4
HETATM    4  C   UNK A   1      -8.680   5.034  66.527  1.00  0.00    -0.109 C  
HETATM    5  N   UNK A   1      -9.630   6.170  66.533  1.00  0.00    -0.157 NA 
HETATM    6  C   UNK A   0     -10.610   6.060  67.624  1.00  0.00    -0.264 C  
HETATM    7  H   UNK A   1     -10.091   6.273  65.629  1.00  0.00     0.000 HD 
HETATM    8  C   UNK A   1      -9.957   5.952  69.017  1.00  0.00    -0.165 C  
HETATM    9  C   UNK A   1      -8.951   4.800  69.070  1.00  0.00    -0.104 C  
HETATM   10  O   UNK A   1      -9.294   7.173  69.370  1.00  0.00    -0.148 OA 
HETATM   11  O   UNK A   1      -9.628   3.534  69.039  1.00  0.00    -0.169 OA 
HETATM   12  C   UNK A   1      -7.958   4.885  67.901  1.00  0.00    -0.093 C  
HETATM   13  H   UNK A   1      -8.892   7.107  70.228  1.00  0.00     0.000 HD 
HETATM   14  H   UNK A   1      -9.004   2.819  69.072  1.00  0.00     0.000 HD 
HETATM   15  O   UNK A   1      -7.088   3.744  67.967  1.00  0.00    -0.050 OA 
HETATM   16  H   UNK A   1      -6.647   3.653  68.804  1.00  0.00     0.000 HD 
ENDBRANCH   3   4
TORSDOF 1
ENDMDL
MODEL      211
REMARK 921   NORMALIZED FREE ENERGY PREDICTED BY IDOCK:   -1.23 KCAL/MOL
REMARK 922        TOTAL FREE ENERGY PREDICTED BY IDOCK:   -1.57 KCAL/MOL
REMARK 923 INTER-LIGAND FREE ENERGY PREDICTED BY IDOCK:   -1.53 KCAL/MOL
REMARK 924 INTRA-LIGAND FREE ENERGY PREDICTED BY IDOCK:   -0.03 KCAL/MOL
REMARK 927      BINDING AFFINITY PREDICTED BY RF-SCORE:    0.00 PKD
ROOT
HETATM    1  O   UNK A   1      -5.521   3.106  68.455  1.00  0.00    -0.012 OA 
HETATM    2  H   UNK A   1      -5.087   2.297  68.211  1.00  0.00     0.000 HD 
HETATM    3  C   UNK A   1      -6.813   3.193  67.853  1.00  0.00    -0.049 C  
ENDROOT
BRANCH   3   4
HETATM    4  C   UNK A   1      -7.521   4.512  68.253  1.00  0.00    -0.065 C  
HETATM    5  N   UNK A   1      -7.198   5.627  67.334  1.00  0.00    -0.074 NA 
HETATM    6  C   UNK A   0      -7.899   5.498  66.048  1.00  0.00    -0.104 C  
HETATM    7  H   UNK A   1      -6.191   5.718  67.201  1.00  0.00     0.000 HD 
HETATM    8  C   UNK A   1      -9.431   5.408  66.199  1.00  0.00    -0.157 C  
HETATM    9  C   UNK A   1      -9.828   4.278  67.151  1.00  0.00    -0.163 C  
HETATM   10  O   UNK A   1      -9.974   6.644  66.681  1.00  0.00    -0.224 OA 
HETATM   11  O   UNK A   1      -9.584   2.998  66.548  1.00  0.00    -0.393 OA 
HETATM   12  C   UNK A   1      -9.058   4.382  68.477  1.00  0.00    -0.124 C  
HETATM   13  H   UNK A   1     -10.918   6.588  66.774  1.00  0.00     0.000 HD 
HETATM   14  H   UNK A   1      -9.830   2.296  67.140  1.00  0.00     0.000 HD 
HETATM   15  O   UNK A   1      -9.422   3.260  69.296  1.00  0.00    -0.167 OA 
HETATM   16  H   UNK A   1     -10.360   3.180  69.433  1.00  0.00     0.000 HD 
ENDBRANCH   3   4
TORSDOF 1
ENDMDL
MODEL      212
REMARK 921   NORMALIZED FREE ENERGY PREDICTED BY IDOCK:   -1.12 KCAL/MOL
REMARK 922        TOTAL FREE ENERGY PREDICTED BY IDOCK:   -1.44 KCAL/MOL
REMARK 923 INTER-LIGAND FREE ENERGY PREDICTED BY IDOCK:   -1.81 KCAL/MOL
REMARK 924 INTRA-LIGAND FREE ENERGY PREDICTED BY IDOCK:    0.37 KCAL/MOL
REMARK 927      BINDING AFFINITY PREDICTED BY RF-SCORE:    0.00 PKD
ROOT
HETATM    1  O   UNK A   1      -8.381   8.716  68.154  1.00  0.00    -0.124 OA 
HETATM    2  H   UNK A   1      -7.874   8.652  68.954  1.00  0.00     0.000 HD 
HETATM    3  C   UNK A   1      -7.943   7.752  67.196  1.00  0.00    -0.117 C  
ENDROOT
BRANCH   3   4
HETATM    4  C   UNK A   1      -8.771   7.856  65.889  1.00  0.00    -0.154 C  
HETATM    5  N   UNK A   1      -9.883   8.827  66.002  1.00  0.00    -0.445 NA 
HETATM    6  C   UNK A   0      -9.405  10.217  65.954  1.00  0.00    -0.175 C  
HETATM    7  H   UNK A   1     -10.442   8.655  66.838  1.00  0.00     0.000 HD 
HETATM    8  C   UNK A   1      -8.595  10.536  64.680  1.00  0.00    -0.161 C  
HETATM    9  C   UNK A   1      -7.436   9.554  64.501  1.00  0.00    -0.114 C  
HETATM   10  O   UNK A   1      -9.431  10.496  63.516  1.00  0.00    -0.259 OA 
HETATM   11  O   UNK A   1      -6.415   9.790  65.483  1.00  0.00    -0.074 OA 
HETATM   12  C   UNK A   1      -7.925   8.101  64.602  1.00  0.00    -0.149 C  
HETATM   13  H   UNK A   1      -8.932  10.692  62.732  1.00  0.00     0.000 HD 
HETATM   14  H   UNK A   1      -5.695   9.180  65.372  1.00  0.00     0.000 HD 
HETATM   15  O   UNK A   1      -6.785   7.234  64.495  1.00  0.00    -0.042 OA 
HETATM   16  H   UNK A   1      -6.270   7.383  63.711  1.00  0.00     0.000 HD 
ENDBRANCH   3   4
TORSDOF 1
ENDMDL
MODEL      213
REMARK 921   NORMALIZED FREE ENERGY PREDICTED BY IDOCK:   -1.07 KCAL/MOL
REMARK 922        TOTAL FREE ENERGY PREDICTED BY IDOCK:   -1.40 KCAL/MOL
REMARK 923 INTER-LIGAND FREE ENERGY PREDICTED BY IDOCK:   -1.36 KCAL/MOL
REMARK 924 INTRA-LIGAND FREE ENERGY PREDICTED BY IDOCK:   -0.04 KCAL/MOL
REMARK 927      BINDING AFFINITY PREDICTED BY RF-SCORE:    0.00 PKD
ROOT
HETATM    1  O   UNK A   1      -7.909  10.455  69.467  1.00  0.00    -0.151 OA 
HETATM    2  H   UNK A   1      -7.818  11.280  69.929  1.00  0.00     0.000 HD 
HETATM    3  C   UNK A   1      -8.645   9.514  70.251  1.00  0.00    -0.226 C  
ENDROOT
BRANCH   3   4
HETATM    4  C   UNK A   1      -8.794   8.167  69.497  1.00  0.00    -0.143 C  
HETATM    5  N   UNK A   1      -7.550   7.768  68.803  1.00  0.00    -0.099 NA 
HETATM    6  C   UNK A   0      -6.533   7.270  69.741  1.00  0.00    -0.036 C  
HETATM    7  H   UNK A   1      -7.185   8.528  68.229  1.00  0.00     0.000 HD 
HETATM    8  C   UNK A   1      -7.026   6.085  70.596  1.00  0.00    -0.063 C  
HETATM    9  C   UNK A   1      -8.321   6.434  71.331  1.00  0.00    -0.122 C  
HETATM   10  O   UNK A   1      -7.241   4.921  69.788  1.00  0.00    -0.053 OA 
HETATM   11  O   UNK A   1      -8.070   7.381  72.381  1.00  0.00    -0.097 OA 
HETATM   12  C   UNK A   1      -9.368   7.002  70.360  1.00  0.00    -0.159 C  
HETATM   13  H   UNK A   1      -7.544   4.192  70.314  1.00  0.00     0.000 HD 
HETATM   14  H   UNK A   1      -8.875   7.598  72.837  1.00  0.00     0.000 HD 
HETATM   15  O   UNK A   1     -10.530   7.372  71.118  1.00  0.00    -0.209 OA 
HETATM   16  H   UNK A   1     -10.880   6.661  71.644  1.00  0.00     0.000 HD 
ENDBRANCH   3   4
TORSDOF 1
ENDMDL
MODEL      214
REMARK 921   NORMALIZED FREE ENERGY PREDICTED BY IDOCK:   -1.02 KCAL/MOL
REMARK 922        TOTAL FREE ENERGY PREDICTED BY IDOCK:   -1.34 KCAL/MOL
REMARK 923 INTER-LIGAND FREE ENERGY PREDICTED BY IDOCK:   -1.53 KCAL/MOL
REMARK 924 INTRA-LIGAND FREE ENERGY PREDICTED BY IDOCK:    0.19 KCAL/MOL
REMARK 927      BINDING AFFINITY PREDICTED BY RF-SCORE:    0.00 PKD
ROOT
HETATM    1  O   UNK A   1     -11.273   5.964  71.516  1.00  0.00    -0.272 OA 
HETATM    2  H   UNK A   1     -12.201   5.768  71.558  1.00  0.00     0.000 HD 
HETATM    3  C   UNK A   1     -10.842   6.098  70.161  1.00  0.00    -0.329 C  
ENDROOT
BRANCH   3   4
HETATM    4  C   UNK A   1      -9.326   6.419  70.094  1.00  0.00    -0.157 C  
HETATM    5  N   UNK A   1      -8.647   6.214  71.393  1.00  0.00    -0.128 NA 
HETATM    6  C   UNK A   0      -8.457   4.787  71.693  1.00  0.00    -0.117 C  
HETATM    7  H   UNK A   1      -9.141   6.689  72.148  1.00  0.00     0.000 HD 
HETATM    8  C   UNK A   1      -7.669   4.037  70.599  1.00  0.00    -0.048 C  
HETATM    9  C   UNK A   1      -8.317   4.223  69.225  1.00  0.00    -0.073 C  
HETATM   10  O   UNK A   1      -6.310   4.487  70.543  1.00  0.00    -0.024 OA 
HETATM   11  O   UNK A   1      -9.556   3.502  69.147  1.00  0.00    -0.173 OA 
HETATM   12  C   UNK A   1      -8.565   5.711  68.932  1.00  0.00    -0.101 C  
HETATM   13  H   UNK A   1      -5.825   4.026  69.870  1.00  0.00     0.000 HD 
HETATM   14  H   UNK A   1      -9.959   3.617  68.294  1.00  0.00     0.000 HD 
HETATM   15  O   UNK A   1      -9.234   5.814  67.665  1.00  0.00    -0.107 OA 
HETATM   16  H   UNK A   1      -8.769   5.382  66.956  1.00  0.00     0.000 HD 
ENDBRANCH   3   4
TORSDOF 1
ENDMDL
MODEL      215
REMARK 921   NORMALIZED FREE ENERGY PREDICTED BY IDOCK:   -0.96 KCAL/MOL
REMARK 922        TOTAL FREE ENERGY PREDICTED BY IDOCK:   -1.27 KCAL/MOL
REMARK 923 INTER-LIGAND FREE ENERGY PREDICTED BY IDOCK:   -1.23 KCAL/MOL
REMARK 924 INTRA-LIGAND FREE ENERGY PREDICTED BY IDOCK:   -0.04 KCAL/MOL
REMARK 927      BINDING AFFINITY PREDICTED BY RF-SCORE:    0.00 PKD
ROOT
HETATM    1  O   UNK A   1      -8.881   1.973  64.159  1.00  0.00    -0.093 OA 
HETATM    2  H   UNK A   1      -8.309   1.518  63.552  1.00  0.00     0.000 HD 
HETATM    3  C   UNK A   1      -8.185   2.305  65.361  1.00  0.00    -0.086 C  
ENDROOT
BRANCH   3   4
HETATM    4  C   UNK A   1      -9.118   3.049  66.351  1.00  0.00    -0.146 C  
HETATM    5  N   UNK A   1      -9.563   2.184  67.466  1.00  0.00    -0.407 NA 
HETATM    6  C   UNK A   0      -8.492   1.964  68.450  1.00  0.00    -0.060 C  
HETATM    7  H   UNK A   1      -9.939   1.299  67.123  1.00  0.00     0.000 HD 
HETATM    8  C   UNK A   1      -7.927   3.275  69.034  1.00  0.00    -0.053 C  
HETATM    9  C   UNK A   1      -7.462   4.220  67.925  1.00  0.00    -0.068 C  
HETATM   10  O   UNK A   1      -8.905   3.941  69.842  1.00  0.00    -0.075 OA 
HETATM   11  O   UNK A   1      -6.271   3.720  67.298  1.00  0.00    -0.034 OA 
HETATM   12  C   UNK A   1      -8.562   4.410  66.869  1.00  0.00    -0.104 C  
HETATM   13  H   UNK A   1      -8.558   4.748  70.202  1.00  0.00     0.000 HD 
HETATM   14  H   UNK A   1      -5.982   4.306  66.609  1.00  0.00     0.000 HD 
HETATM   15  O   UNK A   1      -8.042   5.248  65.825  1.00  0.00    -0.106 OA 
HETATM   16  H   UNK A   1      -7.703   6.078  66.140  1.00  0.00     0.000 HD 
ENDBRANCH   3   4
TORSDOF 1
ENDMDL
MODEL      216
REMARK 921   NORMALIZED FREE ENERGY PREDICTED BY IDOCK:   -0.89 KCAL/MOL
REMARK 922        TOTAL FREE ENERGY PREDICTED BY IDOCK:   -1.21 KCAL/MOL
REMARK 923 INTER-LIGAND FREE ENERGY PREDICTED BY IDOCK:   -1.08 KCAL/MOL
REMARK 924 INTRA-LIGAND FREE ENERGY PREDICTED BY IDOCK:   -0.13 KCAL/MOL
REMARK 927      BINDING AFFINITY PREDICTED BY RF-SCORE:    0.00 PKD
ROOT
HETATM    1  O   UNK A   1      -6.090   8.011  65.079  1.00  0.00    -0.044 OA 
HETATM    2  H   UNK A   1      -5.565   8.801  65.039  1.00  0.00     0.000 HD 
HETATM    3  C   UNK A   1      -6.420   7.688  66.431  1.00  0.00    -0.049 C  
ENDROOT
BRANCH   3   4
HETATM    4  C   UNK A   1      -7.278   6.398  66.497  1.00  0.00    -0.073 C  
HETATM    5  N   UNK A   1      -7.814   6.145  67.853  1.00  0.00    -0.105 NA 
HETATM    6  C   UNK A   0      -8.927   7.048  68.180  1.00  0.00    -0.127 C  
HETATM    7  H   UNK A   1      -7.078   6.193  68.558  1.00  0.00     0.000 HD 
HETATM    8  C   UNK A   1     -10.087   6.973  67.167  1.00  0.00    -0.217 C  
HETATM    9  C   UNK A   1      -9.592   7.214  65.739  1.00  0.00     0.434 C  
HETATM   10  O   UNK A   1     -10.744   5.700  67.230  1.00  0.00    -0.256 OA 
HETATM   11  O   UNK A   1      -9.221   8.589  65.556  1.00  0.00    -0.376 OA 
HETATM   12  C   UNK A   1      -8.396   6.307  65.413  1.00  0.00    -0.148 C  
HETATM   13  H   UNK A   1     -11.458   5.654  66.606  1.00  0.00     0.000 HD 
HETATM   14  H   UNK A   1      -8.913   8.738  64.670  1.00  0.00     0.000 HD 
HETATM   15  O   UNK A   1      -7.936   6.627  64.091  1.00  0.00    -0.120 OA 
HETATM   16  H   UNK A   1      -8.617   6.572  63.430  1.00  0.00     0.000 HD 
ENDBRANCH   3   4
TORSDOF 1
ENDMDL
MODEL      217
REMARK 921   NORMALIZED FREE ENERGY PREDICTED BY IDOCK:   -0.88 KCAL/MOL
REMARK 922        TOTAL FREE ENERGY PREDICTED BY IDOCK:   -1.19 KCAL/MOL
REMARK 923 INTER-LIGAND FREE ENERGY PREDICTED BY IDOCK:   -2.38 KCAL/MOL
REMARK 924 INTRA-LIGAND FREE ENERGY PREDICTED BY IDOCK:    1.19 KCAL/MOL
REMARK 927      BINDING AFFINITY PREDICTED BY RF-SCORE:    0.00 PKD
ROOT
HETATM    1  O   UNK A   1      -7.819  15.556  68.090  1.00  0.00    -0.123 OA 
HETATM    2  H   UNK A   1      -8.185  14.690  68.228  1.00  0.00     0.000 HD 
HETATM    3  C   UNK A   1      -6.433  15.474  67.754  1.00  0.00    -0.164 C  
ENDROOT
BRANCH   3   4
HETATM    4  C   UNK A   1      -5.836  16.887  67.527  1.00  0.00    -0.143 C  
HETATM    5  N   UNK A   1      -6.092  17.395  66.161  1.00  0.00    -0.195 NA 
HETATM    6  C   UNK A   0      -7.488  17.823  65.986  1.00  0.00    -0.249 C  
HETATM    7  H   UNK A   1      -5.823  16.709  65.454  1.00  0.00     0.000 HD 
HETATM    8  C   UNK A   1      -7.924  18.897  67.004  1.00  0.00    -0.252 C  
HETATM    9  C   UNK A   1      -7.671  18.434  68.440  1.00  0.00    -0.297 C  
HETATM   10  O   UNK A   1      -7.231  20.131  66.777  1.00  0.00    -0.235 OA 
HETATM   11  O   UNK A   1      -8.588  17.391  68.806  1.00  0.00    -0.275 OA 
HETATM   12  C   UNK A   1      -6.227  17.938  68.611  1.00  0.00    -0.201 C  
HETATM   13  H   UNK A   1      -7.499  20.792  67.404  1.00  0.00     0.000 HD 
HETATM   14  H   UNK A   1      -8.430  17.103  69.697  1.00  0.00     0.000 HD 
HETATM   15  O   UNK A   1      -6.073  17.456  69.955  1.00  0.00    -0.247 OA 
HETATM   16  H   UNK A   1      -6.311  18.096  70.616  1.00  0.00     0.000 HD 
ENDBRANCH   3   4
TORSDOF 1
ENDMDL
MODEL      218
REMARK 921   NORMALIZED FREE ENERGY PREDICTED BY IDOCK:   -0.63 KCAL/MOL
REMARK 922        TOTAL FREE ENERGY PREDICTED BY IDOCK:   -0.93 KCAL/MOL
REMARK 923 INTER-LIGAND FREE ENERGY PREDICTED BY IDOCK:   -1.58 KCAL/MOL
REMARK 924 INTRA-LIGAND FREE ENERGY PREDICTED BY IDOCK:    0.65 KCAL/MOL
REMARK 927      BINDING AFFINITY PREDICTED BY RF-SCORE:    0.00 PKD
ROOT
HETATM    1  O   UNK A   1     -11.981  11.324  66.990  1.00  0.00    -0.401 OA 
HETATM    2  H   UNK A   1     -12.409  11.159  66.159  1.00  0.00     0.000 HD 
HETATM    3  C   UNK A   1     -11.519  12.674  67.064  1.00  0.00    -0.346 C  
ENDROOT
BRANCH   3   4
HETATM    4  C   UNK A   1     -10.821  12.945  68.421  1.00  0.00    -0.254 C  
HETATM    5  N   UNK A   1     -11.449  14.057  69.168  1.00  0.00    -0.276 NA 
HETATM    6  C   UNK A   0     -12.731  13.660  69.768  1.00  0.00     0.179 C  
HETATM    7  H   UNK A   1     -11.555  14.885  68.581  1.00  0.00     0.000 HD 
HETATM    8  C   UNK A   1     -12.610  12.441  70.705  1.00  0.00    -0.153 C  
HETATM    9  C   UNK A   1     -11.953  11.258  69.991  1.00  0.00    -0.368 C  
HETATM   10  O   UNK A   1     -11.851  12.765  71.877  1.00  0.00     0.805 OA 
HETATM   11  O   UNK A   1     -12.840  10.701  69.009  1.00  0.00    -0.555 OA 
HETATM   12  C   UNK A   1     -10.638  11.683  69.320  1.00  0.00    -0.044 C  
HETATM   13  H   UNK A   1     -11.776  12.015  72.453  1.00  0.00     0.000 HD 
HETATM   14  H   UNK A   1     -12.432   9.967  68.566  1.00  0.00     0.000 HD 
HETATM   15  O   UNK A   1     -10.107  10.551  68.613  1.00  0.00    -0.165 OA 
HETATM   16  H   UNK A   1      -9.996   9.782  69.160  1.00  0.00     0.000 HD 
ENDBRANCH   3   4
TORSDOF 1
ENDMDL
MODEL      219
REMARK 921   NORMALIZED FREE ENERGY PREDICTED BY IDOCK:    0.59 KCAL/MOL
REMARK 922        TOTAL FREE ENERGY PREDICTED BY IDOCK:    0.36 KCAL/MOL
REMARK 923 INTER-LIGAND FREE ENERGY PREDICTED BY IDOCK:    0.56 KCAL/MOL
REMARK 924 INTRA-LIGAND FREE ENERGY PREDICTED BY IDOCK:   -0.20 KCAL/MOL
REMARK 927      BINDING AFFINITY PREDICTED BY RF-SCORE:    0.00 PKD
ROOT
HETATM    1  O   UNK A   1      -5.928  11.080  70.868  1.00  0.00    -0.327 OA 
HETATM    2  H   UNK A   1      -6.430  10.282  70.992  1.00  0.00     0.000 HD 
HETATM    3  C   UNK A   1      -6.252  11.693  69.619  1.00  0.00    -0.127 C  
ENDROOT
BRANCH   3   4
HETATM    4  C   UNK A   1      -5.434  12.994  69.416  1.00  0.00    -0.080 C  
HETATM    5  N   UNK A   1      -5.639  13.586  68.074  1.00  0.00    -0.112 NA 
HETATM    6  C   UNK A   0      -6.948  14.245  67.959  1.00  0.00    -0.144 C  
HETATM    7  H   UNK A   1      -5.507  12.891  67.339  1.00  0.00     0.000 HD 
HETATM    8  C   UNK A   1      -7.171  15.340  69.023  1.00  0.00    -0.151 C  
HETATM    9  C   UNK A   1      -6.960  14.791  70.435  1.00  0.00     0.200 C  
HETATM   10  O   UNK A   1      -6.289  16.450  68.812  1.00  0.00    -0.126 OA 
HETATM   11  O   UNK A   1      -8.027  13.901  70.799  1.00  0.00     1.876 OA 
HETATM   12  C   UNK A   1      -5.614  14.056  70.543  1.00  0.00    -0.144 C  
HETATM   13  H   UNK A   1      -6.426  17.124  69.467  1.00  0.00     0.000 HD 
HETATM   14  H   UNK A   1      -7.896  13.560  71.676  1.00  0.00     0.000 HD 
HETATM   15  O   UNK A   1      -5.507  13.508  71.866  1.00  0.00    -0.305 OA 
HETATM   16  H   UNK A   1      -5.616  14.155  72.554  1.00  0.00     0.000 HD 
ENDBRANCH   3   4
TORSDOF 1
ENDMDL
MODEL      220
REMARK 921   NORMALIZED FREE ENERGY PREDICTED BY IDOCK:    6.21 KCAL/MOL
REMARK 922        TOTAL FREE ENERGY PREDICTED BY IDOCK:    6.31 KCAL/MOL
REMARK 923 INTER-LIGAND FREE ENERGY PREDICTED BY IDOCK:    6.36 KCAL/MOL
REMARK 924 INTRA-LIGAND FREE ENERGY PREDICTED BY IDOCK:   -0.05 KCAL/MOL
REMARK 927      BINDING AFFINITY PREDICTED BY RF-SCORE:    0.00 PKD
ROOT
HETATM    1  O   UNK A   1     -11.038  11.939  69.043  1.00  0.00    -0.229 OA 
HETATM    2  H   UNK A   1     -11.188  11.651  68.150  1.00  0.00     0.000 HD 
HETATM    3  C   UNK A   1     -11.044  13.365  69.124  1.00  0.00    -0.213 C  
ENDROOT
BRANCH   3   4
HETATM    4  C   UNK A   1     -10.801  13.835  70.581  1.00  0.00     1.470 C  
HETATM    5  N   UNK A   1      -9.487  14.495  70.750  1.00  0.00     1.470 NA 
HETATM    6  C   UNK A   0      -9.477  15.850  70.181  1.00  0.00     0.504 C  
HETATM    7  H   UNK A   1      -8.734  13.925  70.365  1.00  0.00     0.000 HD 
HETATM    8  C   UNK A   1     -10.570  16.764  70.772  1.00  0.00     0.872 C  
HETATM    9  C   UNK A   1     -11.955  16.128  70.639  1.00  0.00    -0.144 C  
HETATM   10  O   UNK A   1     -10.312  17.048  72.153  1.00  0.00     3.620 OA 
HETATM   11  O   UNK A   1     -12.381  16.123  69.268  1.00  0.00    -0.309 OA 
HETATM   12  C   UNK A   1     -11.954  14.693  71.187  1.00  0.00    -0.346 C  
HETATM   13  H   UNK A   1     -10.985  17.610  72.517  1.00  0.00     0.000 HD 
HETATM   14  H   UNK A   1     -13.241  15.728  69.185  1.00  0.00     0.000 HD 
HETATM   15  O   UNK A   1     -13.258  14.129  70.971  1.00  0.00    -0.336 OA 
HETATM   16  H   UNK A   1     -13.961  14.652  71.340  1.00  0.00     0.000 HD 
ENDBRANCH   3   4
TORSDOF 1
ENDMDL
