MODEL        1
REMARK 921   NORMALIZED FREE ENERGY PREDICTED BY IDOCK:   -6.04 KCAL/MOL
REMARK 922        TOTAL FREE ENERGY PREDICTED BY IDOCK:   -7.44 KCAL/MOL
REMARK 923 INTER-LIGAND FREE ENERGY PREDICTED BY IDOCK:   -7.10 KCAL/MOL
REMARK 924 INTRA-LIGAND FREE ENERGY PREDICTED BY IDOCK:   -0.34 KCAL/MOL
REMARK 927      BINDING AFFINITY PREDICTED BY RF-SCORE:    0.00 PKD
ROOT
HETATM    1  O   UNL     1      -9.849  12.400  68.851  1.00  0.00    -0.419 OA 
HETATM    2  C   UNL     1     -10.335  13.610  68.272  1.00  0.00    -0.251 C  
HETATM    3  H   UNL     1      -9.445  12.596  69.688  1.00  0.00     0.000 HD 
ENDROOT
BRANCH   2   4
HETATM    4  C   UNL     1     -10.990  13.294  66.915  1.00  0.00    -0.283 C  
BRANCH   4   5
HETATM    5  N   UNL     1     -10.094  13.423  65.745  1.00  0.00    -0.294 NA 
HETATM    6  C   UNL     1      -9.625  12.122  65.231  1.00  0.00    -0.061 C  
HETATM    7  C   UNL     1     -10.732  11.256  64.604  1.00  0.00    -0.303 C  
HETATM    8  C   UNL     1     -11.458  12.037  63.497  1.00  0.00    -0.446 C  
HETATM    9  O   UNL     1     -10.185  10.057  64.046  1.00  0.00    -0.448 OA 
HETATM   10  H   UNL     1     -10.868   9.522  63.660  1.00  0.00     0.000 HD 
HETATM   11  O   UNL     1     -12.655  11.371  63.048  1.00  0.00    -0.919 OA 
HETATM   12  C   UNL     1     -11.892  13.428  63.965  1.00  0.00    -0.445 C  
HETATM   13  O   UNL     1     -12.429  14.139  62.836  1.00  0.00    -0.955 OA 
HETATM   14  H   UNL     1     -13.104  11.853  62.364  1.00  0.00     0.000 HD 
HETATM   15  C   UNL     1     -10.707  14.186  64.613  1.00  0.00    -0.389 C  
HETATM   16  H   UNL     1     -12.698  15.002  63.126  1.00  0.00     0.000 HD 
BRANCH  15  17
HETATM   17  C   UNL     1     -11.099  15.644  64.950  1.00  0.00    -0.402 C  
HETATM   18  O   UNL     1     -11.307  16.415  63.761  1.00  0.00    -1.487 OA 
HETATM   19  H   UNL     1     -11.548  17.310  63.967  1.00  0.00     0.000 HD 
ENDBRANCH  15  17
ENDBRANCH   4   5
ENDBRANCH   2   4
TORSDOF 3
ENDMDL
MODEL        2
REMARK 921   NORMALIZED FREE ENERGY PREDICTED BY IDOCK:   -5.77 KCAL/MOL
REMARK 922        TOTAL FREE ENERGY PREDICTED BY IDOCK:   -7.13 KCAL/MOL
REMARK 923 INTER-LIGAND FREE ENERGY PREDICTED BY IDOCK:   -6.78 KCAL/MOL
REMARK 924 INTRA-LIGAND FREE ENERGY PREDICTED BY IDOCK:   -0.34 KCAL/MOL
REMARK 927      BINDING AFFINITY PREDICTED BY RF-SCORE:    0.00 PKD
ROOT
HETATM    1  O   UNL     1      -7.051  13.423  67.108  1.00  0.00    -0.345 OA 
HETATM    2  C   UNL     1      -8.228  14.053  67.609  1.00  0.00    -0.180 C  
HETATM    3  H   UNL     1      -6.339  13.562  67.721  1.00  0.00     0.000 HD 
ENDROOT
BRANCH   2   4
HETATM    4  C   UNL     1      -9.383  13.829  66.616  1.00  0.00    -0.264 C  
BRANCH   4   5
HETATM    5  N   UNL     1     -10.622  14.576  66.921  1.00  0.00    -0.276 NA 
HETATM    6  C   UNL     1     -10.809  15.761  66.061  1.00  0.00    -0.255 C  
HETATM    7  C   UNL     1     -11.074  15.428  64.581  1.00  0.00    -0.347 C  
HETATM    8  C   UNL     1     -12.279  14.482  64.456  1.00  0.00    -0.465 C  
HETATM    9  O   UNL     1     -11.337  16.619  63.832  1.00  0.00    -1.558 OA 
HETATM   10  H   UNL     1     -11.501  16.414  62.919  1.00  0.00     0.000 HD 
HETATM   11  O   UNL     1     -12.420  13.945  63.125  1.00  0.00    -1.121 OA 
HETATM   12  C   UNL     1     -12.165  13.278  65.393  1.00  0.00    -0.456 C  
HETATM   13  O   UNL     1     -13.389  12.527  65.318  1.00  0.00    -0.267 OA 
HETATM   14  H   UNL     1     -13.165  13.360  63.047  1.00  0.00     0.000 HD 
HETATM   15  C   UNL     1     -11.856  13.734  66.840  1.00  0.00    -0.413 C  
HETATM   16  H   UNL     1     -13.317  11.780  65.900  1.00  0.00     0.000 HD 
BRANCH  15  17
HETATM   17  C   UNL     1     -11.889  12.536  67.818  1.00  0.00    -0.313 C  
HETATM   18  O   UNL     1     -11.791  11.290  67.119  1.00  0.00    -0.524 OA 
HETATM   19  H   UNL     1     -11.812  10.554  67.719  1.00  0.00     0.000 HD 
ENDBRANCH  15  17
ENDBRANCH   4   5
ENDBRANCH   2   4
TORSDOF 3
ENDMDL
MODEL        3
REMARK 921   NORMALIZED FREE ENERGY PREDICTED BY IDOCK:   -5.72 KCAL/MOL
REMARK 922        TOTAL FREE ENERGY PREDICTED BY IDOCK:   -7.06 KCAL/MOL
REMARK 923 INTER-LIGAND FREE ENERGY PREDICTED BY IDOCK:   -6.71 KCAL/MOL
REMARK 924 INTRA-LIGAND FREE ENERGY PREDICTED BY IDOCK:   -0.35 KCAL/MOL
REMARK 927      BINDING AFFINITY PREDICTED BY RF-SCORE:    0.00 PKD
ROOT
HETATM    1  O   UNL     1      -9.045  12.811  68.753  1.00  0.00    -0.392 OA 
HETATM    2  C   UNL     1      -8.471  13.604  67.716  1.00  0.00    -0.183 C  
HETATM    3  H   UNL     1      -8.439  12.765  69.482  1.00  0.00     0.000 HD 
ENDROOT
BRANCH   2   4
HETATM    4  C   UNL     1      -9.454  13.678  66.534  1.00  0.00    -0.259 C  
BRANCH   4   5
HETATM    5  N   UNL     1     -10.759  14.300  66.846  1.00  0.00    -0.288 NA 
HETATM    6  C   UNL     1     -10.994  15.554  66.104  1.00  0.00    -0.247 C  
HETATM    7  C   UNL     1     -11.163  15.365  64.585  1.00  0.00    -0.364 C  
HETATM    8  C   UNL     1     -12.285  14.355  64.295  1.00  0.00    -0.423 C  
HETATM    9  O   UNL     1     -11.479  16.608  63.951  1.00  0.00    -1.604 OA 
HETATM   10  H   UNL     1     -11.583  16.492  63.014  1.00  0.00     0.000 HD 
HETATM   11  O   UNL     1     -12.321  13.956  62.910  1.00  0.00    -1.023 OA 
HETATM   12  C   UNL     1     -12.125  13.068  65.108  1.00  0.00    -0.433 C  
HETATM   13  O   UNL     1     -13.283  12.246  64.887  1.00  0.00    -0.597 OA 
HETATM   14  H   UNL     1     -13.015  13.332  62.731  1.00  0.00     0.000 HD 
HETATM   15  C   UNL     1     -11.921  13.386  66.609  1.00  0.00    -0.399 C  
HETATM   16  H   UNL     1     -13.184  11.447  65.391  1.00  0.00     0.000 HD 
BRANCH  15  17
HETATM   17  C   UNL     1     -11.910  12.091  67.454  1.00  0.00    -0.198 C  
HETATM   18  O   UNL     1     -11.955  12.383  68.856  1.00  0.00    -0.303 OA 
HETATM   19  H   UNL     1     -11.949  11.587  69.375  1.00  0.00     0.000 HD 
ENDBRANCH  15  17
ENDBRANCH   4   5
ENDBRANCH   2   4
TORSDOF 3
ENDMDL
MODEL        4
REMARK 921   NORMALIZED FREE ENERGY PREDICTED BY IDOCK:   -5.68 KCAL/MOL
REMARK 922        TOTAL FREE ENERGY PREDICTED BY IDOCK:   -7.02 KCAL/MOL
REMARK 923 INTER-LIGAND FREE ENERGY PREDICTED BY IDOCK:   -6.64 KCAL/MOL
REMARK 924 INTRA-LIGAND FREE ENERGY PREDICTED BY IDOCK:   -0.37 KCAL/MOL
REMARK 927      BINDING AFFINITY PREDICTED BY RF-SCORE:    0.00 PKD
ROOT
HETATM    1  O   UNL     1     -10.713  13.744  69.730  1.00  0.00    -0.439 OA 
HETATM    2  C   UNL     1     -11.548  14.778  69.212  1.00  0.00    -0.303 C  
HETATM    3  H   UNL     1     -10.574  13.892  70.658  1.00  0.00     0.000 HD 
ENDROOT
BRANCH   2   4
HETATM    4  C   UNL     1     -11.774  14.539  67.708  1.00  0.00    -0.374 C  
BRANCH   4   5
HETATM    5  N   UNL     1     -10.539  14.460  66.897  1.00  0.00    -0.276 NA 
HETATM    6  C   UNL     1     -10.382  13.164  66.210  1.00  0.00    -0.287 C  
HETATM    7  C   UNL     1     -11.424  12.906  65.106  1.00  0.00    -0.313 C  
HETATM    8  C   UNL     1     -11.415  14.056  64.086  1.00  0.00    -0.209 C  
HETATM    9  O   UNL     1     -11.150  11.677  64.426  1.00  0.00    -0.325 OA 
HETATM   10  H   UNL     1     -11.793  11.518  63.745  1.00  0.00     0.000 HD 
HETATM   11  O   UNL     1     -12.531  13.991  63.174  1.00  0.00    -1.137 OA 
HETATM   12  C   UNL     1     -11.494  15.426  64.763  1.00  0.00    -0.336 C  
HETATM   13  O   UNL     1     -11.336  16.439  63.755  1.00  0.00    -1.487 OA 
HETATM   14  H   UNL     1     -12.525  14.701  62.544  1.00  0.00     0.000 HD 
HETATM   15  C   UNL     1     -10.429  15.551  65.880  1.00  0.00    -0.342 C  
HETATM   16  H   UNL     1     -11.385  17.290  64.175  1.00  0.00     0.000 HD 
BRANCH  15  17
HETATM   17  C   UNL     1     -10.403  16.983  66.464  1.00  0.00    -0.298 C  
HETATM   18  O   UNL     1      -9.519  17.832  65.723  1.00  0.00    -0.518 OA 
HETATM   19  H   UNL     1      -9.503  18.712  66.081  1.00  0.00     0.000 HD 
ENDBRANCH  15  17
ENDBRANCH   4   5
ENDBRANCH   2   4
TORSDOF 3
ENDMDL
MODEL        5
REMARK 921   NORMALIZED FREE ENERGY PREDICTED BY IDOCK:   -5.65 KCAL/MOL
REMARK 922        TOTAL FREE ENERGY PREDICTED BY IDOCK:   -6.99 KCAL/MOL
REMARK 923 INTER-LIGAND FREE ENERGY PREDICTED BY IDOCK:   -6.67 KCAL/MOL
REMARK 924 INTRA-LIGAND FREE ENERGY PREDICTED BY IDOCK:   -0.32 KCAL/MOL
REMARK 927      BINDING AFFINITY PREDICTED BY RF-SCORE:    0.00 PKD
ROOT
HETATM    1  O   UNL     1     -12.219  11.018  68.230  1.00  0.00    -0.769 OA 
HETATM    2  C   UNL     1     -11.711  12.310  68.557  1.00  0.00    -0.331 C  
HETATM    3  H   UNL     1     -12.161  10.458  68.995  1.00  0.00     0.000 HD 
ENDROOT
BRANCH   2   4
HETATM    4  C   UNL     1     -11.805  13.218  67.317  1.00  0.00    -0.372 C  
BRANCH   4   5
HETATM    5  N   UNL     1     -10.807  12.937  66.262  1.00  0.00    -0.272 NA 
HETATM    6  C   UNL     1     -11.410  12.774  64.925  1.00  0.00    -0.306 C  
HETATM    7  C   UNL     1     -12.027  14.063  64.351  1.00  0.00    -0.454 C  
HETATM    8  C   UNL     1     -10.981  15.190  64.331  1.00  0.00    -0.023 C  
HETATM    9  O   UNL     1     -12.505  13.848  63.019  1.00  0.00    -1.099 OA 
HETATM   10  H   UNL     1     -12.886  14.643  62.665  1.00  0.00     0.000 HD 
HETATM   11  O   UNL     1     -11.565  16.476  64.037  1.00  0.00    -1.490 OA 
HETATM   12  C   UNL     1     -10.271  15.340  65.679  1.00  0.00    -0.372 C  
HETATM   13  O   UNL     1      -9.220  16.309  65.531  1.00  0.00    -0.402 OA 
HETATM   14  H   UNL     1     -10.919  17.172  64.024  1.00  0.00     0.000 HD 
HETATM   15  C   UNL     1      -9.733  13.974  66.172  1.00  0.00    -0.280 C  
HETATM   16  H   UNL     1      -8.779  16.402  66.367  1.00  0.00     0.000 HD 
BRANCH  15  17
HETATM   17  C   UNL     1      -8.886  14.143  67.455  1.00  0.00    -0.206 C  
HETATM   18  O   UNL     1      -7.531  14.491  67.143  1.00  0.00    -0.294 OA 
HETATM   19  H   UNL     1      -7.011  14.595  67.930  1.00  0.00     0.000 HD 
ENDBRANCH  15  17
ENDBRANCH   4   5
ENDBRANCH   2   4
TORSDOF 3
ENDMDL
MODEL        6
REMARK 921   NORMALIZED FREE ENERGY PREDICTED BY IDOCK:   -5.64 KCAL/MOL
REMARK 922        TOTAL FREE ENERGY PREDICTED BY IDOCK:   -6.97 KCAL/MOL
REMARK 923 INTER-LIGAND FREE ENERGY PREDICTED BY IDOCK:   -6.60 KCAL/MOL
REMARK 924 INTRA-LIGAND FREE ENERGY PREDICTED BY IDOCK:   -0.37 KCAL/MOL
REMARK 927      BINDING AFFINITY PREDICTED BY RF-SCORE:    0.00 PKD
ROOT
HETATM    1  O   UNL     1     -11.669  11.243  67.230  1.00  0.00    -0.566 OA 
HETATM    2  C   UNL     1     -10.411  11.524  66.618  1.00  0.00    -0.238 C  
HETATM    3  H   UNL     1     -11.771  10.303  67.315  1.00  0.00     0.000 HD 
ENDROOT
BRANCH   2   4
HETATM    4  C   UNL     1     -10.245  13.048  66.480  1.00  0.00    -0.268 C  
BRANCH   4   5
HETATM    5  N   UNL     1     -11.488  13.830  66.663  1.00  0.00    -0.331 NA 
HETATM    6  C   UNL     1     -11.387  14.829  67.743  1.00  0.00    -0.330 C  
HETATM    7  C   UNL     1     -10.408  15.980  67.448  1.00  0.00    -0.294 C  
HETATM    8  C   UNL     1     -10.774  16.664  66.121  1.00  0.00    -0.132 C  
HETATM    9  O   UNL     1     -10.436  16.953  68.497  1.00  0.00    -0.316 OA 
HETATM   10  H   UNL     1      -9.832  17.663  68.315  1.00  0.00     0.000 HD 
HETATM   11  O   UNL     1      -9.754  17.580  65.674  1.00  0.00    -0.532 OA 
HETATM   12  C   UNL     1     -10.968  15.653  64.988  1.00  0.00    -0.431 C  
HETATM   13  O   UNL     1     -11.446  16.359  63.829  1.00  0.00    -1.590 OA 
HETATM   14  H   UNL     1      -9.980  18.002  64.854  1.00  0.00     0.000 HD 
HETATM   15  C   UNL     1     -11.938  14.525  65.417  1.00  0.00    -0.332 C  
HETATM   16  H   UNL     1     -11.566  15.731  63.126  1.00  0.00     0.000 HD 
BRANCH  15  17
HETATM   17  C   UNL     1     -12.255  13.586  64.229  1.00  0.00    -0.396 C  
HETATM   18  O   UNL     1     -13.049  12.469  64.646  1.00  0.00    -0.845 OA 
HETATM   19  H   UNL     1     -13.244  11.892  63.917  1.00  0.00     0.000 HD 
ENDBRANCH  15  17
ENDBRANCH   4   5
ENDBRANCH   2   4
TORSDOF 3
ENDMDL
MODEL        7
REMARK 921   NORMALIZED FREE ENERGY PREDICTED BY IDOCK:   -5.62 KCAL/MOL
REMARK 922        TOTAL FREE ENERGY PREDICTED BY IDOCK:   -6.95 KCAL/MOL
REMARK 923 INTER-LIGAND FREE ENERGY PREDICTED BY IDOCK:   -6.59 KCAL/MOL
REMARK 924 INTRA-LIGAND FREE ENERGY PREDICTED BY IDOCK:   -0.37 KCAL/MOL
REMARK 927      BINDING AFFINITY PREDICTED BY RF-SCORE:    0.00 PKD
ROOT
HETATM    1  O   UNL     1     -12.214  11.002  68.156  1.00  0.00    -0.765 OA 
HETATM    2  C   UNL     1     -11.760  12.317  68.470  1.00  0.00    -0.331 C  
HETATM    3  H   UNL     1     -12.132  10.452  68.926  1.00  0.00     0.000 HD 
ENDROOT
BRANCH   2   4
HETATM    4  C   UNL     1     -11.894  13.208  67.222  1.00  0.00    -0.367 C  
BRANCH   4   5
HETATM    5  N   UNL     1     -10.669  13.317  66.399  1.00  0.00    -0.283 NA 
HETATM    6  C   UNL     1     -10.545  12.235  65.403  1.00  0.00    -0.274 C  
HETATM    7  C   UNL     1     -11.604  12.284  64.285  1.00  0.00    -0.371 C  
HETATM    8  C   UNL     1     -11.582  13.655  63.590  1.00  0.00    -0.053 C  
HETATM    9  O   UNL     1     -11.362  11.264  63.311  1.00  0.00    -0.804 OA 
HETATM   10  H   UNL     1     -12.015  11.294  62.622  1.00  0.00     0.000 HD 
HETATM   11  O   UNL     1     -12.708  13.844  62.709  1.00  0.00    -0.720 OA 
HETATM   12  C   UNL     1     -11.626  14.810  64.595  1.00  0.00    -0.399 C  
HETATM   13  O   UNL     1     -11.458  16.043  63.875  1.00  0.00    -1.188 OA 
HETATM   14  H   UNL     1     -12.694  14.690  62.280  1.00  0.00     0.000 HD 
HETATM   15  C   UNL     1     -10.547  14.628  65.690  1.00  0.00    -0.332 C  
HETATM   16  H   UNL     1     -11.486  16.759  64.498  1.00  0.00     0.000 HD 
BRANCH  15  17
HETATM   17  C   UNL     1     -10.487  15.864  66.619  1.00  0.00    -0.306 C  
HETATM   18  O   UNL     1      -9.661  16.894  66.062  1.00  0.00    -0.393 OA 
HETATM   19  H   UNL     1      -9.624  17.653  66.632  1.00  0.00     0.000 HD 
ENDBRANCH  15  17
ENDBRANCH   4   5
ENDBRANCH   2   4
TORSDOF 3
ENDMDL
MODEL        8
REMARK 921   NORMALIZED FREE ENERGY PREDICTED BY IDOCK:   -5.39 KCAL/MOL
REMARK 922        TOTAL FREE ENERGY PREDICTED BY IDOCK:   -6.68 KCAL/MOL
REMARK 923 INTER-LIGAND FREE ENERGY PREDICTED BY IDOCK:   -6.49 KCAL/MOL
REMARK 924 INTRA-LIGAND FREE ENERGY PREDICTED BY IDOCK:   -0.18 KCAL/MOL
REMARK 927      BINDING AFFINITY PREDICTED BY RF-SCORE:    0.00 PKD
ROOT
HETATM    1  O   UNL     1      -9.138  11.379  64.954  1.00  0.00    -0.385 OA 
HETATM    2  C   UNL     1      -9.428  11.821  66.279  1.00  0.00    -0.224 C  
HETATM    3  H   UNL     1      -9.044  10.434  64.955  1.00  0.00     0.000 HD 
ENDROOT
BRANCH   2   4
HETATM    4  C   UNL     1      -9.581  13.353  66.277  1.00  0.00    -0.235 C  
BRANCH   4   5
HETATM    5  N   UNL     1     -10.948  13.843  66.558  1.00  0.00    -0.298 NA 
HETATM    6  C   UNL     1     -10.994  14.828  67.656  1.00  0.00    -0.291 C  
HETATM    7  C   UNL     1     -10.309  16.168  67.330  1.00  0.00    -0.294 C  
HETATM    8  C   UNL     1     -10.903  16.771  66.047  1.00  0.00    -0.026 C  
HETATM    9  O   UNL     1     -10.477  17.098  68.404  1.00  0.00    -0.334 OA 
HETATM   10  H   UNL     1     -10.054  17.925  68.204  1.00  0.00     0.000 HD 
HETATM   11  O   UNL     1     -10.136  17.893  65.562  1.00  0.00    -0.530 OA 
HETATM   12  C   UNL     1     -10.948  15.757  64.902  1.00  0.00    -0.427 C  
HETATM   13  O   UNL     1     -11.643  16.355  63.795  1.00  0.00    -1.605 OA 
HETATM   14  H   UNL     1     -10.503  18.266  64.769  1.00  0.00     0.000 HD 
HETATM   15  C   UNL     1     -11.620  14.439  65.361  1.00  0.00    -0.347 C  
HETATM   16  H   UNL     1     -11.672  15.725  63.084  1.00  0.00     0.000 HD 
BRANCH  15  17
HETATM   17  C   UNL     1     -11.806  13.468  64.171  1.00  0.00    -0.437 C  
HETATM   18  O   UNL     1     -12.653  14.034  63.164  1.00  0.00    -1.062 OA 
HETATM   19  H   UNL     1     -12.767  13.439  62.433  1.00  0.00     0.000 HD 
ENDBRANCH  15  17
ENDBRANCH   4   5
ENDBRANCH   2   4
TORSDOF 3
ENDMDL
MODEL        9
REMARK 921   NORMALIZED FREE ENERGY PREDICTED BY IDOCK:   -5.34 KCAL/MOL
REMARK 922        TOTAL FREE ENERGY PREDICTED BY IDOCK:   -6.61 KCAL/MOL
REMARK 923 INTER-LIGAND FREE ENERGY PREDICTED BY IDOCK:   -6.37 KCAL/MOL
REMARK 924 INTRA-LIGAND FREE ENERGY PREDICTED BY IDOCK:   -0.24 KCAL/MOL
REMARK 927      BINDING AFFINITY PREDICTED BY RF-SCORE:    0.00 PKD
ROOT
HETATM    1  O   UNL     1     -12.295  14.905  68.906  1.00  0.00    -0.570 OA 
HETATM    2  C   UNL     1     -11.285  15.399  68.029  1.00  0.00    -0.325 C  
HETATM    3  H   UNL     1     -12.501  15.571  69.551  1.00  0.00     0.000 HD 
ENDROOT
BRANCH   2   4
HETATM    4  C   UNL     1     -10.950  14.319  66.985  1.00  0.00    -0.303 C  
BRANCH   4   5
HETATM    5  N   UNL     1     -12.075  13.427  66.628  1.00  0.00    -0.390 NA 
HETATM    6  C   UNL     1     -12.716  13.788  65.349  1.00  0.00    -0.472 C  
HETATM    7  C   UNL     1     -11.822  13.572  64.113  1.00  0.00    -0.437 C  
HETATM    8  C   UNL     1     -11.320  12.119  64.067  1.00  0.00    -0.395 C  
HETATM    9  O   UNL     1     -12.542  13.854  62.909  1.00  0.00    -0.966 OA 
HETATM   10  H   UNL     1     -11.991  13.721  62.147  1.00  0.00     0.000 HD 
HETATM   11  O   UNL     1     -10.289  11.925  63.078  1.00  0.00    -0.620 OA 
HETATM   12  C   UNL     1     -10.720  11.676  65.404  1.00  0.00    -0.287 C  
HETATM   13  O   UNL     1     -10.411  10.274  65.318  1.00  0.00    -0.278 OA 
HETATM   14  H   UNL     1      -9.979  11.028  63.049  1.00  0.00     0.000 HD 
HETATM   15  C   UNL     1     -11.690  11.983  66.572  1.00  0.00    -0.256 C  
HETATM   16  H   UNL     1     -10.038   9.999  66.147  1.00  0.00     0.000 HD 
BRANCH  15  17
HETATM   17  C   UNL     1     -11.156  11.401  67.902  1.00  0.00    -0.261 C  
HETATM   18  O   UNL     1     -12.209  10.804  68.669  1.00  0.00    -0.813 OA 
HETATM   19  H   UNL     1     -11.882  10.447  69.485  1.00  0.00     0.000 HD 
ENDBRANCH  15  17
ENDBRANCH   4   5
ENDBRANCH   2   4
TORSDOF 3
ENDMDL
MODEL       10
REMARK 921   NORMALIZED FREE ENERGY PREDICTED BY IDOCK:   -5.33 KCAL/MOL
REMARK 922        TOTAL FREE ENERGY PREDICTED BY IDOCK:   -6.61 KCAL/MOL
REMARK 923 INTER-LIGAND FREE ENERGY PREDICTED BY IDOCK:   -6.79 KCAL/MOL
REMARK 924 INTRA-LIGAND FREE ENERGY PREDICTED BY IDOCK:    0.18 KCAL/MOL
REMARK 927      BINDING AFFINITY PREDICTED BY RF-SCORE:    0.00 PKD
ROOT
HETATM    1  O   UNL     1     -10.954  17.305  68.267  1.00  0.00    -0.336 OA 
HETATM    2  C   UNL     1     -10.715  15.984  68.749  1.00  0.00    -0.282 C  
HETATM    3  H   UNL     1     -10.565  17.930  68.867  1.00  0.00     0.000 HD 
ENDROOT
BRANCH   2   4
HETATM    4  C   UNL     1     -11.346  14.970  67.778  1.00  0.00    -0.330 C  
BRANCH   4   5
HETATM    5  N   UNL     1     -10.421  14.419  66.764  1.00  0.00    -0.271 NA 
HETATM    6  C   UNL     1     -10.329  12.946  66.806  1.00  0.00    -0.245 C  
HETATM    7  C   UNL     1     -11.622  12.223  66.385  1.00  0.00    -0.383 C  
HETATM    8  C   UNL     1     -12.064  12.691  64.989  1.00  0.00    -0.444 C  
HETATM    9  O   UNL     1     -11.426  10.805  66.361  1.00  0.00    -0.045 OA 
HETATM   10  H   UNL     1     -12.224  10.359  66.102  1.00  0.00     0.000 HD 
HETATM   11  O   UNL     1     -13.390  12.236  64.651  1.00  0.00    -0.717 OA 
HETATM   12  C   UNL     1     -12.094  14.217  64.878  1.00  0.00    -0.435 C  
HETATM   13  O   UNL     1     -12.375  14.565  63.511  1.00  0.00    -1.081 OA 
HETATM   14  H   UNL     1     -13.663  12.525  63.789  1.00  0.00     0.000 HD 
HETATM   15  C   UNL     1     -10.760  14.832  65.367  1.00  0.00    -0.371 C  
HETATM   16  H   UNL     1     -12.394  15.513  63.442  1.00  0.00     0.000 HD 
BRANCH  15  17
HETATM   17  C   UNL     1     -10.727  16.357  65.116  1.00  0.00    -0.291 C  
HETATM   18  O   UNL     1     -11.349  16.694  63.870  1.00  0.00    -1.558 OA 
HETATM   19  H   UNL     1     -11.329  17.630  63.715  1.00  0.00     0.000 HD 
ENDBRANCH  15  17
ENDBRANCH   4   5
ENDBRANCH   2   4
TORSDOF 3
ENDMDL
MODEL       11
REMARK 921   NORMALIZED FREE ENERGY PREDICTED BY IDOCK:   -5.22 KCAL/MOL
REMARK 922        TOTAL FREE ENERGY PREDICTED BY IDOCK:   -6.48 KCAL/MOL
REMARK 923 INTER-LIGAND FREE ENERGY PREDICTED BY IDOCK:   -6.10 KCAL/MOL
REMARK 924 INTRA-LIGAND FREE ENERGY PREDICTED BY IDOCK:   -0.38 KCAL/MOL
REMARK 927      BINDING AFFINITY PREDICTED BY RF-SCORE:    0.00 PKD
ROOT
HETATM    1  O   UNL     1     -12.350  13.601  63.127  1.00  0.00    -1.045 OA 
HETATM    2  C   UNL     1     -12.017  12.393  63.808  1.00  0.00    -0.514 C  
HETATM    3  H   UNL     1     -12.326  13.447  62.190  1.00  0.00     0.000 HD 
ENDROOT
BRANCH   2   4
HETATM    4  C   UNL     1     -12.055  12.642  65.326  1.00  0.00    -0.467 C  
BRANCH   4   5
HETATM    5  N   UNL     1     -10.733  12.841  65.959  1.00  0.00    -0.269 NA 
HETATM    6  C   UNL     1     -10.261  14.237  65.883  1.00  0.00    -0.324 C  
HETATM    7  C   UNL     1     -11.091  15.229  66.719  1.00  0.00    -0.278 C  
HETATM    8  C   UNL     1     -11.157  14.767  68.183  1.00  0.00    -0.278 C  
HETATM    9  O   UNL     1     -10.518  16.539  66.669  1.00  0.00    -0.297 OA 
HETATM   10  H   UNL     1     -11.030  17.152  67.184  1.00  0.00     0.000 HD 
HETATM   11  O   UNL     1     -12.118  15.517  68.954  1.00  0.00    -0.555 OA 
HETATM   12  C   UNL     1     -11.565  13.297  68.304  1.00  0.00    -0.334 C  
HETATM   13  O   UNL     1     -11.463  12.911  69.686  1.00  0.00    -0.405 OA 
HETATM   14  H   UNL     1     -12.159  15.232  69.859  1.00  0.00     0.000 HD 
HETATM   15  C   UNL     1     -10.690  12.405  67.389  1.00  0.00    -0.229 C  
HETATM   16  H   UNL     1     -11.716  11.998  69.761  1.00  0.00     0.000 HD 
BRANCH  15  17
HETATM   17  C   UNL     1     -10.995  10.906  67.620  1.00  0.00    -0.293 C  
HETATM   18  O   UNL     1     -12.284  10.723  68.219  1.00  0.00    -0.815 OA 
HETATM   19  H   UNL     1     -12.471   9.803  68.361  1.00  0.00     0.000 HD 
ENDBRANCH  15  17
ENDBRANCH   4   5
ENDBRANCH   2   4
TORSDOF 3
ENDMDL
MODEL       12
REMARK 921   NORMALIZED FREE ENERGY PREDICTED BY IDOCK:   -5.22 KCAL/MOL
REMARK 922        TOTAL FREE ENERGY PREDICTED BY IDOCK:   -6.48 KCAL/MOL
REMARK 923 INTER-LIGAND FREE ENERGY PREDICTED BY IDOCK:   -6.19 KCAL/MOL
REMARK 924 INTRA-LIGAND FREE ENERGY PREDICTED BY IDOCK:   -0.28 KCAL/MOL
REMARK 927      BINDING AFFINITY PREDICTED BY RF-SCORE:    0.00 PKD
ROOT
HETATM    1  O   UNL     1     -11.746  16.353  63.724  1.00  0.00    -1.553 OA 
HETATM    2  C   UNL     1     -11.011  16.443  64.944  1.00  0.00    -0.263 C  
HETATM    3  H   UNL     1     -11.586  17.133  63.206  1.00  0.00     0.000 HD 
ENDROOT
BRANCH   2   4
HETATM    4  C   UNL     1     -11.270  15.179  65.783  1.00  0.00    -0.287 C  
BRANCH   4   5
HETATM    5  N   UNL     1     -10.209  14.152  65.707  1.00  0.00    -0.318 NA 
HETATM    6  C   UNL     1      -9.174  14.312  66.747  1.00  0.00    -0.264 C  
HETATM    7  C   UNL     1      -9.675  14.050  68.180  1.00  0.00    -0.220 C  
HETATM    8  C   UNL     1     -10.315  12.655  68.274  1.00  0.00    -0.241 C  
HETATM    9  O   UNL     1      -8.597  14.132  69.118  1.00  0.00    -0.362 OA 
HETATM   10  H   UNL     1      -8.906  13.971  70.002  1.00  0.00     0.000 HD 
HETATM   11  O   UNL     1     -11.017  12.455  69.518  1.00  0.00    -0.451 OA 
HETATM   12  C   UNL     1     -11.339  12.416  67.161  1.00  0.00    -0.329 C  
HETATM   13  O   UNL     1     -11.778  11.049  67.237  1.00  0.00    -0.504 OA 
HETATM   14  H   UNL     1     -11.412  11.593  69.576  1.00  0.00     0.000 HD 
HETATM   15  C   UNL     1     -10.735  12.753  65.776  1.00  0.00    -0.272 C  
HETATM   16  H   UNL     1     -12.413  10.901  66.546  1.00  0.00     0.000 HD 
BRANCH  15  17
HETATM   17  C   UNL     1     -11.710  12.370  64.638  1.00  0.00    -0.365 C  
HETATM   18  O   UNL     1     -13.073  12.583  65.027  1.00  0.00    -0.765 OA 
HETATM   19  H   UNL     1     -13.672  12.348  64.328  1.00  0.00     0.000 HD 
ENDBRANCH  15  17
ENDBRANCH   4   5
ENDBRANCH   2   4
TORSDOF 3
ENDMDL
MODEL       13
REMARK 921   NORMALIZED FREE ENERGY PREDICTED BY IDOCK:   -5.22 KCAL/MOL
REMARK 922        TOTAL FREE ENERGY PREDICTED BY IDOCK:   -6.47 KCAL/MOL
REMARK 923 INTER-LIGAND FREE ENERGY PREDICTED BY IDOCK:   -6.20 KCAL/MOL
REMARK 924 INTRA-LIGAND FREE ENERGY PREDICTED BY IDOCK:   -0.28 KCAL/MOL
REMARK 927      BINDING AFFINITY PREDICTED BY RF-SCORE:    0.00 PKD
ROOT
HETATM    1  O   UNL     1     -10.315   9.328  65.757  1.00  0.00    -0.268 OA 
HETATM    2  C   UNL     1     -10.323  10.416  66.679  1.00  0.00    -0.231 C  
HETATM    3  H   UNL     1     -10.176   8.518  66.232  1.00  0.00     0.000 HD 
ENDROOT
BRANCH   2   4
HETATM    4  C   UNL     1     -10.549  11.729  65.909  1.00  0.00    -0.271 C  
BRANCH   4   5
HETATM    5  N   UNL     1     -11.865  12.366  66.135  1.00  0.00    -0.540 NA 
HETATM    6  C   UNL     1     -11.792  13.546  67.018  1.00  0.00    -0.402 C  
HETATM    7  C   UNL     1     -11.035  14.742  66.411  1.00  0.00    -0.331 C  
HETATM    8  C   UNL     1     -11.649  15.127  65.055  1.00  0.00    -0.294 C  
HETATM    9  O   UNL     1     -11.089  15.873  67.285  1.00  0.00    -0.281 OA 
HETATM   10  H   UNL     1     -10.622  16.611  66.910  1.00  0.00     0.000 HD 
HETATM   11  O   UNL     1     -10.834  16.072  64.331  1.00  0.00    -0.877 OA 
HETATM   12  C   UNL     1     -11.818  13.915  64.135  1.00  0.00    -0.385 C  
HETATM   13  O   UNL     1     -12.525  14.337  62.956  1.00  0.00    -0.986 OA 
HETATM   14  H   UNL     1     -11.214  16.310  63.494  1.00  0.00     0.000 HD 
HETATM   15  C   UNL     1     -12.553  12.766  64.868  1.00  0.00    -0.470 C  
HETATM   16  H   UNL     1     -12.630  13.585  62.385  1.00  0.00     0.000 HD 
BRANCH  15  17
HETATM   17  C   UNL     1     -12.861  11.599  63.900  1.00  0.00     0.026 C  
HETATM   18  O   UNL     1     -11.778  11.379  62.988  1.00  0.00    -0.887 OA 
HETATM   19  H   UNL     1     -11.967  10.663  62.394  1.00  0.00     0.000 HD 
ENDBRANCH  15  17
ENDBRANCH   4   5
ENDBRANCH   2   4
TORSDOF 3
ENDMDL
MODEL       14
REMARK 921   NORMALIZED FREE ENERGY PREDICTED BY IDOCK:   -5.18 KCAL/MOL
REMARK 922        TOTAL FREE ENERGY PREDICTED BY IDOCK:   -6.43 KCAL/MOL
REMARK 923 INTER-LIGAND FREE ENERGY PREDICTED BY IDOCK:   -5.96 KCAL/MOL
REMARK 924 INTRA-LIGAND FREE ENERGY PREDICTED BY IDOCK:   -0.47 KCAL/MOL
REMARK 927      BINDING AFFINITY PREDICTED BY RF-SCORE:    0.00 PKD
ROOT
HETATM    1  O   UNL     1     -12.450  13.775  62.937  1.00  0.00    -1.009 OA 
HETATM    2  C   UNL     1     -11.974  12.633  63.647  1.00  0.00    -0.535 C  
HETATM    3  H   UNL     1     -12.923  13.487  62.166  1.00  0.00     0.000 HD 
ENDROOT
BRANCH   2   4
HETATM    4  C   UNL     1     -11.206  13.099  64.897  1.00  0.00    -0.310 C  
BRANCH   4   5
HETATM    5  N   UNL     1     -11.894  14.132  65.702  1.00  0.00    -0.362 NA 
HETATM    6  C   UNL     1     -12.503  13.595  66.934  1.00  0.00    -0.141 C  
HETATM    7  C   UNL     1     -11.483  13.102  67.977  1.00  0.00    -0.311 C  
HETATM    8  C   UNL     1     -10.487  14.223  68.319  1.00  0.00    -0.247 C  
HETATM    9  O   UNL     1     -12.144  12.685  69.176  1.00  0.00    -0.249 OA 
HETATM   10  H   UNL     1     -11.515  12.380  69.819  1.00  0.00     0.000 HD 
HETATM   11  O   UNL     1      -9.370  13.747  69.097  1.00  0.00    -0.386 OA 
HETATM   12  C   UNL     1      -9.891  14.865  67.063  1.00  0.00    -0.237 C  
HETATM   13  O   UNL     1      -9.089  15.987  67.467  1.00  0.00    -0.196 OA 
HETATM   14  H   UNL     1      -8.755  14.439  69.308  1.00  0.00     0.000 HD 
HETATM   15  C   UNL     1     -11.008  15.279  66.074  1.00  0.00    -0.317 C  
HETATM   16  H   UNL     1      -8.719  16.386  66.688  1.00  0.00     0.000 HD 
BRANCH  15  17
HETATM   17  C   UNL     1     -10.424  16.063  64.876  1.00  0.00    -0.092 C  
HETATM   18  O   UNL     1     -11.444  16.407  63.930  1.00  0.00    -1.569 OA 
HETATM   19  H   UNL     1     -11.086  16.888  63.195  1.00  0.00     0.000 HD 
ENDBRANCH  15  17
ENDBRANCH   4   5
ENDBRANCH   2   4
TORSDOF 3
ENDMDL
MODEL       15
REMARK 921   NORMALIZED FREE ENERGY PREDICTED BY IDOCK:   -5.18 KCAL/MOL
REMARK 922        TOTAL FREE ENERGY PREDICTED BY IDOCK:   -6.43 KCAL/MOL
REMARK 923 INTER-LIGAND FREE ENERGY PREDICTED BY IDOCK:   -6.06 KCAL/MOL
REMARK 924 INTRA-LIGAND FREE ENERGY PREDICTED BY IDOCK:   -0.37 KCAL/MOL
REMARK 927      BINDING AFFINITY PREDICTED BY RF-SCORE:    0.00 PKD
ROOT
HETATM    1  O   UNL     1      -9.445  13.757  69.055  1.00  0.00    -0.405 OA 
HETATM    2  C   UNL     1      -9.631  14.462  67.829  1.00  0.00    -0.216 C  
HETATM    3  H   UNL     1      -9.471  14.375  69.776  1.00  0.00     0.000 HD 
ENDROOT
BRANCH   2   4
HETATM    4  C   UNL     1      -9.589  13.460  66.660  1.00  0.00    -0.270 C  
BRANCH   4   5
HETATM    5  N   UNL     1     -10.674  12.455  66.661  1.00  0.00    -0.231 NA 
HETATM    6  C   UNL     1     -12.020  13.058  66.706  1.00  0.00    -0.369 C  
HETATM    7  C   UNL     1     -12.403  13.840  65.436  1.00  0.00    -0.475 C  
HETATM    8  C   UNL     1     -12.262  12.943  64.195  1.00  0.00    -0.414 C  
HETATM    9  O   UNL     1     -13.751  14.313  65.517  1.00  0.00    -0.543 OA 
HETATM   10  H   UNL     1     -13.988  14.796  64.734  1.00  0.00     0.000 HD 
HETATM   11  O   UNL     1     -12.368  13.686  62.964  1.00  0.00    -1.041 OA 
HETATM   12  C   UNL     1     -10.907  12.232  64.151  1.00  0.00    -0.365 C  
HETATM   13  O   UNL     1     -10.914  11.312  63.047  1.00  0.00    -0.804 OA 
HETATM   14  H   UNL     1     -12.280  13.132  62.198  1.00  0.00     0.000 HD 
HETATM   15  C   UNL     1     -10.615  11.520  65.495  1.00  0.00    -0.281 C  
HETATM   16  H   UNL     1     -10.073  10.871  63.019  1.00  0.00     0.000 HD 
BRANCH  15  17
HETATM   17  C   UNL     1      -9.321  10.676  65.405  1.00  0.00    -0.210 C  
HETATM   18  O   UNL     1      -9.542   9.459  64.682  1.00  0.00    -0.435 OA 
HETATM   19  H   UNL     1      -8.748   8.941  64.627  1.00  0.00     0.000 HD 
ENDBRANCH  15  17
ENDBRANCH   4   5
ENDBRANCH   2   4
TORSDOF 3
ENDMDL
MODEL       16
REMARK 921   NORMALIZED FREE ENERGY PREDICTED BY IDOCK:   -5.18 KCAL/MOL
REMARK 922        TOTAL FREE ENERGY PREDICTED BY IDOCK:   -6.43 KCAL/MOL
REMARK 923 INTER-LIGAND FREE ENERGY PREDICTED BY IDOCK:   -6.15 KCAL/MOL
REMARK 924 INTRA-LIGAND FREE ENERGY PREDICTED BY IDOCK:   -0.28 KCAL/MOL
REMARK 927      BINDING AFFINITY PREDICTED BY RF-SCORE:    0.00 PKD
ROOT
HETATM    1  O   UNL     1     -11.611  16.295  63.713  1.00  0.00    -1.539 OA 
HETATM    2  C   UNL     1     -11.239  15.721  64.965  1.00  0.00    -0.308 C  
HETATM    3  H   UNL     1     -11.973  17.160  63.863  1.00  0.00     0.000 HD 
ENDROOT
BRANCH   2   4
HETATM    4  C   UNL     1     -10.653  14.318  64.723  1.00  0.00    -0.412 C  
BRANCH   4   5
HETATM    5  N   UNL     1     -11.642  13.219  64.731  1.00  0.00    -0.320 NA 
HETATM    6  C   UNL     1     -11.503  12.308  63.578  1.00  0.00    -0.476 C  
HETATM    7  C   UNL     1     -10.206  11.479  63.583  1.00  0.00    -0.405 C  
HETATM    8  C   UNL     1     -10.079  10.695  64.900  1.00  0.00    -0.335 C  
HETATM    9  O   UNL     1     -10.189  10.556  62.489  1.00  0.00    -0.749 OA 
HETATM   10  H   UNL     1      -9.388  10.045  62.491  1.00  0.00     0.000 HD 
HETATM   11  O   UNL     1      -8.776  10.100  65.062  1.00  0.00    -0.153 OA 
HETATM   12  C   UNL     1     -10.297  11.589  66.123  1.00  0.00    -0.245 C  
HETATM   13  O   UNL     1     -10.305  10.756  67.296  1.00  0.00    -0.199 OA 
HETATM   14  H   UNL     1      -8.698   9.616  65.875  1.00  0.00     0.000 HD 
HETATM   15  C   UNL     1     -11.608  12.402  65.985  1.00  0.00    -0.401 C  
HETATM   16  H   UNL     1     -10.440  11.311  68.055  1.00  0.00     0.000 HD 
BRANCH  15  17
HETATM   17  C   UNL     1     -11.910  13.190  67.281  1.00  0.00    -0.367 C  
HETATM   18  O   UNL     1     -10.705  13.549  67.966  1.00  0.00    -0.240 OA 
HETATM   19  H   UNL     1     -10.890  14.033  68.762  1.00  0.00     0.000 HD 
ENDBRANCH  15  17
ENDBRANCH   4   5
ENDBRANCH   2   4
TORSDOF 3
ENDMDL
MODEL       17
REMARK 921   NORMALIZED FREE ENERGY PREDICTED BY IDOCK:   -5.03 KCAL/MOL
REMARK 922        TOTAL FREE ENERGY PREDICTED BY IDOCK:   -6.26 KCAL/MOL
REMARK 923 INTER-LIGAND FREE ENERGY PREDICTED BY IDOCK:   -5.88 KCAL/MOL
REMARK 924 INTRA-LIGAND FREE ENERGY PREDICTED BY IDOCK:   -0.37 KCAL/MOL
REMARK 927      BINDING AFFINITY PREDICTED BY RF-SCORE:    0.00 PKD
ROOT
HETATM    1  O   UNL     1     -10.966  14.783  70.877  1.00  0.00    -0.524 OA 
HETATM    2  C   UNL     1     -11.798  14.213  69.869  1.00  0.00    -0.325 C  
HETATM    3  H   UNL     1     -11.091  14.307  71.690  1.00  0.00     0.000 HD 
ENDROOT
BRANCH   2   4
HETATM    4  C   UNL     1     -11.595  14.984  68.552  1.00  0.00    -0.326 C  
BRANCH   4   5
HETATM    5  N   UNL     1     -10.294  14.752  67.888  1.00  0.00    -0.239 NA 
HETATM    6  C   UNL     1     -10.395  13.863  66.714  1.00  0.00    -0.272 C  
HETATM    7  C   UNL     1     -11.176  14.467  65.532  1.00  0.00    -0.335 C  
HETATM    8  C   UNL     1     -10.567  15.820  65.127  1.00  0.00    -0.411 C  
HETATM    9  O   UNL     1     -11.150  13.588  64.403  1.00  0.00    -0.370 OA 
HETATM   10  H   UNL     1     -11.632  13.960  63.674  1.00  0.00     0.000 HD 
HETATM   11  O   UNL     1     -11.400  16.541  64.197  1.00  0.00    -1.381 OA 
HETATM   12  C   UNL     1     -10.369  16.745  66.330  1.00  0.00    -0.306 C  
HETATM   13  O   UNL     1      -9.669  17.920  65.887  1.00  0.00    -0.530 OA 
HETATM   14  H   UNL     1     -11.024  17.376  63.946  1.00  0.00     0.000 HD 
HETATM   15  C   UNL     1      -9.612  16.015  67.467  1.00  0.00    -0.222 C  
HETATM   16  H   UNL     1      -9.546  18.494  66.634  1.00  0.00     0.000 HD 
BRANCH  15  17
HETATM   17  C   UNL     1      -9.276  16.987  68.622  1.00  0.00    -0.266 C  
HETATM   18  O   UNL     1     -10.278  18.002  68.757  1.00  0.00    -0.377 OA 
HETATM   19  H   UNL     1     -10.072  18.599  69.466  1.00  0.00     0.000 HD 
ENDBRANCH  15  17
ENDBRANCH   4   5
ENDBRANCH   2   4
TORSDOF 3
ENDMDL
MODEL       18
REMARK 921   NORMALIZED FREE ENERGY PREDICTED BY IDOCK:   -5.00 KCAL/MOL
REMARK 922        TOTAL FREE ENERGY PREDICTED BY IDOCK:   -6.22 KCAL/MOL
REMARK 923 INTER-LIGAND FREE ENERGY PREDICTED BY IDOCK:   -5.87 KCAL/MOL
REMARK 924 INTRA-LIGAND FREE ENERGY PREDICTED BY IDOCK:   -0.35 KCAL/MOL
REMARK 927      BINDING AFFINITY PREDICTED BY RF-SCORE:    0.00 PKD
ROOT
HETATM    1  O   UNL     1     -12.526  14.094  63.123  1.00  0.00    -1.126 OA 
HETATM    2  C   UNL     1     -12.319  14.504  64.473  1.00  0.00    -0.414 C  
HETATM    3  H   UNL     1     -12.731  14.856  62.594  1.00  0.00     0.000 HD 
ENDROOT
BRANCH   2   4
HETATM    4  C   UNL     1     -11.987  13.270  65.330  1.00  0.00    -0.395 C  
BRANCH   4   5
HETATM    5  N   UNL     1     -10.558  13.118  65.679  1.00  0.00    -0.273 NA 
HETATM    6  C   UNL     1     -10.308  13.179  67.132  1.00  0.00    -0.247 C  
HETATM    7  C   UNL     1     -10.886  11.989  67.921  1.00  0.00    -0.215 C  
HETATM    8  C   UNL     1     -10.362  10.664  67.344  1.00  0.00    -0.219 C  
HETATM    9  O   UNL     1     -10.523  12.072  69.302  1.00  0.00    -0.427 OA 
HETATM   10  H   UNL     1     -10.880  11.338  69.789  1.00  0.00     0.000 HD 
HETATM   11  O   UNL     1     -11.058   9.519  67.879  1.00  0.00    -0.507 OA 
HETATM   12  C   UNL     1     -10.529  10.593  65.824  1.00  0.00    -0.164 C  
HETATM   13  O   UNL     1      -9.889   9.394  65.354  1.00  0.00    -0.424 OA 
HETATM   14  H   UNL     1     -10.734   8.700  67.523  1.00  0.00     0.000 HD 
HETATM   15  C   UNL     1      -9.950  11.859  65.147  1.00  0.00    -0.247 C  
HETATM   16  H   UNL     1      -9.992   9.349  64.411  1.00  0.00     0.000 HD 
BRANCH  15  17
HETATM   17  C   UNL     1      -9.977  11.726  63.606  1.00  0.00    -0.381 C  
HETATM   18  O   UNL     1     -11.237  11.220  63.149  1.00  0.00    -0.829 OA 
HETATM   19  H   UNL     1     -11.254  11.138  62.203  1.00  0.00     0.000 HD 
ENDBRANCH  15  17
ENDBRANCH   4   5
ENDBRANCH   2   4
TORSDOF 3
ENDMDL
MODEL       19
REMARK 921   NORMALIZED FREE ENERGY PREDICTED BY IDOCK:   -4.97 KCAL/MOL
REMARK 922        TOTAL FREE ENERGY PREDICTED BY IDOCK:   -6.18 KCAL/MOL
REMARK 923 INTER-LIGAND FREE ENERGY PREDICTED BY IDOCK:   -5.94 KCAL/MOL
REMARK 924 INTRA-LIGAND FREE ENERGY PREDICTED BY IDOCK:   -0.25 KCAL/MOL
REMARK 927      BINDING AFFINITY PREDICTED BY RF-SCORE:    0.00 PKD
ROOT
HETATM    1  O   UNL     1     -10.906   8.017  67.555  1.00  0.00    -0.487 OA 
HETATM    2  C   UNL     1     -10.209   9.062  66.879  1.00  0.00    -0.269 C  
HETATM    3  H   UNL     1     -10.428   7.204  67.447  1.00  0.00     0.000 HD 
ENDROOT
BRANCH   2   4
HETATM    4  C   UNL     1     -10.985  10.381  67.053  1.00  0.00    -0.154 C  
BRANCH   4   5
HETATM    5  N   UNL     1     -10.295  11.583  66.535  1.00  0.00    -0.224 NA 
HETATM    6  C   UNL     1      -9.653  11.361  65.225  1.00  0.00    -0.228 C  
HETATM    7  C   UNL     1     -10.643  11.123  64.070  1.00  0.00    -0.368 C  
HETATM    8  C   UNL     1     -11.648  12.284  63.983  1.00  0.00    -0.417 C  
HETATM    9  O   UNL     1      -9.951  11.011  62.823  1.00  0.00    -0.533 OA 
HETATM   10  H   UNL     1     -10.562  10.864  62.110  1.00  0.00     0.000 HD 
HETATM   11  O   UNL     1     -12.741  11.998  63.087  1.00  0.00    -0.790 OA 
HETATM   12  C   UNL     1     -12.279  12.601  65.341  1.00  0.00    -0.459 C  
HETATM   13  O   UNL     1     -13.089  13.781  65.198  1.00  0.00    -0.762 OA 
HETATM   14  H   UNL     1     -13.361  12.715  63.032  1.00  0.00     0.000 HD 
HETATM   15  C   UNL     1     -11.190  12.777  66.427  1.00  0.00    -0.299 C  
HETATM   16  H   UNL     1     -13.481  13.978  66.041  1.00  0.00     0.000 HD 
BRANCH  15  17
HETATM   17  C   UNL     1     -11.810  13.246  67.764  1.00  0.00    -0.353 C  
HETATM   18  O   UNL     1     -12.278  14.597  67.675  1.00  0.00    -0.593 OA 
HETATM   19  H   UNL     1     -12.659  14.886  68.496  1.00  0.00     0.000 HD 
ENDBRANCH  15  17
ENDBRANCH   4   5
ENDBRANCH   2   4
TORSDOF 3
ENDMDL
MODEL       20
REMARK 921   NORMALIZED FREE ENERGY PREDICTED BY IDOCK:   -4.97 KCAL/MOL
REMARK 922        TOTAL FREE ENERGY PREDICTED BY IDOCK:   -6.18 KCAL/MOL
REMARK 923 INTER-LIGAND FREE ENERGY PREDICTED BY IDOCK:   -5.79 KCAL/MOL
REMARK 924 INTRA-LIGAND FREE ENERGY PREDICTED BY IDOCK:   -0.39 KCAL/MOL
REMARK 927      BINDING AFFINITY PREDICTED BY RF-SCORE:    0.00 PKD
ROOT
HETATM    1  O   UNL     1     -12.641  14.425  63.563  1.00  0.00    -1.043 OA 
HETATM    2  C   UNL     1     -11.960  13.491  64.398  1.00  0.00    -0.422 C  
HETATM    3  H   UNL     1     -12.570  14.144  62.659  1.00  0.00     0.000 HD 
ENDROOT
BRANCH   2   4
HETATM    4  C   UNL     1     -12.074  13.947  65.864  1.00  0.00    -0.433 C  
BRANCH   4   5
HETATM    5  N   UNL     1     -10.807  13.921  66.626  1.00  0.00    -0.288 NA 
HETATM    6  C   UNL     1      -9.758  14.771  66.031  1.00  0.00    -0.321 C  
HETATM    7  C   UNL     1     -10.059  16.280  66.095  1.00  0.00    -0.344 C  
HETATM    8  C   UNL     1     -10.332  16.707  67.546  1.00  0.00    -0.294 C  
HETATM    9  O   UNL     1      -8.958  17.040  65.586  1.00  0.00    -0.492 OA 
HETATM   10  H   UNL     1      -9.143  17.971  65.625  1.00  0.00     0.000 HD 
HETATM   11  O   UNL     1     -10.859  18.047  67.635  1.00  0.00    -0.390 OA 
HETATM   12  C   UNL     1     -11.358  15.799  68.229  1.00  0.00    -0.354 C  
HETATM   13  O   UNL     1     -11.447  16.178  69.613  1.00  0.00    -0.327 OA 
HETATM   14  H   UNL     1     -11.028  18.311  68.531  1.00  0.00     0.000 HD 
HETATM   15  C   UNL     1     -10.972  14.309  68.061  1.00  0.00    -0.249 C  
HETATM   16  H   UNL     1     -12.083  15.614  70.037  1.00  0.00     0.000 HD 
BRANCH  15  17
HETATM   17  C   UNL     1     -11.918  13.396  68.876  1.00  0.00    -0.324 C  
HETATM   18  O   UNL     1     -11.472  13.258  70.230  1.00  0.00    -0.513 OA 
HETATM   19  H   UNL     1     -12.052  12.698  70.730  1.00  0.00     0.000 HD 
ENDBRANCH  15  17
ENDBRANCH   4   5
ENDBRANCH   2   4
TORSDOF 3
ENDMDL
MODEL       21
REMARK 921   NORMALIZED FREE ENERGY PREDICTED BY IDOCK:   -4.95 KCAL/MOL
REMARK 922        TOTAL FREE ENERGY PREDICTED BY IDOCK:   -6.16 KCAL/MOL
REMARK 923 INTER-LIGAND FREE ENERGY PREDICTED BY IDOCK:   -5.85 KCAL/MOL
REMARK 924 INTRA-LIGAND FREE ENERGY PREDICTED BY IDOCK:   -0.31 KCAL/MOL
REMARK 927      BINDING AFFINITY PREDICTED BY RF-SCORE:    0.00 PKD
ROOT
HETATM    1  O   UNL     1     -11.782  11.470  62.980  1.00  0.00    -0.872 OA 
HETATM    2  C   UNL     1     -10.468  11.602  63.517  1.00  0.00    -0.443 C  
HETATM    3  H   UNL     1     -11.858  10.629  62.545  1.00  0.00     0.000 HD 
ENDROOT
BRANCH   2   4
HETATM    4  C   UNL     1     -10.345  12.965  64.222  1.00  0.00    -0.372 C  
BRANCH   4   5
HETATM    5  N   UNL     1     -11.297  13.181  65.332  1.00  0.00    -0.294 NA 
HETATM    6  C   UNL     1     -10.839  12.598  66.608  1.00  0.00    -0.258 C  
HETATM    7  C   UNL     1      -9.597  13.285  67.205  1.00  0.00    -0.234 C  
HETATM    8  C   UNL     1      -9.850  14.793  67.368  1.00  0.00    -0.222 C  
HETATM    9  O   UNL     1      -9.272  12.727  68.482  1.00  0.00    -0.336 OA 
HETATM   10  H   UNL     1      -8.506  13.151  68.850  1.00  0.00     0.000 HD 
HETATM   11  O   UNL     1      -8.646  15.521  67.688  1.00  0.00    -0.158 OA 
HETATM   12  C   UNL     1     -10.404  15.425  66.088  1.00  0.00    -0.313 C  
HETATM   13  O   UNL     1     -10.744  16.793  66.370  1.00  0.00    -0.234 OA 
HETATM   14  H   UNL     1      -8.802  16.452  67.789  1.00  0.00     0.000 HD 
HETATM   15  C   UNL     1     -11.620  14.624  65.562  1.00  0.00    -0.335 C  
HETATM   16  H   UNL     1     -11.088  17.185  65.576  1.00  0.00     0.000 HD 
BRANCH  15  17
HETATM   17  C   UNL     1     -12.277  15.341  64.359  1.00  0.00    -0.210 C  
HETATM   18  O   UNL     1     -11.437  16.386  63.853  1.00  0.00    -1.569 OA 
HETATM   19  H   UNL     1     -11.840  16.827  63.115  1.00  0.00     0.000 HD 
ENDBRANCH  15  17
ENDBRANCH   4   5
ENDBRANCH   2   4
TORSDOF 3
ENDMDL
MODEL       22
REMARK 921   NORMALIZED FREE ENERGY PREDICTED BY IDOCK:   -4.94 KCAL/MOL
REMARK 922        TOTAL FREE ENERGY PREDICTED BY IDOCK:   -6.15 KCAL/MOL
REMARK 923 INTER-LIGAND FREE ENERGY PREDICTED BY IDOCK:   -5.93 KCAL/MOL
REMARK 924 INTRA-LIGAND FREE ENERGY PREDICTED BY IDOCK:   -0.22 KCAL/MOL
REMARK 927      BINDING AFFINITY PREDICTED BY RF-SCORE:    0.00 PKD
ROOT
HETATM    1  O   UNL     1     -11.721  16.353  63.708  1.00  0.00    -1.553 OA 
HETATM    2  C   UNL     1     -10.922  16.350  64.889  1.00  0.00    -0.263 C  
HETATM    3  H   UNL     1     -11.648  17.199  63.284  1.00  0.00     0.000 HD 
ENDROOT
BRANCH   2   4
HETATM    4  C   UNL     1     -11.041  14.978  65.576  1.00  0.00    -0.357 C  
BRANCH   4   5
HETATM    5  N   UNL     1     -10.024  14.712  66.617  1.00  0.00    -0.265 NA 
HETATM    6  C   UNL     1      -9.709  15.899  67.434  1.00  0.00    -0.227 C  
HETATM    7  C   UNL     1     -10.867  16.373  68.331  1.00  0.00    -0.342 C  
HETATM    8  C   UNL     1     -11.351  15.222  69.228  1.00  0.00    -0.298 C  
HETATM    9  O   UNL     1     -10.455  17.466  69.157  1.00  0.00    -0.341 OA 
HETATM   10  H   UNL     1     -11.170  17.759  69.711  1.00  0.00     0.000 HD 
HETATM   11  O   UNL     1     -12.586  15.535  69.905  1.00  0.00    -0.582 OA 
HETATM   12  C   UNL     1     -11.614  13.943  68.429  1.00  0.00    -0.332 C  
HETATM   13  O   UNL     1     -11.921  12.887  69.356  1.00  0.00    -0.302 OA 
HETATM   14  H   UNL     1     -12.885  14.824  70.459  1.00  0.00     0.000 HD 
HETATM   15  C   UNL     1     -10.398  13.592  67.536  1.00  0.00    -0.241 C  
HETATM   16  H   UNL     1     -12.084  12.093  68.860  1.00  0.00     0.000 HD 
BRANCH  15  17
HETATM   17  C   UNL     1     -10.596  12.223  66.844  1.00  0.00    -0.224 C  
HETATM   18  O   UNL     1     -11.966  11.809  66.890  1.00  0.00    -0.605 OA 
HETATM   19  H   UNL     1     -12.088  10.968  66.465  1.00  0.00     0.000 HD 
ENDBRANCH  15  17
ENDBRANCH   4   5
ENDBRANCH   2   4
TORSDOF 3
ENDMDL
MODEL       23
REMARK 921   NORMALIZED FREE ENERGY PREDICTED BY IDOCK:   -4.93 KCAL/MOL
REMARK 922        TOTAL FREE ENERGY PREDICTED BY IDOCK:   -6.13 KCAL/MOL
REMARK 923 INTER-LIGAND FREE ENERGY PREDICTED BY IDOCK:   -5.79 KCAL/MOL
REMARK 924 INTRA-LIGAND FREE ENERGY PREDICTED BY IDOCK:   -0.34 KCAL/MOL
REMARK 927      BINDING AFFINITY PREDICTED BY RF-SCORE:    0.00 PKD
ROOT
HETATM    1  O   UNL     1     -11.512  12.844  69.638  1.00  0.00    -0.405 OA 
HETATM    2  C   UNL     1     -11.891  13.920  68.783  1.00  0.00    -0.361 C  
HETATM    3  H   UNL     1     -11.533  13.141  70.540  1.00  0.00     0.000 HD 
ENDROOT
BRANCH   2   4
HETATM    4  C   UNL     1     -11.857  13.438  67.321  1.00  0.00    -0.376 C  
BRANCH   4   5
HETATM    5  N   UNL     1     -10.711  13.934  66.527  1.00  0.00    -0.277 NA 
HETATM    6  C   UNL     1      -9.534  13.048  66.596  1.00  0.00    -0.256 C  
HETATM    7  C   UNL     1      -9.735  11.680  65.918  1.00  0.00    -0.235 C  
HETATM    8  C   UNL     1     -10.176  11.869  64.458  1.00  0.00    -0.282 C  
HETATM    9  O   UNL     1      -8.524  10.917  65.944  1.00  0.00    -0.162 OA 
HETATM   10  H   UNL     1      -8.648  10.073  65.527  1.00  0.00     0.000 HD 
HETATM   11  O   UNL     1     -10.615  10.636  63.852  1.00  0.00    -0.479 OA 
HETATM   12  C   UNL     1     -11.346  12.847  64.333  1.00  0.00    -0.358 C  
HETATM   13  O   UNL     1     -11.598  13.075  62.936  1.00  0.00    -0.716 OA 
HETATM   14  H   UNL     1     -10.887  10.752  62.950  1.00  0.00     0.000 HD 
HETATM   15  C   UNL     1     -11.045  14.165  65.087  1.00  0.00    -0.348 C  
HETATM   16  H   UNL     1     -12.325  13.682  62.858  1.00  0.00     0.000 HD 
BRANCH  15  17
HETATM   17  C   UNL     1     -12.156  15.213  64.839  1.00  0.00    -0.127 C  
HETATM   18  O   UNL     1     -11.799  16.109  63.780  1.00  0.00    -1.408 OA 
HETATM   19  H   UNL     1     -12.481  16.753  63.627  1.00  0.00     0.000 HD 
ENDBRANCH  15  17
ENDBRANCH   4   5
ENDBRANCH   2   4
TORSDOF 3
ENDMDL
MODEL       24
REMARK 921   NORMALIZED FREE ENERGY PREDICTED BY IDOCK:   -4.92 KCAL/MOL
REMARK 922        TOTAL FREE ENERGY PREDICTED BY IDOCK:   -6.12 KCAL/MOL
REMARK 923 INTER-LIGAND FREE ENERGY PREDICTED BY IDOCK:   -5.78 KCAL/MOL
REMARK 924 INTRA-LIGAND FREE ENERGY PREDICTED BY IDOCK:   -0.34 KCAL/MOL
REMARK 927      BINDING AFFINITY PREDICTED BY RF-SCORE:    0.00 PKD
ROOT
HETATM    1  O   UNL     1     -10.316  12.241  69.116  1.00  0.00    -0.425 OA 
HETATM    2  C   UNL     1     -10.596  12.400  67.726  1.00  0.00    -0.217 C  
HETATM    3  H   UNL     1     -10.535  11.355  69.378  1.00  0.00     0.000 HD 
ENDROOT
BRANCH   2   4
HETATM    4  C   UNL     1     -10.241  13.836  67.301  1.00  0.00    -0.253 C  
BRANCH   4   5
HETATM    5  N   UNL     1     -11.391  14.763  67.217  1.00  0.00    -0.347 NA 
HETATM    6  C   UNL     1     -11.811  15.283  68.532  1.00  0.00    -0.281 C  
HETATM    7  C   UNL     1     -10.784  16.218  69.198  1.00  0.00    -0.305 C  
HETATM    8  C   UNL     1     -10.429  17.378  68.254  1.00  0.00    -0.385 C  
HETATM    9  O   UNL     1     -11.301  16.753  70.420  1.00  0.00    -0.466 OA 
HETATM   10  H   UNL     1     -10.667  17.329  70.831  1.00  0.00     0.000 HD 
HETATM   11  O   UNL     1      -9.297  18.140  68.721  1.00  0.00    -0.302 OA 
HETATM   12  C   UNL     1     -10.064  16.887  66.851  1.00  0.00    -0.289 C  
HETATM   13  O   UNL     1      -9.888  18.034  66.001  1.00  0.00    -0.505 OA 
HETATM   14  H   UNL     1      -9.078  18.857  68.138  1.00  0.00     0.000 HD 
HETATM   15  C   UNL     1     -11.148  15.925  66.305  1.00  0.00    -0.014 C  
HETATM   16  H   UNL     1      -9.662  17.729  65.130  1.00  0.00     0.000 HD 
BRANCH  15  17
HETATM   17  C   UNL     1     -10.863  15.546  64.833  1.00  0.00    -0.427 C  
HETATM   18  O   UNL     1     -11.565  16.406  63.928  1.00  0.00    -1.564 OA 
HETATM   19  H   UNL     1     -11.389  16.173  63.024  1.00  0.00     0.000 HD 
ENDBRANCH  15  17
ENDBRANCH   4   5
ENDBRANCH   2   4
TORSDOF 3
ENDMDL
MODEL       25
REMARK 921   NORMALIZED FREE ENERGY PREDICTED BY IDOCK:   -4.91 KCAL/MOL
REMARK 922        TOTAL FREE ENERGY PREDICTED BY IDOCK:   -6.11 KCAL/MOL
REMARK 923 INTER-LIGAND FREE ENERGY PREDICTED BY IDOCK:   -5.76 KCAL/MOL
REMARK 924 INTRA-LIGAND FREE ENERGY PREDICTED BY IDOCK:   -0.35 KCAL/MOL
REMARK 927      BINDING AFFINITY PREDICTED BY RF-SCORE:    0.00 PKD
ROOT
HETATM    1  O   UNL     1      -6.697  15.660  66.940  1.00  0.00    -0.253 OA 
HETATM    2  C   UNL     1      -7.810  16.409  66.459  1.00  0.00    -0.288 C  
HETATM    3  H   UNL     1      -5.967  16.249  67.091  1.00  0.00     0.000 HD 
ENDROOT
BRANCH   2   4
HETATM    4  C   UNL     1      -8.993  15.455  66.214  1.00  0.00    -0.306 C  
BRANCH   4   5
HETATM    5  N   UNL     1     -10.330  16.082  66.305  1.00  0.00    -0.308 NA 
HETATM    6  C   UNL     1     -11.113  15.956  65.061  1.00  0.00    -0.360 C  
HETATM    7  C   UNL     1     -11.536  14.513  64.726  1.00  0.00    -0.408 C  
HETATM    8  C   UNL     1     -12.304  13.896  65.906  1.00  0.00    -0.483 C  
HETATM    9  O   UNL     1     -12.368  14.485  63.562  1.00  0.00    -1.081 OA 
HETATM   10  H   UNL     1     -12.628  13.595  63.355  1.00  0.00     0.000 HD 
HETATM   11  O   UNL     1     -12.507  12.477  65.748  1.00  0.00    -0.626 OA 
HETATM   12  C   UNL     1     -11.562  14.077  67.233  1.00  0.00    -0.369 C  
HETATM   13  O   UNL     1     -12.410  13.603  68.293  1.00  0.00    -0.366 OA 
HETATM   14  H   UNL     1     -12.982  12.096  66.476  1.00  0.00     0.000 HD 
HETATM   15  C   UNL     1     -11.154  15.556  67.438  1.00  0.00    -0.285 C  
HETATM   16  H   UNL     1     -11.950  13.715  69.117  1.00  0.00     0.000 HD 
BRANCH  15  17
HETATM   17  C   UNL     1     -10.540  15.772  68.841  1.00  0.00    -0.233 C  
HETATM   18  O   UNL     1     -10.061  14.541  69.396  1.00  0.00    -0.396 OA 
HETATM   19  H   UNL     1      -9.685  14.674  70.258  1.00  0.00     0.000 HD 
ENDBRANCH  15  17
ENDBRANCH   4   5
ENDBRANCH   2   4
TORSDOF 3
ENDMDL
MODEL       26
REMARK 921   NORMALIZED FREE ENERGY PREDICTED BY IDOCK:   -4.86 KCAL/MOL
REMARK 922        TOTAL FREE ENERGY PREDICTED BY IDOCK:   -6.05 KCAL/MOL
REMARK 923 INTER-LIGAND FREE ENERGY PREDICTED BY IDOCK:   -5.72 KCAL/MOL
REMARK 924 INTRA-LIGAND FREE ENERGY PREDICTED BY IDOCK:   -0.33 KCAL/MOL
REMARK 927      BINDING AFFINITY PREDICTED BY RF-SCORE:    0.00 PKD
ROOT
HETATM    1  O   UNL     1      -9.211  12.074  68.778  1.00  0.00    -0.377 OA 
HETATM    2  C   UNL     1      -8.350  13.023  68.153  1.00  0.00    -0.164 C  
HETATM    3  H   UNL     1      -8.723  11.601  69.441  1.00  0.00     0.000 HD 
ENDROOT
BRANCH   2   4
HETATM    4  C   UNL     1      -9.140  13.790  67.077  1.00  0.00    -0.246 C  
BRANCH   4   5
HETATM    5  N   UNL     1     -10.303  14.552  67.581  1.00  0.00    -0.237 NA 
HETATM    6  C   UNL     1     -10.140  16.012  67.445  1.00  0.00    -0.258 C  
HETATM    7  C   UNL     1     -10.126  16.511  65.988  1.00  0.00    -0.348 C  
HETATM    8  C   UNL     1     -11.393  16.045  65.253  1.00  0.00     0.008 C  
HETATM    9  O   UNL     1     -10.059  17.940  65.941  1.00  0.00    -0.533 OA 
HETATM   10  H   UNL     1     -10.050  18.248  65.042  1.00  0.00     0.000 HD 
HETATM   11  O   UNL     1     -11.318  16.270  63.831  1.00  0.00    -1.415 OA 
HETATM   12  C   UNL     1     -11.645  14.546  65.436  1.00  0.00    -0.355 C  
HETATM   13  O   UNL     1     -12.915  14.225  64.843  1.00  0.00    -0.682 OA 
HETATM   14  H   UNL     1     -12.101  15.982  63.377  1.00  0.00     0.000 HD 
HETATM   15  C   UNL     1     -11.593  14.158  66.935  1.00  0.00    -0.391 C  
HETATM   16  H   UNL     1     -13.071  13.295  64.957  1.00  0.00     0.000 HD 
BRANCH  15  17
HETATM   17  C   UNL     1     -11.996  12.679  67.139  1.00  0.00    -0.256 C  
HETATM   18  O   UNL     1     -11.905  11.940  65.914  1.00  0.00    -0.466 OA 
HETATM   19  H   UNL     1     -12.152  11.032  66.039  1.00  0.00     0.000 HD 
ENDBRANCH  15  17
ENDBRANCH   4   5
ENDBRANCH   2   4
TORSDOF 3
ENDMDL
MODEL       27
REMARK 921   NORMALIZED FREE ENERGY PREDICTED BY IDOCK:   -4.85 KCAL/MOL
REMARK 922        TOTAL FREE ENERGY PREDICTED BY IDOCK:   -6.05 KCAL/MOL
REMARK 923 INTER-LIGAND FREE ENERGY PREDICTED BY IDOCK:   -5.78 KCAL/MOL
REMARK 924 INTRA-LIGAND FREE ENERGY PREDICTED BY IDOCK:   -0.27 KCAL/MOL
REMARK 927      BINDING AFFINITY PREDICTED BY RF-SCORE:    0.00 PKD
ROOT
HETATM    1  O   UNL     1     -10.418  17.329  65.165  1.00  0.00    -0.656 OA 
HETATM    2  C   UNL     1      -9.952  16.770  66.391  1.00  0.00    -0.304 C  
HETATM    3  H   UNL     1     -10.281  18.268  65.178  1.00  0.00     0.000 HD 
ENDROOT
BRANCH   2   4
HETATM    4  C   UNL     1     -10.175  15.247  66.370  1.00  0.00    -0.277 C  
BRANCH   4   5
HETATM    5  N   UNL     1     -11.586  14.826  66.231  1.00  0.00    -0.336 NA 
HETATM    6  C   UNL     1     -11.952  14.482  64.843  1.00  0.00    -0.422 C  
HETATM    7  C   UNL     1     -11.257  13.217  64.304  1.00  0.00    -0.388 C  
HETATM    8  C   UNL     1     -11.524  12.025  65.237  1.00  0.00    -0.302 C  
HETATM    9  O   UNL     1     -11.732  12.897  62.992  1.00  0.00    -0.831 OA 
HETATM   10  H   UNL     1     -11.303  12.117  62.659  1.00  0.00     0.000 HD 
HETATM   11  O   UNL     1     -10.702  10.883  64.919  1.00  0.00    -0.276 OA 
HETATM   12  C   UNL     1     -11.234  12.365  66.701  1.00  0.00    -0.315 C  
HETATM   13  O   UNL     1     -11.643  11.251  67.514  1.00  0.00    -0.508 OA 
HETATM   14  H   UNL     1     -10.866  10.147  65.495  1.00  0.00     0.000 HD 
HETATM   15  C   UNL     1     -11.950  13.675  67.114  1.00  0.00    -0.393 C  
HETATM   16  H   UNL     1     -11.464  11.463  68.423  1.00  0.00     0.000 HD 
BRANCH  15  17
HETATM   17  C   UNL     1     -11.786  13.942  68.629  1.00  0.00    -0.361 C  
HETATM   18  O   UNL     1     -10.660  13.235  69.164  1.00  0.00    -0.414 OA 
HETATM   19  H   UNL     1     -10.560  13.400  70.094  1.00  0.00     0.000 HD 
ENDBRANCH  15  17
ENDBRANCH   4   5
ENDBRANCH   2   4
TORSDOF 3
ENDMDL
MODEL       28
REMARK 921   NORMALIZED FREE ENERGY PREDICTED BY IDOCK:   -4.83 KCAL/MOL
REMARK 922        TOTAL FREE ENERGY PREDICTED BY IDOCK:   -6.03 KCAL/MOL
REMARK 923 INTER-LIGAND FREE ENERGY PREDICTED BY IDOCK:   -5.59 KCAL/MOL
REMARK 924 INTRA-LIGAND FREE ENERGY PREDICTED BY IDOCK:   -0.43 KCAL/MOL
REMARK 927      BINDING AFFINITY PREDICTED BY RF-SCORE:    0.00 PKD
ROOT
HETATM    1  O   UNL     1     -12.533  14.022  63.175  1.00  0.00    -1.137 OA 
HETATM    2  C   UNL     1     -12.073  14.811  64.270  1.00  0.00    -0.394 C  
HETATM    3  H   UNL     1     -12.475  14.534  62.377  1.00  0.00     0.000 HD 
ENDROOT
BRANCH   2   4
HETATM    4  C   UNL     1     -12.168  13.983  65.564  1.00  0.00    -0.439 C  
BRANCH   4   5
HETATM    5  N   UNL     1     -10.879  13.752  66.253  1.00  0.00    -0.282 NA 
HETATM    6  C   UNL     1     -10.956  13.972  67.710  1.00  0.00    -0.258 C  
HETATM    7  C   UNL     1     -11.827  12.946  68.457  1.00  0.00    -0.313 C  
HETATM    8  C   UNL     1     -11.343  11.518  68.158  1.00  0.00    -0.298 C  
HETATM    9  O   UNL     1     -11.775  13.168  69.870  1.00  0.00    -0.398 OA 
HETATM   10  H   UNL     1     -12.313  12.535  70.331  1.00  0.00     0.000 HD 
HETATM   11  O   UNL     1     -12.266  10.514  68.628  1.00  0.00    -0.794 OA 
HETATM   12  C   UNL     1     -11.172  11.271  66.657  1.00  0.00    -0.177 C  
HETATM   13  O   UNL     1     -10.584   9.972  66.476  1.00  0.00    -0.180 OA 
HETATM   14  H   UNL     1     -11.966   9.632  68.444  1.00  0.00     0.000 HD 
HETATM   15  C   UNL     1     -10.315  12.388  66.010  1.00  0.00    -0.251 C  
HETATM   16  H   UNL     1     -10.478   9.819  65.544  1.00  0.00     0.000 HD 
BRANCH  15  17
HETATM   17  C   UNL     1     -10.012  12.065  64.528  1.00  0.00    -0.213 C  
HETATM   18  O   UNL     1     -11.085  11.333  63.924  1.00  0.00    -0.459 OA 
HETATM   19  H   UNL     1     -10.900  11.135  63.014  1.00  0.00     0.000 HD 
ENDBRANCH  15  17
ENDBRANCH   4   5
ENDBRANCH   2   4
TORSDOF 3
ENDMDL
MODEL       29
REMARK 921   NORMALIZED FREE ENERGY PREDICTED BY IDOCK:   -4.83 KCAL/MOL
REMARK 922        TOTAL FREE ENERGY PREDICTED BY IDOCK:   -6.02 KCAL/MOL
REMARK 923 INTER-LIGAND FREE ENERGY PREDICTED BY IDOCK:   -5.86 KCAL/MOL
REMARK 924 INTRA-LIGAND FREE ENERGY PREDICTED BY IDOCK:   -0.16 KCAL/MOL
REMARK 927      BINDING AFFINITY PREDICTED BY RF-SCORE:    0.00 PKD
ROOT
HETATM    1  O   UNL     1      -8.771  11.106  63.403  1.00  0.00    -0.390 OA 
HETATM    2  C   UNL     1     -10.103  11.603  63.515  1.00  0.00    -0.425 C  
HETATM    3  H   UNL     1      -8.764  10.365  62.809  1.00  0.00     0.000 HD 
ENDROOT
BRANCH   2   4
HETATM    4  C   UNL     1     -10.114  12.804  64.478  1.00  0.00    -0.242 C  
BRANCH   4   5
HETATM    5  N   UNL     1     -11.458  13.245  64.910  1.00  0.00    -0.309 NA 
HETATM    6  C   UNL     1     -12.108  12.296  65.834  1.00  0.00    -0.186 C  
HETATM    7  C   UNL     1     -11.426  12.189  67.210  1.00  0.00    -0.345 C  
HETATM    8  C   UNL     1     -11.318  13.578  67.860  1.00  0.00    -0.289 C  
HETATM    9  O   UNL     1     -12.165  11.324  68.078  1.00  0.00    -0.621 OA 
HETATM   10  H   UNL     1     -11.744  11.258  68.927  1.00  0.00     0.000 HD 
HETATM   11  O   UNL     1     -10.472  13.574  69.029  1.00  0.00    -0.385 OA 
HETATM   12  C   UNL     1     -10.721  14.615  66.905  1.00  0.00    -0.294 C  
HETATM   13  O   UNL     1     -10.789  15.904  67.537  1.00  0.00    -0.315 OA 
HETATM   14  H   UNL     1     -10.406  14.432  69.431  1.00  0.00     0.000 HD 
HETATM   15  C   UNL     1     -11.461  14.599  65.544  1.00  0.00    -0.341 C  
HETATM   16  H   UNL     1     -10.420  16.548  66.944  1.00  0.00     0.000 HD 
BRANCH  15  17
HETATM   17  C   UNL     1     -10.965  15.745  64.631  1.00  0.00    -0.314 C  
HETATM   18  O   UNL     1     -12.023  16.249  63.807  1.00  0.00    -1.409 OA 
HETATM   19  H   UNL     1     -11.719  16.952  63.246  1.00  0.00     0.000 HD 
ENDBRANCH  15  17
ENDBRANCH   4   5
ENDBRANCH   2   4
TORSDOF 3
ENDMDL
MODEL       30
REMARK 921   NORMALIZED FREE ENERGY PREDICTED BY IDOCK:   -4.80 KCAL/MOL
REMARK 922        TOTAL FREE ENERGY PREDICTED BY IDOCK:   -5.98 KCAL/MOL
REMARK 923 INTER-LIGAND FREE ENERGY PREDICTED BY IDOCK:   -5.62 KCAL/MOL
REMARK 924 INTRA-LIGAND FREE ENERGY PREDICTED BY IDOCK:   -0.36 KCAL/MOL
REMARK 927      BINDING AFFINITY PREDICTED BY RF-SCORE:    0.00 PKD
ROOT
HETATM    1  O   UNL     1     -12.548  13.855  63.315  1.00  0.00    -1.049 OA 
HETATM    2  C   UNL     1     -12.176  12.586  63.850  1.00  0.00    -0.503 C  
HETATM    3  H   UNL     1     -12.658  13.777  62.375  1.00  0.00     0.000 HD 
ENDROOT
BRANCH   2   4
HETATM    4  C   UNL     1     -11.997  12.713  65.373  1.00  0.00    -0.446 C  
BRANCH   4   5
HETATM    5  N   UNL     1     -10.827  13.512  65.800  1.00  0.00    -0.273 NA 
HETATM    6  C   UNL     1     -11.199  14.717  66.566  1.00  0.00    -0.342 C  
HETATM    7  C   UNL     1     -11.817  14.421  67.945  1.00  0.00    -0.349 C  
HETATM    8  C   UNL     1     -10.872  13.534  68.772  1.00  0.00    -0.253 C  
HETATM    9  O   UNL     1     -12.063  15.635  68.662  1.00  0.00    -0.547 OA 
HETATM   10  H   UNL     1     -12.444  15.452  69.513  1.00  0.00     0.000 HD 
HETATM   11  O   UNL     1     -11.501  13.025  69.966  1.00  0.00    -0.503 OA 
HETATM   12  C   UNL     1     -10.396  12.310  67.984  1.00  0.00    -0.214 C  
HETATM   13  O   UNL     1      -9.414  11.618  68.773  1.00  0.00    -0.336 OA 
HETATM   14  H   UNL     1     -10.918  12.476  70.477  1.00  0.00     0.000 HD 
HETATM   15  C   UNL     1      -9.837  12.729  66.602  1.00  0.00    -0.250 C  
HETATM   16  H   UNL     1      -9.118  10.859  68.284  1.00  0.00     0.000 HD 
BRANCH  15  17
HETATM   17  C   UNL     1      -9.216  11.518  65.866  1.00  0.00    -0.210 C  
HETATM   18  O   UNL     1      -7.816  11.401  66.144  1.00  0.00    -0.343 OA 
HETATM   19  H   UNL     1      -7.435  10.658  65.692  1.00  0.00     0.000 HD 
ENDBRANCH  15  17
ENDBRANCH   4   5
ENDBRANCH   2   4
TORSDOF 3
ENDMDL
MODEL       31
REMARK 921   NORMALIZED FREE ENERGY PREDICTED BY IDOCK:   -4.74 KCAL/MOL
REMARK 922        TOTAL FREE ENERGY PREDICTED BY IDOCK:   -5.91 KCAL/MOL
REMARK 923 INTER-LIGAND FREE ENERGY PREDICTED BY IDOCK:   -5.52 KCAL/MOL
REMARK 924 INTRA-LIGAND FREE ENERGY PREDICTED BY IDOCK:   -0.39 KCAL/MOL
REMARK 927      BINDING AFFINITY PREDICTED BY RF-SCORE:    0.00 PKD
ROOT
HETATM    1  O   UNL     1     -11.306  12.306  69.632  1.00  0.00    -0.423 OA 
HETATM    2  C   UNL     1     -11.477  13.398  68.732  1.00  0.00    -0.305 C  
HETATM    3  H   UNL     1     -11.205  12.643  70.515  1.00  0.00     0.000 HD 
ENDROOT
BRANCH   2   4
HETATM    4  C   UNL     1     -11.640  12.853  67.302  1.00  0.00    -0.360 C  
BRANCH   4   5
HETATM    5  N   UNL     1     -10.669  13.380  66.318  1.00  0.00    -0.285 NA 
HETATM    6  C   UNL     1      -9.297  12.886  66.540  1.00  0.00    -0.222 C  
HETATM    7  C   UNL     1      -9.121  11.378  66.283  1.00  0.00    -0.202 C  
HETATM    8  C   UNL     1      -9.594  11.021  64.864  1.00  0.00    -0.245 C  
HETATM    9  O   UNL     1      -7.750  10.994  66.427  1.00  0.00    -0.150 OA 
HETATM   10  H   UNL     1      -7.641  10.064  66.269  1.00  0.00     0.000 HD 
HETATM   11  O   UNL     1      -9.683   9.596  64.657  1.00  0.00    -0.429 OA 
HETATM   12  C   UNL     1     -10.984  11.585  64.563  1.00  0.00    -0.302 C  
HETATM   13  O   UNL     1     -11.286  11.331  63.180  1.00  0.00    -0.829 OA 
HETATM   14  H   UNL     1      -9.975   9.376  63.780  1.00  0.00     0.000 HD 
HETATM   15  C   UNL     1     -11.050  13.095  64.900  1.00  0.00    -0.314 C  
HETATM   16  H   UNL     1     -12.149  11.681  62.993  1.00  0.00     0.000 HD 
BRANCH  15  17
HETATM   17  C   UNL     1     -12.402  13.703  64.456  1.00  0.00    -0.356 C  
HETATM   18  O   UNL     1     -12.393  14.031  63.062  1.00  0.00    -1.101 OA 
HETATM   19  H   UNL     1     -13.222  14.405  62.789  1.00  0.00     0.000 HD 
ENDBRANCH  15  17
ENDBRANCH   4   5
ENDBRANCH   2   4
TORSDOF 3
ENDMDL
MODEL       32
REMARK 921   NORMALIZED FREE ENERGY PREDICTED BY IDOCK:   -4.70 KCAL/MOL
REMARK 922        TOTAL FREE ENERGY PREDICTED BY IDOCK:   -5.86 KCAL/MOL
REMARK 923 INTER-LIGAND FREE ENERGY PREDICTED BY IDOCK:   -5.53 KCAL/MOL
REMARK 924 INTRA-LIGAND FREE ENERGY PREDICTED BY IDOCK:   -0.34 KCAL/MOL
REMARK 927      BINDING AFFINITY PREDICTED BY RF-SCORE:    0.00 PKD
ROOT
HETATM    1  O   UNL     1     -10.050   8.426  66.187  1.00  0.00    -0.462 OA 
HETATM    2  C   UNL     1      -9.471   9.526  65.487  1.00  0.00    -0.268 C  
HETATM    3  H   UNL     1      -9.419   7.716  66.227  1.00  0.00     0.000 HD 
ENDROOT
BRANCH   2   4
HETATM    4  C   UNL     1     -10.493  10.676  65.421  1.00  0.00    -0.184 C  
BRANCH   4   5
HETATM    5  N   UNL     1      -9.910  12.014  65.181  1.00  0.00    -0.233 NA 
HETATM    6  C   UNL     1     -10.437  12.663  63.964  1.00  0.00    -0.416 C  
HETATM    7  C   UNL     1     -11.925  13.048  64.050  1.00  0.00    -0.456 C  
HETATM    8  C   UNL     1     -12.175  13.937  65.280  1.00  0.00    -0.433 C  
HETATM    9  O   UNL     1     -12.336  13.754  62.875  1.00  0.00    -1.008 OA 
HETATM   10  H   UNL     1     -13.254  13.991  62.927  1.00  0.00     0.000 HD 
HETATM   11  O   UNL     1     -13.580  14.123  65.547  1.00  0.00    -0.685 OA 
HETATM   12  C   UNL     1     -11.572  13.339  66.553  1.00  0.00    -0.350 C  
HETATM   13  O   UNL     1     -11.725  14.293  67.618  1.00  0.00    -0.348 OA 
HETATM   14  H   UNL     1     -13.734  14.672  66.307  1.00  0.00     0.000 HD 
HETATM   15  C   UNL     1     -10.089  12.952  66.332  1.00  0.00    -0.269 C  
HETATM   16  H   UNL     1     -11.351  13.922  68.408  1.00  0.00     0.000 HD 
BRANCH  15  17
HETATM   17  C   UNL     1      -9.434  12.490  67.654  1.00  0.00    -0.188 C  
HETATM   18  O   UNL     1     -10.421  12.150  68.634  1.00  0.00    -0.228 OA 
HETATM   19  H   UNL     1     -10.019  11.865  69.446  1.00  0.00     0.000 HD 
ENDBRANCH  15  17
ENDBRANCH   4   5
ENDBRANCH   2   4
TORSDOF 3
ENDMDL
MODEL       33
REMARK 921   NORMALIZED FREE ENERGY PREDICTED BY IDOCK:   -4.61 KCAL/MOL
REMARK 922        TOTAL FREE ENERGY PREDICTED BY IDOCK:   -5.76 KCAL/MOL
REMARK 923 INTER-LIGAND FREE ENERGY PREDICTED BY IDOCK:   -5.41 KCAL/MOL
REMARK 924 INTRA-LIGAND FREE ENERGY PREDICTED BY IDOCK:   -0.35 KCAL/MOL
REMARK 927      BINDING AFFINITY PREDICTED BY RF-SCORE:    0.00 PKD
ROOT
HETATM    1  O   UNL     1     -13.603  14.981  70.349  1.00  0.00    -0.630 OA 
HETATM    2  C   UNL     1     -12.308  15.573  70.425  1.00  0.00    -0.413 C  
HETATM    3  H   UNL     1     -13.959  14.899  71.225  1.00  0.00     0.000 HD 
ENDROOT
BRANCH   2   4
HETATM    4  C   UNL     1     -11.729  15.706  69.004  1.00  0.00    -0.395 C  
BRANCH   4   5
HETATM    5  N   UNL     1     -11.148  14.464  68.449  1.00  0.00    -0.246 NA 
HETATM    6  C   UNL     1     -11.981  13.859  67.392  1.00  0.00    -0.401 C  
HETATM    7  C   UNL     1     -12.067  14.695  66.101  1.00  0.00    -0.201 C  
HETATM    8  C   UNL     1     -10.657  14.992  65.565  1.00  0.00    -0.363 C  
HETATM    9  O   UNL     1     -12.812  14.001  65.095  1.00  0.00    -0.696 OA 
HETATM   10  H   UNL     1     -12.865  14.517  64.299  1.00  0.00     0.000 HD 
HETATM   11  O   UNL     1     -10.668  15.972  64.506  1.00  0.00    -0.808 OA 
HETATM   12  C   UNL     1      -9.734  15.548  66.652  1.00  0.00    -0.247 C  
HETATM   13  O   UNL     1      -8.409  15.661  66.105  1.00  0.00    -0.357 OA 
HETATM   14  H   UNL     1      -9.797  16.155  64.174  1.00  0.00     0.000 HD 
HETATM   15  C   UNL     1      -9.764  14.648  67.912  1.00  0.00    -0.216 C  
HETATM   16  H   UNL     1      -7.836  16.006  66.780  1.00  0.00     0.000 HD 
BRANCH  15  17
HETATM   17  C   UNL     1      -8.721  15.118  68.953  1.00  0.00    -0.205 C  
HETATM   18  O   UNL     1      -8.515  16.534  68.882  1.00  0.00    -0.232 OA 
HETATM   19  H   UNL     1      -7.875  16.823  69.522  1.00  0.00     0.000 HD 
ENDBRANCH  15  17
ENDBRANCH   4   5
ENDBRANCH   2   4
TORSDOF 3
ENDMDL
MODEL       34
REMARK 921   NORMALIZED FREE ENERGY PREDICTED BY IDOCK:   -4.56 KCAL/MOL
REMARK 922        TOTAL FREE ENERGY PREDICTED BY IDOCK:   -5.70 KCAL/MOL
REMARK 923 INTER-LIGAND FREE ENERGY PREDICTED BY IDOCK:   -5.35 KCAL/MOL
REMARK 924 INTRA-LIGAND FREE ENERGY PREDICTED BY IDOCK:   -0.35 KCAL/MOL
REMARK 927      BINDING AFFINITY PREDICTED BY RF-SCORE:    0.00 PKD
ROOT
HETATM    1  O   UNL     1     -13.008  14.063  64.921  1.00  0.00    -0.707 OA 
HETATM    2  C   UNL     1     -11.911  14.453  65.745  1.00  0.00    -0.357 C  
HETATM    3  H   UNL     1     -12.824  14.307  64.022  1.00  0.00     0.000 HD 
ENDROOT
BRANCH   2   4
HETATM    4  C   UNL     1     -12.209  14.058  67.202  1.00  0.00    -0.321 C  
BRANCH   4   5
HETATM    5  N   UNL     1     -11.023  13.987  68.084  1.00  0.00    -0.246 NA 
HETATM    6  C   UNL     1     -10.818  15.215  68.875  1.00  0.00    -0.241 C  
HETATM    7  C   UNL     1     -11.904  15.470  69.936  1.00  0.00    -0.362 C  
HETATM    8  C   UNL     1     -12.037  14.253  70.866  1.00  0.00    -0.347 C  
HETATM    9  O   UNL     1     -11.586  16.623  70.722  1.00  0.00    -0.527 OA 
HETATM   10  H   UNL     1     -12.257  16.781  71.376  1.00  0.00     0.000 HD 
HETATM   11  O   UNL     1     -13.199  14.335  71.716  1.00  0.00    -0.328 OA 
HETATM   12  C   UNL     1     -12.172  12.944  70.083  1.00  0.00    -0.266 C  
HETATM   13  O   UNL     1     -12.146  11.853  71.019  1.00  0.00    -0.350 OA 
HETATM   14  H   UNL     1     -13.282  13.583  72.290  1.00  0.00     0.000 HD 
HETATM   15  C   UNL     1     -11.052  12.821  69.021  1.00  0.00    -0.233 C  
HETATM   16  H   UNL     1     -12.229  11.040  70.533  1.00  0.00     0.000 HD 
BRANCH  15  17
HETATM   17  C   UNL     1     -11.091  11.436  68.332  1.00  0.00    -0.242 C  
HETATM   18  O   UNL     1     -12.381  10.827  68.461  1.00  0.00    -0.825 OA 
HETATM   19  H   UNL     1     -12.406   9.977  68.039  1.00  0.00     0.000 HD 
ENDBRANCH  15  17
ENDBRANCH   4   5
ENDBRANCH   2   4
TORSDOF 3
ENDMDL
MODEL       35
REMARK 921   NORMALIZED FREE ENERGY PREDICTED BY IDOCK:   -4.55 KCAL/MOL
REMARK 922        TOTAL FREE ENERGY PREDICTED BY IDOCK:   -5.69 KCAL/MOL
REMARK 923 INTER-LIGAND FREE ENERGY PREDICTED BY IDOCK:   -5.38 KCAL/MOL
REMARK 924 INTRA-LIGAND FREE ENERGY PREDICTED BY IDOCK:   -0.30 KCAL/MOL
REMARK 927      BINDING AFFINITY PREDICTED BY RF-SCORE:    0.00 PKD
ROOT
HETATM    1  O   UNL     1      -7.007  11.181  65.596  1.00  0.00    -0.373 OA 
HETATM    2  C   UNL     1      -8.303  10.588  65.544  1.00  0.00    -0.170 C  
HETATM    3  H   UNL     1      -6.351  10.505  65.471  1.00  0.00     0.000 HD 
ENDROOT
BRANCH   2   4
HETATM    4  C   UNL     1      -9.367  11.682  65.746  1.00  0.00    -0.205 C  
BRANCH   4   5
HETATM    5  N   UNL     1     -10.744  11.182  65.954  1.00  0.00    -0.233 NA 
HETATM    6  C   UNL     1     -11.125  11.116  67.378  1.00  0.00    -0.307 C  
HETATM    7  C   UNL     1     -11.250  12.490  68.062  1.00  0.00    -0.270 C  
HETATM    8  C   UNL     1     -12.234  13.382  67.287  1.00  0.00    -0.233 C  
HETATM    9  O   UNL     1     -11.712  12.347  69.409  1.00  0.00    -0.291 OA 
HETATM   10  H   UNL     1     -11.790  13.194  69.831  1.00  0.00     0.000 HD 
HETATM   11  O   UNL     1     -12.203  14.752  67.736  1.00  0.00    -0.582 OA 
HETATM   12  C   UNL     1     -11.923  13.415  65.789  1.00  0.00    -0.407 C  
HETATM   13  O   UNL     1     -12.967  14.148  65.126  1.00  0.00    -0.729 OA 
HETATM   14  H   UNL     1     -12.811  15.303  67.257  1.00  0.00     0.000 HD 
HETATM   15  C   UNL     1     -11.778  11.980  65.225  1.00  0.00    -0.252 C  
HETATM   16  H   UNL     1     -12.774  14.169  64.196  1.00  0.00     0.000 HD 
BRANCH  15  17
HETATM   17  C   UNL     1     -11.615  12.002  63.687  1.00  0.00    -0.486 C  
HETATM   18  O   UNL     1     -12.866  11.774  63.027  1.00  0.00    -0.844 OA 
HETATM   19  H   UNL     1     -12.767  11.788  62.083  1.00  0.00     0.000 HD 
ENDBRANCH  15  17
ENDBRANCH   4   5
ENDBRANCH   2   4
TORSDOF 3
ENDMDL
MODEL       36
REMARK 921   NORMALIZED FREE ENERGY PREDICTED BY IDOCK:   -4.54 KCAL/MOL
REMARK 922        TOTAL FREE ENERGY PREDICTED BY IDOCK:   -5.68 KCAL/MOL
REMARK 923 INTER-LIGAND FREE ENERGY PREDICTED BY IDOCK:   -5.35 KCAL/MOL
REMARK 924 INTRA-LIGAND FREE ENERGY PREDICTED BY IDOCK:   -0.33 KCAL/MOL
REMARK 927      BINDING AFFINITY PREDICTED BY RF-SCORE:    0.00 PKD
ROOT
HETATM    1  O   UNL     1      -9.251   7.720  74.250  1.00  0.00    -0.422 OA 
HETATM    2  C   UNL     1      -9.983   7.171  73.156  1.00  0.00    -0.228 C  
HETATM    3  H   UNL     1      -9.202   7.076  74.946  1.00  0.00     0.000 HD 
ENDROOT
BRANCH   2   4
HETATM    4  C   UNL     1     -10.063   8.214  72.027  1.00  0.00    -0.237 C  
BRANCH   4   5
HETATM    5  N   UNL     1     -11.167   8.008  71.064  1.00  0.00    -0.261 NA 
HETATM    6  C   UNL     1     -12.471   7.792  71.718  1.00  0.00    -0.320 C  
HETATM    7  C   UNL     1     -13.015   9.026  72.462  1.00  0.00    -0.361 C  
HETATM    8  C   UNL     1     -13.088  10.232  71.511  1.00  0.00    -0.433 C  
HETATM    9  O   UNL     1     -14.321   8.768  72.988  1.00  0.00    -1.089 OA 
HETATM   10  H   UNL     1     -14.656   9.529  73.447  1.00  0.00     0.000 HD 
HETATM   11  O   UNL     1     -13.353  11.466  72.208  1.00  0.00    -0.629 OA 
HETATM   12  C   UNL     1     -11.777  10.443  70.749  1.00  0.00    -0.368 C  
HETATM   13  O   UNL     1     -11.978  11.492  69.786  1.00  0.00    -0.309 OA 
HETATM   14  H   UNL     1     -13.398  12.211  71.621  1.00  0.00     0.000 HD 
HETATM   15  C   UNL     1     -11.310   9.126  70.081  1.00  0.00    -0.142 C  
HETATM   16  H   UNL     1     -11.164  11.623  69.313  1.00  0.00     0.000 HD 
BRANCH  15  17
HETATM   17  C   UNL     1     -10.072   9.368  69.187  1.00  0.00    -0.195 C  
HETATM   18  O   UNL     1      -9.376  10.560  69.571  1.00  0.00    -0.359 OA 
HETATM   19  H   UNL     1      -8.615  10.708  69.022  1.00  0.00     0.000 HD 
ENDBRANCH  15  17
ENDBRANCH   4   5
ENDBRANCH   2   4
TORSDOF 3
ENDMDL
MODEL       37
REMARK 921   NORMALIZED FREE ENERGY PREDICTED BY IDOCK:   -4.46 KCAL/MOL
REMARK 922        TOTAL FREE ENERGY PREDICTED BY IDOCK:   -5.58 KCAL/MOL
REMARK 923 INTER-LIGAND FREE ENERGY PREDICTED BY IDOCK:   -5.13 KCAL/MOL
REMARK 924 INTRA-LIGAND FREE ENERGY PREDICTED BY IDOCK:   -0.45 KCAL/MOL
REMARK 927      BINDING AFFINITY PREDICTED BY RF-SCORE:    0.00 PKD
ROOT
HETATM    1  O   UNL     1     -12.427  14.250  63.321  1.00  0.00    -1.133 OA 
HETATM    2  C   UNL     1     -12.529  14.816  64.626  1.00  0.00    -0.237 C  
HETATM    3  H   UNL     1     -12.824  14.842  62.693  1.00  0.00     0.000 HD 
ENDROOT
BRANCH   2   4
HETATM    4  C   UNL     1     -11.885  13.857  65.644  1.00  0.00    -0.371 C  
BRANCH   4   5
HETATM    5  N   UNL     1     -10.433  13.642  65.466  1.00  0.00    -0.296 NA 
HETATM    6  C   UNL     1      -9.620  14.299  66.507  1.00  0.00    -0.297 C  
HETATM    7  C   UNL     1      -9.792  13.697  67.914  1.00  0.00    -0.237 C  
HETATM    8  C   UNL     1      -9.505  12.187  67.886  1.00  0.00    -0.195 C  
HETATM    9  O   UNL     1      -8.905  14.323  68.846  1.00  0.00    -0.317 OA 
HETATM   10  H   UNL     1      -9.011  13.952  69.715  1.00  0.00     0.000 HD 
HETATM   11  O   UNL     1      -9.888  11.532  69.113  1.00  0.00    -0.411 OA 
HETATM   12  C   UNL     1     -10.268  11.477  66.765  1.00  0.00    -0.219 C  
HETATM   13  O   UNL     1      -9.835  10.107  66.720  1.00  0.00    -0.179 OA 
HETATM   14  H   UNL     1      -9.710  10.599  69.096  1.00  0.00     0.000 HD 
HETATM   15  C   UNL     1     -10.052  12.196  65.411  1.00  0.00    -0.255 C  
HETATM   16  H   UNL     1     -10.309   9.666  66.024  1.00  0.00     0.000 HD 
BRANCH  15  17
HETATM   17  C   UNL     1     -10.695  11.399  64.252  1.00  0.00    -0.356 C  
HETATM   18  O   UNL     1     -10.425  12.012  62.985  1.00  0.00    -0.624 OA 
HETATM   19  H   UNL     1     -10.820  11.523  62.273  1.00  0.00     0.000 HD 
ENDBRANCH  15  17
ENDBRANCH   4   5
ENDBRANCH   2   4
TORSDOF 3
ENDMDL
MODEL       38
REMARK 921   NORMALIZED FREE ENERGY PREDICTED BY IDOCK:   -4.44 KCAL/MOL
REMARK 922        TOTAL FREE ENERGY PREDICTED BY IDOCK:   -5.56 KCAL/MOL
REMARK 923 INTER-LIGAND FREE ENERGY PREDICTED BY IDOCK:   -5.13 KCAL/MOL
REMARK 924 INTRA-LIGAND FREE ENERGY PREDICTED BY IDOCK:   -0.44 KCAL/MOL
REMARK 927      BINDING AFFINITY PREDICTED BY RF-SCORE:    0.00 PKD
ROOT
HETATM    1  O   UNL     1     -10.625  11.256  69.540  1.00  0.00    -0.410 OA 
HETATM    2  C   UNL     1     -11.390  10.968  68.372  1.00  0.00    -0.295 C  
HETATM    3  H   UNL     1     -10.581  10.479  70.083  1.00  0.00     0.000 HD 
ENDROOT
BRANCH   2   4
HETATM    4  C   UNL     1     -11.460  12.228  67.490  1.00  0.00    -0.347 C  
BRANCH   4   5
HETATM    5  N   UNL     1     -10.695  12.149  66.227  1.00  0.00    -0.252 NA 
HETATM    6  C   UNL     1     -11.482  12.561  65.048  1.00  0.00    -0.326 C  
HETATM    7  C   UNL     1     -11.849  14.056  65.027  1.00  0.00    -0.378 C  
HETATM    8  C   UNL     1     -10.581  14.917  65.149  1.00  0.00    -0.428 C  
HETATM    9  O   UNL     1     -12.527  14.395  63.813  1.00  0.00    -1.002 OA 
HETATM   10  H   UNL     1     -12.754  15.318  63.800  1.00  0.00     0.000 HD 
HETATM   11  O   UNL     1     -10.882  16.308  65.381  1.00  0.00    -0.343 OA 
HETATM   12  C   UNL     1      -9.693  14.471  66.313  1.00  0.00    -0.309 C  
HETATM   13  O   UNL     1      -8.472  15.229  66.267  1.00  0.00    -0.410 OA 
HETATM   14  H   UNL     1     -10.099  16.840  65.457  1.00  0.00     0.000 HD 
HETATM   15  C   UNL     1      -9.430  12.946  66.251  1.00  0.00    -0.200 C  
HETATM   16  H   UNL     1      -7.921  14.952  66.990  1.00  0.00     0.000 HD 
BRANCH  15  17
HETATM   17  C   UNL     1      -8.412  12.516  67.334  1.00  0.00    -0.181 C  
HETATM   18  O   UNL     1      -8.466  13.383  68.473  1.00  0.00    -0.247 OA 
HETATM   19  H   UNL     1      -7.841  13.118  69.138  1.00  0.00     0.000 HD 
ENDBRANCH  15  17
ENDBRANCH   4   5
ENDBRANCH   2   4
TORSDOF 3
ENDMDL
MODEL       39
REMARK 921   NORMALIZED FREE ENERGY PREDICTED BY IDOCK:   -4.39 KCAL/MOL
REMARK 922        TOTAL FREE ENERGY PREDICTED BY IDOCK:   -5.50 KCAL/MOL
REMARK 923 INTER-LIGAND FREE ENERGY PREDICTED BY IDOCK:   -5.32 KCAL/MOL
REMARK 924 INTRA-LIGAND FREE ENERGY PREDICTED BY IDOCK:   -0.18 KCAL/MOL
REMARK 927      BINDING AFFINITY PREDICTED BY RF-SCORE:    0.00 PKD
ROOT
HETATM    1  O   UNL     1     -11.461  11.576  63.046  1.00  0.00    -0.828 OA 
HETATM    2  C   UNL     1     -11.630  12.927  63.471  1.00  0.00    -0.468 C  
HETATM    3  H   UNL     1     -12.014  11.417  62.290  1.00  0.00     0.000 HD 
ENDROOT
BRANCH   2   4
HETATM    4  C   UNL     1     -10.735  13.186  64.697  1.00  0.00    -0.380 C  
BRANCH   4   5
HETATM    5  N   UNL     1     -11.392  13.909  65.807  1.00  0.00    -0.303 NA 
HETATM    6  C   UNL     1     -12.201  13.029  66.672  1.00  0.00    -0.217 C  
HETATM    7  C   UNL     1     -11.376  12.015  67.486  1.00  0.00    -0.319 C  
HETATM    8  C   UNL     1     -10.307  12.744  68.317  1.00  0.00    -0.243 C  
HETATM    9  O   UNL     1     -12.218  11.265  68.366  1.00  0.00    -0.604 OA 
HETATM   10  H   UNL     1     -11.710  10.639  68.868  1.00  0.00     0.000 HD 
HETATM   11  O   UNL     1      -9.353  11.836  68.903  1.00  0.00    -0.393 OA 
HETATM   12  C   UNL     1      -9.496  13.731  67.473  1.00  0.00    -0.220 C  
HETATM   13  O   UNL     1      -8.626  14.466  68.349  1.00  0.00    -0.163 OA 
HETATM   14  H   UNL     1      -8.693  12.286  69.417  1.00  0.00     0.000 HD 
HETATM   15  C   UNL     1     -10.433  14.667  66.670  1.00  0.00    -0.278 C  
HETATM   16  H   UNL     1      -8.122  15.079  67.825  1.00  0.00     0.000 HD 
BRANCH  15  17
HETATM   17  C   UNL     1      -9.624  15.761  65.934  1.00  0.00    -0.347 C  
HETATM   18  O   UNL     1     -10.466  16.847  65.529  1.00  0.00    -0.560 OA 
HETATM   19  H   UNL     1      -9.970  17.519  65.078  1.00  0.00     0.000 HD 
ENDBRANCH  15  17
ENDBRANCH   4   5
ENDBRANCH   2   4
TORSDOF 3
ENDMDL
MODEL       40
REMARK 921   NORMALIZED FREE ENERGY PREDICTED BY IDOCK:   -4.38 KCAL/MOL
REMARK 922        TOTAL FREE ENERGY PREDICTED BY IDOCK:   -5.49 KCAL/MOL
REMARK 923 INTER-LIGAND FREE ENERGY PREDICTED BY IDOCK:   -5.24 KCAL/MOL
REMARK 924 INTRA-LIGAND FREE ENERGY PREDICTED BY IDOCK:   -0.24 KCAL/MOL
REMARK 927      BINDING AFFINITY PREDICTED BY RF-SCORE:    0.00 PKD
ROOT
HETATM    1  O   UNL     1      -9.611  12.276  64.237  1.00  0.00    -0.499 OA 
HETATM    2  C   UNL     1     -10.030  11.262  65.148  1.00  0.00    -0.264 C  
HETATM    3  H   UNL     1      -9.440  11.882  63.390  1.00  0.00     0.000 HD 
ENDROOT
BRANCH   2   4
HETATM    4  C   UNL     1     -10.306  11.900  66.522  1.00  0.00    -0.216 C  
BRANCH   4   5
HETATM    5  N   UNL     1     -11.729  11.916  66.926  1.00  0.00    -0.589 NA 
HETATM    6  C   UNL     1     -11.964  11.278  68.236  1.00  0.00    -0.145 C  
HETATM    7  C   UNL     1     -11.356  12.042  69.427  1.00  0.00    -0.251 C  
HETATM    8  C   UNL     1     -11.860  13.494  69.443  1.00  0.00    -0.335 C  
HETATM    9  O   UNL     1     -11.705  11.414  70.665  1.00  0.00    -0.437 OA 
HETATM   10  H   UNL     1     -11.330  11.884  71.400  1.00  0.00     0.000 HD 
HETATM   11  O   UNL     1     -11.138  14.316  70.382  1.00  0.00    -0.479 OA 
HETATM   12  C   UNL     1     -11.709  14.169  68.077  1.00  0.00    -0.359 C  
HETATM   13  O   UNL     1     -12.331  15.464  68.142  1.00  0.00    -0.412 OA 
HETATM   14  H   UNL     1     -11.450  15.213  70.391  1.00  0.00     0.000 HD 
HETATM   15  C   UNL     1     -12.319  13.291  66.958  1.00  0.00    -0.132 C  
HETATM   16  H   UNL     1     -12.238  15.883  67.295  1.00  0.00     0.000 HD 
BRANCH  15  17
HETATM   17  C   UNL     1     -12.306  14.033  65.601  1.00  0.00    -0.479 C  
HETATM   18  O   UNL     1     -12.762  13.187  64.539  1.00  0.00    -0.647 OA 
HETATM   19  H   UNL     1     -12.754  13.643  63.706  1.00  0.00     0.000 HD 
ENDBRANCH  15  17
ENDBRANCH   4   5
ENDBRANCH   2   4
TORSDOF 3
ENDMDL
MODEL       41
REMARK 921   NORMALIZED FREE ENERGY PREDICTED BY IDOCK:   -4.35 KCAL/MOL
REMARK 922        TOTAL FREE ENERGY PREDICTED BY IDOCK:   -5.45 KCAL/MOL
REMARK 923 INTER-LIGAND FREE ENERGY PREDICTED BY IDOCK:   -5.43 KCAL/MOL
REMARK 924 INTRA-LIGAND FREE ENERGY PREDICTED BY IDOCK:   -0.02 KCAL/MOL
REMARK 927      BINDING AFFINITY PREDICTED BY RF-SCORE:    0.00 PKD
ROOT
HETATM    1  O   UNL     1      -9.421  19.350  67.693  1.00  0.00    -0.299 OA 
HETATM    2  C   UNL     1     -10.457  18.910  66.817  1.00  0.00    -0.428 C  
HETATM    3  H   UNL     1      -9.383  20.299  67.679  1.00  0.00     0.000 HD 
ENDROOT
BRANCH   2   4
HETATM    4  C   UNL     1     -10.520  17.373  66.840  1.00  0.00    -0.279 C  
BRANCH   4   5
HETATM    5  N   UNL     1      -9.607  16.697  65.892  1.00  0.00    -0.498 NA 
HETATM    6  C   UNL     1      -8.220  16.611  66.387  1.00  0.00    -0.318 C  
HETATM    7  C   UNL     1      -8.043  15.687  67.607  1.00  0.00    -0.150 C  
HETATM    8  C   UNL     1      -8.587  14.284  67.295  1.00  0.00    -0.215 C  
HETATM    9  O   UNL     1      -6.662  15.583  67.969  1.00  0.00    -0.117 OA 
HETATM   10  H   UNL     1      -6.553  15.013  68.722  1.00  0.00     0.000 HD 
HETATM   11  O   UNL     1      -8.673  13.454  68.472  1.00  0.00    -0.277 OA 
HETATM   12  C   UNL     1      -9.997  14.332  66.702  1.00  0.00    -0.275 C  
HETATM   13  O   UNL     1     -10.368  12.999  66.310  1.00  0.00    -0.274 OA 
HETATM   14  H   UNL     1      -9.009  12.587  68.280  1.00  0.00     0.000 HD 
HETATM   15  C   UNL     1     -10.060  15.322  65.513  1.00  0.00    -0.375 C  
HETATM   16  H   UNL     1     -11.243  13.029  65.941  1.00  0.00     0.000 HD 
BRANCH  15  17
HETATM   17  C   UNL     1     -11.439  15.263  64.815  1.00  0.00    -0.363 C  
HETATM   18  O   UNL     1     -11.622  16.373  63.928  1.00  0.00    -1.564 OA 
HETATM   19  H   UNL     1     -12.469  16.337  63.499  1.00  0.00     0.000 HD 
ENDBRANCH  15  17
ENDBRANCH   4   5
ENDBRANCH   2   4
TORSDOF 3
ENDMDL
MODEL       42
REMARK 921   NORMALIZED FREE ENERGY PREDICTED BY IDOCK:   -4.30 KCAL/MOL
REMARK 922        TOTAL FREE ENERGY PREDICTED BY IDOCK:   -5.40 KCAL/MOL
REMARK 923 INTER-LIGAND FREE ENERGY PREDICTED BY IDOCK:   -5.05 KCAL/MOL
REMARK 924 INTRA-LIGAND FREE ENERGY PREDICTED BY IDOCK:   -0.35 KCAL/MOL
REMARK 927      BINDING AFFINITY PREDICTED BY RF-SCORE:    0.00 PKD
ROOT
HETATM    1  O   UNL     1      -6.929   9.607  71.421  1.00  0.00    -0.325 OA 
HETATM    2  C   UNL     1      -7.779   8.476  71.237  1.00  0.00    -0.108 C  
HETATM    3  H   UNL     1      -6.024   9.334  71.333  1.00  0.00     0.000 HD 
ENDROOT
BRANCH   2   4
HETATM    4  C   UNL     1      -9.246   8.918  71.380  1.00  0.00    -0.258 C  
BRANCH   4   5
HETATM    5  N   UNL     1     -10.205   8.185  70.524  1.00  0.00    -0.196 NA 
HETATM    6  C   UNL     1     -10.729   6.961  71.161  1.00  0.00    -0.225 C  
HETATM    7  C   UNL     1     -11.632   7.223  72.381  1.00  0.00    -0.268 C  
HETATM    8  C   UNL     1     -12.787   8.162  71.997  1.00  0.00    -0.318 C  
HETATM    9  O   UNL     1     -12.175   5.998  72.883  1.00  0.00    -0.483 OA 
HETATM   10  H   UNL     1     -12.731   6.160  73.636  1.00  0.00     0.000 HD 
HETATM   11  O   UNL     1     -13.516   8.636  73.147  1.00  0.00    -0.883 OA 
HETATM   12  C   UNL     1     -12.293   9.410  71.259  1.00  0.00    -0.341 C  
HETATM   13  O   UNL     1     -13.439  10.156  70.814  1.00  0.00    -0.488 OA 
HETATM   14  H   UNL     1     -14.229   9.216  72.910  1.00  0.00     0.000 HD 
HETATM   15  C   UNL     1     -11.363   9.022  70.083  1.00  0.00    -0.121 C  
HETATM   16  H   UNL     1     -13.132  10.930  70.357  1.00  0.00     0.000 HD 
BRANCH  15  17
HETATM   17  C   UNL     1     -10.984  10.265  69.244  1.00  0.00    -0.241 C  
HETATM   18  O   UNL     1     -12.022  10.604  68.317  1.00  0.00    -0.793 OA 
HETATM   19  H   UNL     1     -11.789  11.367  67.801  1.00  0.00     0.000 HD 
ENDBRANCH  15  17
ENDBRANCH   4   5
ENDBRANCH   2   4
TORSDOF 3
ENDMDL
MODEL       43
REMARK 921   NORMALIZED FREE ENERGY PREDICTED BY IDOCK:   -4.29 KCAL/MOL
REMARK 922        TOTAL FREE ENERGY PREDICTED BY IDOCK:   -5.38 KCAL/MOL
REMARK 923 INTER-LIGAND FREE ENERGY PREDICTED BY IDOCK:   -5.09 KCAL/MOL
REMARK 924 INTRA-LIGAND FREE ENERGY PREDICTED BY IDOCK:   -0.29 KCAL/MOL
REMARK 927      BINDING AFFINITY PREDICTED BY RF-SCORE:    0.00 PKD
ROOT
HETATM    1  O   UNL     1     -11.432   6.555  67.086  1.00  0.00    -0.768 OA 
HETATM    2  C   UNL     1     -10.601   7.272  67.997  1.00  0.00    -0.189 C  
HETATM    3  H   UNL     1     -11.113   6.692  66.201  1.00  0.00     0.000 HD 
ENDROOT
BRANCH   2   4
HETATM    4  C   UNL     1     -11.117   7.050  69.431  1.00  0.00    -0.157 C  
BRANCH   4   5
HETATM    5  N   UNL     1     -10.329   7.722  70.488  1.00  0.00    -0.203 NA 
HETATM    6  C   UNL     1     -10.003   9.124  70.162  1.00  0.00    -0.200 C  
HETATM    7  C   UNL     1     -11.223  10.062  70.124  1.00  0.00    -0.304 C  
HETATM    8  C   UNL     1     -11.993   9.988  71.453  1.00  0.00    -0.383 C  
HETATM    9  O   UNL     1     -10.816  11.415  69.896  1.00  0.00    -0.461 OA 
HETATM   10  H   UNL     1     -11.569  11.994  69.873  1.00  0.00     0.000 HD 
HETATM   11  O   UNL     1     -13.272  10.652  71.385  1.00  0.00    -0.375 OA 
HETATM   12  C   UNL     1     -12.282   8.544  71.870  1.00  0.00    -0.352 C  
HETATM   13  O   UNL     1     -12.872   8.562  73.181  1.00  0.00    -0.673 OA 
HETATM   14  H   UNL     1     -13.748  10.606  72.205  1.00  0.00     0.000 HD 
HETATM   15  C   UNL     1     -10.991   7.690  71.829  1.00  0.00    -0.239 C  
HETATM   16  H   UNL     1     -13.052   7.665  73.440  1.00  0.00     0.000 HD 
BRANCH  15  17
HETATM   17  C   UNL     1     -11.246   6.273  72.393  1.00  0.00    -0.280 C  
HETATM   18  O   UNL     1     -12.646   5.970  72.429  1.00  0.00    -0.507 OA 
HETATM   19  H   UNL     1     -12.802   5.100  72.776  1.00  0.00     0.000 HD 
ENDBRANCH  15  17
ENDBRANCH   4   5
ENDBRANCH   2   4
TORSDOF 3
ENDMDL
MODEL       44
REMARK 921   NORMALIZED FREE ENERGY PREDICTED BY IDOCK:   -4.29 KCAL/MOL
REMARK 922        TOTAL FREE ENERGY PREDICTED BY IDOCK:   -5.38 KCAL/MOL
REMARK 923 INTER-LIGAND FREE ENERGY PREDICTED BY IDOCK:   -5.14 KCAL/MOL
REMARK 924 INTRA-LIGAND FREE ENERGY PREDICTED BY IDOCK:   -0.24 KCAL/MOL
REMARK 927      BINDING AFFINITY PREDICTED BY RF-SCORE:    0.00 PKD
ROOT
HETATM    1  O   UNL     1     -10.743  19.098  67.246  1.00  0.00    -0.460 OA 
HETATM    2  C   UNL     1     -10.080  18.537  66.115  1.00  0.00    -0.368 C  
HETATM    3  H   UNL     1     -10.900  20.022  67.089  1.00  0.00     0.000 HD 
ENDROOT
BRANCH   2   4
HETATM    4  C   UNL     1      -9.826  17.041  66.369  1.00  0.00    -0.299 C  
BRANCH   4   5
HETATM    5  N   UNL     1     -11.035  16.190  66.347  1.00  0.00    -0.123 NA 
HETATM    6  C   UNL     1     -11.127  15.348  65.138  1.00  0.00    -0.394 C  
HETATM    7  C   UNL     1     -10.048  14.253  65.050  1.00  0.00    -0.291 C  
HETATM    8  C   UNL     1     -10.073  13.377  66.314  1.00  0.00    -0.299 C  
HETATM    9  O   UNL     1     -10.259  13.423  63.904  1.00  0.00    -0.712 OA 
HETATM   10  H   UNL     1      -9.593  12.747  63.849  1.00  0.00     0.000 HD 
HETATM   11  O   UNL     1      -8.933  12.498  66.396  1.00  0.00    -0.362 OA 
HETATM   12  C   UNL     1     -10.062  14.215  67.594  1.00  0.00    -0.236 C  
HETATM   13  O   UNL     1     -10.232  13.331  68.715  1.00  0.00    -0.362 OA 
HETATM   14  H   UNL     1      -8.949  11.957  67.177  1.00  0.00     0.000 HD 
HETATM   15  C   UNL     1     -11.159  15.307  67.548  1.00  0.00    -0.324 C  
HETATM   16  H   UNL     1     -10.225  13.851  69.510  1.00  0.00     0.000 HD 
BRANCH  15  17
HETATM   17  C   UNL     1     -11.253  16.056  68.897  1.00  0.00    -0.353 C  
HETATM   18  O   UNL     1     -12.449  15.708  69.605  1.00  0.00    -0.560 OA 
HETATM   19  H   UNL     1     -12.506  16.169  70.434  1.00  0.00     0.000 HD 
ENDBRANCH  15  17
ENDBRANCH   4   5
ENDBRANCH   2   4
TORSDOF 3
ENDMDL
MODEL       45
REMARK 921   NORMALIZED FREE ENERGY PREDICTED BY IDOCK:   -4.25 KCAL/MOL
REMARK 922        TOTAL FREE ENERGY PREDICTED BY IDOCK:   -5.34 KCAL/MOL
REMARK 923 INTER-LIGAND FREE ENERGY PREDICTED BY IDOCK:   -4.92 KCAL/MOL
REMARK 924 INTRA-LIGAND FREE ENERGY PREDICTED BY IDOCK:   -0.42 KCAL/MOL
REMARK 927      BINDING AFFINITY PREDICTED BY RF-SCORE:    0.00 PKD
ROOT
HETATM    1  O   UNL     1      -9.546  14.435  68.528  1.00  0.00    -0.210 OA 
HETATM    2  C   UNL     1      -8.572  14.370  67.488  1.00  0.00    -0.191 C  
HETATM    3  H   UNL     1      -9.150  14.820  69.301  1.00  0.00     0.000 HD 
ENDROOT
BRANCH   2   4
HETATM    4  C   UNL     1      -9.212  13.745  66.235  1.00  0.00    -0.071 C  
BRANCH   4   5
HETATM    5  N   UNL     1     -10.546  13.143  66.450  1.00  0.00    -0.283 NA 
HETATM    6  C   UNL     1     -11.547  13.586  65.460  1.00  0.00    -0.320 C  
HETATM    7  C   UNL     1     -11.276  13.091  64.027  1.00  0.00    -0.405 C  
HETATM    8  C   UNL     1     -11.148  11.559  64.008  1.00  0.00    -0.365 C  
HETATM    9  O   UNL     1     -12.335  13.481  63.147  1.00  0.00    -0.968 OA 
HETATM   10  H   UNL     1     -12.169  13.176  62.263  1.00  0.00     0.000 HD 
HETATM   11  O   UNL     1     -10.654  11.065  62.747  1.00  0.00    -0.772 OA 
HETATM   12  C   UNL     1     -10.178  11.050  65.078  1.00  0.00    -0.299 C  
HETATM   13  O   UNL     1     -10.228   9.613  65.085  1.00  0.00    -0.311 OA 
HETATM   14  H   UNL     1     -10.575  10.118  62.735  1.00  0.00     0.000 HD 
HETATM   15  C   UNL     1     -10.524  11.647  66.464  1.00  0.00    -0.239 C  
HETATM   16  H   UNL     1      -9.626   9.297  65.749  1.00  0.00     0.000 HD 
BRANCH  15  17
HETATM   17  C   UNL     1      -9.646  11.021  67.572  1.00  0.00    -0.164 C  
HETATM   18  O   UNL     1     -10.003  11.522  68.866  1.00  0.00    -0.325 OA 
HETATM   19  H   UNL     1      -9.464  11.137  69.546  1.00  0.00     0.000 HD 
ENDBRANCH  15  17
ENDBRANCH   4   5
ENDBRANCH   2   4
TORSDOF 3
ENDMDL
MODEL       46
REMARK 921   NORMALIZED FREE ENERGY PREDICTED BY IDOCK:   -4.24 KCAL/MOL
REMARK 922        TOTAL FREE ENERGY PREDICTED BY IDOCK:   -5.33 KCAL/MOL
REMARK 923 INTER-LIGAND FREE ENERGY PREDICTED BY IDOCK:   -4.94 KCAL/MOL
REMARK 924 INTRA-LIGAND FREE ENERGY PREDICTED BY IDOCK:   -0.39 KCAL/MOL
REMARK 927      BINDING AFFINITY PREDICTED BY RF-SCORE:    0.00 PKD
ROOT
HETATM    1  O   UNL     1     -11.825   5.371  73.188  1.00  0.00    -0.541 OA 
HETATM    2  C   UNL     1     -10.837   5.373  72.159  1.00  0.00    -0.214 C  
HETATM    3  H   UNL     1     -11.769   4.556  73.672  1.00  0.00     0.000 HD 
ENDROOT
BRANCH   2   4
HETATM    4  C   UNL     1     -10.928   6.694  71.374  1.00  0.00    -0.250 C  
BRANCH   4   5
HETATM    5  N   UNL     1     -10.838   7.918  72.200  1.00  0.00    -0.249 NA 
HETATM    6  C   UNL     1      -9.546   8.617  72.059  1.00  0.00    -0.314 C  
HETATM    7  C   UNL     1      -9.313   9.236  70.669  1.00  0.00    -0.270 C  
HETATM    8  C   UNL     1     -10.472  10.178  70.304  1.00  0.00    -0.224 C  
HETATM    9  O   UNL     1      -8.087   9.973  70.640  1.00  0.00    -0.411 OA 
HETATM   10  H   UNL     1      -7.942  10.354  69.782  1.00  0.00     0.000 HD 
HETATM   11  O   UNL     1     -10.431  10.589  68.922  1.00  0.00    -0.182 OA 
HETATM   12  C   UNL     1     -11.837   9.518  70.513  1.00  0.00    -0.183 C  
HETATM   13  O   UNL     1     -12.857  10.506  70.288  1.00  0.00    -0.465 OA 
HETATM   14  H   UNL     1     -11.147  11.171  68.696  1.00  0.00     0.000 HD 
HETATM   15  C   UNL     1     -11.937   8.897  71.928  1.00  0.00    -0.371 C  
HETATM   16  H   UNL     1     -13.704  10.096  70.418  1.00  0.00     0.000 HD 
BRANCH  15  17
HETATM   17  C   UNL     1     -13.363   8.363  72.200  1.00  0.00    -0.315 C  
HETATM   18  O   UNL     1     -14.166   9.341  72.872  1.00  0.00    -0.954 OA 
HETATM   19  H   UNL     1     -15.042   9.014  73.039  1.00  0.00     0.000 HD 
ENDBRANCH  15  17
ENDBRANCH   4   5
ENDBRANCH   2   4
TORSDOF 3
ENDMDL
MODEL       47
REMARK 921   NORMALIZED FREE ENERGY PREDICTED BY IDOCK:   -4.23 KCAL/MOL
REMARK 922        TOTAL FREE ENERGY PREDICTED BY IDOCK:   -5.32 KCAL/MOL
REMARK 923 INTER-LIGAND FREE ENERGY PREDICTED BY IDOCK:   -4.90 KCAL/MOL
REMARK 924 INTRA-LIGAND FREE ENERGY PREDICTED BY IDOCK:   -0.42 KCAL/MOL
REMARK 927      BINDING AFFINITY PREDICTED BY RF-SCORE:    0.00 PKD
ROOT
HETATM    1  O   UNL     1     -14.341   8.282  72.726  1.00  0.00    -0.782 OA 
HETATM    2  C   UNL     1     -14.023   7.442  71.618  1.00  0.00    -0.403 C  
HETATM    3  H   UNL     1     -15.254   8.157  72.959  1.00  0.00     0.000 HD 
ENDROOT
BRANCH   2   4
HETATM    4  C   UNL     1     -12.545   7.645  71.239  1.00  0.00    -0.289 C  
BRANCH   4   5
HETATM    5  N   UNL     1     -11.813   8.616  72.082  1.00  0.00    -0.367 NA 
HETATM    6  C   UNL     1     -10.651   8.021  72.771  1.00  0.00    -0.351 C  
HETATM    7  C   UNL     1      -9.510   7.596  71.828  1.00  0.00    -0.145 C  
HETATM    8  C   UNL     1      -9.065   8.784  70.960  1.00  0.00    -0.218 C  
HETATM    9  O   UNL     1      -8.386   7.118  72.575  1.00  0.00    -0.107 OA 
HETATM   10  H   UNL     1      -7.682   6.855  71.994  1.00  0.00     0.000 HD 
HETATM   11  O   UNL     1      -8.177   8.385  69.896  1.00  0.00    -0.116 OA 
HETATM   12  C   UNL     1     -10.251   9.482  70.289  1.00  0.00    -0.260 C  
HETATM   13  O   UNL     1      -9.764  10.657  69.619  1.00  0.00    -0.414 OA 
HETATM   14  H   UNL     1      -7.902   9.119  69.360  1.00  0.00     0.000 HD 
HETATM   15  C   UNL     1     -11.348   9.821  71.327  1.00  0.00    -0.375 C  
HETATM   16  H   UNL     1     -10.500  11.090  69.203  1.00  0.00     0.000 HD 
BRANCH  15  17
HETATM   17  C   UNL     1     -12.479  10.659  70.685  1.00  0.00    -0.371 C  
HETATM   18  O   UNL     1     -12.425  10.596  69.254  1.00  0.00    -0.703 OA 
HETATM   19  H   UNL     1     -13.119  11.110  68.860  1.00  0.00     0.000 HD 
ENDBRANCH  15  17
ENDBRANCH   4   5
ENDBRANCH   2   4
TORSDOF 3
ENDMDL
MODEL       48
REMARK 921   NORMALIZED FREE ENERGY PREDICTED BY IDOCK:   -4.19 KCAL/MOL
REMARK 922        TOTAL FREE ENERGY PREDICTED BY IDOCK:   -5.27 KCAL/MOL
REMARK 923 INTER-LIGAND FREE ENERGY PREDICTED BY IDOCK:   -4.88 KCAL/MOL
REMARK 924 INTRA-LIGAND FREE ENERGY PREDICTED BY IDOCK:   -0.39 KCAL/MOL
REMARK 927      BINDING AFFINITY PREDICTED BY RF-SCORE:    0.00 PKD
ROOT
HETATM    1  O   UNL     1     -10.843  17.359  69.209  1.00  0.00    -0.343 OA 
HETATM    2  C   UNL     1     -10.644  16.941  67.859  1.00  0.00    -0.361 C  
HETATM    3  H   UNL     1     -10.884  18.308  69.238  1.00  0.00     0.000 HD 
ENDROOT
BRANCH   2   4
HETATM    4  C   UNL     1     -10.578  15.404  67.811  1.00  0.00    -0.274 C  
BRANCH   4   5
HETATM    5  N   UNL     1     -11.891  14.724  67.780  1.00  0.00    -0.338 NA 
HETATM    6  C   UNL     1     -12.124  13.975  66.531  1.00  0.00    -0.459 C  
HETATM    7  C   UNL     1     -11.205  12.753  66.349  1.00  0.00    -0.299 C  
HETATM    8  C   UNL     1     -11.317  11.816  67.562  1.00  0.00    -0.310 C  
HETATM    9  O   UNL     1     -11.553  12.027  65.165  1.00  0.00    -0.329 OA 
HETATM   10  H   UNL     1     -10.985  11.273  65.053  1.00  0.00     0.000 HD 
HETATM   11  O   UNL     1     -10.304  10.790  67.560  1.00  0.00    -0.187 OA 
HETATM   12  C   UNL     1     -11.163  12.568  68.886  1.00  0.00    -0.281 C  
HETATM   13  O   UNL     1     -11.423  11.650  69.961  1.00  0.00    -0.431 OA 
HETATM   14  H   UNL     1     -10.373  10.211  68.310  1.00  0.00     0.000 HD 
HETATM   15  C   UNL     1     -12.104  13.797  68.935  1.00  0.00    -0.313 C  
HETATM   16  H   UNL     1     -11.327  12.117  70.783  1.00  0.00     0.000 HD 
BRANCH  15  17
HETATM   17  C   UNL     1     -12.064  14.472  70.326  1.00  0.00    -0.323 C  
HETATM   18  O   UNL     1     -13.014  15.540  70.414  1.00  0.00    -0.631 OA 
HETATM   19  H   UNL     1     -12.989  15.955  71.268  1.00  0.00     0.000 HD 
ENDBRANCH  15  17
ENDBRANCH   4   5
ENDBRANCH   2   4
TORSDOF 3
ENDMDL
MODEL       49
REMARK 921   NORMALIZED FREE ENERGY PREDICTED BY IDOCK:   -4.18 KCAL/MOL
REMARK 922        TOTAL FREE ENERGY PREDICTED BY IDOCK:   -5.25 KCAL/MOL
REMARK 923 INTER-LIGAND FREE ENERGY PREDICTED BY IDOCK:   -4.95 KCAL/MOL
REMARK 924 INTRA-LIGAND FREE ENERGY PREDICTED BY IDOCK:   -0.31 KCAL/MOL
REMARK 927      BINDING AFFINITY PREDICTED BY RF-SCORE:    0.00 PKD
ROOT
HETATM    1  O   UNL     1     -10.872   8.077  68.504  1.00  0.00    -0.407 OA 
HETATM    2  C   UNL     1      -9.913   8.942  67.899  1.00  0.00    -0.179 C  
HETATM    3  H   UNL     1     -10.418   7.421  69.020  1.00  0.00     0.000 HD 
ENDROOT
BRANCH   2   4
HETATM    4  C   UNL     1     -10.648  10.005  67.063  1.00  0.00    -0.212 C  
BRANCH   4   5
HETATM    5  N   UNL     1      -9.825  11.171  66.675  1.00  0.00    -0.194 NA 
HETATM    6  C   UNL     1      -9.608  11.266  65.218  1.00  0.00    -0.232 C  
HETATM    7  C   UNL     1     -10.882  11.578  64.411  1.00  0.00    -0.342 C  
HETATM    8  C   UNL     1     -11.544  12.861  64.936  1.00  0.00    -0.327 C  
HETATM    9  O   UNL     1     -10.574  11.746  63.023  1.00  0.00    -0.653 OA 
HETATM   10  H   UNL     1     -11.360  11.938  62.525  1.00  0.00     0.000 HD 
HETATM   11  O   UNL     1     -12.862  13.064  64.386  1.00  0.00    -0.679 OA 
HETATM   12  C   UNL     1     -11.715  12.839  66.457  1.00  0.00    -0.400 C  
HETATM   13  O   UNL     1     -12.205  14.125  66.876  1.00  0.00    -0.467 OA 
HETATM   14  H   UNL     1     -13.271  13.857  64.710  1.00  0.00     0.000 HD 
HETATM   15  C   UNL     1     -10.382  12.474  67.155  1.00  0.00    -0.220 C  
HETATM   16  H   UNL     1     -12.311  14.111  67.820  1.00  0.00     0.000 HD 
BRANCH  15  17
HETATM   17  C   UNL     1     -10.509  12.599  68.692  1.00  0.00    -0.205 C  
HETATM   18  O   UNL     1     -10.026  13.866  69.154  1.00  0.00    -0.428 OA 
HETATM   19  H   UNL     1     -10.103  13.943  70.097  1.00  0.00     0.000 HD 
ENDBRANCH  15  17
ENDBRANCH   4   5
ENDBRANCH   2   4
TORSDOF 3
ENDMDL
MODEL       50
REMARK 921   NORMALIZED FREE ENERGY PREDICTED BY IDOCK:   -4.12 KCAL/MOL
REMARK 922        TOTAL FREE ENERGY PREDICTED BY IDOCK:   -5.19 KCAL/MOL
REMARK 923 INTER-LIGAND FREE ENERGY PREDICTED BY IDOCK:   -4.89 KCAL/MOL
REMARK 924 INTRA-LIGAND FREE ENERGY PREDICTED BY IDOCK:   -0.30 KCAL/MOL
REMARK 927      BINDING AFFINITY PREDICTED BY RF-SCORE:    0.00 PKD
ROOT
HETATM    1  O   UNL     1      -6.274  20.342  71.625  1.00  0.00    -0.621 OA 
HETATM    2  C   UNL     1      -5.850  19.744  70.402  1.00  0.00    -0.292 C  
HETATM    3  H   UNL     1      -5.637  20.150  72.303  1.00  0.00     0.000 HD 
ENDROOT
BRANCH   2   4
HETATM    4  C   UNL     1      -6.883  20.055  69.303  1.00  0.00    -0.252 C  
BRANCH   4   5
HETATM    5  N   UNL     1      -6.892  19.105  68.169  1.00  0.00    -0.243 NA 
HETATM    6  C   UNL     1      -7.664  17.879  68.449  1.00  0.00    -0.291 C  
HETATM    7  C   UNL     1      -9.179  18.108  68.598  1.00  0.00    -0.282 C  
HETATM    8  C   UNL     1      -9.735  18.815  67.351  1.00  0.00    -0.305 C  
HETATM    9  O   UNL     1      -9.866  16.865  68.774  1.00  0.00    -0.247 OA 
HETATM   10  H   UNL     1     -10.801  17.006  68.866  1.00  0.00     0.000 HD 
HETATM   11  O   UNL     1     -11.090  19.273  67.538  1.00  0.00    -0.423 OA 
HETATM   12  C   UNL     1      -8.914  20.050  66.976  1.00  0.00    -0.350 C  
HETATM   13  O   UNL     1      -9.411  20.563  65.728  1.00  0.00    -0.614 OA 
HETATM   14  H   UNL     1     -11.434  19.709  66.768  1.00  0.00     0.000 HD 
HETATM   15  C   UNL     1      -7.406  19.706  66.899  1.00  0.00    -0.224 C  
HETATM   16  H   UNL     1      -8.901  21.330  65.496  1.00  0.00     0.000 HD 
BRANCH  15  17
HETATM   17  C   UNL     1      -6.589  20.910  66.374  1.00  0.00    -0.240 C  
HETATM   18  O   UNL     1      -6.901  21.194  65.005  1.00  0.00    -0.509 OA 
HETATM   19  H   UNL     1      -6.399  21.933  64.682  1.00  0.00     0.000 HD 
ENDBRANCH  15  17
ENDBRANCH   4   5
ENDBRANCH   2   4
TORSDOF 3
ENDMDL
MODEL       51
REMARK 921   NORMALIZED FREE ENERGY PREDICTED BY IDOCK:   -4.11 KCAL/MOL
REMARK 922        TOTAL FREE ENERGY PREDICTED BY IDOCK:   -5.17 KCAL/MOL
REMARK 923 INTER-LIGAND FREE ENERGY PREDICTED BY IDOCK:   -4.79 KCAL/MOL
REMARK 924 INTRA-LIGAND FREE ENERGY PREDICTED BY IDOCK:   -0.38 KCAL/MOL
REMARK 927      BINDING AFFINITY PREDICTED BY RF-SCORE:    0.00 PKD
ROOT
HETATM    1  O   UNL     1     -11.535   6.688  67.084  1.00  0.00    -0.779 OA 
HETATM    2  C   UNL     1     -10.777   5.917  68.014  1.00  0.00    -0.252 C  
HETATM    3  H   UNL     1     -11.301   6.428  66.201  1.00  0.00     0.000 HD 
ENDROOT
BRANCH   2   4
HETATM    4  C   UNL     1     -11.155   6.337  69.446  1.00  0.00    -0.410 C  
BRANCH   4   5
HETATM    5  N   UNL     1     -10.206   7.268  70.094  1.00  0.00    -0.200 NA 
HETATM    6  C   UNL     1     -10.646   8.676  70.034  1.00  0.00    -0.227 C  
HETATM    7  C   UNL     1     -11.904   8.978  70.869  1.00  0.00    -0.253 C  
HETATM    8  C   UNL     1     -11.691   8.547  72.329  1.00  0.00    -0.373 C  
HETATM    9  O   UNL     1     -12.211  10.376  70.836  1.00  0.00    -0.318 OA 
HETATM   10  H   UNL     1     -12.988  10.563  71.351  1.00  0.00     0.000 HD 
HETATM   11  O   UNL     1     -12.912   8.578  73.096  1.00  0.00    -0.689 OA 
HETATM   12  C   UNL     1     -11.156   7.117  72.434  1.00  0.00    -0.266 C  
HETATM   13  O   UNL     1     -10.852   6.848  73.813  1.00  0.00    -0.520 OA 
HETATM   14  H   UNL     1     -12.780   8.312  73.998  1.00  0.00     0.000 HD 
HETATM   15  C   UNL     1      -9.921   6.923  71.521  1.00  0.00    -0.177 C  
HETATM   16  H   UNL     1     -10.520   5.960  73.878  1.00  0.00     0.000 HD 
BRANCH  15  17
HETATM   17  C   UNL     1      -9.286   5.529  71.737  1.00  0.00    -0.142 C  
HETATM   18  O   UNL     1     -10.219   4.617  72.328  1.00  0.00    -0.183 OA 
HETATM   19  H   UNL     1      -9.830   3.761  72.461  1.00  0.00     0.000 HD 
ENDBRANCH  15  17
ENDBRANCH   4   5
ENDBRANCH   2   4
TORSDOF 3
ENDMDL
MODEL       52
REMARK 921   NORMALIZED FREE ENERGY PREDICTED BY IDOCK:   -4.10 KCAL/MOL
REMARK 922        TOTAL FREE ENERGY PREDICTED BY IDOCK:   -5.16 KCAL/MOL
REMARK 923 INTER-LIGAND FREE ENERGY PREDICTED BY IDOCK:   -4.84 KCAL/MOL
REMARK 924 INTRA-LIGAND FREE ENERGY PREDICTED BY IDOCK:   -0.32 KCAL/MOL
REMARK 927      BINDING AFFINITY PREDICTED BY RF-SCORE:    0.00 PKD
ROOT
HETATM    1  O   UNL     1      -6.166  10.992  65.090  1.00  0.00    -0.370 OA 
HETATM    2  C   UNL     1      -7.180  10.190  65.694  1.00  0.00    -0.137 C  
HETATM    3  H   UNL     1      -5.391  10.460  64.951  1.00  0.00     0.000 HD 
ENDROOT
BRANCH   2   4
HETATM    4  C   UNL     1      -8.436  11.051  65.920  1.00  0.00    -0.140 C  
BRANCH   4   5
HETATM    5  N   UNL     1      -9.720  10.357  65.680  1.00  0.00    -0.219 NA 
HETATM    6  C   UNL     1     -10.696  10.554  66.769  1.00  0.00    -0.188 C  
HETATM    7  C   UNL     1     -11.212  11.999  66.898  1.00  0.00    -0.320 C  
HETATM    8  C   UNL     1     -11.802  12.476  65.561  1.00  0.00    -0.439 C  
HETATM    9  O   UNL     1     -12.220  12.089  67.911  1.00  0.00    -0.470 OA 
HETATM   10  H   UNL     1     -12.538  12.981  67.991  1.00  0.00     0.000 HD 
HETATM   11  O   UNL     1     -12.073  13.892  65.553  1.00  0.00    -0.363 OA 
HETATM   12  C   UNL     1     -10.852  12.215  64.389  1.00  0.00    -0.328 C  
HETATM   13  O   UNL     1     -11.535  12.556  63.170  1.00  0.00    -0.684 OA 
HETATM   14  H   UNL     1     -12.437  14.186  64.727  1.00  0.00     0.000 HD 
HETATM   15  C   UNL     1     -10.369  10.744  64.388  1.00  0.00    -0.335 C  
HETATM   16  H   UNL     1     -10.946  12.394  62.442  1.00  0.00     0.000 HD 
BRANCH  15  17
HETATM   17  C   UNL     1      -9.532  10.436  63.124  1.00  0.00    -0.327 C  
HETATM   18  O   UNL     1      -8.997  11.634  62.549  1.00  0.00    -0.521 OA 
HETATM   19  H   UNL     1      -8.484  11.445  61.773  1.00  0.00     0.000 HD 
ENDBRANCH  15  17
ENDBRANCH   4   5
ENDBRANCH   2   4
TORSDOF 3
ENDMDL
MODEL       53
REMARK 921   NORMALIZED FREE ENERGY PREDICTED BY IDOCK:   -4.10 KCAL/MOL
REMARK 922        TOTAL FREE ENERGY PREDICTED BY IDOCK:   -5.16 KCAL/MOL
REMARK 923 INTER-LIGAND FREE ENERGY PREDICTED BY IDOCK:   -4.81 KCAL/MOL
REMARK 924 INTRA-LIGAND FREE ENERGY PREDICTED BY IDOCK:   -0.35 KCAL/MOL
REMARK 927      BINDING AFFINITY PREDICTED BY RF-SCORE:    0.00 PKD
ROOT
HETATM    1  O   UNL     1     -12.529  13.888  62.963  1.00  0.00    -1.099 OA 
HETATM    2  C   UNL     1     -12.258  12.578  63.457  1.00  0.00    -0.558 C  
HETATM    3  H   UNL     1     -13.280  13.853  62.383  1.00  0.00     0.000 HD 
ENDROOT
BRANCH   2   4
HETATM    4  C   UNL     1     -11.040  12.634  64.397  1.00  0.00    -0.345 C  
BRANCH   4   5
HETATM    5  N   UNL     1     -11.157  11.810  65.620  1.00  0.00    -0.304 NA 
HETATM    6  C   UNL     1     -10.284  10.621  65.601  1.00  0.00    -0.253 C  
HETATM    7  C   UNL     1      -8.779  10.944  65.659  1.00  0.00    -0.183 C  
HETATM    8  C   UNL     1      -8.468  11.814  66.887  1.00  0.00    -0.174 C  
HETATM    9  O   UNL     1      -8.005   9.742  65.731  1.00  0.00    -0.110 OA 
HETATM   10  H   UNL     1      -7.076   9.941  65.767  1.00  0.00     0.000 HD 
HETATM   11  O   UNL     1      -7.129  12.349  66.857  1.00  0.00    -0.363 OA 
HETATM   12  C   UNL     1      -9.407  13.019  66.990  1.00  0.00    -0.236 C  
HETATM   13  O   UNL     1      -9.144  13.693  68.233  1.00  0.00    -0.191 OA 
HETATM   14  H   UNL     1      -6.937  12.886  67.616  1.00  0.00     0.000 HD 
HETATM   15  C   UNL     1     -10.887  12.575  66.877  1.00  0.00    -0.248 C  
HETATM   16  H   UNL     1      -9.727  14.440  68.297  1.00  0.00     0.000 HD 
BRANCH  15  17
HETATM   17  C   UNL     1     -11.843  13.764  67.132  1.00  0.00    -0.406 C  
HETATM   18  O   UNL     1     -11.219  15.013  66.810  1.00  0.00    -0.339 OA 
HETATM   19  H   UNL     1     -11.806  15.742  66.966  1.00  0.00     0.000 HD 
ENDBRANCH  15  17
ENDBRANCH   4   5
ENDBRANCH   2   4
TORSDOF 3
ENDMDL
MODEL       54
REMARK 921   NORMALIZED FREE ENERGY PREDICTED BY IDOCK:   -4.09 KCAL/MOL
REMARK 922        TOTAL FREE ENERGY PREDICTED BY IDOCK:   -5.15 KCAL/MOL
REMARK 923 INTER-LIGAND FREE ENERGY PREDICTED BY IDOCK:   -5.09 KCAL/MOL
REMARK 924 INTRA-LIGAND FREE ENERGY PREDICTED BY IDOCK:   -0.06 KCAL/MOL
REMARK 927      BINDING AFFINITY PREDICTED BY RF-SCORE:    0.00 PKD
ROOT
HETATM    1  O   UNL     1     -12.969  15.891  70.473  1.00  0.00    -0.661 OA 
HETATM    2  C   UNL     1     -11.657  15.434  70.151  1.00  0.00    -0.327 C  
HETATM    3  H   UNL     1     -12.926  16.440  71.247  1.00  0.00     0.000 HD 
ENDROOT
BRANCH   2   4
HETATM    4  C   UNL     1     -11.726  14.545  68.896  1.00  0.00    -0.319 C  
BRANCH   4   5
HETATM    5  N   UNL     1     -11.509  15.254  67.617  1.00  0.00    -0.316 NA 
HETATM    6  C   UNL     1     -10.489  16.317  67.710  1.00  0.00    -0.295 C  
HETATM    7  C   UNL     1      -9.059  15.798  67.955  1.00  0.00    -0.187 C  
HETATM    8  C   UNL     1      -8.670  14.779  66.872  1.00  0.00    -0.236 C  
HETATM    9  O   UNL     1      -8.118  16.876  67.940  1.00  0.00    -0.182 OA 
HETATM   10  H   UNL     1      -7.237  16.556  68.091  1.00  0.00     0.000 HD 
HETATM   11  O   UNL     1      -7.448  14.081  67.187  1.00  0.00    -0.338 OA 
HETATM   12  C   UNL     1      -9.742  13.702  66.684  1.00  0.00    -0.284 C  
HETATM   13  O   UNL     1      -9.368  12.881  65.564  1.00  0.00    -0.456 OA 
HETATM   14  H   UNL     1      -7.208  13.451  66.518  1.00  0.00     0.000 HD 
HETATM   15  C   UNL     1     -11.138  14.342  66.490  1.00  0.00    -0.331 C  
HETATM   16  H   UNL     1     -10.033  12.213  65.448  1.00  0.00     0.000 HD 
BRANCH  15  17
HETATM   17  C   UNL     1     -12.198  13.268  66.150  1.00  0.00    -0.405 C  
HETATM   18  O   UNL     1     -13.240  13.807  65.326  1.00  0.00    -0.755 OA 
HETATM   19  H   UNL     1     -13.890  13.148  65.117  1.00  0.00     0.000 HD 
ENDBRANCH  15  17
ENDBRANCH   4   5
ENDBRANCH   2   4
TORSDOF 3
ENDMDL
MODEL       55
REMARK 921   NORMALIZED FREE ENERGY PREDICTED BY IDOCK:   -4.09 KCAL/MOL
REMARK 922        TOTAL FREE ENERGY PREDICTED BY IDOCK:   -5.15 KCAL/MOL
REMARK 923 INTER-LIGAND FREE ENERGY PREDICTED BY IDOCK:   -4.74 KCAL/MOL
REMARK 924 INTRA-LIGAND FREE ENERGY PREDICTED BY IDOCK:   -0.40 KCAL/MOL
REMARK 927      BINDING AFFINITY PREDICTED BY RF-SCORE:    0.00 PKD
ROOT
HETATM    1  O   UNL     1     -10.567  10.741  65.664  1.00  0.00    -0.215 OA 
HETATM    2  C   UNL     1     -11.154  11.358  66.808  1.00  0.00    -0.281 C  
HETATM    3  H   UNL     1     -10.570   9.799  65.784  1.00  0.00     0.000 HD 
ENDROOT
BRANCH   2   4
HETATM    4  C   UNL     1     -11.151  12.886  66.616  1.00  0.00    -0.284 C  
BRANCH   4   5
HETATM    5  N   UNL     1     -10.052  13.405  65.772  1.00  0.00    -0.294 NA 
HETATM    6  C   UNL     1     -10.533  14.146  64.590  1.00  0.00    -0.339 C  
HETATM    7  C   UNL     1     -11.243  15.471  64.922  1.00  0.00    -0.389 C  
HETATM    8  C   UNL     1     -10.329  16.365  65.776  1.00  0.00    -0.369 C  
HETATM    9  O   UNL     1     -11.594  16.173  63.725  1.00  0.00    -1.390 OA 
HETATM   10  H   UNL     1     -12.032  16.991  63.930  1.00  0.00     0.000 HD 
HETATM   11  O   UNL     1     -11.027  17.504  66.320  1.00  0.00    -0.021 OA 
HETATM   12  C   UNL     1      -9.742  15.611  66.972  1.00  0.00    -0.227 C  
HETATM   13  O   UNL     1      -8.796  16.471  67.629  1.00  0.00    -0.190 OA 
HETATM   14  H   UNL     1     -10.462  18.056  66.848  1.00  0.00     0.000 HD 
HETATM   15  C   UNL     1      -9.095  14.279  66.520  1.00  0.00    -0.185 C  
HETATM   16  H   UNL     1      -8.432  16.003  68.372  1.00  0.00     0.000 HD 
BRANCH  15  17
HETATM   17  C   UNL     1      -8.370  13.587  67.698  1.00  0.00    -0.179 C  
HETATM   18  O   UNL     1      -8.929  13.979  68.957  1.00  0.00    -0.380 OA 
HETATM   19  H   UNL     1      -8.484  13.555  69.680  1.00  0.00     0.000 HD 
ENDBRANCH  15  17
ENDBRANCH   4   5
ENDBRANCH   2   4
TORSDOF 3
ENDMDL
MODEL       56
REMARK 921   NORMALIZED FREE ENERGY PREDICTED BY IDOCK:   -4.09 KCAL/MOL
REMARK 922        TOTAL FREE ENERGY PREDICTED BY IDOCK:   -5.14 KCAL/MOL
REMARK 923 INTER-LIGAND FREE ENERGY PREDICTED BY IDOCK:   -4.99 KCAL/MOL
REMARK 924 INTRA-LIGAND FREE ENERGY PREDICTED BY IDOCK:   -0.16 KCAL/MOL
REMARK 927      BINDING AFFINITY PREDICTED BY RF-SCORE:    0.00 PKD
ROOT
HETATM    1  O   UNL     1     -13.521  10.022  72.405  1.00  0.00    -0.616 OA 
HETATM    2  C   UNL     1     -12.442   9.769  71.507  1.00  0.00    -0.403 C  
HETATM    3  H   UNL     1     -13.473   9.410  73.130  1.00  0.00     0.000 HD 
ENDROOT
BRANCH   2   4
HETATM    4  C   UNL     1     -12.519  10.761  70.332  1.00  0.00    -0.347 C  
BRANCH   4   5
HETATM    5  N   UNL     1     -11.262  11.484  70.043  1.00  0.00    -0.122 NA 
HETATM    6  C   UNL     1     -10.409  10.789  69.060  1.00  0.00    -0.215 C  
HETATM    7  C   UNL     1     -11.000  10.735  67.639  1.00  0.00    -0.306 C  
HETATM    8  C   UNL     1     -11.334  12.153  67.148  1.00  0.00    -0.331 C  
HETATM    9  O   UNL     1     -10.077  10.132  66.727  1.00  0.00    -0.201 OA 
HETATM   10  H   UNL     1     -10.442  10.098  65.850  1.00  0.00     0.000 HD 
HETATM   11  O   UNL     1     -12.113  12.145  65.934  1.00  0.00    -0.594 OA 
HETATM   12  C   UNL     1     -12.152  12.940  68.175  1.00  0.00    -0.136 C  
HETATM   13  O   UNL     1     -12.296  14.290  67.701  1.00  0.00    -0.598 OA 
HETATM   14  H   UNL     1     -12.320  13.021  65.630  1.00  0.00     0.000 HD 
HETATM   15  C   UNL     1     -11.482  12.886  69.570  1.00  0.00    -0.225 C  
HETATM   16  H   UNL     1     -12.804  14.778  68.338  1.00  0.00     0.000 HD 
BRANCH  15  17
HETATM   17  C   UNL     1     -12.219  13.802  70.575  1.00  0.00    -0.369 C  
HETATM   18  O   UNL     1     -11.305  14.663  71.263  1.00  0.00    -0.525 OA 
HETATM   19  H   UNL     1     -11.757  15.226  71.880  1.00  0.00     0.000 HD 
ENDBRANCH  15  17
ENDBRANCH   4   5
ENDBRANCH   2   4
TORSDOF 3
ENDMDL
MODEL       57
REMARK 921   NORMALIZED FREE ENERGY PREDICTED BY IDOCK:   -4.08 KCAL/MOL
REMARK 922        TOTAL FREE ENERGY PREDICTED BY IDOCK:   -5.14 KCAL/MOL
REMARK 923 INTER-LIGAND FREE ENERGY PREDICTED BY IDOCK:   -4.79 KCAL/MOL
REMARK 924 INTRA-LIGAND FREE ENERGY PREDICTED BY IDOCK:   -0.35 KCAL/MOL
REMARK 927      BINDING AFFINITY PREDICTED BY RF-SCORE:    0.00 PKD
ROOT
HETATM    1  O   UNL     1      -7.369  13.339  67.047  1.00  0.00    -0.363 OA 
HETATM    2  C   UNL     1      -7.126  14.674  67.485  1.00  0.00    -0.178 C  
HETATM    3  H   UNL     1      -6.783  12.749  67.507  1.00  0.00     0.000 HD 
ENDROOT
BRANCH   2   4
HETATM    4  C   UNL     1      -8.074  15.630  66.739  1.00  0.00    -0.244 C  
BRANCH   4   5
HETATM    5  N   UNL     1      -9.164  16.196  67.564  1.00  0.00    -0.207 NA 
HETATM    6  C   UNL     1      -8.697  17.231  68.507  1.00  0.00    -0.273 C  
HETATM    7  C   UNL     1      -8.199  18.521  67.830  1.00  0.00    -0.261 C  
HETATM    8  C   UNL     1      -9.287  19.092  66.907  1.00  0.00    -0.319 C  
HETATM    9  O   UNL     1      -7.853  19.507  68.808  1.00  0.00    -0.355 OA 
HETATM   10  H   UNL     1      -7.546  20.303  68.391  1.00  0.00     0.000 HD 
HETATM   11  O   UNL     1      -8.792  20.154  66.065  1.00  0.00    -0.551 OA 
HETATM   12  C   UNL     1      -9.858  18.030  65.964  1.00  0.00    -0.169 C  
HETATM   13  O   UNL     1     -10.959  18.609  65.243  1.00  0.00    -0.536 OA 
HETATM   14  H   UNL     1      -9.464  20.507  65.494  1.00  0.00     0.000 HD 
HETATM   15  C   UNL     1     -10.284  16.767  66.753  1.00  0.00    -0.304 C  
HETATM   16  H   UNL     1     -11.313  17.949  64.659  1.00  0.00     0.000 HD 
BRANCH  15  17
HETATM   17  C   UNL     1     -10.999  15.752  65.830  1.00  0.00    -0.214 C  
HETATM   18  O   UNL     1     -10.720  16.017  64.450  1.00  0.00    -0.819 OA 
HETATM   19  H   UNL     1     -11.159  15.394  63.883  1.00  0.00     0.000 HD 
ENDBRANCH  15  17
ENDBRANCH   4   5
ENDBRANCH   2   4
TORSDOF 3
ENDMDL
MODEL       58
REMARK 921   NORMALIZED FREE ENERGY PREDICTED BY IDOCK:   -4.07 KCAL/MOL
REMARK 922        TOTAL FREE ENERGY PREDICTED BY IDOCK:   -5.13 KCAL/MOL
REMARK 923 INTER-LIGAND FREE ENERGY PREDICTED BY IDOCK:   -4.66 KCAL/MOL
REMARK 924 INTRA-LIGAND FREE ENERGY PREDICTED BY IDOCK:   -0.47 KCAL/MOL
REMARK 927      BINDING AFFINITY PREDICTED BY RF-SCORE:    0.00 PKD
ROOT
HETATM    1  O   UNL     1     -10.609  11.194  69.938  1.00  0.00    -0.449 OA 
HETATM    2  C   UNL     1     -11.371  10.426  69.008  1.00  0.00    -0.219 C  
HETATM    3  H   UNL     1     -10.637  10.771  70.788  1.00  0.00     0.000 HD 
ENDROOT
BRANCH   2   4
HETATM    4  C   UNL     1     -11.327  11.111  67.631  1.00  0.00    -0.284 C  
BRANCH   4   5
HETATM    5  N   UNL     1      -9.975  11.495  67.169  1.00  0.00    -0.197 NA 
HETATM    6  C   UNL     1      -9.430  10.576  66.151  1.00  0.00    -0.180 C  
HETATM    7  C   UNL     1     -10.175  10.615  64.804  1.00  0.00    -0.331 C  
HETATM    8  C   UNL     1     -10.216  12.052  64.259  1.00  0.00    -0.318 C  
HETATM    9  O   UNL     1      -9.533   9.770  63.843  1.00  0.00    -0.392 OA 
HETATM   10  H   UNL     1      -9.993   9.794  63.013  1.00  0.00     0.000 HD 
HETATM   11  O   UNL     1     -11.108  12.187  63.133  1.00  0.00    -0.676 OA 
HETATM   12  C   UNL     1     -10.701  13.052  65.311  1.00  0.00    -0.299 C  
HETATM   13  O   UNL     1     -10.573  14.377  64.768  1.00  0.00    -0.442 OA 
HETATM   14  H   UNL     1     -11.134  13.075  62.797  1.00  0.00     0.000 HD 
HETATM   15  C   UNL     1      -9.908  12.890  66.631  1.00  0.00    -0.250 C  
HETATM   16  H   UNL     1     -10.873  14.998  65.422  1.00  0.00     0.000 HD 
BRANCH  15  17
HETATM   17  C   UNL     1     -10.286  13.995  67.645  1.00  0.00    -0.242 C  
HETATM   18  O   UNL     1      -9.552  13.854  68.867  1.00  0.00    -0.386 OA 
HETATM   19  H   UNL     1      -9.784  14.533  69.490  1.00  0.00     0.000 HD 
ENDBRANCH  15  17
ENDBRANCH   4   5
ENDBRANCH   2   4
TORSDOF 3
ENDMDL
MODEL       59
REMARK 921   NORMALIZED FREE ENERGY PREDICTED BY IDOCK:   -4.07 KCAL/MOL
REMARK 922        TOTAL FREE ENERGY PREDICTED BY IDOCK:   -5.13 KCAL/MOL
REMARK 923 INTER-LIGAND FREE ENERGY PREDICTED BY IDOCK:   -4.80 KCAL/MOL
REMARK 924 INTRA-LIGAND FREE ENERGY PREDICTED BY IDOCK:   -0.33 KCAL/MOL
REMARK 927      BINDING AFFINITY PREDICTED BY RF-SCORE:    0.00 PKD
ROOT
HETATM    1  O   UNL     1     -10.731  19.421  67.131  1.00  0.00    -0.455 OA 
HETATM    2  C   UNL     1     -10.038  18.405  66.408  1.00  0.00    -0.403 C  
HETATM    3  H   UNL     1     -10.350  20.266  66.923  1.00  0.00     0.000 HD 
ENDROOT
BRANCH   2   4
HETATM    4  C   UNL     1     -10.654  17.036  66.746  1.00  0.00    -0.191 C  
BRANCH   4   5
HETATM    5  N   UNL     1      -9.844  16.195  67.654  1.00  0.00    -0.234 NA 
HETATM    6  C   UNL     1     -10.003  16.559  69.075  1.00  0.00    -0.275 C  
HETATM    7  C   UNL     1     -11.403  16.269  69.647  1.00  0.00    -0.266 C  
HETATM    8  C   UNL     1     -11.771  14.792  69.430  1.00  0.00    -0.323 C  
HETATM    9  O   UNL     1     -11.450  16.561  71.047  1.00  0.00    -0.574 OA 
HETATM   10  H   UNL     1     -12.313  16.382  71.400  1.00  0.00     0.000 HD 
HETATM   11  O   UNL     1     -13.158  14.524  69.721  1.00  0.00    -0.451 OA 
HETATM   12  C   UNL     1     -11.543  14.349  67.983  1.00  0.00    -0.327 C  
HETATM   13  O   UNL     1     -11.773  12.932  67.902  1.00  0.00    -0.324 OA 
HETATM   14  H   UNL     1     -13.385  13.611  69.587  1.00  0.00     0.000 HD 
HETATM   15  C   UNL     1     -10.120  14.731  67.508  1.00  0.00    -0.224 C  
HETATM   16  H   UNL     1     -11.631  12.657  67.004  1.00  0.00     0.000 HD 
BRANCH  15  17
HETATM   17  C   UNL     1      -9.831  14.154  66.102  1.00  0.00    -0.308 C  
HETATM   18  O   UNL     1      -9.085  12.933  66.184  1.00  0.00    -0.441 OA 
HETATM   19  H   UNL     1      -8.908  12.578  65.321  1.00  0.00     0.000 HD 
ENDBRANCH  15  17
ENDBRANCH   4   5
ENDBRANCH   2   4
TORSDOF 3
ENDMDL
MODEL       60
REMARK 921   NORMALIZED FREE ENERGY PREDICTED BY IDOCK:   -4.06 KCAL/MOL
REMARK 922        TOTAL FREE ENERGY PREDICTED BY IDOCK:   -5.12 KCAL/MOL
REMARK 923 INTER-LIGAND FREE ENERGY PREDICTED BY IDOCK:   -4.93 KCAL/MOL
REMARK 924 INTRA-LIGAND FREE ENERGY PREDICTED BY IDOCK:   -0.19 KCAL/MOL
REMARK 927      BINDING AFFINITY PREDICTED BY RF-SCORE:    0.00 PKD
ROOT
HETATM    1  O   UNL     1     -12.348  14.016  63.328  1.00  0.00    -1.133 OA 
HETATM    2  C   UNL     1     -12.151  14.876  64.449  1.00  0.00    -0.401 C  
HETATM    3  H   UNL     1     -12.901  14.455  62.692  1.00  0.00     0.000 HD 
ENDROOT
BRANCH   2   4
HETATM    4  C   UNL     1     -11.256  14.166  65.479  1.00  0.00    -0.317 C  
BRANCH   4   5
HETATM    5  N   UNL     1     -11.621  14.405  66.893  1.00  0.00    -0.373 NA 
HETATM    6  C   UNL     1     -12.311  13.257  67.513  1.00  0.00     0.012 C  
HETATM    7  C   UNL     1     -11.425  12.010  67.689  1.00  0.00    -0.322 C  
HETATM    8  C   UNL     1     -10.159  12.365  68.486  1.00  0.00    -0.185 C  
HETATM    9  O   UNL     1     -12.135  10.976  68.379  1.00  0.00    -0.723 OA 
HETATM   10  H   UNL     1     -11.589  10.207  68.488  1.00  0.00     0.000 HD 
HETATM   11  O   UNL     1      -9.184  11.303  68.469  1.00  0.00    -0.175 OA 
HETATM   12  C   UNL     1      -9.455  13.602  67.924  1.00  0.00    -0.213 C  
HETATM   13  O   UNL     1      -8.372  13.946  68.806  1.00  0.00    -0.284 OA 
HETATM   14  H   UNL     1      -8.402  11.522  68.961  1.00  0.00     0.000 HD 
HETATM   15  C   UNL     1     -10.453  14.773  67.752  1.00  0.00    -0.254 C  
HETATM   16  H   UNL     1      -7.935  14.714  68.458  1.00  0.00     0.000 HD 
BRANCH  15  17
HETATM   17  C   UNL     1      -9.720  16.068  67.329  1.00  0.00    -0.232 C  
HETATM   18  O   UNL     1     -10.632  17.167  67.208  1.00  0.00    -0.325 OA 
HETATM   19  H   UNL     1     -10.182  17.962  66.948  1.00  0.00     0.000 HD 
ENDBRANCH  15  17
ENDBRANCH   4   5
ENDBRANCH   2   4
TORSDOF 3
ENDMDL
MODEL       61
REMARK 921   NORMALIZED FREE ENERGY PREDICTED BY IDOCK:   -4.05 KCAL/MOL
REMARK 922        TOTAL FREE ENERGY PREDICTED BY IDOCK:   -5.10 KCAL/MOL
REMARK 923 INTER-LIGAND FREE ENERGY PREDICTED BY IDOCK:   -4.64 KCAL/MOL
REMARK 924 INTRA-LIGAND FREE ENERGY PREDICTED BY IDOCK:   -0.46 KCAL/MOL
REMARK 927      BINDING AFFINITY PREDICTED BY RF-SCORE:    0.00 PKD
ROOT
HETATM    1  O   UNL     1      -9.165  19.691  68.398  1.00  0.00    -0.347 OA 
HETATM    2  C   UNL     1     -10.403  19.683  67.689  1.00  0.00    -0.451 C  
HETATM    3  H   UNL     1      -8.856  20.586  68.473  1.00  0.00     0.000 HD 
ENDROOT
BRANCH   2   4
HETATM    4  C   UNL     1     -10.905  18.232  67.567  1.00  0.00    -0.253 C  
BRANCH   4   5
HETATM    5  N   UNL     1     -10.026  17.214  68.183  1.00  0.00    -0.282 NA 
HETATM    6  C   UNL     1     -10.731  16.352  69.151  1.00  0.00    -0.317 C  
HETATM    7  C   UNL     1     -11.785  15.424  68.517  1.00  0.00    -0.338 C  
HETATM    8  C   UNL     1     -11.145  14.571  67.410  1.00  0.00    -0.314 C  
HETATM    9  O   UNL     1     -12.356  14.557  69.502  1.00  0.00    -0.469 OA 
HETATM   10  H   UNL     1     -13.006  13.985  69.111  1.00  0.00     0.000 HD 
HETATM   11  O   UNL     1     -12.127  13.869  66.621  1.00  0.00    -0.423 OA 
HETATM   12  C   UNL     1     -10.334  15.419  66.427  1.00  0.00    -0.296 C  
HETATM   13  O   UNL     1      -9.659  14.535  65.516  1.00  0.00    -0.520 OA 
HETATM   14  H   UNL     1     -11.732  13.342  65.937  1.00  0.00     0.000 HD 
HETATM   15  C   UNL     1      -9.342  16.339  67.181  1.00  0.00    -0.222 C  
HETATM   16  H   UNL     1      -9.155  15.061  64.906  1.00  0.00     0.000 HD 
BRANCH  15  17
HETATM   17  C   UNL     1      -8.417  17.085  66.192  1.00  0.00    -0.227 C  
HETATM   18  O   UNL     1      -7.446  17.879  66.885  1.00  0.00    -0.185 OA 
HETATM   19  H   UNL     1      -6.877  18.337  66.278  1.00  0.00     0.000 HD 
ENDBRANCH  15  17
ENDBRANCH   4   5
ENDBRANCH   2   4
TORSDOF 3
ENDMDL
MODEL       62
REMARK 921   NORMALIZED FREE ENERGY PREDICTED BY IDOCK:   -4.04 KCAL/MOL
REMARK 922        TOTAL FREE ENERGY PREDICTED BY IDOCK:   -5.09 KCAL/MOL
REMARK 923 INTER-LIGAND FREE ENERGY PREDICTED BY IDOCK:   -4.68 KCAL/MOL
REMARK 924 INTRA-LIGAND FREE ENERGY PREDICTED BY IDOCK:   -0.40 KCAL/MOL
REMARK 927      BINDING AFFINITY PREDICTED BY RF-SCORE:    0.00 PKD
ROOT
HETATM    1  O   UNL     1      -8.394   6.702  70.619  1.00  0.00    -0.126 OA 
HETATM    2  C   UNL     1      -8.824   6.426  71.950  1.00  0.00    -0.138 C  
HETATM    3  H   UNL     1      -7.602   6.209  70.439  1.00  0.00     0.000 HD 
ENDROOT
BRANCH   2   4
HETATM    4  C   UNL     1     -10.107   7.225  72.242  1.00  0.00    -0.189 C  
BRANCH   4   5
HETATM    5  N   UNL     1     -11.004   7.412  71.080  1.00  0.00    -0.247 NA 
HETATM    6  C   UNL     1     -12.243   6.617  71.173  1.00  0.00    -0.301 C  
HETATM    7  C   UNL     1     -13.195   7.064  72.298  1.00  0.00     0.177 C  
HETATM    8  C   UNL     1     -13.529   8.557  72.151  1.00  0.00    -0.358 C  
HETATM    9  O   UNL     1     -14.411   6.309  72.264  1.00  0.00    -0.596 OA 
HETATM   10  H   UNL     1     -14.998   6.585  72.959  1.00  0.00     0.000 HD 
HETATM   11  O   UNL     1     -14.211   9.084  73.308  1.00  0.00    -1.192 OA 
HETATM   12  C   UNL     1     -12.272   9.412  71.970  1.00  0.00    -0.326 C  
HETATM   13  O   UNL     1     -12.679  10.764  71.699  1.00  0.00    -0.411 OA 
HETATM   14  H   UNL     1     -14.417  10.006  73.217  1.00  0.00     0.000 HD 
HETATM   15  C   UNL     1     -11.376   8.842  70.843  1.00  0.00    -0.275 C  
HETATM   16  H   UNL     1     -11.899  11.294  71.586  1.00  0.00     0.000 HD 
BRANCH  15  17
HETATM   17  C   UNL     1     -10.184   9.783  70.553  1.00  0.00    -0.255 C  
HETATM   18  O   UNL     1     -10.620  11.003  69.941  1.00  0.00    -0.449 OA 
HETATM   19  H   UNL     1      -9.888  11.581  69.763  1.00  0.00     0.000 HD 
ENDBRANCH  15  17
ENDBRANCH   4   5
ENDBRANCH   2   4
TORSDOF 3
ENDMDL
MODEL       63
REMARK 921   NORMALIZED FREE ENERGY PREDICTED BY IDOCK:   -4.01 KCAL/MOL
REMARK 922        TOTAL FREE ENERGY PREDICTED BY IDOCK:   -5.06 KCAL/MOL
REMARK 923 INTER-LIGAND FREE ENERGY PREDICTED BY IDOCK:   -4.72 KCAL/MOL
REMARK 924 INTRA-LIGAND FREE ENERGY PREDICTED BY IDOCK:   -0.34 KCAL/MOL
REMARK 927      BINDING AFFINITY PREDICTED BY RF-SCORE:    0.00 PKD
ROOT
HETATM    1  O   UNL     1     -14.109   8.890  73.342  1.00  0.00    -1.256 OA 
HETATM    2  C   UNL     1     -12.928   8.554  72.616  1.00  0.00    -0.161 C  
HETATM    3  H   UNL     1     -14.233   8.259  74.042  1.00  0.00     0.000 HD 
ENDROOT
BRANCH   2   4
HETATM    4  C   UNL     1     -12.726   9.576  71.482  1.00  0.00    -0.372 C  
BRANCH   4   5
HETATM    5  N   UNL     1     -11.335  10.048  71.308  1.00  0.00    -0.330 NA 
HETATM    6  C   UNL     1     -10.367   8.946  71.146  1.00  0.00    -0.268 C  
HETATM    7  C   UNL     1     -10.529   8.153  69.836  1.00  0.00    -0.226 C  
HETATM    8  C   UNL     1     -10.464   9.102  68.628  1.00  0.00    -0.207 C  
HETATM    9  O   UNL     1      -9.500   7.166  69.709  1.00  0.00    -0.151 OA 
HETATM   10  H   UNL     1      -9.600   6.677  68.901  1.00  0.00     0.000 HD 
HETATM   11  O   UNL     1     -10.854   8.454  67.399  1.00  0.00    -0.479 OA 
HETATM   12  C   UNL     1     -11.396  10.305  68.792  1.00  0.00    -0.167 C  
HETATM   13  O   UNL     1     -11.168  11.206  67.694  1.00  0.00    -0.267 OA 
HETATM   14  H   UNL     1     -10.814   9.040  66.653  1.00  0.00     0.000 HD 
HETATM   15  C   UNL     1     -11.171  10.993  70.160  1.00  0.00    -0.183 C  
HETATM   16  H   UNL     1     -11.746  11.953  67.796  1.00  0.00     0.000 HD 
BRANCH  15  17
HETATM   17  C   UNL     1     -11.999  12.295  70.269  1.00  0.00    -0.290 C  
HETATM   18  O   UNL     1     -11.389  13.363  69.533  1.00  0.00    -0.365 OA 
HETATM   19  H   UNL     1     -11.897  14.163  69.600  1.00  0.00     0.000 HD 
ENDBRANCH  15  17
ENDBRANCH   4   5
ENDBRANCH   2   4
TORSDOF 3
ENDMDL
MODEL       64
REMARK 921   NORMALIZED FREE ENERGY PREDICTED BY IDOCK:   -4.00 KCAL/MOL
REMARK 922        TOTAL FREE ENERGY PREDICTED BY IDOCK:   -5.04 KCAL/MOL
REMARK 923 INTER-LIGAND FREE ENERGY PREDICTED BY IDOCK:   -4.61 KCAL/MOL
REMARK 924 INTRA-LIGAND FREE ENERGY PREDICTED BY IDOCK:   -0.43 KCAL/MOL
REMARK 927      BINDING AFFINITY PREDICTED BY RF-SCORE:    0.00 PKD
ROOT
HETATM    1  O   UNL     1      -9.716  14.990  67.796  1.00  0.00    -0.213 OA 
HETATM    2  C   UNL     1     -10.173  15.431  66.518  1.00  0.00    -0.280 C  
HETATM    3  H   UNL     1     -10.184  14.199  68.037  1.00  0.00     0.000 HD 
ENDROOT
BRANCH   2   4
HETATM    4  C   UNL     1      -9.416  16.713  66.127  1.00  0.00    -0.287 C  
BRANCH   4   5
HETATM    5  N   UNL     1      -8.545  17.271  67.184  1.00  0.00    -0.202 NA 
HETATM    6  C   UNL     1      -7.127  17.350  66.784  1.00  0.00    -0.209 C  
HETATM    7  C   UNL     1      -6.845  18.368  65.663  1.00  0.00    -0.243 C  
HETATM    8  C   UNL     1      -7.365  19.759  66.064  1.00  0.00    -0.307 C  
HETATM    9  O   UNL     1      -5.442  18.455  65.397  1.00  0.00    -0.160 OA 
HETATM   10  H   UNL     1      -5.267  19.082  64.705  1.00  0.00     0.000 HD 
HETATM   11  O   UNL     1      -7.351  20.689  64.963  1.00  0.00    -0.485 OA 
HETATM   12  C   UNL     1      -8.811  19.710  66.565  1.00  0.00    -0.364 C  
HETATM   13  O   UNL     1      -9.166  21.016  67.050  1.00  0.00    -0.646 OA 
HETATM   14  H   UNL     1      -7.671  21.548  65.210  1.00  0.00     0.000 HD 
HETATM   15  C   UNL     1      -8.979  18.623  67.655  1.00  0.00    -0.275 C  
HETATM   16  H   UNL     1     -10.063  20.986  67.360  1.00  0.00     0.000 HD 
BRANCH  15  17
HETATM   17  C   UNL     1     -10.397  18.672  68.271  1.00  0.00    -0.344 C  
HETATM   18  O   UNL     1     -10.514  19.731  69.228  1.00  0.00    -0.599 OA 
HETATM   19  H   UNL     1     -11.384  19.761  69.606  1.00  0.00     0.000 HD 
ENDBRANCH  15  17
ENDBRANCH   4   5
ENDBRANCH   2   4
TORSDOF 3
ENDMDL
MODEL       65
REMARK 921   NORMALIZED FREE ENERGY PREDICTED BY IDOCK:   -3.97 KCAL/MOL
REMARK 922        TOTAL FREE ENERGY PREDICTED BY IDOCK:   -5.01 KCAL/MOL
REMARK 923 INTER-LIGAND FREE ENERGY PREDICTED BY IDOCK:   -4.85 KCAL/MOL
REMARK 924 INTRA-LIGAND FREE ENERGY PREDICTED BY IDOCK:   -0.16 KCAL/MOL
REMARK 927      BINDING AFFINITY PREDICTED BY RF-SCORE:    0.00 PKD
ROOT
HETATM    1  O   UNL     1     -12.469  10.400  69.893  1.00  0.00    -0.519 OA 
HETATM    2  C   UNL     1     -12.009  11.749  69.951  1.00  0.00    -0.332 C  
HETATM    3  H   UNL     1     -12.810  10.151  70.744  1.00  0.00     0.000 HD 
ENDROOT
BRANCH   2   4
HETATM    4  C   UNL     1     -11.456  12.154  68.573  1.00  0.00    -0.300 C  
BRANCH   4   5
HETATM    5  N   UNL     1     -12.085  13.352  67.976  1.00  0.00    -0.313 NA 
HETATM    6  C   UNL     1     -12.062  14.524  68.872  1.00  0.00    -0.237 C  
HETATM    7  C   UNL     1     -10.653  15.086  69.137  1.00  0.00    -0.251 C  
HETATM    8  C   UNL     1      -9.953  15.416  67.808  1.00  0.00    -0.225 C  
HETATM    9  O   UNL     1     -10.721  16.272  69.935  1.00  0.00    -0.322 OA 
HETATM   10  H   UNL     1      -9.851  16.619  70.098  1.00  0.00     0.000 HD 
HETATM   11  O   UNL     1      -8.552  15.710  67.983  1.00  0.00    -0.154 OA 
HETATM   12  C   UNL     1     -10.025  14.253  66.816  1.00  0.00    -0.265 C  
HETATM   13  O   UNL     1      -9.478  14.693  65.562  1.00  0.00    -0.517 OA 
HETATM   14  H   UNL     1      -8.120  15.914  67.163  1.00  0.00     0.000 HD 
HETATM   15  C   UNL     1     -11.481  13.747  66.666  1.00  0.00    -0.345 C  
HETATM   16  H   UNL     1      -9.523  13.971  64.946  1.00  0.00     0.000 HD 
BRANCH  15  17
HETATM   17  C   UNL     1     -11.583  12.675  65.555  1.00  0.00    -0.370 C  
HETATM   18  O   UNL     1     -12.940  12.490  65.133  1.00  0.00    -0.700 OA 
HETATM   19  H   UNL     1     -13.003  11.832  64.451  1.00  0.00     0.000 HD 
ENDBRANCH  15  17
ENDBRANCH   4   5
ENDBRANCH   2   4
TORSDOF 3
ENDMDL
MODEL       66
REMARK 921   NORMALIZED FREE ENERGY PREDICTED BY IDOCK:   -3.97 KCAL/MOL
REMARK 922        TOTAL FREE ENERGY PREDICTED BY IDOCK:   -5.00 KCAL/MOL
REMARK 923 INTER-LIGAND FREE ENERGY PREDICTED BY IDOCK:   -4.61 KCAL/MOL
REMARK 924 INTRA-LIGAND FREE ENERGY PREDICTED BY IDOCK:   -0.40 KCAL/MOL
REMARK 927      BINDING AFFINITY PREDICTED BY RF-SCORE:    0.00 PKD
ROOT
HETATM    1  O   UNL     1      -9.250  11.096  69.446  1.00  0.00    -0.395 OA 
HETATM    2  C   UNL     1     -10.090  11.993  68.722  1.00  0.00    -0.099 C  
HETATM    3  H   UNL     1      -9.435  11.176  70.374  1.00  0.00     0.000 HD 
ENDROOT
BRANCH   2   4
HETATM    4  C   UNL     1      -9.790  11.863  67.218  1.00  0.00    -0.187 C  
BRANCH   4   5
HETATM    5  N   UNL     1     -10.837  11.175  66.430  1.00  0.00    -0.256 NA 
HETATM    6  C   UNL     1     -11.503  12.061  65.457  1.00  0.00    -0.313 C  
HETATM    7  C   UNL     1     -10.593  12.532  64.307  1.00  0.00    -0.369 C  
HETATM    8  C   UNL     1      -9.972  11.322  63.590  1.00  0.00    -0.359 C  
HETATM    9  O   UNL     1     -11.333  13.307  63.359  1.00  0.00    -0.597 OA 
HETATM   10  H   UNL     1     -10.771  13.598  62.650  1.00  0.00     0.000 HD 
HETATM   11  O   UNL     1      -8.927  11.704  62.672  1.00  0.00    -0.577 OA 
HETATM   12  C   UNL     1      -9.339  10.334  64.573  1.00  0.00    -0.276 C  
HETATM   13  O   UNL     1      -8.914   9.174  63.837  1.00  0.00    -0.412 OA 
HETATM   14  H   UNL     1      -8.544  10.957  62.229  1.00  0.00     0.000 HD 
HETATM   15  C   UNL     1     -10.332   9.969  65.703  1.00  0.00    -0.101 C  
HETATM   16  H   UNL     1      -8.521   8.561  64.447  1.00  0.00     0.000 HD 
BRANCH  15  17
HETATM   17  C   UNL     1      -9.754   8.858  66.611  1.00  0.00    -0.237 C  
HETATM   18  O   UNL     1      -9.924   7.563  66.023  1.00  0.00    -0.429 OA 
HETATM   19  H   UNL     1      -9.569   6.881  66.581  1.00  0.00     0.000 HD 
ENDBRANCH  15  17
ENDBRANCH   4   5
ENDBRANCH   2   4
TORSDOF 3
ENDMDL
MODEL       67
REMARK 921   NORMALIZED FREE ENERGY PREDICTED BY IDOCK:   -3.95 KCAL/MOL
REMARK 922        TOTAL FREE ENERGY PREDICTED BY IDOCK:   -4.98 KCAL/MOL
REMARK 923 INTER-LIGAND FREE ENERGY PREDICTED BY IDOCK:   -4.75 KCAL/MOL
REMARK 924 INTRA-LIGAND FREE ENERGY PREDICTED BY IDOCK:   -0.23 KCAL/MOL
REMARK 927      BINDING AFFINITY PREDICTED BY RF-SCORE:    0.00 PKD
ROOT
HETATM    1  O   UNL     1      -8.613  15.224  70.026  1.00  0.00    -0.318 OA 
HETATM    2  C   UNL     1      -9.692  15.353  69.103  1.00  0.00    -0.252 C  
HETATM    3  H   UNL     1      -8.460  16.062  70.446  1.00  0.00     0.000 HD 
ENDROOT
BRANCH   2   4
HETATM    4  C   UNL     1      -9.940  13.995  68.422  1.00  0.00    -0.236 C  
BRANCH   4   5
HETATM    5  N   UNL     1     -11.290  13.825  67.842  1.00  0.00    -0.283 NA 
HETATM    6  C   UNL     1     -11.387  14.307  66.451  1.00  0.00    -0.343 C  
HETATM    7  C   UNL     1     -10.573  13.478  65.440  1.00  0.00    -0.308 C  
HETATM    8  C   UNL     1     -10.975  11.996  65.520  1.00  0.00    -0.298 C  
HETATM    9  O   UNL     1     -10.791  13.948  64.106  1.00  0.00    -0.581 OA 
HETATM   10  H   UNL     1     -10.289  13.436  63.482  1.00  0.00     0.000 HD 
HETATM   11  O   UNL     1     -10.080  11.143  64.779  1.00  0.00    -0.253 OA 
HETATM   12  C   UNL     1     -10.968  11.476  66.960  1.00  0.00    -0.294 C  
HETATM   13  O   UNL     1     -11.490  10.136  66.960  1.00  0.00    -0.177 OA 
HETATM   14  H   UNL     1     -10.329  10.227  64.828  1.00  0.00     0.000 HD 
HETATM   15  C   UNL     1     -11.780  12.412  67.888  1.00  0.00    -0.360 C  
HETATM   16  H   UNL     1     -11.485   9.813  67.853  1.00  0.00     0.000 HD 
BRANCH  15  17
HETATM   17  C   UNL     1     -11.903  11.814  69.309  1.00  0.00    -0.326 C  
HETATM   18  O   UNL     1     -12.636  10.583  69.294  1.00  0.00    -0.726 OA 
HETATM   19  H   UNL     1     -12.711  10.215  70.166  1.00  0.00     0.000 HD 
ENDBRANCH  15  17
ENDBRANCH   4   5
ENDBRANCH   2   4
TORSDOF 3
ENDMDL
MODEL       68
REMARK 921   NORMALIZED FREE ENERGY PREDICTED BY IDOCK:   -3.94 KCAL/MOL
REMARK 922        TOTAL FREE ENERGY PREDICTED BY IDOCK:   -4.97 KCAL/MOL
REMARK 923 INTER-LIGAND FREE ENERGY PREDICTED BY IDOCK:   -4.53 KCAL/MOL
REMARK 924 INTRA-LIGAND FREE ENERGY PREDICTED BY IDOCK:   -0.44 KCAL/MOL
REMARK 927      BINDING AFFINITY PREDICTED BY RF-SCORE:    0.00 PKD
ROOT
HETATM    1  O   UNL     1      -9.156  10.604  64.899  1.00  0.00    -0.188 OA 
HETATM    2  C   UNL     1     -10.450  11.113  64.581  1.00  0.00    -0.335 C  
HETATM    3  H   UNL     1      -8.917   9.942  64.262  1.00  0.00     0.000 HD 
ENDROOT
BRANCH   2   4
HETATM    4  C   UNL     1     -10.839  12.186  65.614  1.00  0.00    -0.284 C  
BRANCH   4   5
HETATM    5  N   UNL     1      -9.809  12.467  66.639  1.00  0.00    -0.235 NA 
HETATM    6  C   UNL     1      -9.311  13.855  66.590  1.00  0.00    -0.268 C  
HETATM    7  C   UNL     1     -10.356  14.914  66.988  1.00  0.00    -0.264 C  
HETATM    8  C   UNL     1     -10.929  14.601  68.379  1.00  0.00    -0.251 C  
HETATM    9  O   UNL     1      -9.773  16.221  67.007  1.00  0.00    -0.231 OA 
HETATM   10  H   UNL     1     -10.418  16.874  67.252  1.00  0.00     0.000 HD 
HETATM   11  O   UNL     1     -12.080  15.411  68.695  1.00  0.00    -0.550 OA 
HETATM   12  C   UNL     1     -11.385  13.144  68.499  1.00  0.00    -0.286 C  
HETATM   13  O   UNL     1     -11.770  12.901  69.863  1.00  0.00    -0.417 OA 
HETATM   14  H   UNL     1     -12.434  15.217  69.555  1.00  0.00     0.000 HD 
HETATM   15  C   UNL     1     -10.268  12.178  68.033  1.00  0.00    -0.201 C  
HETATM   16  H   UNL     1     -12.053  11.997  69.937  1.00  0.00     0.000 HD 
BRANCH  15  17
HETATM   17  C   UNL     1     -10.665  10.706  68.293  1.00  0.00    -0.219 C  
HETATM   18  O   UNL     1     -12.088  10.549  68.333  1.00  0.00    -0.804 OA 
HETATM   19  H   UNL     1     -12.332   9.645  68.493  1.00  0.00     0.000 HD 
ENDBRANCH  15  17
ENDBRANCH   4   5
ENDBRANCH   2   4
TORSDOF 3
ENDMDL
MODEL       69
REMARK 921   NORMALIZED FREE ENERGY PREDICTED BY IDOCK:   -3.93 KCAL/MOL
REMARK 922        TOTAL FREE ENERGY PREDICTED BY IDOCK:   -4.96 KCAL/MOL
REMARK 923 INTER-LIGAND FREE ENERGY PREDICTED BY IDOCK:   -4.85 KCAL/MOL
REMARK 924 INTRA-LIGAND FREE ENERGY PREDICTED BY IDOCK:   -0.11 KCAL/MOL
REMARK 927      BINDING AFFINITY PREDICTED BY RF-SCORE:    0.00 PKD
ROOT
HETATM    1  O   UNL     1      -8.636   8.274  65.309  1.00  0.00    -0.206 OA 
HETATM    2  C   UNL     1      -9.387   9.115  66.183  1.00  0.00    -0.228 C  
HETATM    3  H   UNL     1      -8.428   7.465  65.760  1.00  0.00     0.000 HD 
ENDROOT
BRANCH   2   4
HETATM    4  C   UNL     1      -9.724  10.428  65.453  1.00  0.00    -0.265 C  
BRANCH   4   5
HETATM    5  N   UNL     1     -10.838  11.201  66.044  1.00  0.00    -0.212 NA 
HETATM    6  C   UNL     1     -10.554  11.671  67.413  1.00  0.00    -0.220 C  
HETATM    7  C   UNL     1      -9.441  12.732  67.497  1.00  0.00    -0.187 C  
HETATM    8  C   UNL     1      -9.770  13.923  66.582  1.00  0.00    -0.289 C  
HETATM    9  O   UNL     1      -9.289  13.203  68.840  1.00  0.00    -0.394 OA 
HETATM   10  H   UNL     1      -8.602  13.858  68.892  1.00  0.00     0.000 HD 
HETATM   11  O   UNL     1      -8.655  14.825  66.432  1.00  0.00    -0.451 OA 
HETATM   12  C   UNL     1     -10.151  13.474  65.169  1.00  0.00    -0.256 C  
HETATM   13  O   UNL     1     -10.580  14.629  64.428  1.00  0.00    -0.574 OA 
HETATM   14  H   UNL     1      -8.859  15.561  65.867  1.00  0.00     0.000 HD 
HETATM   15  C   UNL     1     -11.245  12.379  65.216  1.00  0.00    -0.318 C  
HETATM   16  H   UNL     1     -10.816  14.351  63.551  1.00  0.00     0.000 HD 
BRANCH  15  17
HETATM   17  C   UNL     1     -11.742  12.031  63.793  1.00  0.00    -0.481 C  
HETATM   18  O   UNL     1     -12.221  13.195  63.109  1.00  0.00    -0.766 OA 
HETATM   19  H   UNL     1     -12.526  12.982  62.235  1.00  0.00     0.000 HD 
ENDBRANCH  15  17
ENDBRANCH   4   5
ENDBRANCH   2   4
TORSDOF 3
ENDMDL
MODEL       70
REMARK 921   NORMALIZED FREE ENERGY PREDICTED BY IDOCK:   -3.93 KCAL/MOL
REMARK 922        TOTAL FREE ENERGY PREDICTED BY IDOCK:   -4.96 KCAL/MOL
REMARK 923 INTER-LIGAND FREE ENERGY PREDICTED BY IDOCK:   -4.61 KCAL/MOL
REMARK 924 INTRA-LIGAND FREE ENERGY PREDICTED BY IDOCK:   -0.35 KCAL/MOL
REMARK 927      BINDING AFFINITY PREDICTED BY RF-SCORE:    0.00 PKD
ROOT
HETATM    1  O   UNL     1      -9.132  10.418  69.476  1.00  0.00    -0.310 OA 
HETATM    2  C   UNL     1      -9.639  11.629  68.920  1.00  0.00     0.009 C  
HETATM    3  H   UNL     1      -9.272  10.424  70.415  1.00  0.00     0.000 HD 
ENDROOT
BRANCH   2   4
HETATM    4  C   UNL     1      -9.411  11.620  67.397  1.00  0.00    -0.167 C  
BRANCH   4   5
HETATM    5  N   UNL     1     -10.593  11.239  66.593  1.00  0.00    -0.252 NA 
HETATM    6  C   UNL     1     -11.758  12.112  66.828  1.00  0.00    -0.305 C  
HETATM    7  C   UNL     1     -11.573  13.558  66.332  1.00  0.00    -0.350 C  
HETATM    8  C   UNL     1     -11.193  13.565  64.842  1.00  0.00    -0.342 C  
HETATM    9  O   UNL     1     -12.774  14.315  66.510  1.00  0.00    -0.521 OA 
HETATM   10  H   UNL     1     -12.660  15.207  66.204  1.00  0.00     0.000 HD 
HETATM   11  O   UNL     1     -10.768  14.867  64.389  1.00  0.00    -0.594 OA 
HETATM   12  C   UNL     1     -10.037  12.608  64.539  1.00  0.00    -0.246 C  
HETATM   13  O   UNL     1      -9.844  12.569  63.115  1.00  0.00    -0.516 OA 
HETATM   14  H   UNL     1     -10.534  14.871  63.469  1.00  0.00     0.000 HD 
HETATM   15  C   UNL     1     -10.320  11.202  65.122  1.00  0.00    -0.293 C  
HETATM   16  H   UNL     1      -9.127  11.975  62.926  1.00  0.00     0.000 HD 
BRANCH  15  17
HETATM   17  C   UNL     1      -9.229  10.194  64.690  1.00  0.00    -0.252 C  
HETATM   18  O   UNL     1      -9.574   9.550  63.457  1.00  0.00    -0.467 OA 
HETATM   19  H   UNL     1      -8.904   8.931  63.192  1.00  0.00     0.000 HD 
ENDBRANCH  15  17
ENDBRANCH   4   5
ENDBRANCH   2   4
TORSDOF 3
ENDMDL
MODEL       71
REMARK 921   NORMALIZED FREE ENERGY PREDICTED BY IDOCK:   -3.92 KCAL/MOL
REMARK 922        TOTAL FREE ENERGY PREDICTED BY IDOCK:   -4.95 KCAL/MOL
REMARK 923 INTER-LIGAND FREE ENERGY PREDICTED BY IDOCK:   -4.69 KCAL/MOL
REMARK 924 INTRA-LIGAND FREE ENERGY PREDICTED BY IDOCK:   -0.26 KCAL/MOL
REMARK 927      BINDING AFFINITY PREDICTED BY RF-SCORE:    0.00 PKD
ROOT
HETATM    1  O   UNL     1     -11.041  13.517  69.860  1.00  0.00    -0.468 OA 
HETATM    2  C   UNL     1     -11.262  13.703  68.463  1.00  0.00    -0.280 C  
HETATM    3  H   UNL     1     -11.394  12.675  70.121  1.00  0.00     0.000 HD 
ENDROOT
BRANCH   2   4
HETATM    4  C   UNL     1     -10.691  15.068  68.039  1.00  0.00    -0.262 C  
BRANCH   4   5
HETATM    5  N   UNL     1      -9.736  15.021  66.910  1.00  0.00    -0.231 NA 
HETATM    6  C   UNL     1     -10.400  14.998  65.592  1.00  0.00    -0.353 C  
HETATM    7  C   UNL     1     -11.143  16.299  65.238  1.00  0.00    -0.151 C  
HETATM    8  C   UNL     1     -10.188  17.500  65.334  1.00  0.00     0.233 C  
HETATM    9  O   UNL     1     -11.679  16.234  63.913  1.00  0.00    -1.441 OA 
HETATM   10  H   UNL     1     -12.138  17.037  63.694  1.00  0.00     0.000 HD 
HETATM   11  O   UNL     1     -10.883  18.762  65.255  1.00  0.00    -0.576 OA 
HETATM   12  C   UNL     1      -9.417  17.518  66.656  1.00  0.00    -0.275 C  
HETATM   13  O   UNL     1      -8.451  18.582  66.601  1.00  0.00    -0.261 OA 
HETATM   14  H   UNL     1     -10.293  19.504  65.314  1.00  0.00     0.000 HD 
HETATM   15  C   UNL     1      -8.750  16.146  66.922  1.00  0.00    -0.223 C  
HETATM   16  H   UNL     1      -7.972  18.593  67.422  1.00  0.00     0.000 HD 
BRANCH  15  17
HETATM   17  C   UNL     1      -7.847  16.204  68.176  1.00  0.00    -0.146 C  
HETATM   18  O   UNL     1      -8.070  17.405  68.925  1.00  0.00    -0.260 OA 
HETATM   19  H   UNL     1      -7.516  17.440  69.695  1.00  0.00     0.000 HD 
ENDBRANCH  15  17
ENDBRANCH   4   5
ENDBRANCH   2   4
TORSDOF 3
ENDMDL
MODEL       72
REMARK 921   NORMALIZED FREE ENERGY PREDICTED BY IDOCK:   -3.88 KCAL/MOL
REMARK 922        TOTAL FREE ENERGY PREDICTED BY IDOCK:   -4.90 KCAL/MOL
REMARK 923 INTER-LIGAND FREE ENERGY PREDICTED BY IDOCK:   -4.63 KCAL/MOL
REMARK 924 INTRA-LIGAND FREE ENERGY PREDICTED BY IDOCK:   -0.27 KCAL/MOL
REMARK 927      BINDING AFFINITY PREDICTED BY RF-SCORE:    0.00 PKD
ROOT
HETATM    1  O   UNL     1      -6.382  15.749  69.033  1.00  0.00    -0.116 OA 
HETATM    2  C   UNL     1      -6.303  16.210  67.685  1.00  0.00    -0.156 C  
HETATM    3  H   UNL     1      -5.984  14.889  69.092  1.00  0.00     0.000 HD 
ENDROOT
BRANCH   2   4
HETATM    4  C   UNL     1      -6.949  17.603  67.589  1.00  0.00    -0.176 C  
BRANCH   4   5
HETATM    5  N   UNL     1      -8.127  17.684  66.699  1.00  0.00    -0.239 NA 
HETATM    6  C   UNL     1      -9.319  17.015  67.256  1.00  0.00    -0.237 C  
HETATM    7  C   UNL     1      -9.901  17.702  68.505  1.00  0.00    -0.346 C  
HETATM    8  C   UNL     1     -10.208  19.179  68.206  1.00  0.00    -0.401 C  
HETATM    9  O   UNL     1     -11.103  17.052  68.929  1.00  0.00    -0.234 OA 
HETATM   10  H   UNL     1     -11.462  17.476  69.700  1.00  0.00     0.000 HD 
HETATM   11  O   UNL     1     -10.520  19.927  69.399  1.00  0.00    -0.610 OA 
HETATM   12  C   UNL     1      -9.023  19.892  67.551  1.00  0.00    -0.339 C  
HETATM   13  O   UNL     1      -9.441  21.216  67.178  1.00  0.00    -0.681 OA 
HETATM   14  H   UNL     1     -10.710  20.839  69.215  1.00  0.00     0.000 HD 
HETATM   15  C   UNL     1      -8.500  19.087  66.336  1.00  0.00    -0.306 C  
HETATM   16  H   UNL     1      -8.705  21.658  66.771  1.00  0.00     0.000 HD 
BRANCH  15  17
HETATM   17  C   UNL     1      -7.403  19.875  65.580  1.00  0.00    -0.296 C  
HETATM   18  O   UNL     1      -6.985  21.027  66.321  1.00  0.00    -0.499 OA 
HETATM   19  H   UNL     1      -6.312  21.511  65.858  1.00  0.00     0.000 HD 
ENDBRANCH  15  17
ENDBRANCH   4   5
ENDBRANCH   2   4
TORSDOF 3
ENDMDL
MODEL       73
REMARK 921   NORMALIZED FREE ENERGY PREDICTED BY IDOCK:   -3.85 KCAL/MOL
REMARK 922        TOTAL FREE ENERGY PREDICTED BY IDOCK:   -4.87 KCAL/MOL
REMARK 923 INTER-LIGAND FREE ENERGY PREDICTED BY IDOCK:   -4.53 KCAL/MOL
REMARK 924 INTRA-LIGAND FREE ENERGY PREDICTED BY IDOCK:   -0.35 KCAL/MOL
REMARK 927      BINDING AFFINITY PREDICTED BY RF-SCORE:    0.00 PKD
ROOT
HETATM    1  O   UNL     1     -12.763  16.020  70.004  1.00  0.00    -0.573 OA 
HETATM    2  C   UNL     1     -11.379  15.984  69.663  1.00  0.00    -0.332 C  
HETATM    3  H   UNL     1     -12.856  16.338  70.894  1.00  0.00     0.000 HD 
ENDROOT
BRANCH   2   4
HETATM    4  C   UNL     1     -11.227  15.468  68.221  1.00  0.00    -0.343 C  
BRANCH   4   5
HETATM    5  N   UNL     1     -11.586  14.047  68.025  1.00  0.00    -0.317 NA 
HETATM    6  C   UNL     1     -12.600  13.846  66.973  1.00  0.00     0.089 C  
HETATM    7  C   UNL     1     -12.108  14.179  65.552  1.00  0.00    -0.414 C  
HETATM    8  C   UNL     1     -10.837  13.376  65.228  1.00  0.00    -0.309 C  
HETATM    9  O   UNL     1     -13.113  13.871  64.581  1.00  0.00    -0.527 OA 
HETATM   10  H   UNL     1     -12.809  14.076  63.704  1.00  0.00     0.000 HD 
HETATM   11  O   UNL     1     -10.196  13.827  64.017  1.00  0.00    -0.652 OA 
HETATM   12  C   UNL     1      -9.786  13.491  66.336  1.00  0.00    -0.295 C  
HETATM   13  O   UNL     1      -8.700  12.603  66.022  1.00  0.00    -0.389 OA 
HETATM   14  H   UNL     1      -9.411  13.331  63.817  1.00  0.00     0.000 HD 
HETATM   15  C   UNL     1     -10.408  13.176  67.718  1.00  0.00    -0.230 C  
HETATM   16  H   UNL     1      -8.048  12.675  66.710  1.00  0.00     0.000 HD 
BRANCH  15  17
HETATM   17  C   UNL     1      -9.323  13.142  68.819  1.00  0.00     0.130 C  
HETATM   18  O   UNL     1      -8.694  11.856  68.892  1.00  0.00    -0.364 OA 
HETATM   19  H   UNL     1      -8.028  11.835  69.568  1.00  0.00     0.000 HD 
ENDBRANCH  15  17
ENDBRANCH   4   5
ENDBRANCH   2   4
TORSDOF 3
ENDMDL
MODEL       74
REMARK 921   NORMALIZED FREE ENERGY PREDICTED BY IDOCK:   -3.84 KCAL/MOL
REMARK 922        TOTAL FREE ENERGY PREDICTED BY IDOCK:   -4.85 KCAL/MOL
REMARK 923 INTER-LIGAND FREE ENERGY PREDICTED BY IDOCK:   -4.57 KCAL/MOL
REMARK 924 INTRA-LIGAND FREE ENERGY PREDICTED BY IDOCK:   -0.28 KCAL/MOL
REMARK 927      BINDING AFFINITY PREDICTED BY RF-SCORE:    0.00 PKD
ROOT
HETATM    1  O   UNL     1     -11.711  16.628  63.790  1.00  0.00    -1.431 OA 
HETATM    2  C   UNL     1     -10.699  16.790  64.783  1.00  0.00     0.138 C  
HETATM    3  H   UNL     1     -12.025  17.483  63.523  1.00  0.00     0.000 HD 
ENDROOT
BRANCH   2   4
HETATM    4  C   UNL     1     -10.190  15.403  65.216  1.00  0.00    -0.357 C  
BRANCH   4   5
HETATM    5  N   UNL     1     -11.206  14.538  65.854  1.00  0.00    -0.326 NA 
HETATM    6  C   UNL     1     -11.202  13.159  65.329  1.00  0.00    -0.291 C  
HETATM    7  C   UNL     1      -9.934  12.356  65.676  1.00  0.00    -0.244 C  
HETATM    8  C   UNL     1      -9.708  12.348  67.197  1.00  0.00    -0.207 C  
HETATM    9  O   UNL     1     -10.046  11.006  65.215  1.00  0.00    -0.245 OA 
HETATM   10  H   UNL     1      -9.264  10.511  65.428  1.00  0.00     0.000 HD 
HETATM   11  O   UNL     1      -8.413  11.827  67.557  1.00  0.00    -0.141 OA 
HETATM   12  C   UNL     1      -9.785  13.755  67.796  1.00  0.00    -0.230 C  
HETATM   13  O   UNL     1      -9.707  13.641  69.227  1.00  0.00    -0.360 OA 
HETATM   14  H   UNL     1      -8.273  11.822  68.496  1.00  0.00     0.000 HD 
HETATM   15  C   UNL     1     -11.079  14.476  67.344  1.00  0.00    -0.314 C  
HETATM   16  H   UNL     1      -9.755  14.514  69.600  1.00  0.00     0.000 HD 
BRANCH  15  17
HETATM   17  C   UNL     1     -11.236  15.835  68.065  1.00  0.00    -0.338 C  
HETATM   18  O   UNL     1      -9.962  16.402  68.393  1.00  0.00    -0.225 OA 
HETATM   19  H   UNL     1     -10.059  17.237  68.836  1.00  0.00     0.000 HD 
ENDBRANCH  15  17
ENDBRANCH   4   5
ENDBRANCH   2   4
TORSDOF 3
ENDMDL
MODEL       75
REMARK 921   NORMALIZED FREE ENERGY PREDICTED BY IDOCK:   -3.82 KCAL/MOL
REMARK 922        TOTAL FREE ENERGY PREDICTED BY IDOCK:   -4.83 KCAL/MOL
REMARK 923 INTER-LIGAND FREE ENERGY PREDICTED BY IDOCK:   -5.25 KCAL/MOL
REMARK 924 INTRA-LIGAND FREE ENERGY PREDICTED BY IDOCK:    0.42 KCAL/MOL
REMARK 927      BINDING AFFINITY PREDICTED BY RF-SCORE:    0.00 PKD
ROOT
HETATM    1  O   UNL     1     -10.747  18.569  68.346  1.00  0.00    -0.324 OA 
HETATM    2  C   UNL     1      -9.894  17.455  68.604  1.00  0.00    -0.322 C  
HETATM    3  H   UNL     1     -10.317  19.364  68.637  1.00  0.00     0.000 HD 
ENDROOT
BRANCH   2   4
HETATM    4  C   UNL     1     -10.591  16.166  68.132  1.00  0.00    -0.290 C  
BRANCH   4   5
HETATM    5  N   UNL     1      -9.858  15.402  67.099  1.00  0.00    -0.220 NA 
HETATM    6  C   UNL     1     -10.292  13.995  67.004  1.00  0.00    -0.267 C  
HETATM    7  C   UNL     1     -11.728  13.814  66.477  1.00  0.00    -0.385 C  
HETATM    8  C   UNL     1     -11.890  14.516  65.119  1.00  0.00    -0.374 C  
HETATM    9  O   UNL     1     -12.042  12.426  66.325  1.00  0.00    -0.612 OA 
HETATM   10  H   UNL     1     -12.928  12.314  66.000  1.00  0.00     0.000 HD 
HETATM   11  O   UNL     1     -13.268  14.590  64.700  1.00  0.00    -0.234 OA 
HETATM   12  C   UNL     1     -11.375  15.957  65.152  1.00  0.00    -0.118 C  
HETATM   13  O   UNL     1     -11.430  16.488  63.817  1.00  0.00    -1.615 OA 
HETATM   14  H   UNL     1     -13.368  15.024  63.861  1.00  0.00     0.000 HD 
HETATM   15  C   UNL     1      -9.942  16.016  65.738  1.00  0.00    -0.351 C  
HETATM   16  H   UNL     1     -11.110  17.382  63.837  1.00  0.00     0.000 HD 
BRANCH  15  17
HETATM   17  C   UNL     1      -9.360  17.445  65.633  1.00  0.00     0.391 C  
HETATM   18  O   UNL     1      -7.942  17.446  65.841  1.00  0.00    -0.525 OA 
HETATM   19  H   UNL     1      -7.584  18.323  65.777  1.00  0.00     0.000 HD 
ENDBRANCH  15  17
ENDBRANCH   4   5
ENDBRANCH   2   4
TORSDOF 3
ENDMDL
MODEL       76
REMARK 921   NORMALIZED FREE ENERGY PREDICTED BY IDOCK:   -3.82 KCAL/MOL
REMARK 922        TOTAL FREE ENERGY PREDICTED BY IDOCK:   -4.83 KCAL/MOL
REMARK 923 INTER-LIGAND FREE ENERGY PREDICTED BY IDOCK:   -4.75 KCAL/MOL
REMARK 924 INTRA-LIGAND FREE ENERGY PREDICTED BY IDOCK:   -0.08 KCAL/MOL
REMARK 927      BINDING AFFINITY PREDICTED BY RF-SCORE:    0.00 PKD
ROOT
HETATM    1  O   UNL     1      -6.954  15.645  69.510  1.00  0.00    -0.179 OA 
HETATM    2  C   UNL     1      -8.089  16.446  69.188  1.00  0.00    -0.198 C  
HETATM    3  H   UNL     1      -6.204  16.210  69.653  1.00  0.00     0.000 HD 
ENDROOT
BRANCH   2   4
HETATM    4  C   UNL     1      -9.304  15.531  68.956  1.00  0.00    -0.235 C  
BRANCH   4   5
HETATM    5  N   UNL     1     -10.583  16.237  68.723  1.00  0.00    -0.278 NA 
HETATM    6  C   UNL     1     -10.440  17.416  67.846  1.00  0.00    -0.383 C  
HETATM    7  C   UNL     1     -10.072  17.076  66.390  1.00  0.00    -0.317 C  
HETATM    8  C   UNL     1     -11.093  16.091  65.798  1.00  0.00    -0.032 C  
HETATM    9  O   UNL     1     -10.043  18.258  65.584  1.00  0.00    -0.532 OA 
HETATM   10  H   UNL     1      -9.816  18.049  64.686  1.00  0.00     0.000 HD 
HETATM   11  O   UNL     1     -10.665  15.550  64.532  1.00  0.00    -0.648 OA 
HETATM   12  C   UNL     1     -11.333  14.890  66.717  1.00  0.00    -0.328 C  
HETATM   13  O   UNL     1     -12.398  14.101  66.161  1.00  0.00    -0.450 OA 
HETATM   14  H   UNL     1     -11.297  14.942  64.166  1.00  0.00     0.000 HD 
HETATM   15  C   UNL     1     -11.652  15.356  68.159  1.00  0.00    -0.319 C  
HETATM   16  H   UNL     1     -12.547  13.356  66.731  1.00  0.00     0.000 HD 
BRANCH  15  17
HETATM   17  C   UNL     1     -12.043  14.157  69.055  1.00  0.00    -0.313 C  
HETATM   18  O   UNL     1     -12.914  14.563  70.117  1.00  0.00    -0.542 OA 
HETATM   19  H   UNL     1     -13.155  13.827  70.667  1.00  0.00     0.000 HD 
ENDBRANCH  15  17
ENDBRANCH   4   5
ENDBRANCH   2   4
TORSDOF 3
ENDMDL
MODEL       77
REMARK 921   NORMALIZED FREE ENERGY PREDICTED BY IDOCK:   -3.81 KCAL/MOL
REMARK 922        TOTAL FREE ENERGY PREDICTED BY IDOCK:   -4.82 KCAL/MOL
REMARK 923 INTER-LIGAND FREE ENERGY PREDICTED BY IDOCK:   -4.49 KCAL/MOL
REMARK 924 INTRA-LIGAND FREE ENERGY PREDICTED BY IDOCK:   -0.33 KCAL/MOL
REMARK 927      BINDING AFFINITY PREDICTED BY RF-SCORE:    0.00 PKD
ROOT
HETATM    1  O   UNL     1      -7.541  12.847  66.896  1.00  0.00    -0.390 OA 
HETATM    2  C   UNL     1      -7.789  14.178  67.344  1.00  0.00    -0.177 C  
HETATM    3  H   UNL     1      -6.770  12.844  66.341  1.00  0.00     0.000 HD 
ENDROOT
BRANCH   2   4
HETATM    4  C   UNL     1      -9.037  14.183  68.244  1.00  0.00    -0.190 C  
BRANCH   4   5
HETATM    5  N   UNL     1     -10.328  14.163  67.522  1.00  0.00    -0.247 NA 
HETATM    6  C   UNL     1     -10.894  12.807  67.387  1.00  0.00    -0.240 C  
HETATM    7  C   UNL     1     -11.342  12.176  68.719  1.00  0.00    -0.288 C  
HETATM    8  C   UNL     1     -12.338  13.101  69.437  1.00  0.00    -0.003 C  
HETATM    9  O   UNL     1     -11.963  10.907  68.496  1.00  0.00    -0.670 OA 
HETATM   10  H   UNL     1     -12.239  10.517  69.317  1.00  0.00     0.000 HD 
HETATM   11  O   UNL     1     -12.599  12.681  70.792  1.00  0.00    -0.306 OA 
HETATM   12  C   UNL     1     -11.824  14.541  69.527  1.00  0.00    -0.329 C  
HETATM   13  O   UNL     1     -12.869  15.360  70.079  1.00  0.00    -0.629 OA 
HETATM   14  H   UNL     1     -13.214  13.252  71.236  1.00  0.00     0.000 HD 
HETATM   15  C   UNL     1     -11.365  15.049  68.138  1.00  0.00    -0.330 C  
HETATM   16  H   UNL     1     -12.550  16.253  70.135  1.00  0.00     0.000 HD 
BRANCH  15  17
HETATM   17  C   UNL     1     -10.988  16.548  68.193  1.00  0.00    -0.336 C  
HETATM   18  O   UNL     1     -10.779  16.983  69.542  1.00  0.00    -0.353 OA 
HETATM   19  H   UNL     1     -10.548  17.904  69.576  1.00  0.00     0.000 HD 
ENDBRANCH  15  17
ENDBRANCH   4   5
ENDBRANCH   2   4
TORSDOF 3
ENDMDL
MODEL       78
REMARK 921   NORMALIZED FREE ENERGY PREDICTED BY IDOCK:   -3.81 KCAL/MOL
REMARK 922        TOTAL FREE ENERGY PREDICTED BY IDOCK:   -4.82 KCAL/MOL
REMARK 923 INTER-LIGAND FREE ENERGY PREDICTED BY IDOCK:   -4.61 KCAL/MOL
REMARK 924 INTRA-LIGAND FREE ENERGY PREDICTED BY IDOCK:   -0.21 KCAL/MOL
REMARK 927      BINDING AFFINITY PREDICTED BY RF-SCORE:    0.00 PKD
ROOT
HETATM    1  O   UNL     1      -9.001  15.644  67.754  1.00  0.00    -0.175 OA 
HETATM    2  C   UNL     1      -9.475  14.453  68.378  1.00  0.00    -0.207 C  
HETATM    3  H   UNL     1      -8.381  15.413  67.073  1.00  0.00     0.000 HD 
ENDROOT
BRANCH   2   4
HETATM    4  C   UNL     1     -10.481  14.827  69.482  1.00  0.00    -0.152 C  
BRANCH   4   5
HETATM    5  N   UNL     1     -11.897  14.553  69.155  1.00  0.00    -0.309 NA 
HETATM    6  C   UNL     1     -12.075  13.348  68.321  1.00  0.00    -0.236 C  
HETATM    7  C   UNL     1     -11.723  12.030  69.036  1.00  0.00    -0.325 C  
HETATM    8  C   UNL     1     -12.527  11.901  70.340  1.00  0.00    -0.170 C  
HETATM    9  O   UNL     1     -12.009  10.906  68.198  1.00  0.00    -0.744 OA 
HETATM   10  H   UNL     1     -11.792  10.093  68.639  1.00  0.00     0.000 HD 
HETATM   11  O   UNL     1     -12.061  10.815  71.167  1.00  0.00    -0.341 OA 
HETATM   12  C   UNL     1     -12.436  13.164  71.200  1.00  0.00    -0.287 C  
HETATM   13  O   UNL     1     -13.325  13.014  72.320  1.00  0.00    -0.517 OA 
HETATM   14  H   UNL     1     -12.558  10.735  71.973  1.00  0.00     0.000 HD 
HETATM   15  C   UNL     1     -12.769  14.424  70.363  1.00  0.00    -0.304 C  
HETATM   16  H   UNL     1     -13.268  13.798  72.854  1.00  0.00     0.000 HD 
BRANCH  15  17
HETATM   17  C   UNL     1     -12.827  15.684  71.259  1.00  0.00    -0.487 C  
HETATM   18  O   UNL     1     -12.061  15.508  72.457  1.00  0.00    -0.358 OA 
HETATM   19  H   UNL     1     -12.097  16.281  73.006  1.00  0.00     0.000 HD 
ENDBRANCH  15  17
ENDBRANCH   4   5
ENDBRANCH   2   4
TORSDOF 3
ENDMDL
MODEL       79
REMARK 921   NORMALIZED FREE ENERGY PREDICTED BY IDOCK:   -3.77 KCAL/MOL
REMARK 922        TOTAL FREE ENERGY PREDICTED BY IDOCK:   -4.77 KCAL/MOL
REMARK 923 INTER-LIGAND FREE ENERGY PREDICTED BY IDOCK:   -4.28 KCAL/MOL
REMARK 924 INTRA-LIGAND FREE ENERGY PREDICTED BY IDOCK:   -0.49 KCAL/MOL
REMARK 927      BINDING AFFINITY PREDICTED BY RF-SCORE:    0.00 PKD
ROOT
HETATM    1  O   UNL     1      -9.171  13.753  67.681  1.00  0.00    -0.192 OA 
HETATM    2  C   UNL     1      -9.996  14.213  66.613  1.00  0.00    -0.277 C  
HETATM    3  H   UNL     1      -9.304  12.819  67.797  1.00  0.00     0.000 HD 
ENDROOT
BRANCH   2   4
HETATM    4  C   UNL     1      -9.781  15.726  66.425  1.00  0.00    -0.282 C  
BRANCH   4   5
HETATM    5  N   UNL     1      -8.808  16.338  67.356  1.00  0.00    -0.185 NA 
HETATM    6  C   UNL     1      -7.687  17.002  66.664  1.00  0.00    -0.267 C  
HETATM    7  C   UNL     1      -8.092  18.255  65.866  1.00  0.00     0.044 C  
HETATM    8  C   UNL     1      -8.824  19.254  66.777  1.00  0.00    -0.317 C  
HETATM    9  O   UNL     1      -6.941  18.894  65.304  1.00  0.00    -0.494 OA 
HETATM   10  H   UNL     1      -7.192  19.667  64.811  1.00  0.00     0.000 HD 
HETATM   11  O   UNL     1      -9.440  20.326  66.035  1.00  0.00    -0.609 OA 
HETATM   12  C   UNL     1      -9.946  18.587  67.577  1.00  0.00    -0.332 C  
HETATM   13  O   UNL     1     -10.478  19.552  68.501  1.00  0.00    -0.476 OA 
HETATM   14  H   UNL     1      -9.892  20.943  66.598  1.00  0.00     0.000 HD 
HETATM   15  C   UNL     1      -9.429  17.319  68.299  1.00  0.00    -0.283 C  
HETATM   16  H   UNL     1     -11.175  19.138  68.997  1.00  0.00     0.000 HD 
BRANCH  15  17
HETATM   17  C   UNL     1     -10.516  16.728  69.227  1.00  0.00    -0.331 C  
HETATM   18  O   UNL     1     -10.033  15.574  69.926  1.00  0.00    -0.281 OA 
HETATM   19  H   UNL     1     -10.701  15.211  70.496  1.00  0.00     0.000 HD 
ENDBRANCH  15  17
ENDBRANCH   4   5
ENDBRANCH   2   4
TORSDOF 3
ENDMDL
MODEL       80
REMARK 921   NORMALIZED FREE ENERGY PREDICTED BY IDOCK:   -3.73 KCAL/MOL
REMARK 922        TOTAL FREE ENERGY PREDICTED BY IDOCK:   -4.73 KCAL/MOL
REMARK 923 INTER-LIGAND FREE ENERGY PREDICTED BY IDOCK:   -4.34 KCAL/MOL
REMARK 924 INTRA-LIGAND FREE ENERGY PREDICTED BY IDOCK:   -0.39 KCAL/MOL
REMARK 927      BINDING AFFINITY PREDICTED BY RF-SCORE:    0.00 PKD
ROOT
HETATM    1  O   UNL     1     -10.650  11.458  64.852  1.00  0.00    -0.289 OA 
HETATM    2  C   UNL     1     -11.555  12.553  64.727  1.00  0.00    -0.337 C  
HETATM    3  H   UNL     1     -11.086  10.660  64.577  1.00  0.00     0.000 HD 
ENDROOT
BRANCH   2   4
HETATM    4  C   UNL     1     -10.848  13.845  65.173  1.00  0.00    -0.358 C  
BRANCH   4   5
HETATM    5  N   UNL     1     -11.550  14.608  66.229  1.00  0.00    -0.363 NA 
HETATM    6  C   UNL     1     -11.901  13.783  67.401  1.00  0.00    -0.396 C  
HETATM    7  C   UNL     1     -10.688  13.291  68.211  1.00  0.00    -0.252 C  
HETATM    8  C   UNL     1      -9.816  14.482  68.640  1.00  0.00    -0.232 C  
HETATM    9  O   UNL     1     -11.112  12.580  69.379  1.00  0.00    -0.415 OA 
HETATM   10  H   UNL     1     -10.363  12.276  69.879  1.00  0.00     0.000 HD 
HETATM   11  O   UNL     1      -8.546  14.066  69.184  1.00  0.00    -0.364 OA 
HETATM   12  C   UNL     1      -9.494  15.411  67.466  1.00  0.00    -0.205 C  
HETATM   13  O   UNL     1      -8.803  16.563  67.977  1.00  0.00    -0.191 OA 
HETATM   14  H   UNL     1      -8.007  14.801  69.449  1.00  0.00     0.000 HD 
HETATM   15  C   UNL     1     -10.784  15.802  66.704  1.00  0.00    -0.287 C  
HETATM   16  H   UNL     1      -8.603  17.139  67.249  1.00  0.00     0.000 HD 
BRANCH  15  17
HETATM   17  C   UNL     1     -10.485  16.857  65.614  1.00  0.00    -0.238 C  
HETATM   18  O   UNL     1     -10.491  18.183  66.157  1.00  0.00    -0.410 OA 
HETATM   19  H   UNL     1     -10.307  18.832  65.488  1.00  0.00     0.000 HD 
ENDBRANCH  15  17
ENDBRANCH   4   5
ENDBRANCH   2   4
TORSDOF 3
ENDMDL
MODEL       81
REMARK 921   NORMALIZED FREE ENERGY PREDICTED BY IDOCK:   -3.72 KCAL/MOL
REMARK 922        TOTAL FREE ENERGY PREDICTED BY IDOCK:   -4.72 KCAL/MOL
REMARK 923 INTER-LIGAND FREE ENERGY PREDICTED BY IDOCK:   -4.52 KCAL/MOL
REMARK 924 INTRA-LIGAND FREE ENERGY PREDICTED BY IDOCK:   -0.20 KCAL/MOL
REMARK 927      BINDING AFFINITY PREDICTED BY RF-SCORE:    0.00 PKD
ROOT
HETATM    1  O   UNL     1      -8.205  10.794  64.307  1.00  0.00    -0.356 OA 
HETATM    2  C   UNL     1      -8.789  10.304  65.512  1.00  0.00    -0.172 C  
HETATM    3  H   UNL     1      -7.576  10.160  63.985  1.00  0.00     0.000 HD 
ENDROOT
BRANCH   2   4
HETATM    4  C   UNL     1      -9.808  11.333  66.034  1.00  0.00    -0.229 C  
BRANCH   4   5
HETATM    5  N   UNL     1      -9.547  12.731  65.629  1.00  0.00    -0.116 NA 
HETATM    6  C   UNL     1     -10.701  13.366  64.964  1.00  0.00    -0.343 C  
HETATM    7  C   UNL     1     -11.912  13.594  65.888  1.00  0.00    -0.405 C  
HETATM    8  C   UNL     1     -11.494  14.409  67.123  1.00  0.00    -0.362 C  
HETATM    9  O   UNL     1     -12.952  14.295  65.198  1.00  0.00    -0.692 OA 
HETATM   10  H   UNL     1     -13.699  14.436  65.768  1.00  0.00     0.000 HD 
HETATM   11  O   UNL     1     -12.521  14.441  68.134  1.00  0.00    -0.579 OA 
HETATM   12  C   UNL     1     -10.247  13.830  67.798  1.00  0.00    -0.241 C  
HETATM   13  O   UNL     1      -9.844  14.726  68.847  1.00  0.00    -0.220 OA 
HETATM   14  H   UNL     1     -12.263  14.944  68.897  1.00  0.00     0.000 HD 
HETATM   15  C   UNL     1      -9.116  13.605  66.764  1.00  0.00    -0.217 C  
HETATM   16  H   UNL     1      -9.071  14.367  69.266  1.00  0.00     0.000 HD 
BRANCH  15  17
HETATM   17  C   UNL     1      -7.808  13.166  67.462  1.00  0.00    -0.172 C  
HETATM   18  O   UNL     1      -6.726  14.049  67.145  1.00  0.00    -0.414 OA 
HETATM   19  H   UNL     1      -5.922  13.779  67.573  1.00  0.00     0.000 HD 
ENDBRANCH  15  17
ENDBRANCH   4   5
ENDBRANCH   2   4
TORSDOF 3
ENDMDL
MODEL       82
REMARK 921   NORMALIZED FREE ENERGY PREDICTED BY IDOCK:   -3.70 KCAL/MOL
REMARK 922        TOTAL FREE ENERGY PREDICTED BY IDOCK:   -4.69 KCAL/MOL
REMARK 923 INTER-LIGAND FREE ENERGY PREDICTED BY IDOCK:   -4.33 KCAL/MOL
REMARK 924 INTRA-LIGAND FREE ENERGY PREDICTED BY IDOCK:   -0.35 KCAL/MOL
REMARK 927      BINDING AFFINITY PREDICTED BY RF-SCORE:    0.00 PKD
ROOT
HETATM    1  O   UNL     1     -10.444  15.177  70.343  1.00  0.00    -0.490 OA 
HETATM    2  C   UNL     1     -10.484  15.158  68.917  1.00  0.00    -0.241 C  
HETATM    3  H   UNL     1     -10.652  14.310  70.671  1.00  0.00     0.000 HD 
ENDROOT
BRANCH   2   4
HETATM    4  C   UNL     1     -10.149  16.563  68.384  1.00  0.00    -0.255 C  
BRANCH   4   5
HETATM    5  N   UNL     1      -9.503  16.588  67.054  1.00  0.00    -0.233 NA 
HETATM    6  C   UNL     1     -10.287  17.326  66.045  1.00  0.00    -0.305 C  
HETATM    7  C   UNL     1     -10.381  18.841  66.306  1.00  0.00    -0.448 C  
HETATM    8  C   UNL     1      -8.975  19.447  66.438  1.00  0.00    -0.363 C  
HETATM    9  O   UNL     1     -11.074  19.498  65.240  1.00  0.00    -0.406 OA 
HETATM   10  H   UNL     1     -11.132  20.432  65.401  1.00  0.00     0.000 HD 
HETATM   11  O   UNL     1      -9.005  20.804  66.924  1.00  0.00    -0.579 OA 
HETATM   12  C   UNL     1      -8.099  18.661  67.417  1.00  0.00    -0.247 C  
HETATM   13  O   UNL     1      -6.769  19.205  67.371  1.00  0.00    -0.198 OA 
HETATM   14  H   UNL     1      -8.136  21.179  67.006  1.00  0.00     0.000 HD 
HETATM   15  C   UNL     1      -8.117  17.149  67.079  1.00  0.00    -0.201 C  
HETATM   16  H   UNL     1      -6.225  18.716  67.978  1.00  0.00     0.000 HD 
BRANCH  15  17
HETATM   17  C   UNL     1      -7.118  16.372  67.968  1.00  0.00    -0.136 C  
HETATM   18  O   UNL     1      -6.881  17.053  69.205  1.00  0.00    -0.232 OA 
HETATM   19  H   UNL     1      -6.267  16.576  69.751  1.00  0.00     0.000 HD 
ENDBRANCH  15  17
ENDBRANCH   4   5
ENDBRANCH   2   4
TORSDOF 3
ENDMDL
MODEL       83
REMARK 921   NORMALIZED FREE ENERGY PREDICTED BY IDOCK:   -3.68 KCAL/MOL
REMARK 922        TOTAL FREE ENERGY PREDICTED BY IDOCK:   -4.67 KCAL/MOL
REMARK 923 INTER-LIGAND FREE ENERGY PREDICTED BY IDOCK:   -4.43 KCAL/MOL
REMARK 924 INTRA-LIGAND FREE ENERGY PREDICTED BY IDOCK:   -0.24 KCAL/MOL
REMARK 927      BINDING AFFINITY PREDICTED BY RF-SCORE:    0.00 PKD
ROOT
HETATM    1  O   UNL     1     -11.582  14.551  65.154  1.00  0.00    -0.347 OA 
HETATM    2  C   UNL     1     -12.476  14.051  66.146  1.00  0.00    -0.430 C  
HETATM    3  H   UNL     1     -12.080  15.016  64.492  1.00  0.00     0.000 HD 
ENDROOT
BRANCH   2   4
HETATM    4  C   UNL     1     -11.669  13.298  67.219  1.00  0.00    -0.377 C  
BRANCH   4   5
HETATM    5  N   UNL     1     -11.631  11.829  67.053  1.00  0.00    -0.542 NA 
HETATM    6  C   UNL     1     -10.880  11.402  65.857  1.00  0.00    -0.234 C  
HETATM    7  C   UNL     1      -9.368  11.687  65.927  1.00  0.00    -0.218 C  
HETATM    8  C   UNL     1      -8.765  11.051  67.190  1.00  0.00    -0.135 C  
HETATM    9  O   UNL     1      -8.698  11.162  64.776  1.00  0.00    -0.367 OA 
HETATM   10  H   UNL     1      -7.766  11.338  64.819  1.00  0.00     0.000 HD 
HETATM   11  O   UNL     1      -7.413  11.490  67.435  1.00  0.00    -0.111 OA 
HETATM   12  C   UNL     1      -9.563  11.403  68.448  1.00  0.00    -0.197 C  
HETATM   13  O   UNL     1      -9.020  10.657  69.551  1.00  0.00    -0.382 OA 
HETATM   14  H   UNL     1      -7.040  11.097  68.215  1.00  0.00     0.000 HD 
HETATM   15  C   UNL     1     -11.070  11.114  68.242  1.00  0.00    -0.251 C  
HETATM   16  H   UNL     1      -9.516  10.875  70.332  1.00  0.00     0.000 HD 
BRANCH  15  17
HETATM   17  C   UNL     1     -11.859  11.323  69.556  1.00  0.00    -0.357 C  
HETATM   18  O   UNL     1     -11.314  12.402  70.325  1.00  0.00    -0.479 OA 
HETATM   19  H   UNL     1     -11.798  12.530  71.132  1.00  0.00     0.000 HD 
ENDBRANCH  15  17
ENDBRANCH   4   5
ENDBRANCH   2   4
TORSDOF 3
ENDMDL
MODEL       84
REMARK 921   NORMALIZED FREE ENERGY PREDICTED BY IDOCK:   -3.62 KCAL/MOL
REMARK 922        TOTAL FREE ENERGY PREDICTED BY IDOCK:   -4.59 KCAL/MOL
REMARK 923 INTER-LIGAND FREE ENERGY PREDICTED BY IDOCK:   -4.41 KCAL/MOL
REMARK 924 INTRA-LIGAND FREE ENERGY PREDICTED BY IDOCK:   -0.18 KCAL/MOL
REMARK 927      BINDING AFFINITY PREDICTED BY RF-SCORE:    0.00 PKD
ROOT
HETATM    1  O   UNL     1     -11.448   6.449  67.622  1.00  0.00    -0.668 OA 
HETATM    2  C   UNL     1     -11.373   6.317  69.040  1.00  0.00    -0.242 C  
HETATM    3  H   UNL     1     -12.207   5.974  67.305  1.00  0.00     0.000 HD 
ENDROOT
BRANCH   2   4
HETATM    4  C   UNL     1     -10.143   7.087  69.554  1.00  0.00    -0.173 C  
BRANCH   4   5
HETATM    5  N   UNL     1     -10.432   8.434  70.092  1.00  0.00    -0.222 NA 
HETATM    6  C   UNL     1     -11.753   8.526  70.743  1.00  0.00    -0.205 C  
HETATM    7  C   UNL     1     -11.873   7.707  72.041  1.00  0.00    -0.301 C  
HETATM    8  C   UNL     1     -10.763   8.106  73.028  1.00  0.00    -0.137 C  
HETATM    9  O   UNL     1     -13.145   7.921  72.661  1.00  0.00    -0.518 OA 
HETATM   10  H   UNL     1     -13.220   7.416  73.462  1.00  0.00     0.000 HD 
HETATM   11  O   UNL     1     -10.677   7.206  74.151  1.00  0.00    -0.555 OA 
HETATM   12  C   UNL     1      -9.381   8.103  72.369  1.00  0.00    -0.240 C  
HETATM   13  O   UNL     1      -8.429   8.622  73.314  1.00  0.00    -0.395 OA 
HETATM   14  H   UNL     1      -9.991   7.453  74.761  1.00  0.00     0.000 HD 
HETATM   15  C   UNL     1      -9.395   8.921  71.055  1.00  0.00    -0.249 C  
HETATM   16  H   UNL     1      -7.571   8.620  72.905  1.00  0.00     0.000 HD 
BRANCH  15  17
HETATM   17  C   UNL     1      -7.971   9.048  70.466  1.00  0.00    -0.139 C  
HETATM   18  O   UNL     1      -7.325  10.244  70.919  1.00  0.00    -0.368 OA 
HETATM   19  H   UNL     1      -6.450  10.323  70.557  1.00  0.00     0.000 HD 
ENDBRANCH  15  17
ENDBRANCH   4   5
ENDBRANCH   2   4
TORSDOF 3
ENDMDL
MODEL       85
REMARK 921   NORMALIZED FREE ENERGY PREDICTED BY IDOCK:   -3.61 KCAL/MOL
REMARK 922        TOTAL FREE ENERGY PREDICTED BY IDOCK:   -4.59 KCAL/MOL
REMARK 923 INTER-LIGAND FREE ENERGY PREDICTED BY IDOCK:   -4.24 KCAL/MOL
REMARK 924 INTRA-LIGAND FREE ENERGY PREDICTED BY IDOCK:   -0.35 KCAL/MOL
REMARK 927      BINDING AFFINITY PREDICTED BY RF-SCORE:    0.00 PKD
ROOT
HETATM    1  O   UNL     1      -9.847   4.719  73.995  1.00  0.00    -0.140 OA 
HETATM    2  C   UNL     1     -11.108   4.825  73.339  1.00  0.00    -0.344 C  
HETATM    3  H   UNL     1      -9.748   3.839  74.338  1.00  0.00     0.000 HD 
ENDROOT
BRANCH   2   4
HETATM    4  C   UNL     1     -11.270   6.252  72.783  1.00  0.00    -0.237 C  
BRANCH   4   5
HETATM    5  N   UNL     1     -12.344   6.412  71.779  1.00  0.00    -0.288 NA 
HETATM    6  C   UNL     1     -13.393   7.359  72.201  1.00  0.00     0.005 C  
HETATM    7  C   UNL     1     -12.921   8.821  72.298  1.00  0.00    -0.408 C  
HETATM    8  C   UNL     1     -12.302   9.270  70.965  1.00  0.00    -0.233 C  
HETATM    9  O   UNL     1     -14.013   9.688  72.621  1.00  0.00    -0.673 OA 
HETATM   10  H   UNL     1     -13.721  10.590  72.681  1.00  0.00     0.000 HD 
HETATM   11  O   UNL     1     -11.624  10.539  71.073  1.00  0.00    -0.330 OA 
HETATM   12  C   UNL     1     -11.263   8.272  70.447  1.00  0.00    -0.219 C  
HETATM   13  O   UNL     1     -10.844   8.694  69.138  1.00  0.00    -0.387 OA 
HETATM   14  H   UNL     1     -11.243  10.817  70.249  1.00  0.00     0.000 HD 
HETATM   15  C   UNL     1     -11.839   6.835  70.435  1.00  0.00    -0.338 C  
HETATM   16  H   UNL     1     -10.199   8.074  68.817  1.00  0.00     0.000 HD 
BRANCH  15  17
HETATM   17  C   UNL     1     -10.849   5.847  69.774  1.00  0.00    -0.377 C  
HETATM   18  O   UNL     1     -10.948   5.890  68.345  1.00  0.00    -0.274 OA 
HETATM   19  H   UNL     1     -10.341   5.284  67.938  1.00  0.00     0.000 HD 
ENDBRANCH  15  17
ENDBRANCH   4   5
ENDBRANCH   2   4
TORSDOF 3
ENDMDL
MODEL       86
REMARK 921   NORMALIZED FREE ENERGY PREDICTED BY IDOCK:   -3.60 KCAL/MOL
REMARK 922        TOTAL FREE ENERGY PREDICTED BY IDOCK:   -4.58 KCAL/MOL
REMARK 923 INTER-LIGAND FREE ENERGY PREDICTED BY IDOCK:   -4.20 KCAL/MOL
REMARK 924 INTRA-LIGAND FREE ENERGY PREDICTED BY IDOCK:   -0.37 KCAL/MOL
REMARK 927      BINDING AFFINITY PREDICTED BY RF-SCORE:    0.00 PKD
ROOT
HETATM    1  O   UNL     1      -9.096  14.581  67.562  1.00  0.00    -0.181 OA 
HETATM    2  C   UNL     1      -8.906  13.225  67.161  1.00  0.00    -0.222 C  
HETATM    3  H   UNL     1      -8.706  15.155  66.914  1.00  0.00     0.000 HD 
ENDROOT
BRANCH   2   4
HETATM    4  C   UNL     1      -9.538  12.295  68.212  1.00  0.00    -0.212 C  
BRANCH   4   5
HETATM    5  N   UNL     1     -10.912  11.845  67.901  1.00  0.00    -0.209 NA 
HETATM    6  C   UNL     1     -11.027  10.379  67.783  1.00  0.00    -0.309 C  
HETATM    7  C   UNL     1     -10.809   9.621  69.106  1.00  0.00    -0.190 C  
HETATM    8  C   UNL     1     -11.769  10.147  70.186  1.00  0.00    -0.256 C  
HETATM    9  O   UNL     1     -11.028   8.218  68.931  1.00  0.00    -0.429 OA 
HETATM   10  H   UNL     1     -10.893   7.751  69.747  1.00  0.00     0.000 HD 
HETATM   11  O   UNL     1     -11.443   9.651  71.500  1.00  0.00    -0.377 OA 
HETATM   12  C   UNL     1     -11.741  11.674  70.285  1.00  0.00    -0.266 C  
HETATM   13  O   UNL     1     -12.764  12.086  71.209  1.00  0.00    -0.375 OA 
HETATM   14  H   UNL     1     -12.037   9.976  72.167  1.00  0.00     0.000 HD 
HETATM   15  C   UNL     1     -11.928  12.321  68.891  1.00  0.00    -0.248 C  
HETATM   16  H   UNL     1     -12.746  13.034  71.271  1.00  0.00     0.000 HD 
BRANCH  15  17
HETATM   17  C   UNL     1     -12.053  13.858  69.005  1.00  0.00    -0.329 C  
HETATM   18  O   UNL     1     -12.207  14.465  67.716  1.00  0.00    -0.599 OA 
HETATM   19  H   UNL     1     -12.283  15.409  67.786  1.00  0.00     0.000 HD 
ENDBRANCH  15  17
ENDBRANCH   4   5
ENDBRANCH   2   4
TORSDOF 3
ENDMDL
MODEL       87
REMARK 921   NORMALIZED FREE ENERGY PREDICTED BY IDOCK:   -3.53 KCAL/MOL
REMARK 922        TOTAL FREE ENERGY PREDICTED BY IDOCK:   -4.49 KCAL/MOL
REMARK 923 INTER-LIGAND FREE ENERGY PREDICTED BY IDOCK:   -4.02 KCAL/MOL
REMARK 924 INTRA-LIGAND FREE ENERGY PREDICTED BY IDOCK:   -0.47 KCAL/MOL
REMARK 927      BINDING AFFINITY PREDICTED BY RF-SCORE:    0.00 PKD
ROOT
HETATM    1  O   UNL     1     -11.764   8.339  70.331  1.00  0.00    -0.464 OA 
HETATM    2  C   UNL     1     -10.567   8.995  70.747  1.00  0.00    -0.240 C  
HETATM    3  H   UNL     1     -11.925   7.596  70.901  1.00  0.00     0.000 HD 
ENDROOT
BRANCH   2   4
HETATM    4  C   UNL     1     -10.305  10.199  69.824  1.00  0.00    -0.259 C  
BRANCH   4   5
HETATM    5  N   UNL     1     -11.320  10.409  68.769  1.00  0.00    -0.240 NA 
HETATM    6  C   UNL     1     -11.996  11.717  68.869  1.00  0.00    -0.292 C  
HETATM    7  C   UNL     1     -11.081  12.922  68.580  1.00  0.00    -0.267 C  
HETATM    8  C   UNL     1     -10.417  12.768  67.202  1.00  0.00    -0.233 C  
HETATM    9  O   UNL     1     -11.827  14.143  68.604  1.00  0.00    -0.320 OA 
HETATM   10  H   UNL     1     -11.263  14.886  68.426  1.00  0.00     0.000 HD 
HETATM   11  O   UNL     1      -9.369  13.734  66.986  1.00  0.00    -0.229 OA 
HETATM   12  C   UNL     1      -9.772  11.390  67.025  1.00  0.00    -0.190 C  
HETATM   13  O   UNL     1      -9.305  11.281  65.670  1.00  0.00    -0.216 OA 
HETATM   14  H   UNL     1      -8.958  13.639  66.135  1.00  0.00     0.000 HD 
HETATM   15  C   UNL     1     -10.772  10.264  67.384  1.00  0.00    -0.281 C  
HETATM   16  H   UNL     1      -8.905  10.426  65.560  1.00  0.00     0.000 HD 
BRANCH  15  17
HETATM   17  C   UNL     1     -10.178   8.873  67.063  1.00  0.00    -0.275 C  
HETATM   18  O   UNL     1     -11.060   7.822  67.477  1.00  0.00    -0.519 OA 
HETATM   19  H   UNL     1     -10.696   6.967  67.280  1.00  0.00     0.000 HD 
ENDBRANCH  15  17
ENDBRANCH   4   5
ENDBRANCH   2   4
TORSDOF 3
ENDMDL
MODEL       88
REMARK 921   NORMALIZED FREE ENERGY PREDICTED BY IDOCK:   -3.53 KCAL/MOL
REMARK 922        TOTAL FREE ENERGY PREDICTED BY IDOCK:   -4.49 KCAL/MOL
REMARK 923 INTER-LIGAND FREE ENERGY PREDICTED BY IDOCK:   -4.14 KCAL/MOL
REMARK 924 INTRA-LIGAND FREE ENERGY PREDICTED BY IDOCK:   -0.35 KCAL/MOL
REMARK 927      BINDING AFFINITY PREDICTED BY RF-SCORE:    0.00 PKD
ROOT
HETATM    1  O   UNL     1      -7.954   3.374  70.124  1.00  0.00    -0.046 OA 
HETATM    2  C   UNL     1      -9.260   3.589  70.657  1.00  0.00    -0.137 C  
HETATM    3  H   UNL     1      -7.771   2.442  70.118  1.00  0.00     0.000 HD 
ENDROOT
BRANCH   2   4
HETATM    4  C   UNL     1      -9.558   5.099  70.669  1.00  0.00    -0.180 C  
BRANCH   4   5
HETATM    5  N   UNL     1     -10.976   5.456  70.447  1.00  0.00    -0.145 NA 
HETATM    6  C   UNL     1     -11.651   5.930  71.671  1.00  0.00    -0.119 C  
HETATM    7  C   UNL     1     -11.131   7.282  72.193  1.00  0.00    -0.246 C  
HETATM    8  C   UNL     1     -11.217   8.348  71.089  1.00  0.00    -0.263 C  
HETATM    9  O   UNL     1     -11.894   7.718  73.323  1.00  0.00    -0.651 OA 
HETATM   10  H   UNL     1     -11.573   8.552  73.645  1.00  0.00     0.000 HD 
HETATM   11  O   UNL     1     -10.519   9.561  71.441  1.00  0.00    -0.317 OA 
HETATM   12  C   UNL     1     -10.599   7.866  69.774  1.00  0.00    -0.242 C  
HETATM   13  O   UNL     1     -10.849   8.860  68.766  1.00  0.00    -0.399 OA 
HETATM   14  H   UNL     1     -10.573  10.220  70.759  1.00  0.00     0.000 HD 
HETATM   15  C   UNL     1     -11.167   6.482  69.375  1.00  0.00    -0.356 C  
HETATM   16  H   UNL     1     -10.465   8.560  67.950  1.00  0.00     0.000 HD 
BRANCH  15  17
HETATM   17  C   UNL     1     -10.663   6.059  67.975  1.00  0.00    -0.282 C  
HETATM   18  O   UNL     1     -11.533   6.535  66.942  1.00  0.00    -0.762 OA 
HETATM   19  H   UNL     1     -11.224   6.275  66.082  1.00  0.00     0.000 HD 
ENDBRANCH  15  17
ENDBRANCH   4   5
ENDBRANCH   2   4
TORSDOF 3
ENDMDL
MODEL       89
REMARK 921   NORMALIZED FREE ENERGY PREDICTED BY IDOCK:   -3.51 KCAL/MOL
REMARK 922        TOTAL FREE ENERGY PREDICTED BY IDOCK:   -4.46 KCAL/MOL
REMARK 923 INTER-LIGAND FREE ENERGY PREDICTED BY IDOCK:   -4.10 KCAL/MOL
REMARK 924 INTRA-LIGAND FREE ENERGY PREDICTED BY IDOCK:   -0.36 KCAL/MOL
REMARK 927      BINDING AFFINITY PREDICTED BY RF-SCORE:    0.00 PKD
ROOT
HETATM    1  O   UNL     1      -8.084  10.993  69.451  1.00  0.00    -0.357 OA 
HETATM    2  C   UNL     1      -8.587  11.004  68.116  1.00  0.00    -0.140 C  
HETATM    3  H   UNL     1      -7.697  10.145  69.631  1.00  0.00     0.000 HD 
ENDROOT
BRANCH   2   4
HETATM    4  C   UNL     1      -9.215  12.378  67.824  1.00  0.00    -0.193 C  
BRANCH   4   5
HETATM    5  N   UNL     1     -10.642  12.343  67.435  1.00  0.00    -0.214 NA 
HETATM    6  C   UNL     1     -11.461  11.491  68.320  1.00  0.00    -0.299 C  
HETATM    7  C   UNL     1     -11.605  12.031  69.755  1.00  0.00    -0.276 C  
HETATM    8  C   UNL     1     -12.159  13.464  69.732  1.00  0.00    -0.310 C  
HETATM    9  O   UNL     1     -12.486  11.203  70.522  1.00  0.00    -0.323 OA 
HETATM   10  H   UNL     1     -12.575  11.536  71.408  1.00  0.00     0.000 HD 
HETATM   11  O   UNL     1     -12.083  14.104  71.023  1.00  0.00    -0.337 OA 
HETATM   12  C   UNL     1     -11.387  14.363  68.763  1.00  0.00    -0.273 C  
HETATM   13  O   UNL     1     -12.055  15.635  68.696  1.00  0.00    -0.547 OA 
HETATM   14  H   UNL     1     -12.425  14.990  71.008  1.00  0.00     0.000 HD 
HETATM   15  C   UNL     1     -11.271  13.698  67.369  1.00  0.00    -0.302 C  
HETATM   16  H   UNL     1     -11.576  16.193  68.094  1.00  0.00     0.000 HD 
BRANCH  15  17
HETATM   17  C   UNL     1     -10.627  14.663  66.346  1.00  0.00    -0.301 C  
HETATM   18  O   UNL     1      -9.897  15.707  67.003  1.00  0.00    -0.228 OA 
HETATM   19  H   UNL     1      -9.501  16.299  66.375  1.00  0.00     0.000 HD 
ENDBRANCH  15  17
ENDBRANCH   4   5
ENDBRANCH   2   4
TORSDOF 3
ENDMDL
MODEL       90
REMARK 921   NORMALIZED FREE ENERGY PREDICTED BY IDOCK:   -3.50 KCAL/MOL
REMARK 922        TOTAL FREE ENERGY PREDICTED BY IDOCK:   -4.46 KCAL/MOL
REMARK 923 INTER-LIGAND FREE ENERGY PREDICTED BY IDOCK:   -4.14 KCAL/MOL
REMARK 924 INTRA-LIGAND FREE ENERGY PREDICTED BY IDOCK:   -0.32 KCAL/MOL
REMARK 927      BINDING AFFINITY PREDICTED BY RF-SCORE:    0.00 PKD
ROOT
HETATM    1  O   UNL     1     -11.168  14.762  67.745  1.00  0.00    -0.288 OA 
HETATM    2  C   UNL     1     -10.017  15.023  66.946  1.00  0.00    -0.244 C  
HETATM    3  H   UNL     1     -11.253  13.825  67.872  1.00  0.00     0.000 HD 
ENDROOT
BRANCH   2   4
HETATM    4  C   UNL     1      -9.879  16.543  66.739  1.00  0.00    -0.266 C  
BRANCH   4   5
HETATM    5  N   UNL     1      -9.902  17.345  67.981  1.00  0.00    -0.276 NA 
HETATM    6  C   UNL     1      -8.871  16.934  68.954  1.00  0.00    -0.216 C  
HETATM    7  C   UNL     1      -7.427  17.217  68.499  1.00  0.00    -0.241 C  
HETATM    8  C   UNL     1      -7.263  18.704  68.143  1.00  0.00    -0.252 C  
HETATM    9  O   UNL     1      -6.494  16.879  69.530  1.00  0.00    -0.226 OA 
HETATM   10  H   UNL     1      -5.603  17.053  69.249  1.00  0.00     0.000 HD 
HETATM   11  O   UNL     1      -6.010  18.975  67.480  1.00  0.00    -0.184 OA 
HETATM   12  C   UNL     1      -8.362  19.194  67.197  1.00  0.00    -0.279 C  
HETATM   13  O   UNL     1      -8.217  20.615  67.032  1.00  0.00    -0.502 OA 
HETATM   14  H   UNL     1      -5.909  19.893  67.261  1.00  0.00     0.000 HD 
HETATM   15  C   UNL     1      -9.763  18.815  67.738  1.00  0.00    -0.318 C  
HETATM   16  H   UNL     1      -8.899  20.919  66.445  1.00  0.00     0.000 HD 
BRANCH  15  17
HETATM   17  C   UNL     1     -10.880  19.437  66.868  1.00  0.00    -0.404 C  
HETATM   18  O   UNL     1     -10.431  19.660  65.525  1.00  0.00    -0.442 OA 
HETATM   19  H   UNL     1     -11.117  20.042  64.991  1.00  0.00     0.000 HD 
ENDBRANCH  15  17
ENDBRANCH   4   5
ENDBRANCH   2   4
TORSDOF 3
ENDMDL
MODEL       91
REMARK 921   NORMALIZED FREE ENERGY PREDICTED BY IDOCK:   -3.50 KCAL/MOL
REMARK 922        TOTAL FREE ENERGY PREDICTED BY IDOCK:   -4.46 KCAL/MOL
REMARK 923 INTER-LIGAND FREE ENERGY PREDICTED BY IDOCK:   -4.28 KCAL/MOL
REMARK 924 INTRA-LIGAND FREE ENERGY PREDICTED BY IDOCK:   -0.18 KCAL/MOL
REMARK 927      BINDING AFFINITY PREDICTED BY RF-SCORE:    0.00 PKD
ROOT
HETATM    1  O   UNL     1      -9.760  20.520  67.377  1.00  0.00    -0.436 OA 
HETATM    2  C   UNL     1     -10.890  19.656  67.280  1.00  0.00    -0.395 C  
HETATM    3  H   UNL     1      -9.915  21.296  66.852  1.00  0.00     0.000 HD 
ENDROOT
BRANCH   2   4
HETATM    4  C   UNL     1     -10.638  18.398  68.131  1.00  0.00    -0.269 C  
BRANCH   4   5
HETATM    5  N   UNL     1     -10.498  17.143  67.361  1.00  0.00    -0.343 NA 
HETATM    6  C   UNL     1      -9.552  17.259  66.234  1.00  0.00    -0.248 C  
HETATM    7  C   UNL     1      -8.085  17.458  66.661  1.00  0.00    -0.259 C  
HETATM    8  C   UNL     1      -7.649  16.329  67.610  1.00  0.00    -0.141 C  
HETATM    9  O   UNL     1      -7.221  17.467  65.520  1.00  0.00    -0.338 OA 
HETATM   10  H   UNL     1      -6.317  17.590  65.783  1.00  0.00     0.000 HD 
HETATM   11  O   UNL     1      -6.376  16.596  68.232  1.00  0.00    -0.130 OA 
HETATM   12  C   UNL     1      -8.648  16.120  68.751  1.00  0.00    -0.236 C  
HETATM   13  O   UNL     1      -8.241  14.962  69.501  1.00  0.00    -0.366 OA 
HETATM   14  H   UNL     1      -6.106  15.898  68.817  1.00  0.00     0.000 HD 
HETATM   15  C   UNL     1     -10.088  15.975  68.203  1.00  0.00    -0.234 C  
HETATM   16  H   UNL     1      -8.860  14.832  70.209  1.00  0.00     0.000 HD 
BRANCH  15  17
HETATM   17  C   UNL     1     -11.078  15.613  69.334  1.00  0.00    -0.303 C  
HETATM   18  O   UNL     1     -12.385  15.338  68.815  1.00  0.00    -0.586 OA 
HETATM   19  H   UNL     1     -12.993  15.115  69.510  1.00  0.00     0.000 HD 
ENDBRANCH  15  17
ENDBRANCH   4   5
ENDBRANCH   2   4
TORSDOF 3
ENDMDL
MODEL       92
REMARK 921   NORMALIZED FREE ENERGY PREDICTED BY IDOCK:   -3.50 KCAL/MOL
REMARK 922        TOTAL FREE ENERGY PREDICTED BY IDOCK:   -4.46 KCAL/MOL
REMARK 923 INTER-LIGAND FREE ENERGY PREDICTED BY IDOCK:   -4.02 KCAL/MOL
REMARK 924 INTRA-LIGAND FREE ENERGY PREDICTED BY IDOCK:   -0.44 KCAL/MOL
REMARK 927      BINDING AFFINITY PREDICTED BY RF-SCORE:    0.00 PKD
ROOT
HETATM    1  O   UNL     1      -6.771  10.905  65.417  1.00  0.00    -0.351 OA 
HETATM    2  C   UNL     1      -7.913  10.163  64.995  1.00  0.00    -0.146 C  
HETATM    3  H   UNL     1      -6.082  10.812  64.770  1.00  0.00     0.000 HD 
ENDROOT
BRANCH   2   4
HETATM    4  C   UNL     1      -9.029  10.315  66.044  1.00  0.00    -0.152 C  
BRANCH   4   5
HETATM    5  N   UNL     1      -8.925  11.519  66.896  1.00  0.00    -0.173 NA 
HETATM    6  C   UNL     1      -9.986  12.510  66.628  1.00  0.00    -0.236 C  
HETATM    7  C   UNL     1     -11.399  12.043  67.025  1.00  0.00    -0.336 C  
HETATM    8  C   UNL     1     -11.424  11.621  68.503  1.00  0.00    -0.298 C  
HETATM    9  O   UNL     1     -12.354  13.089  66.823  1.00  0.00    -0.367 OA 
HETATM   10  H   UNL     1     -13.226  12.801  67.067  1.00  0.00     0.000 HD 
HETATM   11  O   UNL     1     -12.649  10.947  68.861  1.00  0.00    -0.698 OA 
HETATM   12  C   UNL     1     -10.288  10.653  68.844  1.00  0.00    -0.207 C  
HETATM   13  O   UNL     1     -10.300  10.424  70.264  1.00  0.00    -0.434 OA 
HETATM   14  H   UNL     1     -12.665  10.686  69.774  1.00  0.00     0.000 HD 
HETATM   15  C   UNL     1      -8.927  11.210  68.360  1.00  0.00    -0.165 C  
HETATM   16  H   UNL     1      -9.595   9.824  70.475  1.00  0.00     0.000 HD 
BRANCH  15  17
HETATM   17  C   UNL     1      -7.760  10.312  68.835  1.00  0.00    -0.098 C  
HETATM   18  O   UNL     1      -7.429  10.570  70.204  1.00  0.00    -0.356 OA 
HETATM   19  H   UNL     1      -6.713  10.018  70.496  1.00  0.00     0.000 HD 
ENDBRANCH  15  17
ENDBRANCH   4   5
ENDBRANCH   2   4
TORSDOF 3
ENDMDL
MODEL       93
REMARK 921   NORMALIZED FREE ENERGY PREDICTED BY IDOCK:   -3.42 KCAL/MOL
REMARK 922        TOTAL FREE ENERGY PREDICTED BY IDOCK:   -4.36 KCAL/MOL
REMARK 923 INTER-LIGAND FREE ENERGY PREDICTED BY IDOCK:   -4.02 KCAL/MOL
REMARK 924 INTRA-LIGAND FREE ENERGY PREDICTED BY IDOCK:   -0.33 KCAL/MOL
REMARK 927      BINDING AFFINITY PREDICTED BY RF-SCORE:    0.00 PKD
ROOT
HETATM    1  O   UNL     1      -8.121   7.679  64.759  1.00  0.00    -0.138 OA 
HETATM    2  C   UNL     1      -8.360   9.028  64.364  1.00  0.00    -0.176 C  
HETATM    3  H   UNL     1      -7.438   7.310  64.211  1.00  0.00     0.000 HD 
ENDROOT
BRANCH   2   4
HETATM    4  C   UNL     1      -9.467   9.625  65.252  1.00  0.00    -0.275 C  
BRANCH   4   5
HETATM    5  N   UNL     1      -9.009  10.133  66.563  1.00  0.00    -0.142 NA 
HETATM    6  C   UNL     1      -8.489  11.512  66.499  1.00  0.00    -0.160 C  
HETATM    7  C   UNL     1      -9.558  12.574  66.179  1.00  0.00    -0.228 C  
HETATM    8  C   UNL     1     -10.715  12.485  67.188  1.00  0.00    -0.237 C  
HETATM    9  O   UNL     1      -8.997  13.889  66.227  1.00  0.00    -0.470 OA 
HETATM   10  H   UNL     1      -9.656  14.544  66.030  1.00  0.00     0.000 HD 
HETATM   11  O   UNL     1     -11.850  13.283  66.793  1.00  0.00    -0.362 OA 
HETATM   12  C   UNL     1     -11.231  11.053  67.346  1.00  0.00    -0.285 C  
HETATM   13  O   UNL     1     -12.205  11.038  68.403  1.00  0.00    -0.770 OA 
HETATM   14  H   UNL     1     -12.564  13.228  67.416  1.00  0.00     0.000 HD 
HETATM   15  C   UNL     1     -10.064  10.074  67.622  1.00  0.00    -0.190 C  
HETATM   16  H   UNL     1     -12.526  10.149  68.502  1.00  0.00     0.000 HD 
BRANCH  15  17
HETATM   17  C   UNL     1     -10.593   8.654  67.932  1.00  0.00    -0.161 C  
HETATM   18  O   UNL     1     -11.267   8.614  69.196  1.00  0.00    -0.430 OA 
HETATM   19  H   UNL     1     -11.592   7.742  69.387  1.00  0.00     0.000 HD 
ENDBRANCH  15  17
ENDBRANCH   4   5
ENDBRANCH   2   4
TORSDOF 3
ENDMDL
MODEL       94
REMARK 921   NORMALIZED FREE ENERGY PREDICTED BY IDOCK:   -3.40 KCAL/MOL
REMARK 922        TOTAL FREE ENERGY PREDICTED BY IDOCK:   -4.34 KCAL/MOL
REMARK 923 INTER-LIGAND FREE ENERGY PREDICTED BY IDOCK:   -3.96 KCAL/MOL
REMARK 924 INTRA-LIGAND FREE ENERGY PREDICTED BY IDOCK:   -0.39 KCAL/MOL
REMARK 927      BINDING AFFINITY PREDICTED BY RF-SCORE:    0.00 PKD
ROOT
HETATM    1  O   UNL     1      -6.663  14.054  69.409  1.00  0.00    -0.115 OA 
HETATM    2  C   UNL     1      -6.195  14.504  68.139  1.00  0.00    -0.142 C  
HETATM    3  H   UNL     1      -5.917  13.858  69.963  1.00  0.00     0.000 HD 
ENDROOT
BRANCH   2   4
HETATM    4  C   UNL     1      -7.403  14.821  67.239  1.00  0.00    -0.114 C  
BRANCH   4   5
HETATM    5  N   UNL     1      -8.579  15.373  67.946  1.00  0.00    -0.153 NA 
HETATM    6  C   UNL     1      -8.829  16.793  67.631  1.00  0.00    -0.205 C  
HETATM    7  C   UNL     1      -9.268  17.048  66.178  1.00  0.00    -0.210 C  
HETATM    8  C   UNL     1     -10.505  16.201  65.839  1.00  0.00    -0.352 C  
HETATM    9  O   UNL     1      -9.580  18.430  65.976  1.00  0.00    -0.493 OA 
HETATM   10  H   UNL     1      -9.851  18.588  65.079  1.00  0.00     0.000 HD 
HETATM   11  O   UNL     1     -10.809  16.211  64.429  1.00  0.00    -0.898 OA 
HETATM   12  C   UNL     1     -10.319  14.731  66.225  1.00  0.00    -0.297 C  
HETATM   13  O   UNL     1     -11.564  14.046  66.009  1.00  0.00    -0.335 OA 
HETATM   14  H   UNL     1     -11.574  15.688  64.220  1.00  0.00     0.000 HD 
HETATM   15  C   UNL     1      -9.837  14.605  67.691  1.00  0.00    -0.218 C  
HETATM   16  H   UNL     1     -11.449  13.134  66.249  1.00  0.00     0.000 HD 
BRANCH  15  17
HETATM   17  C   UNL     1      -9.794  13.123  68.134  1.00  0.00    -0.228 C  
HETATM   18  O   UNL     1      -9.463  12.261  67.039  1.00  0.00    -0.194 OA 
HETATM   19  H   UNL     1      -9.436  11.352  67.310  1.00  0.00     0.000 HD 
ENDBRANCH  15  17
ENDBRANCH   4   5
ENDBRANCH   2   4
TORSDOF 3
ENDMDL
MODEL       95
REMARK 921   NORMALIZED FREE ENERGY PREDICTED BY IDOCK:   -3.40 KCAL/MOL
REMARK 922        TOTAL FREE ENERGY PREDICTED BY IDOCK:   -4.34 KCAL/MOL
REMARK 923 INTER-LIGAND FREE ENERGY PREDICTED BY IDOCK:   -4.21 KCAL/MOL
REMARK 924 INTRA-LIGAND FREE ENERGY PREDICTED BY IDOCK:   -0.14 KCAL/MOL
REMARK 927      BINDING AFFINITY PREDICTED BY RF-SCORE:    0.00 PKD
ROOT
HETATM    1  O   UNL     1     -11.312  15.028  68.542  1.00  0.00    -0.274 OA 
HETATM    2  C   UNL     1     -12.033  14.590  67.392  1.00  0.00    -0.335 C  
HETATM    3  H   UNL     1     -11.883  15.560  69.083  1.00  0.00     0.000 HD 
ENDROOT
BRANCH   2   4
HETATM    4  C   UNL     1     -11.108  13.728  66.514  1.00  0.00    -0.306 C  
BRANCH   4   5
HETATM    5  N   UNL     1     -11.580  12.346  66.281  1.00  0.00    -0.379 NA 
HETATM    6  C   UNL     1     -11.567  11.964  64.855  1.00  0.00    -0.226 C  
HETATM    7  C   UNL     1     -10.157  11.853  64.246  1.00  0.00    -0.295 C  
HETATM    8  C   UNL     1      -9.296  10.879  65.068  1.00  0.00    -0.226 C  
HETATM    9  O   UNL     1     -10.222  11.390  62.894  1.00  0.00    -0.599 OA 
HETATM   10  H   UNL     1      -9.352  11.322  62.518  1.00  0.00     0.000 HD 
HETATM   11  O   UNL     1      -7.904  10.926  64.694  1.00  0.00    -0.357 OA 
HETATM   12  C   UNL     1      -9.347  11.191  66.566  1.00  0.00    -0.180 C  
HETATM   13  O   UNL     1      -8.638  10.155  67.267  1.00  0.00    -0.125 OA 
HETATM   14  H   UNL     1      -7.373  10.324  65.201  1.00  0.00     0.000 HD 
HETATM   15  C   UNL     1     -10.812  11.320  67.052  1.00  0.00    -0.280 C  
HETATM   16  H   UNL     1      -8.670  10.348  68.197  1.00  0.00     0.000 HD 
BRANCH  15  17
HETATM   17  C   UNL     1     -10.873  11.483  68.589  1.00  0.00    -0.212 C  
HETATM   18  O   UNL     1     -11.709  10.484  69.186  1.00  0.00    -0.411 OA 
HETATM   19  H   UNL     1     -11.747  10.584  70.129  1.00  0.00     0.000 HD 
ENDBRANCH  15  17
ENDBRANCH   4   5
ENDBRANCH   2   4
TORSDOF 3
ENDMDL
MODEL       96
REMARK 921   NORMALIZED FREE ENERGY PREDICTED BY IDOCK:   -3.39 KCAL/MOL
REMARK 922        TOTAL FREE ENERGY PREDICTED BY IDOCK:   -4.33 KCAL/MOL
REMARK 923 INTER-LIGAND FREE ENERGY PREDICTED BY IDOCK:   -3.97 KCAL/MOL
REMARK 924 INTRA-LIGAND FREE ENERGY PREDICTED BY IDOCK:   -0.35 KCAL/MOL
REMARK 927      BINDING AFFINITY PREDICTED BY RF-SCORE:    0.00 PKD
ROOT
HETATM    1  O   UNL     1     -11.041   7.272  66.754  1.00  0.00    -0.539 OA 
HETATM    2  C   UNL     1     -10.117   7.163  67.834  1.00  0.00    -0.173 C  
HETATM    3  H   UNL     1     -10.590   7.086  65.938  1.00  0.00     0.000 HD 
ENDROOT
BRANCH   2   4
HETATM    4  C   UNL     1     -10.847   7.463  69.156  1.00  0.00    -0.111 C  
BRANCH   4   5
HETATM    5  N   UNL     1     -11.351   6.273  69.874  1.00  0.00    -0.427 NA 
HETATM    6  C   UNL     1     -10.316   5.242  70.083  1.00  0.00    -0.284 C  
HETATM    7  C   UNL     1      -9.195   5.664  71.052  1.00  0.00    -0.152 C  
HETATM    8  C   UNL     1      -9.792   6.102  72.399  1.00  0.00    -0.164 C  
HETATM    9  O   UNL     1      -8.284   4.583  71.275  1.00  0.00    -0.091 OA 
HETATM   10  H   UNL     1      -7.592   4.842  71.873  1.00  0.00     0.000 HD 
HETATM   11  O   UNL     1      -8.817   6.735  73.252  1.00  0.00    -0.122 OA 
HETATM   12  C   UNL     1     -10.928   7.112  72.223  1.00  0.00    -0.243 C  
HETATM   13  O   UNL     1     -11.520   7.357  73.510  1.00  0.00    -0.582 OA 
HETATM   14  H   UNL     1      -9.186   7.006  74.085  1.00  0.00     0.000 HD 
HETATM   15  C   UNL     1     -11.968   6.598  71.197  1.00  0.00    -0.357 C  
HETATM   16  H   UNL     1     -12.225   7.984  73.401  1.00  0.00     0.000 HD 
BRANCH  15  17
HETATM   17  C   UNL     1     -13.192   7.542  71.128  1.00  0.00    -0.172 C  
HETATM   18  O   UNL     1     -14.129   7.258  72.174  1.00  0.00    -0.558 OA 
HETATM   19  H   UNL     1     -14.880   7.837  72.132  1.00  0.00     0.000 HD 
ENDBRANCH  15  17
ENDBRANCH   4   5
ENDBRANCH   2   4
TORSDOF 3
ENDMDL
MODEL       97
REMARK 921   NORMALIZED FREE ENERGY PREDICTED BY IDOCK:   -3.39 KCAL/MOL
REMARK 922        TOTAL FREE ENERGY PREDICTED BY IDOCK:   -4.33 KCAL/MOL
REMARK 923 INTER-LIGAND FREE ENERGY PREDICTED BY IDOCK:   -3.98 KCAL/MOL
REMARK 924 INTRA-LIGAND FREE ENERGY PREDICTED BY IDOCK:   -0.35 KCAL/MOL
REMARK 927      BINDING AFFINITY PREDICTED BY RF-SCORE:    0.00 PKD
ROOT
HETATM    1  O   UNL     1     -12.014   8.066  72.958  1.00  0.00    -0.626 OA 
HETATM    2  C   UNL     1     -12.064   7.092  71.917  1.00  0.00    -0.323 C  
HETATM    3  H   UNL     1     -12.431   7.713  73.735  1.00  0.00     0.000 HD 
ENDROOT
BRANCH   2   4
HETATM    4  C   UNL     1     -11.387   7.663  70.658  1.00  0.00    -0.272 C  
BRANCH   4   5
HETATM    5  N   UNL     1     -10.236   6.880  70.159  1.00  0.00    -0.190 NA 
HETATM    6  C   UNL     1     -10.601   5.938  69.084  1.00  0.00    -0.299 C  
HETATM    7  C   UNL     1     -11.031   6.616  67.770  1.00  0.00    -0.281 C  
HETATM    8  C   UNL     1      -9.936   7.581  67.285  1.00  0.00    -0.210 C  
HETATM    9  O   UNL     1     -11.278   5.641  66.752  1.00  0.00    -0.501 OA 
HETATM   10  H   UNL     1     -11.544   6.060  65.942  1.00  0.00     0.000 HD 
HETATM   11  O   UNL     1     -10.385   8.421  66.203  1.00  0.00    -0.387 OA 
HETATM   12  C   UNL     1      -9.470   8.525  68.396  1.00  0.00    -0.135 C  
HETATM   13  O   UNL     1      -8.355   9.288  67.902  1.00  0.00    -0.115 OA 
HETATM   14  H   UNL     1      -9.708   9.017  65.903  1.00  0.00     0.000 HD 
HETATM   15  C   UNL     1      -9.106   7.733  69.676  1.00  0.00    -0.146 C  
HETATM   16  H   UNL     1      -8.065   9.874  68.591  1.00  0.00     0.000 HD 
BRANCH  15  17
HETATM   17  C   UNL     1      -8.491   8.664  70.747  1.00  0.00    -0.158 C  
HETATM   18  O   UNL     1      -8.907  10.022  70.559  1.00  0.00    -0.332 OA 
HETATM   19  H   UNL     1      -8.530  10.594  71.216  1.00  0.00     0.000 HD 
ENDBRANCH  15  17
ENDBRANCH   4   5
ENDBRANCH   2   4
TORSDOF 3
ENDMDL
MODEL       98
REMARK 921   NORMALIZED FREE ENERGY PREDICTED BY IDOCK:   -3.37 KCAL/MOL
REMARK 922        TOTAL FREE ENERGY PREDICTED BY IDOCK:   -4.30 KCAL/MOL
REMARK 923 INTER-LIGAND FREE ENERGY PREDICTED BY IDOCK:   -4.21 KCAL/MOL
REMARK 924 INTRA-LIGAND FREE ENERGY PREDICTED BY IDOCK:   -0.09 KCAL/MOL
REMARK 927      BINDING AFFINITY PREDICTED BY RF-SCORE:    0.00 PKD
ROOT
HETATM    1  O   UNL     1      -6.865  14.544  66.996  1.00  0.00    -0.357 OA 
HETATM    2  C   UNL     1      -8.124  14.202  67.572  1.00  0.00    -0.187 C  
HETATM    3  H   UNL     1      -6.524  15.317  67.430  1.00  0.00     0.000 HD 
ENDROOT
BRANCH   2   4
HETATM    4  C   UNL     1      -8.678  12.950  66.869  1.00  0.00    -0.161 C  
BRANCH   4   5
HETATM    5  N   UNL     1      -9.843  12.326  67.532  1.00  0.00    -0.190 NA 
HETATM    6  C   UNL     1     -10.647  13.286  68.312  1.00  0.00    -0.251 C  
HETATM    7  C   UNL     1     -11.378  14.337  67.456  1.00  0.00    -0.326 C  
HETATM    8  C   UNL     1     -12.252  13.646  66.397  1.00  0.00    -0.423 C  
HETATM    9  O   UNL     1     -12.207  15.170  68.273  1.00  0.00    -0.552 OA 
HETATM   10  H   UNL     1     -12.658  15.818  67.745  1.00  0.00     0.000 HD 
HETATM   11  O   UNL     1     -12.763  14.572  65.416  1.00  0.00    -0.348 OA 
HETATM   12  C   UNL     1     -11.477  12.581  65.617  1.00  0.00    -0.359 C  
HETATM   13  O   UNL     1     -12.398  11.891  64.756  1.00  0.00    -0.279 OA 
HETATM   14  H   UNL     1     -13.303  14.145  64.762  1.00  0.00     0.000 HD 
HETATM   15  C   UNL     1     -10.752  11.611  66.582  1.00  0.00    -0.270 C  
HETATM   16  H   UNL     1     -11.917  11.230  64.272  1.00  0.00     0.000 HD 
BRANCH  15  17
HETATM   17  C   UNL     1     -10.093  10.447  65.806  1.00  0.00    -0.262 C  
HETATM   18  O   UNL     1      -9.772  10.831  64.464  1.00  0.00    -0.242 OA 
HETATM   19  H   UNL     1      -9.368  10.116  63.987  1.00  0.00     0.000 HD 
ENDBRANCH  15  17
ENDBRANCH   4   5
ENDBRANCH   2   4
TORSDOF 3
ENDMDL
MODEL       99
REMARK 921   NORMALIZED FREE ENERGY PREDICTED BY IDOCK:   -3.34 KCAL/MOL
REMARK 922        TOTAL FREE ENERGY PREDICTED BY IDOCK:   -4.27 KCAL/MOL
REMARK 923 INTER-LIGAND FREE ENERGY PREDICTED BY IDOCK:   -3.88 KCAL/MOL
REMARK 924 INTRA-LIGAND FREE ENERGY PREDICTED BY IDOCK:   -0.40 KCAL/MOL
REMARK 927      BINDING AFFINITY PREDICTED BY RF-SCORE:    0.00 PKD
ROOT
HETATM    1  O   UNL     1     -10.740  17.860  68.002  1.00  0.00    -0.378 OA 
HETATM    2  C   UNL     1     -10.612  16.823  68.972  1.00  0.00    -0.343 C  
HETATM    3  H   UNL     1     -10.639  18.701  68.430  1.00  0.00     0.000 HD 
ENDROOT
BRANCH   2   4
HETATM    4  C   UNL     1     -10.775  15.458  68.279  1.00  0.00    -0.260 C  
BRANCH   4   5
HETATM    5  N   UNL     1      -9.517  14.850  67.796  1.00  0.00    -0.201 NA 
HETATM    6  C   UNL     1      -9.050  13.737  68.645  1.00  0.00    -0.063 C  
HETATM    7  C   UNL     1      -9.959  12.494  68.612  1.00  0.00    -0.103 C  
HETATM    8  C   UNL     1     -10.152  12.015  67.164  1.00  0.00    -0.201 C  
HETATM    9  O   UNL     1      -9.393  11.430  69.383  1.00  0.00    -0.370 OA 
HETATM   10  H   UNL     1      -9.954  10.663  69.362  1.00  0.00     0.000 HD 
HETATM   11  O   UNL     1     -11.184  11.014  67.049  1.00  0.00    -0.308 OA 
HETATM   12  C   UNL     1     -10.559  13.158  66.229  1.00  0.00    -0.284 C  
HETATM   13  O   UNL     1     -10.578  12.656  64.882  1.00  0.00    -0.286 OA 
HETATM   14  H   UNL     1     -11.303  10.718  66.155  1.00  0.00     0.000 HD 
HETATM   15  C   UNL     1      -9.599  14.363  66.383  1.00  0.00    -0.299 C  
HETATM   16  H   UNL     1     -10.830  13.365  64.303  1.00  0.00     0.000 HD 
BRANCH  15  17
HETATM   17  C   UNL     1      -9.912  15.458  65.337  1.00  0.00    -0.321 C  
HETATM   18  O   UNL     1     -11.233  15.306  64.804  1.00  0.00    -0.458 OA 
HETATM   19  H   UNL     1     -11.426  15.979  64.161  1.00  0.00     0.000 HD 
ENDBRANCH  15  17
ENDBRANCH   4   5
ENDBRANCH   2   4
TORSDOF 3
ENDMDL
MODEL      100
REMARK 921   NORMALIZED FREE ENERGY PREDICTED BY IDOCK:   -3.32 KCAL/MOL
REMARK 922        TOTAL FREE ENERGY PREDICTED BY IDOCK:   -4.24 KCAL/MOL
REMARK 923 INTER-LIGAND FREE ENERGY PREDICTED BY IDOCK:   -3.90 KCAL/MOL
REMARK 924 INTRA-LIGAND FREE ENERGY PREDICTED BY IDOCK:   -0.35 KCAL/MOL
REMARK 927      BINDING AFFINITY PREDICTED BY RF-SCORE:    0.00 PKD
ROOT
HETATM    1  O   UNL     1      -6.707  11.199  70.682  1.00  0.00    -0.476 OA 
HETATM    2  C   UNL     1      -6.900   9.843  70.285  1.00  0.00    -0.138 C  
HETATM    3  H   UNL     1      -5.802  11.442  70.528  1.00  0.00     0.000 HD 
ENDROOT
BRANCH   2   4
HETATM    4  C   UNL     1      -8.367   9.448  70.535  1.00  0.00    -0.197 C  
BRANCH   4   5
HETATM    5  N   UNL     1      -9.071   8.888  69.361  1.00  0.00    -0.144 NA 
HETATM    6  C   UNL     1      -8.747   7.470  69.115  1.00  0.00    -0.136 C  
HETATM    7  C   UNL     1      -9.264   6.508  70.200  1.00  0.00    -0.158 C  
HETATM    8  C   UNL     1     -10.779   6.683  70.389  1.00  0.00    -0.250 C  
HETATM    9  O   UNL     1      -8.993   5.148  69.844  1.00  0.00    -0.104 OA 
HETATM   10  H   UNL     1      -9.312   4.554  70.513  1.00  0.00     0.000 HD 
HETATM   11  O   UNL     1     -11.272   5.990  71.554  1.00  0.00    -0.277 OA 
HETATM   12  C   UNL     1     -11.170   8.152  70.567  1.00  0.00    -0.247 C  
HETATM   13  O   UNL     1     -12.605   8.238  70.592  1.00  0.00    -0.479 OA 
HETATM   14  H   UNL     1     -12.208   6.098  71.670  1.00  0.00     0.000 HD 
HETATM   15  C   UNL     1     -10.559   9.025  69.444  1.00  0.00    -0.221 C  
HETATM   16  H   UNL     1     -12.848   9.150  70.703  1.00  0.00     0.000 HD 
BRANCH  15  17
HETATM   17  C   UNL     1     -11.073  10.481  69.531  1.00  0.00    -0.268 C  
HETATM   18  O   UNL     1     -12.375  10.610  68.948  1.00  0.00    -0.800 OA 
HETATM   19  H   UNL     1     -12.691  11.504  69.001  1.00  0.00     0.000 HD 
ENDBRANCH  15  17
ENDBRANCH   4   5
ENDBRANCH   2   4
TORSDOF 3
ENDMDL
MODEL      101
REMARK 921   NORMALIZED FREE ENERGY PREDICTED BY IDOCK:   -3.31 KCAL/MOL
REMARK 922        TOTAL FREE ENERGY PREDICTED BY IDOCK:   -4.23 KCAL/MOL
REMARK 923 INTER-LIGAND FREE ENERGY PREDICTED BY IDOCK:   -3.83 KCAL/MOL
REMARK 924 INTRA-LIGAND FREE ENERGY PREDICTED BY IDOCK:   -0.39 KCAL/MOL
REMARK 927      BINDING AFFINITY PREDICTED BY RF-SCORE:    0.00 PKD
ROOT
HETATM    1  O   UNL     1     -13.443   7.430  71.071  1.00  0.00    -0.605 OA 
HETATM    2  C   UNL     1     -12.155   6.832  71.207  1.00  0.00    -0.370 C  
HETATM    3  H   UNL     1     -13.922   7.326  71.885  1.00  0.00     0.000 HD 
ENDROOT
BRANCH   2   4
HETATM    4  C   UNL     1     -11.378   7.000  69.889  1.00  0.00    -0.216 C  
BRANCH   4   5
HETATM    5  N   UNL     1     -10.146   7.811  69.990  1.00  0.00    -0.198 NA 
HETATM    6  C   UNL     1      -9.016   7.243  69.230  1.00  0.00    -0.135 C  
HETATM    7  C   UNL     1      -9.208   7.268  67.703  1.00  0.00    -0.126 C  
HETATM    8  C   UNL     1      -9.505   8.700  67.227  1.00  0.00    -0.156 C  
HETATM    9  O   UNL     1      -8.036   6.789  67.035  1.00  0.00    -0.107 OA 
HETATM   10  H   UNL     1      -8.155   6.805  66.093  1.00  0.00     0.000 HD 
HETATM   11  O   UNL     1      -9.934   8.744  65.851  1.00  0.00    -0.466 OA 
HETATM   12  C   UNL     1     -10.619   9.358  68.045  1.00  0.00    -0.226 C  
HETATM   13  O   UNL     1     -10.731  10.731  67.633  1.00  0.00    -0.219 OA 
HETATM   14  H   UNL     1     -10.117   9.629  65.558  1.00  0.00     0.000 HD 
HETATM   15  C   UNL     1     -10.336   9.232  69.562  1.00  0.00    -0.216 C  
HETATM   16  H   UNL     1     -11.423  11.140  68.141  1.00  0.00     0.000 HD 
BRANCH  15  17
HETATM   17  C   UNL     1     -11.376  10.025  70.388  1.00  0.00    -0.320 C  
HETATM   18  O   UNL     1     -12.608  10.171  69.671  1.00  0.00    -0.473 OA 
HETATM   19  H   UNL     1     -13.247  10.657  70.178  1.00  0.00     0.000 HD 
ENDBRANCH  15  17
ENDBRANCH   4   5
ENDBRANCH   2   4
TORSDOF 3
ENDMDL
MODEL      102
REMARK 921   NORMALIZED FREE ENERGY PREDICTED BY IDOCK:   -3.30 KCAL/MOL
REMARK 922        TOTAL FREE ENERGY PREDICTED BY IDOCK:   -4.22 KCAL/MOL
REMARK 923 INTER-LIGAND FREE ENERGY PREDICTED BY IDOCK:   -3.84 KCAL/MOL
REMARK 924 INTRA-LIGAND FREE ENERGY PREDICTED BY IDOCK:   -0.38 KCAL/MOL
REMARK 927      BINDING AFFINITY PREDICTED BY RF-SCORE:    0.00 PKD
ROOT
HETATM    1  O   UNL     1      -6.352  14.304  68.069  1.00  0.00    -0.123 OA 
HETATM    2  C   UNL     1      -7.481  14.230  68.937  1.00  0.00    -0.123 C  
HETATM    3  H   UNL     1      -5.562  14.385  68.590  1.00  0.00     0.000 HD 
ENDROOT
BRANCH   2   4
HETATM    4  C   UNL     1      -8.760  14.099  68.092  1.00  0.00    -0.181 C  
BRANCH   4   5
HETATM    5  N   UNL     1      -8.762  12.972  67.135  1.00  0.00    -0.203 NA 
HETATM    6  C   UNL     1      -8.665  11.654  67.793  1.00  0.00    -0.152 C  
HETATM    7  C   UNL     1      -9.901  11.275  68.629  1.00  0.00    -0.202 C  
HETATM    8  C   UNL     1     -11.171  11.348  67.765  1.00  0.00    -0.283 C  
HETATM    9  O   UNL     1      -9.771   9.951  69.156  1.00  0.00    -0.178 OA 
HETATM   10  H   UNL     1     -10.534   9.717  69.672  1.00  0.00     0.000 HD 
HETATM   11  O   UNL     1     -12.376  11.245  68.551  1.00  0.00    -0.583 OA 
HETATM   12  C   UNL     1     -11.271  12.670  67.000  1.00  0.00    -0.300 C  
HETATM   13  O   UNL     1     -12.402  12.596  66.115  1.00  0.00    -0.570 OA 
HETATM   14  H   UNL     1     -13.161  11.290  68.017  1.00  0.00     0.000 HD 
HETATM   15  C   UNL     1      -9.957  12.963  66.234  1.00  0.00    -0.270 C  
HETATM   16  H   UNL     1     -12.464  13.416  65.640  1.00  0.00     0.000 HD 
BRANCH  15  17
HETATM   17  C   UNL     1     -10.105  14.216  65.340  1.00  0.00    -0.333 C  
HETATM   18  O   UNL     1     -11.183  15.049  65.783  1.00  0.00    -0.340 OA 
HETATM   19  H   UNL     1     -11.274  15.818  65.234  1.00  0.00     0.000 HD 
ENDBRANCH  15  17
ENDBRANCH   4   5
ENDBRANCH   2   4
TORSDOF 3
ENDMDL
MODEL      103
REMARK 921   NORMALIZED FREE ENERGY PREDICTED BY IDOCK:   -3.30 KCAL/MOL
REMARK 922        TOTAL FREE ENERGY PREDICTED BY IDOCK:   -4.22 KCAL/MOL
REMARK 923 INTER-LIGAND FREE ENERGY PREDICTED BY IDOCK:   -3.86 KCAL/MOL
REMARK 924 INTRA-LIGAND FREE ENERGY PREDICTED BY IDOCK:   -0.36 KCAL/MOL
REMARK 927      BINDING AFFINITY PREDICTED BY RF-SCORE:    0.00 PKD
ROOT
HETATM    1  O   UNL     1     -11.313   6.273  66.624  1.00  0.00    -0.741 OA 
HETATM    2  C   UNL     1     -10.746   7.049  67.678  1.00  0.00    -0.261 C  
HETATM    3  H   UNL     1     -11.297   5.355  66.870  1.00  0.00     0.000 HD 
ENDROOT
BRANCH   2   4
HETATM    4  C   UNL     1     -10.771   8.535  67.281  1.00  0.00    -0.149 C  
BRANCH   4   5
HETATM    5  N   UNL     1      -9.445   9.131  67.009  1.00  0.00    -0.147 NA 
HETATM    6  C   UNL     1      -9.330   9.688  65.647  1.00  0.00    -0.237 C  
HETATM    7  C   UNL     1     -10.216  10.922  65.394  1.00  0.00    -0.277 C  
HETATM    8  C   UNL     1      -9.926  12.009  66.442  1.00  0.00    -0.219 C  
HETATM    9  O   UNL     1      -9.979  11.458  64.089  1.00  0.00    -0.249 OA 
HETATM   10  H   UNL     1     -10.526  12.219  63.932  1.00  0.00     0.000 HD 
HETATM   11  O   UNL     1     -10.892  13.080  66.405  1.00  0.00    -0.275 OA 
HETATM   12  C   UNL     1      -9.955  11.456  67.869  1.00  0.00    -0.177 C  
HETATM   13  O   UNL     1      -9.536  12.497  68.767  1.00  0.00    -0.403 OA 
HETATM   14  H   UNL     1     -10.713  13.751  67.052  1.00  0.00     0.000 HD 
HETATM   15  C   UNL     1      -9.063  10.196  67.989  1.00  0.00    -0.131 C  
HETATM   16  H   UNL     1      -9.554  12.153  69.652  1.00  0.00     0.000 HD 
BRANCH  15  17
HETATM   17  C   UNL     1      -8.968   9.722  69.458  1.00  0.00    -0.204 C  
HETATM   18  O   UNL     1     -10.068  10.210  70.235  1.00  0.00    -0.390 OA 
HETATM   19  H   UNL     1     -10.010   9.919  71.137  1.00  0.00     0.000 HD 
ENDBRANCH  15  17
ENDBRANCH   4   5
ENDBRANCH   2   4
TORSDOF 3
ENDMDL
MODEL      104
REMARK 921   NORMALIZED FREE ENERGY PREDICTED BY IDOCK:   -3.29 KCAL/MOL
REMARK 922        TOTAL FREE ENERGY PREDICTED BY IDOCK:   -4.21 KCAL/MOL
REMARK 923 INTER-LIGAND FREE ENERGY PREDICTED BY IDOCK:   -4.08 KCAL/MOL
REMARK 924 INTRA-LIGAND FREE ENERGY PREDICTED BY IDOCK:   -0.13 KCAL/MOL
REMARK 927      BINDING AFFINITY PREDICTED BY RF-SCORE:    0.00 PKD
ROOT
HETATM    1  O   UNL     1      -7.502   9.153  72.031  1.00  0.00    -0.336 OA 
HETATM    2  C   UNL     1      -8.507   8.376  71.383  1.00  0.00    -0.155 C  
HETATM    3  H   UNL     1      -7.159   8.665  72.770  1.00  0.00     0.000 HD 
ENDROOT
BRANCH   2   4
HETATM    4  C   UNL     1      -9.062   9.167  70.185  1.00  0.00    -0.206 C  
BRANCH   4   5
HETATM    5  N   UNL     1     -10.376   8.705  69.687  1.00  0.00    -0.209 NA 
HETATM    6  C   UNL     1     -11.371   8.526  70.762  1.00  0.00    -0.266 C  
HETATM    7  C   UNL     1     -11.808   9.838  71.440  1.00  0.00    -0.408 C  
HETATM    8  C   UNL     1     -12.329  10.832  70.390  1.00  0.00    -0.353 C  
HETATM    9  O   UNL     1     -12.838   9.594  72.403  1.00  0.00    -0.344 OA 
HETATM   10  H   UNL     1     -13.108  10.403  72.822  1.00  0.00     0.000 HD 
HETATM   11  O   UNL     1     -12.518  12.155  70.932  1.00  0.00    -0.368 OA 
HETATM   12  C   UNL     1     -11.362  10.986  69.214  1.00  0.00    -0.282 C  
HETATM   13  O   UNL     1     -11.987  11.816  68.220  1.00  0.00    -0.487 OA 
HETATM   14  H   UNL     1     -12.841  12.770  70.284  1.00  0.00     0.000 HD 
HETATM   15  C   UNL     1     -10.963   9.603  68.644  1.00  0.00    -0.111 C  
HETATM   16  H   UNL     1     -11.387  11.911  67.489  1.00  0.00     0.000 HD 
BRANCH  15  17
HETATM   17  C   UNL     1     -10.109   9.756  67.364  1.00  0.00    -0.208 C  
HETATM   18  O   UNL     1     -10.350   8.683  66.445  1.00  0.00    -0.346 OA 
HETATM   19  H   UNL     1      -9.826   8.777  65.659  1.00  0.00     0.000 HD 
ENDBRANCH  15  17
ENDBRANCH   4   5
ENDBRANCH   2   4
TORSDOF 3
ENDMDL
MODEL      105
REMARK 921   NORMALIZED FREE ENERGY PREDICTED BY IDOCK:   -3.28 KCAL/MOL
REMARK 922        TOTAL FREE ENERGY PREDICTED BY IDOCK:   -4.19 KCAL/MOL
REMARK 923 INTER-LIGAND FREE ENERGY PREDICTED BY IDOCK:   -3.81 KCAL/MOL
REMARK 924 INTRA-LIGAND FREE ENERGY PREDICTED BY IDOCK:   -0.39 KCAL/MOL
REMARK 927      BINDING AFFINITY PREDICTED BY RF-SCORE:    0.00 PKD
ROOT
HETATM    1  O   UNL     1      -8.835   7.923  67.164  1.00  0.00    -0.128 OA 
HETATM    2  C   UNL     1     -10.172   8.332  66.880  1.00  0.00    -0.318 C  
HETATM    3  H   UNL     1      -8.762   6.985  67.030  1.00  0.00     0.000 HD 
ENDROOT
BRANCH   2   4
HETATM    4  C   UNL     1     -10.291   9.851  67.097  1.00  0.00    -0.243 C  
BRANCH   4   5
HETATM    5  N   UNL     1      -9.459  10.392  68.194  1.00  0.00    -0.143 NA 
HETATM    6  C   UNL     1      -8.428  11.338  67.725  1.00  0.00    -0.126 C  
HETATM    7  C   UNL     1      -8.992  12.657  67.164  1.00  0.00    -0.205 C  
HETATM    8  C   UNL     1      -9.902  13.332  68.204  1.00  0.00    -0.231 C  
HETATM    9  O   UNL     1      -7.933  13.556  66.818  1.00  0.00    -0.386 OA 
HETATM   10  H   UNL     1      -8.281  14.369  66.472  1.00  0.00     0.000 HD 
HETATM   11  O   UNL     1     -10.647  14.434  67.648  1.00  0.00    -0.256 OA 
HETATM   12  C   UNL     1     -10.937  12.361  68.778  1.00  0.00    -0.246 C  
HETATM   13  O   UNL     1     -11.644  13.029  69.837  1.00  0.00    -0.456 OA 
HETATM   14  H   UNL     1     -11.209  14.851  68.291  1.00  0.00     0.000 HD 
HETATM   15  C   UNL     1     -10.257  11.059  69.269  1.00  0.00    -0.127 C  
HETATM   16  H   UNL     1     -12.287  12.426  70.193  1.00  0.00     0.000 HD 
BRANCH  15  17
HETATM   17  C   UNL     1     -11.274  10.140  69.987  1.00  0.00    -0.299 C  
HETATM   18  O   UNL     1     -12.611  10.395  69.541  1.00  0.00    -0.644 OA 
HETATM   19  H   UNL     1     -13.236   9.831  69.982  1.00  0.00     0.000 HD 
ENDBRANCH  15  17
ENDBRANCH   4   5
ENDBRANCH   2   4
TORSDOF 3
ENDMDL
MODEL      106
REMARK 921   NORMALIZED FREE ENERGY PREDICTED BY IDOCK:   -3.27 KCAL/MOL
REMARK 922        TOTAL FREE ENERGY PREDICTED BY IDOCK:   -4.19 KCAL/MOL
REMARK 923 INTER-LIGAND FREE ENERGY PREDICTED BY IDOCK:   -3.84 KCAL/MOL
REMARK 924 INTRA-LIGAND FREE ENERGY PREDICTED BY IDOCK:   -0.35 KCAL/MOL
REMARK 927      BINDING AFFINITY PREDICTED BY RF-SCORE:    0.00 PKD
ROOT
HETATM    1  O   UNL     1      -6.691  11.287  70.815  1.00  0.00    -0.398 OA 
HETATM    2  C   UNL     1      -6.831   9.930  70.398  1.00  0.00    -0.140 C  
HETATM    3  H   UNL     1      -5.775  11.533  70.772  1.00  0.00     0.000 HD 
ENDROOT
BRANCH   2   4
HETATM    4  C   UNL     1      -8.315   9.530  70.468  1.00  0.00    -0.163 C  
BRANCH   4   5
HETATM    5  N   UNL     1      -8.564   8.080  70.616  1.00  0.00    -0.127 NA 
HETATM    6  C   UNL     1      -8.428   7.610  72.009  1.00  0.00    -0.110 C  
HETATM    7  C   UNL     1      -9.509   8.149  72.964  1.00  0.00    -0.263 C  
HETATM    8  C   UNL     1     -10.910   7.818  72.423  1.00  0.00    -0.303 C  
HETATM    9  O   UNL     1      -9.366   7.578  74.268  1.00  0.00    -0.409 OA 
HETATM   10  H   UNL     1     -10.033   7.910  74.857  1.00  0.00     0.000 HD 
HETATM   11  O   UNL     1     -11.953   8.508  73.142  1.00  0.00    -0.307 OA 
HETATM   12  C   UNL     1     -11.068   8.216  70.953  1.00  0.00    -0.258 C  
HETATM   13  O   UNL     1     -12.345   7.745  70.492  1.00  0.00    -0.502 OA 
HETATM   14  H   UNL     1     -12.819   8.303  72.808  1.00  0.00     0.000 HD 
HETATM   15  C   UNL     1      -9.903   7.653  70.103  1.00  0.00    -0.184 C  
HETATM   16  H   UNL     1     -12.443   7.991  69.580  1.00  0.00     0.000 HD 
BRANCH  15  17
HETATM   17  C   UNL     1     -10.136   7.922  68.597  1.00  0.00    -0.197 C  
HETATM   18  O   UNL     1     -11.053   6.976  68.035  1.00  0.00    -0.477 OA 
HETATM   19  H   UNL     1     -11.196   7.141  67.111  1.00  0.00     0.000 HD 
ENDBRANCH  15  17
ENDBRANCH   4   5
ENDBRANCH   2   4
TORSDOF 3
ENDMDL
MODEL      107
REMARK 921   NORMALIZED FREE ENERGY PREDICTED BY IDOCK:   -3.25 KCAL/MOL
REMARK 922        TOTAL FREE ENERGY PREDICTED BY IDOCK:   -4.17 KCAL/MOL
REMARK 923 INTER-LIGAND FREE ENERGY PREDICTED BY IDOCK:   -4.02 KCAL/MOL
REMARK 924 INTRA-LIGAND FREE ENERGY PREDICTED BY IDOCK:   -0.15 KCAL/MOL
REMARK 927      BINDING AFFINITY PREDICTED BY RF-SCORE:    0.00 PKD
ROOT
HETATM    1  O   UNL     1      -6.760  16.046  70.128  1.00  0.00    -0.021 OA 
HETATM    2  C   UNL     1      -6.333  17.281  69.555  1.00  0.00    -0.235 C  
HETATM    3  H   UNL     1      -6.068  15.705  70.683  1.00  0.00     0.000 HD 
ENDROOT
BRANCH   2   4
HETATM    4  C   UNL     1      -7.454  17.834  68.656  1.00  0.00    -0.274 C  
BRANCH   4   5
HETATM    5  N   UNL     1      -7.276  17.578  67.210  1.00  0.00    -0.166 NA 
HETATM    6  C   UNL     1      -7.358  16.147  66.862  1.00  0.00    -0.220 C  
HETATM    7  C   UNL     1      -8.756  15.531  67.055  1.00  0.00    -0.231 C  
HETATM    8  C   UNL     1      -9.805  16.333  66.267  1.00  0.00    -0.313 C  
HETATM    9  O   UNL     1      -8.778  14.171  66.609  1.00  0.00    -0.408 OA 
HETATM   10  H   UNL     1      -9.640  13.791  66.729  1.00  0.00     0.000 HD 
HETATM   11  O   UNL     1     -11.154  15.954  66.606  1.00  0.00    -0.205 OA 
HETATM   12  C   UNL     1      -9.701  17.836  66.538  1.00  0.00    -0.320 C  
HETATM   13  O   UNL     1     -10.614  18.517  65.660  1.00  0.00    -0.616 OA 
HETATM   14  H   UNL     1     -11.802  16.449  66.120  1.00  0.00     0.000 HD 
HETATM   15  C   UNL     1      -8.245  18.329  66.353  1.00  0.00    -0.251 C  
HETATM   16  H   UNL     1     -10.550  19.450  65.828  1.00  0.00     0.000 HD 
BRANCH  15  17
HETATM   17  C   UNL     1      -8.162  19.869  66.476  1.00  0.00    -0.331 C  
HETATM   18  O   UNL     1      -7.813  20.474  65.225  1.00  0.00    -0.425 OA 
HETATM   19  H   UNL     1      -7.762  21.419  65.300  1.00  0.00     0.000 HD 
ENDBRANCH  15  17
ENDBRANCH   4   5
ENDBRANCH   2   4
TORSDOF 3
ENDMDL
MODEL      108
REMARK 921   NORMALIZED FREE ENERGY PREDICTED BY IDOCK:   -3.25 KCAL/MOL
REMARK 922        TOTAL FREE ENERGY PREDICTED BY IDOCK:   -4.16 KCAL/MOL
REMARK 923 INTER-LIGAND FREE ENERGY PREDICTED BY IDOCK:   -3.88 KCAL/MOL
REMARK 924 INTRA-LIGAND FREE ENERGY PREDICTED BY IDOCK:   -0.28 KCAL/MOL
REMARK 927      BINDING AFFINITY PREDICTED BY RF-SCORE:    0.00 PKD
ROOT
HETATM    1  O   UNL     1      -9.570   6.259  70.423  1.00  0.00    -0.163 OA 
HETATM    2  C   UNL     1      -9.138   7.595  70.673  1.00  0.00    -0.158 C  
HETATM    3  H   UNL     1      -9.608   5.786  71.246  1.00  0.00     0.000 HD 
ENDROOT
BRANCH   2   4
HETATM    4  C   UNL     1      -9.075   8.363  69.340  1.00  0.00    -0.154 C  
BRANCH   4   5
HETATM    5  N   UNL     1     -10.365   8.925  68.883  1.00  0.00    -0.210 NA 
HETATM    6  C   UNL     1     -10.520  10.356  69.208  1.00  0.00    -0.234 C  
HETATM    7  C   UNL     1      -9.558  11.283  68.443  1.00  0.00    -0.195 C  
HETATM    8  C   UNL     1      -9.697  11.062  66.928  1.00  0.00    -0.188 C  
HETATM    9  O   UNL     1      -9.831  12.656  68.741  1.00  0.00    -0.402 OA 
HETATM   10  H   UNL     1      -9.237  13.228  68.269  1.00  0.00     0.000 HD 
HETATM   11  O   UNL     1      -8.654  11.719  66.179  1.00  0.00    -0.345 OA 
HETATM   12  C   UNL     1      -9.624   9.579  66.555  1.00  0.00    -0.201 C  
HETATM   13  O   UNL     1      -9.905   9.453  65.150  1.00  0.00    -0.447 OA 
HETATM   14  H   UNL     1      -8.741  11.582  65.243  1.00  0.00     0.000 HD 
HETATM   15  C   UNL     1     -10.602   8.745  67.417  1.00  0.00    -0.233 C  
HETATM   16  H   UNL     1      -9.859   8.532  64.918  1.00  0.00     0.000 HD 
BRANCH  15  17
HETATM   17  C   UNL     1     -10.644   7.274  66.942  1.00  0.00    -0.305 C  
HETATM   18  O   UNL     1     -11.564   6.500  67.722  1.00  0.00    -0.646 OA 
HETATM   19  H   UNL     1     -11.589   5.597  67.430  1.00  0.00     0.000 HD 
ENDBRANCH  15  17
ENDBRANCH   4   5
ENDBRANCH   2   4
TORSDOF 3
ENDMDL
MODEL      109
REMARK 921   NORMALIZED FREE ENERGY PREDICTED BY IDOCK:   -3.24 KCAL/MOL
REMARK 922        TOTAL FREE ENERGY PREDICTED BY IDOCK:   -4.15 KCAL/MOL
REMARK 923 INTER-LIGAND FREE ENERGY PREDICTED BY IDOCK:   -4.03 KCAL/MOL
REMARK 924 INTRA-LIGAND FREE ENERGY PREDICTED BY IDOCK:   -0.12 KCAL/MOL
REMARK 927      BINDING AFFINITY PREDICTED BY RF-SCORE:    0.00 PKD
ROOT
HETATM    1  O   UNL     1     -11.407  14.184  70.865  1.00  0.00    -0.506 OA 
HETATM    2  C   UNL     1     -12.054  14.273  69.596  1.00  0.00    -0.346 C  
HETATM    3  H   UNL     1     -11.913  13.614  71.432  1.00  0.00     0.000 HD 
ENDROOT
BRANCH   2   4
HETATM    4  C   UNL     1     -11.235  15.196  68.676  1.00  0.00    -0.286 C  
BRANCH   4   5
HETATM    5  N   UNL     1     -11.042  14.693  67.299  1.00  0.00    -0.317 NA 
HETATM    6  C   UNL     1     -11.338  15.706  66.267  1.00  0.00     0.075 C  
HETATM    7  C   UNL     1     -10.350  16.887  66.243  1.00  0.00    -0.308 C  
HETATM    8  C   UNL     1      -8.909  16.373  66.089  1.00  0.00    -0.314 C  
HETATM    9  O   UNL     1     -10.646  17.775  65.160  1.00  0.00    -0.610 OA 
HETATM   10  H   UNL     1     -10.037  18.504  65.146  1.00  0.00     0.000 HD 
HETATM   11  O   UNL     1      -7.930  17.409  66.307  1.00  0.00    -0.284 OA 
HETATM   12  C   UNL     1      -8.586  15.261  67.090  1.00  0.00    -0.211 C  
HETATM   13  O   UNL     1      -7.279  14.743  66.784  1.00  0.00    -0.273 OA 
HETATM   14  H   UNL     1      -7.040  17.092  66.212  1.00  0.00     0.000 HD 
HETATM   15  C   UNL     1      -9.669  14.155  67.052  1.00  0.00    -0.258 C  
HETATM   16  H   UNL     1      -7.079  14.053  67.405  1.00  0.00     0.000 HD 
BRANCH  15  17
HETATM   17  C   UNL     1      -9.270  12.958  67.948  1.00  0.00    -0.208 C  
HETATM   18  O   UNL     1     -10.252  11.916  67.893  1.00  0.00    -0.185 OA 
HETATM   19  H   UNL     1     -10.007  11.182  68.443  1.00  0.00     0.000 HD 
ENDBRANCH  15  17
ENDBRANCH   4   5
ENDBRANCH   2   4
TORSDOF 3
ENDMDL
MODEL      110
REMARK 921   NORMALIZED FREE ENERGY PREDICTED BY IDOCK:   -3.22 KCAL/MOL
REMARK 922        TOTAL FREE ENERGY PREDICTED BY IDOCK:   -4.13 KCAL/MOL
REMARK 923 INTER-LIGAND FREE ENERGY PREDICTED BY IDOCK:   -3.94 KCAL/MOL
REMARK 924 INTRA-LIGAND FREE ENERGY PREDICTED BY IDOCK:   -0.19 KCAL/MOL
REMARK 927      BINDING AFFINITY PREDICTED BY RF-SCORE:    0.00 PKD
ROOT
HETATM    1  O   UNL     1     -10.664  13.907  64.090  1.00  0.00    -0.574 OA 
HETATM    2  C   UNL     1     -11.146  13.027  65.103  1.00  0.00    -0.292 C  
HETATM    3  H   UNL     1     -10.585  13.429  63.274  1.00  0.00     0.000 HD 
ENDROOT
BRANCH   2   4
HETATM    4  C   UNL     1     -11.274  13.802  66.427  1.00  0.00    -0.316 C  
BRANCH   4   5
HETATM    5  N   UNL     1     -10.271  13.451  67.455  1.00  0.00    -0.225 NA 
HETATM    6  C   UNL     1      -8.883  13.696  67.016  1.00  0.00    -0.223 C  
HETATM    7  C   UNL     1      -8.537  15.184  66.824  1.00  0.00    -0.262 C  
HETATM    8  C   UNL     1      -8.835  15.970  68.111  1.00  0.00    -0.178 C  
HETATM    9  O   UNL     1      -7.155  15.345  66.490  1.00  0.00    -0.160 OA 
HETATM   10  H   UNL     1      -6.941  16.263  66.372  1.00  0.00     0.000 HD 
HETATM   11  O   UNL     1      -8.764  17.397  67.913  1.00  0.00    -0.228 OA 
HETATM   12  C   UNL     1     -10.240  15.682  68.648  1.00  0.00    -0.212 C  
HETATM   13  O   UNL     1     -10.382  16.340  69.919  1.00  0.00    -0.244 OA 
HETATM   14  H   UNL     1      -8.949  17.883  68.708  1.00  0.00     0.000 HD 
HETATM   15  C   UNL     1     -10.485  14.157  68.757  1.00  0.00    -0.247 C  
HETATM   16  H   UNL     1     -11.253  16.161  70.252  1.00  0.00     0.000 HD 
BRANCH  15  17
HETATM   17  C   UNL     1     -11.841  13.861  69.439  1.00  0.00    -0.334 C  
HETATM   18  O   UNL     1     -11.807  12.618  70.150  1.00  0.00    -0.448 OA 
HETATM   19  H   UNL     1     -12.639  12.436  70.569  1.00  0.00     0.000 HD 
ENDBRANCH  15  17
ENDBRANCH   4   5
ENDBRANCH   2   4
TORSDOF 3
ENDMDL
MODEL      111
REMARK 921   NORMALIZED FREE ENERGY PREDICTED BY IDOCK:   -3.22 KCAL/MOL
REMARK 922        TOTAL FREE ENERGY PREDICTED BY IDOCK:   -4.13 KCAL/MOL
REMARK 923 INTER-LIGAND FREE ENERGY PREDICTED BY IDOCK:   -3.75 KCAL/MOL
REMARK 924 INTRA-LIGAND FREE ENERGY PREDICTED BY IDOCK:   -0.38 KCAL/MOL
REMARK 927      BINDING AFFINITY PREDICTED BY RF-SCORE:    0.00 PKD
ROOT
HETATM    1  O   UNL     1     -12.497  15.028  68.706  1.00  0.00    -0.586 OA 
HETATM    2  C   UNL     1     -12.329  13.887  69.544  1.00  0.00    -0.227 C  
HETATM    3  H   UNL     1     -12.693  15.785  69.246  1.00  0.00     0.000 HD 
ENDROOT
BRANCH   2   4
HETATM    4  C   UNL     1     -12.011  12.661  68.669  1.00  0.00    -0.223 C  
BRANCH   4   5
HETATM    5  N   UNL     1     -10.769  11.943  69.028  1.00  0.00    -0.194 NA 
HETATM    6  C   UNL     1     -10.904  10.476  68.943  1.00  0.00    -0.235 C  
HETATM    7  C   UNL     1     -11.097   9.943  67.511  1.00  0.00    -0.071 C  
HETATM    8  C   UNL     1      -9.953  10.426  66.605  1.00  0.00    -0.210 C  
HETATM    9  O   UNL     1     -11.125   8.512  67.502  1.00  0.00    -0.459 OA 
HETATM   10  H   UNL     1     -11.245   8.183  66.619  1.00  0.00     0.000 HD 
HETATM   11  O   UNL     1     -10.210  10.166  65.210  1.00  0.00    -0.304 OA 
HETATM   12  C   UNL     1      -9.725  11.936  66.723  1.00  0.00    -0.204 C  
HETATM   13  O   UNL     1      -8.555  12.277  65.959  1.00  0.00    -0.396 OA 
HETATM   14  H   UNL     1      -9.504  10.465  64.650  1.00  0.00     0.000 HD 
HETATM   15  C   UNL     1      -9.588  12.357  68.207  1.00  0.00    -0.211 C  
HETATM   16  H   UNL     1      -8.413  13.214  66.033  1.00  0.00     0.000 HD 
BRANCH  15  17
HETATM   17  C   UNL     1      -9.207  13.851  68.326  1.00  0.00    -0.207 C  
HETATM   18  O   UNL     1      -9.695  14.604  67.210  1.00  0.00    -0.225 OA 
HETATM   19  H   UNL     1      -9.461  15.521  67.282  1.00  0.00     0.000 HD 
ENDBRANCH  15  17
ENDBRANCH   4   5
ENDBRANCH   2   4
TORSDOF 3
ENDMDL
MODEL      112
REMARK 921   NORMALIZED FREE ENERGY PREDICTED BY IDOCK:   -3.21 KCAL/MOL
REMARK 922        TOTAL FREE ENERGY PREDICTED BY IDOCK:   -4.12 KCAL/MOL
REMARK 923 INTER-LIGAND FREE ENERGY PREDICTED BY IDOCK:   -3.76 KCAL/MOL
REMARK 924 INTRA-LIGAND FREE ENERGY PREDICTED BY IDOCK:   -0.36 KCAL/MOL
REMARK 927      BINDING AFFINITY PREDICTED BY RF-SCORE:    0.00 PKD
ROOT
HETATM    1  O   UNL     1      -9.797  12.663  63.286  1.00  0.00    -0.584 OA 
HETATM    2  C   UNL     1     -10.701  11.903  64.086  1.00  0.00    -0.351 C  
HETATM    3  H   UNL     1     -10.294  13.198  62.678  1.00  0.00     0.000 HD 
ENDROOT
BRANCH   2   4
HETATM    4  C   UNL     1      -9.896  11.037  65.071  1.00  0.00    -0.269 C  
BRANCH   4   5
HETATM    5  N   UNL     1      -9.581  11.689  66.361  1.00  0.00    -0.211 NA 
HETATM    6  C   UNL     1     -10.775  11.923  67.197  1.00  0.00    -0.240 C  
HETATM    7  C   UNL     1     -11.439  10.636  67.721  1.00  0.00    -0.137 C  
HETATM    8  C   UNL     1     -10.414   9.781  68.483  1.00  0.00    -0.210 C  
HETATM    9  O   UNL     1     -12.528  10.947  68.596  1.00  0.00    -0.772 OA 
HETATM   10  H   UNL     1     -12.938  10.153  68.919  1.00  0.00     0.000 HD 
HETATM   11  O   UNL     1     -10.913   8.461  68.781  1.00  0.00    -0.432 OA 
HETATM   12  C   UNL     1      -9.124   9.581  67.683  1.00  0.00    -0.120 C  
HETATM   13  O   UNL     1      -8.174   8.898  68.520  1.00  0.00    -0.114 OA 
HETATM   14  H   UNL     1     -10.280   7.932  69.252  1.00  0.00     0.000 HD 
HETATM   15  C   UNL     1      -8.576  10.936  67.174  1.00  0.00    -0.130 C  
HETATM   16  H   UNL     1      -7.374   8.774  68.023  1.00  0.00     0.000 HD 
BRANCH  15  17
HETATM   17  C   UNL     1      -7.197  10.758  66.497  1.00  0.00    -0.139 C  
HETATM   18  O   UNL     1      -6.156  10.595  67.469  1.00  0.00    -0.051 OA 
HETATM   19  H   UNL     1      -5.310  10.485  67.054  1.00  0.00     0.000 HD 
ENDBRANCH  15  17
ENDBRANCH   4   5
ENDBRANCH   2   4
TORSDOF 3
ENDMDL
MODEL      113
REMARK 921   NORMALIZED FREE ENERGY PREDICTED BY IDOCK:   -3.21 KCAL/MOL
REMARK 922        TOTAL FREE ENERGY PREDICTED BY IDOCK:   -4.12 KCAL/MOL
REMARK 923 INTER-LIGAND FREE ENERGY PREDICTED BY IDOCK:   -3.94 KCAL/MOL
REMARK 924 INTRA-LIGAND FREE ENERGY PREDICTED BY IDOCK:   -0.17 KCAL/MOL
REMARK 927      BINDING AFFINITY PREDICTED BY RF-SCORE:    0.00 PKD
ROOT
HETATM    1  O   UNL     1      -8.582  19.315  67.719  1.00  0.00    -0.292 OA 
HETATM    2  C   UNL     1      -7.995  18.196  68.380  1.00  0.00    -0.302 C  
HETATM    3  H   UNL     1      -8.222  20.116  68.081  1.00  0.00     0.000 HD 
ENDROOT
BRANCH   2   4
HETATM    4  C   UNL     1      -8.579  16.899  67.793  1.00  0.00    -0.208 C  
BRANCH   4   5
HETATM    5  N   UNL     1      -8.806  15.817  68.775  1.00  0.00    -0.192 NA 
HETATM    6  C   UNL     1     -10.081  15.957  69.504  1.00  0.00    -0.277 C  
HETATM    7  C   UNL     1     -11.333  15.766  68.627  1.00  0.00    -0.369 C  
HETATM    8  C   UNL     1     -11.276  14.409  67.906  1.00  0.00    -0.286 C  
HETATM    9  O   UNL     1     -12.523  15.823  69.420  1.00  0.00    -0.540 OA 
HETATM   10  H   UNL     1     -13.295  15.706  68.879  1.00  0.00     0.000 HD 
HETATM   11  O   UNL     1     -12.291  14.284  66.889  1.00  0.00    -0.562 OA 
HETATM   12  C   UNL     1      -9.935  14.188  67.202  1.00  0.00    -0.255 C  
HETATM   13  O   UNL     1      -9.914  12.848  66.681  1.00  0.00    -0.239 OA 
HETATM   14  H   UNL     1     -12.256  13.446  66.444  1.00  0.00     0.000 HD 
HETATM   15  C   UNL     1      -8.755  14.449  68.171  1.00  0.00    -0.175 C  
HETATM   16  H   UNL     1      -9.081  12.710  66.244  1.00  0.00     0.000 HD 
BRANCH  15  17
HETATM   17  C   UNL     1      -7.405  14.081  67.512  1.00  0.00    -0.170 C  
HETATM   18  O   UNL     1      -6.712  13.080  68.267  1.00  0.00    -0.077 OA 
HETATM   19  H   UNL     1      -5.884  12.854  67.862  1.00  0.00     0.000 HD 
ENDBRANCH  15  17
ENDBRANCH   4   5
ENDBRANCH   2   4
TORSDOF 3
ENDMDL
MODEL      114
REMARK 921   NORMALIZED FREE ENERGY PREDICTED BY IDOCK:   -3.20 KCAL/MOL
REMARK 922        TOTAL FREE ENERGY PREDICTED BY IDOCK:   -4.11 KCAL/MOL
REMARK 923 INTER-LIGAND FREE ENERGY PREDICTED BY IDOCK:   -4.58 KCAL/MOL
REMARK 924 INTRA-LIGAND FREE ENERGY PREDICTED BY IDOCK:    0.47 KCAL/MOL
REMARK 927      BINDING AFFINITY PREDICTED BY RF-SCORE:    0.00 PKD
ROOT
HETATM    1  O   UNL     1     -13.367  12.497  64.515  1.00  0.00    -0.780 OA 
HETATM    2  C   UNL     1     -12.145  12.645  65.237  1.00  0.00    -0.467 C  
HETATM    3  H   UNL     1     -13.530  11.574  64.366  1.00  0.00     0.000 HD 
ENDROOT
BRANCH   2   4
HETATM    4  C   UNL     1     -11.879  14.142  65.479  1.00  0.00    -0.364 C  
BRANCH   4   5
HETATM    5  N   UNL     1     -10.477  14.566  65.277  1.00  0.00    -0.363 NA 
HETATM    6  C   UNL     1     -10.322  16.032  65.207  1.00  0.00    -0.290 C  
HETATM    7  C   UNL     1     -10.617  16.761  66.532  1.00  0.00    -0.198 C  
HETATM    8  C   UNL     1      -9.747  16.185  67.661  1.00  0.00    -0.233 C  
HETATM    9  O   UNL     1     -10.354  18.162  66.409  1.00  0.00    -0.378 OA 
HETATM   10  H   UNL     1     -10.537  18.612  67.226  1.00  0.00     0.000 HD 
HETATM   11  O   UNL     1     -10.155  16.656  68.962  1.00  0.00    -0.262 OA 
HETATM   12  C   UNL     1      -9.816  14.657  67.718  1.00  0.00    -0.216 C  
HETATM   13  O   UNL     1      -8.870  14.198  68.700  1.00  0.00    -0.225 OA 
HETATM   14  H   UNL     1      -9.617  16.301  69.660  1.00  0.00     0.000 HD 
HETATM   15  C   UNL     1      -9.544  14.042  66.323  1.00  0.00    -0.265 C  
HETATM   16  H   UNL     1      -8.913  13.250  68.735  1.00  0.00     0.000 HD 
BRANCH  15  17
HETATM   17  C   UNL     1      -9.462  12.500  66.404  1.00  0.00    -0.233 C  
HETATM   18  O   UNL     1      -8.780  11.954  65.269  1.00  0.00    -0.308 OA 
HETATM   19  H   UNL     1      -8.729  11.007  65.318  1.00  0.00     0.000 HD 
ENDBRANCH  15  17
ENDBRANCH   4   5
ENDBRANCH   2   4
TORSDOF 3
ENDMDL
MODEL      115
REMARK 921   NORMALIZED FREE ENERGY PREDICTED BY IDOCK:   -3.20 KCAL/MOL
REMARK 922        TOTAL FREE ENERGY PREDICTED BY IDOCK:   -4.10 KCAL/MOL
REMARK 923 INTER-LIGAND FREE ENERGY PREDICTED BY IDOCK:   -3.97 KCAL/MOL
REMARK 924 INTRA-LIGAND FREE ENERGY PREDICTED BY IDOCK:   -0.13 KCAL/MOL
REMARK 927      BINDING AFFINITY PREDICTED BY RF-SCORE:    0.00 PKD
ROOT
HETATM    1  O   UNL     1     -11.278  14.224  70.968  1.00  0.00    -0.472 OA 
HETATM    2  C   UNL     1     -11.692  14.728  69.700  1.00  0.00    -0.314 C  
HETATM    3  H   UNL     1     -11.717  13.398  71.133  1.00  0.00     0.000 HD 
ENDROOT
BRANCH   2   4
HETATM    4  C   UNL     1     -10.981  16.067  69.432  1.00  0.00    -0.321 C  
BRANCH   4   5
HETATM    5  N   UNL     1     -10.342  16.178  68.102  1.00  0.00    -0.260 NA 
HETATM    6  C   UNL     1     -10.728  17.404  67.377  1.00  0.00    -0.251 C  
HETATM    7  C   UNL     1     -10.205  18.704  68.016  1.00  0.00    -0.385 C  
HETATM    8  C   UNL     1      -8.678  18.640  68.181  1.00  0.00    -0.311 C  
HETATM    9  O   UNL     1     -10.539  19.837  67.208  1.00  0.00    -0.446 OA 
HETATM   10  H   UNL     1     -10.217  20.639  67.602  1.00  0.00     0.000 HD 
HETATM   11  O   UNL     1      -8.167  19.717  68.994  1.00  0.00    -0.309 OA 
HETATM   12  C   UNL     1      -8.227  17.343  68.858  1.00  0.00    -0.170 C  
HETATM   13  O   UNL     1      -6.790  17.300  68.843  1.00  0.00    -0.204 OA 
HETATM   14  H   UNL     1      -7.224  19.677  69.096  1.00  0.00     0.000 HD 
HETATM   15  C   UNL     1      -8.849  16.111  68.155  1.00  0.00    -0.184 C  
HETATM   16  H   UNL     1      -6.510  16.495  69.263  1.00  0.00     0.000 HD 
BRANCH  15  17
HETATM   17  C   UNL     1      -8.279  14.795  68.737  1.00  0.00    -0.163 C  
HETATM   18  O   UNL     1      -8.889  13.650  68.130  1.00  0.00    -0.177 OA 
HETATM   19  H   UNL     1      -8.540  12.842  68.487  1.00  0.00     0.000 HD 
ENDBRANCH  15  17
ENDBRANCH   4   5
ENDBRANCH   2   4
TORSDOF 3
ENDMDL
MODEL      116
REMARK 921   NORMALIZED FREE ENERGY PREDICTED BY IDOCK:   -3.18 KCAL/MOL
REMARK 922        TOTAL FREE ENERGY PREDICTED BY IDOCK:   -4.07 KCAL/MOL
REMARK 923 INTER-LIGAND FREE ENERGY PREDICTED BY IDOCK:   -3.67 KCAL/MOL
REMARK 924 INTRA-LIGAND FREE ENERGY PREDICTED BY IDOCK:   -0.40 KCAL/MOL
REMARK 927      BINDING AFFINITY PREDICTED BY RF-SCORE:    0.00 PKD
ROOT
HETATM    1  O   UNL     1     -10.064   4.444  74.023  1.00  0.00    -0.148 OA 
HETATM    2  C   UNL     1     -11.318   4.590  73.359  1.00  0.00    -0.286 C  
HETATM    3  H   UNL     1     -10.077   3.649  74.542  1.00  0.00     0.000 HD 
ENDROOT
BRANCH   2   4
HETATM    4  C   UNL     1     -11.296   5.879  72.517  1.00  0.00    -0.304 C  
BRANCH   4   5
HETATM    5  N   UNL     1     -10.059   6.093  71.736  1.00  0.00    -0.183 NA 
HETATM    6  C   UNL     1     -10.231   5.824  70.296  1.00  0.00    -0.230 C  
HETATM    7  C   UNL     1     -11.158   6.819  69.575  1.00  0.00    -0.273 C  
HETATM    8  C   UNL     1     -10.665   8.259  69.793  1.00  0.00    -0.221 C  
HETATM    9  O   UNL     1     -11.200   6.549  68.170  1.00  0.00    -0.500 OA 
HETATM   10  H   UNL     1     -11.772   7.163  67.725  1.00  0.00     0.000 HD 
HETATM   11  O   UNL     1     -11.625   9.241  69.352  1.00  0.00    -0.416 OA 
HETATM   12  C   UNL     1     -10.396   8.557  71.270  1.00  0.00    -0.224 C  
HETATM   13  O   UNL     1      -9.807   9.865  71.368  1.00  0.00    -0.113 OA 
HETATM   14  H   UNL     1     -11.321  10.131  69.487  1.00  0.00     0.000 HD 
HETATM   15  C   UNL     1      -9.490   7.468  71.895  1.00  0.00    -0.144 C  
HETATM   16  H   UNL     1      -9.640  10.050  72.285  1.00  0.00     0.000 HD 
BRANCH  15  17
HETATM   17  C   UNL     1      -9.090   7.842  73.342  1.00  0.00    -0.276 C  
HETATM   18  O   UNL     1      -7.827   8.517  73.376  1.00  0.00    -0.355 OA 
HETATM   19  H   UNL     1      -7.582   8.747  74.264  1.00  0.00     0.000 HD 
ENDBRANCH  15  17
ENDBRANCH   4   5
ENDBRANCH   2   4
TORSDOF 3
ENDMDL
MODEL      117
REMARK 921   NORMALIZED FREE ENERGY PREDICTED BY IDOCK:   -3.17 KCAL/MOL
REMARK 922        TOTAL FREE ENERGY PREDICTED BY IDOCK:   -4.06 KCAL/MOL
REMARK 923 INTER-LIGAND FREE ENERGY PREDICTED BY IDOCK:   -3.67 KCAL/MOL
REMARK 924 INTRA-LIGAND FREE ENERGY PREDICTED BY IDOCK:   -0.39 KCAL/MOL
REMARK 927      BINDING AFFINITY PREDICTED BY RF-SCORE:    0.00 PKD
ROOT
HETATM    1  O   UNL     1      -6.575  12.253  66.693  1.00  0.00    -0.420 OA 
HETATM    2  C   UNL     1      -7.688  12.807  67.391  1.00  0.00    -0.165 C  
HETATM    3  H   UNL     1      -6.055  12.958  66.326  1.00  0.00     0.000 HD 
ENDROOT
BRANCH   2   4
HETATM    4  C   UNL     1      -8.531  11.664  67.985  1.00  0.00    -0.151 C  
BRANCH   4   5
HETATM    5  N   UNL     1      -9.942  11.635  67.543  1.00  0.00    -0.186 NA 
HETATM    6  C   UNL     1     -10.087  11.464  66.084  1.00  0.00    -0.231 C  
HETATM    7  C   UNL     1      -9.632  10.088  65.563  1.00  0.00    -0.266 C  
HETATM    8  C   UNL     1     -10.372   8.965  66.309  1.00  0.00    -0.008 C  
HETATM    9  O   UNL     1      -9.889   9.965  64.161  1.00  0.00    -0.423 OA 
HETATM   10  H   UNL     1      -9.608   9.116  63.839  1.00  0.00     0.000 HD 
HETATM   11  O   UNL     1      -9.811   7.664  66.039  1.00  0.00    -0.446 OA 
HETATM   12  C   UNL     1     -10.316   9.149  67.827  1.00  0.00    -0.245 C  
HETATM   13  O   UNL     1     -11.146   8.145  68.435  1.00  0.00    -0.414 OA 
HETATM   14  H   UNL     1     -10.268   6.970  66.499  1.00  0.00     0.000 HD 
HETATM   15  C   UNL     1     -10.754  10.580  68.225  1.00  0.00    -0.229 C  
HETATM   16  H   UNL     1     -11.112   8.259  69.378  1.00  0.00     0.000 HD 
BRANCH  15  17
HETATM   17  C   UNL     1     -10.845  10.724  69.762  1.00  0.00    -0.226 C  
HETATM   18  O   UNL     1      -9.990   9.785  70.425  1.00  0.00    -0.261 OA 
HETATM   19  H   UNL     1     -10.046   9.873  71.369  1.00  0.00     0.000 HD 
ENDBRANCH  15  17
ENDBRANCH   4   5
ENDBRANCH   2   4
TORSDOF 3
ENDMDL
MODEL      118
REMARK 921   NORMALIZED FREE ENERGY PREDICTED BY IDOCK:   -3.15 KCAL/MOL
REMARK 922        TOTAL FREE ENERGY PREDICTED BY IDOCK:   -4.05 KCAL/MOL
REMARK 923 INTER-LIGAND FREE ENERGY PREDICTED BY IDOCK:   -3.74 KCAL/MOL
REMARK 924 INTRA-LIGAND FREE ENERGY PREDICTED BY IDOCK:   -0.32 KCAL/MOL
REMARK 927      BINDING AFFINITY PREDICTED BY RF-SCORE:    0.00 PKD
ROOT
HETATM    1  O   UNL     1      -5.918   3.653  68.283  1.00  0.00    -0.025 OA 
HETATM    2  C   UNL     1      -6.961   3.905  69.223  1.00  0.00    -0.046 C  
HETATM    3  H   UNL     1      -5.244   3.129  68.700  1.00  0.00     0.000 HD 
ENDROOT
BRANCH   2   4
HETATM    4  C   UNL     1      -8.054   4.753  68.548  1.00  0.00    -0.084 C  
BRANCH   4   5
HETATM    5  N   UNL     1      -9.424   4.205  68.653  1.00  0.00    -0.157 NA 
HETATM    6  C   UNL     1     -10.001   4.348  70.004  1.00  0.00    -0.175 C  
HETATM    7  C   UNL     1     -10.282   5.804  70.418  1.00  0.00    -0.224 C  
HETATM    8  C   UNL     1     -11.182   6.489  69.377  1.00  0.00    -0.356 C  
HETATM    9  O   UNL     1     -10.925   5.854  71.695  1.00  0.00    -0.258 OA 
HETATM   10  H   UNL     1     -11.098   6.753  71.951  1.00  0.00     0.000 HD 
HETATM   11  O   UNL     1     -11.275   7.914  69.583  1.00  0.00    -0.443 OA 
HETATM   12  C   UNL     1     -10.662   6.296  67.950  1.00  0.00    -0.305 C  
HETATM   13  O   UNL     1     -11.632   6.840  67.038  1.00  0.00    -0.681 OA 
HETATM   14  H   UNL     1     -11.831   8.337  68.940  1.00  0.00     0.000 HD 
HETATM   15  C   UNL     1     -10.377   4.801  67.666  1.00  0.00     0.035 C  
HETATM   16  H   UNL     1     -11.309   6.720  66.152  1.00  0.00     0.000 HD 
BRANCH  15  17
HETATM   17  C   UNL     1      -9.997   4.581  66.183  1.00  0.00    -0.248 C  
HETATM   18  O   UNL     1     -11.120   4.797  65.320  1.00  0.00    -0.768 OA 
HETATM   19  H   UNL     1     -10.888   4.662  64.410  1.00  0.00     0.000 HD 
ENDBRANCH  15  17
ENDBRANCH   4   5
ENDBRANCH   2   4
TORSDOF 3
ENDMDL
MODEL      119
REMARK 921   NORMALIZED FREE ENERGY PREDICTED BY IDOCK:   -3.14 KCAL/MOL
REMARK 922        TOTAL FREE ENERGY PREDICTED BY IDOCK:   -4.04 KCAL/MOL
REMARK 923 INTER-LIGAND FREE ENERGY PREDICTED BY IDOCK:   -3.87 KCAL/MOL
REMARK 924 INTRA-LIGAND FREE ENERGY PREDICTED BY IDOCK:   -0.17 KCAL/MOL
REMARK 927      BINDING AFFINITY PREDICTED BY RF-SCORE:    0.00 PKD
ROOT
HETATM    1  O   UNL     1      -6.416  13.233  68.230  1.00  0.00    -0.079 OA 
HETATM    2  C   UNL     1      -7.386  12.205  68.038  1.00  0.00    -0.105 C  
HETATM    3  H   UNL     1      -5.644  12.861  68.638  1.00  0.00     0.000 HD 
ENDROOT
BRANCH   2   4
HETATM    4  C   UNL     1      -8.638  12.808  67.377  1.00  0.00    -0.194 C  
BRANCH   4   5
HETATM    5  N   UNL     1      -9.796  11.893  67.283  1.00  0.00    -0.186 NA 
HETATM    6  C   UNL     1     -10.391  11.577  68.596  1.00  0.00    -0.210 C  
HETATM    7  C   UNL     1     -11.072  12.774  69.283  1.00  0.00    -0.133 C  
HETATM    8  C   UNL     1     -12.130  13.391  68.353  1.00  0.00    -0.235 C  
HETATM    9  O   UNL     1     -11.703  12.369  70.502  1.00  0.00    -0.525 OA 
HETATM   10  H   UNL     1     -12.124  13.108  70.926  1.00  0.00     0.000 HD 
HETATM   11  O   UNL     1     -12.622  14.655  68.842  1.00  0.00    -0.563 OA 
HETATM   12  C   UNL     1     -11.576  13.660  66.952  1.00  0.00    -0.367 C  
HETATM   13  O   UNL     1     -12.659  14.097  66.114  1.00  0.00    -0.465 OA 
HETATM   14  H   UNL     1     -13.275  15.036  68.268  1.00  0.00     0.000 HD 
HETATM   15  C   UNL     1     -10.879  12.399  66.384  1.00  0.00    -0.258 C  
HETATM   16  H   UNL     1     -12.316  14.264  65.244  1.00  0.00     0.000 HD 
BRANCH  15  17
HETATM   17  C   UNL     1     -10.452  12.617  64.913  1.00  0.00    -0.309 C  
HETATM   18  O   UNL     1      -9.892  11.424  64.351  1.00  0.00    -0.242 OA 
HETATM   19  H   UNL     1      -9.630  11.558  63.448  1.00  0.00     0.000 HD 
ENDBRANCH  15  17
ENDBRANCH   4   5
ENDBRANCH   2   4
TORSDOF 3
ENDMDL
MODEL      120
REMARK 921   NORMALIZED FREE ENERGY PREDICTED BY IDOCK:   -3.12 KCAL/MOL
REMARK 922        TOTAL FREE ENERGY PREDICTED BY IDOCK:   -4.01 KCAL/MOL
REMARK 923 INTER-LIGAND FREE ENERGY PREDICTED BY IDOCK:   -3.74 KCAL/MOL
REMARK 924 INTRA-LIGAND FREE ENERGY PREDICTED BY IDOCK:   -0.28 KCAL/MOL
REMARK 927      BINDING AFFINITY PREDICTED BY RF-SCORE:    0.00 PKD
ROOT
HETATM    1  O   UNL     1      -8.880  11.836  68.683  1.00  0.00    -0.287 OA 
HETATM    2  C   UNL     1      -8.339  10.751  69.436  1.00  0.00    -0.004 C  
HETATM    3  H   UNL     1      -8.167  12.353  68.327  1.00  0.00     0.000 HD 
ENDROOT
BRANCH   2   4
HETATM    4  C   UNL     1      -9.493   9.913  70.014  1.00  0.00    -0.202 C  
BRANCH   4   5
HETATM    5  N   UNL     1      -9.084   8.637  70.640  1.00  0.00    -0.158 NA 
HETATM    6  C   UNL     1      -9.678   8.432  71.975  1.00  0.00    -0.283 C  
HETATM    7  C   UNL     1     -11.204   8.226  71.961  1.00  0.00    -0.323 C  
HETATM    8  C   UNL     1     -11.576   7.063  71.027  1.00  0.00    -0.320 C  
HETATM    9  O   UNL     1     -11.691   7.942  73.276  1.00  0.00    -0.632 OA 
HETATM   10  H   UNL     1     -12.632   7.815  73.268  1.00  0.00     0.000 HD 
HETATM   11  O   UNL     1     -12.995   6.985  70.784  1.00  0.00    -0.563 OA 
HETATM   12  C   UNL     1     -10.913   7.194  69.653  1.00  0.00    -0.212 C  
HETATM   13  O   UNL     1     -11.196   6.003  68.899  1.00  0.00    -0.344 OA 
HETATM   14  H   UNL     1     -13.225   6.267  70.207  1.00  0.00     0.000 HD 
HETATM   15  C   UNL     1      -9.391   7.439  69.797  1.00  0.00    -0.146 C  
HETATM   16  H   UNL     1     -10.784   6.084  68.047  1.00  0.00     0.000 HD 
BRANCH  15  17
HETATM   17  C   UNL     1      -8.694   7.421  68.417  1.00  0.00    -0.123 C  
HETATM   18  O   UNL     1      -9.594   7.813  67.373  1.00  0.00    -0.140 OA 
HETATM   19  H   UNL     1      -9.166   7.802  66.526  1.00  0.00     0.000 HD 
ENDBRANCH  15  17
ENDBRANCH   4   5
ENDBRANCH   2   4
TORSDOF 3
ENDMDL
MODEL      121
REMARK 921   NORMALIZED FREE ENERGY PREDICTED BY IDOCK:   -3.12 KCAL/MOL
REMARK 922        TOTAL FREE ENERGY PREDICTED BY IDOCK:   -4.01 KCAL/MOL
REMARK 923 INTER-LIGAND FREE ENERGY PREDICTED BY IDOCK:   -3.60 KCAL/MOL
REMARK 924 INTRA-LIGAND FREE ENERGY PREDICTED BY IDOCK:   -0.41 KCAL/MOL
REMARK 927      BINDING AFFINITY PREDICTED BY RF-SCORE:    0.00 PKD
ROOT
HETATM    1  O   UNL     1      -9.062   3.462  69.785  1.00  0.00    -0.099 OA 
HETATM    2  C   UNL     1      -9.599   4.597  69.109  1.00  0.00    -0.175 C  
HETATM    3  H   UNL     1      -8.613   2.909  69.157  1.00  0.00     0.000 HD 
ENDROOT
BRANCH   2   4
HETATM    4  C   UNL     1     -10.328   5.493  70.127  1.00  0.00    -0.284 C  
BRANCH   4   5
HETATM    5  N   UNL     1      -9.561   6.675  70.578  1.00  0.00    -0.169 NA 
HETATM    6  C   UNL     1     -10.203   7.953  70.217  1.00  0.00    -0.200 C  
HETATM    7  C   UNL     1     -11.531   8.220  70.950  1.00  0.00    -0.274 C  
HETATM    8  C   UNL     1     -11.324   8.138  72.471  1.00  0.00    -0.401 C  
HETATM    9  O   UNL     1     -12.042   9.515  70.619  1.00  0.00    -0.394 OA 
HETATM   10  H   UNL     1     -12.861   9.680  71.071  1.00  0.00     0.000 HD 
HETATM   11  O   UNL     1     -12.571   8.134  73.196  1.00  0.00    -0.561 OA 
HETATM   12  C   UNL     1     -10.586   6.861  72.883  1.00  0.00    -0.261 C  
HETATM   13  O   UNL     1     -10.310   6.933  74.292  1.00  0.00    -0.400 OA 
HETATM   14  H   UNL     1     -12.444   8.084  74.136  1.00  0.00     0.000 HD 
HETATM   15  C   UNL     1      -9.294   6.680  72.050  1.00  0.00    -0.142 C  
HETATM   16  H   UNL     1      -9.852   6.141  74.548  1.00  0.00     0.000 HD 
BRANCH  15  17
HETATM   17  C   UNL     1      -8.468   5.477  72.564  1.00  0.00    -0.118 C  
HETATM   18  O   UNL     1      -9.301   4.517  73.225  1.00  0.00    -0.117 OA 
HETATM   19  H   UNL     1      -8.794   3.778  73.540  1.00  0.00     0.000 HD 
ENDBRANCH  15  17
ENDBRANCH   4   5
ENDBRANCH   2   4
TORSDOF 3
ENDMDL
MODEL      122
REMARK 921   NORMALIZED FREE ENERGY PREDICTED BY IDOCK:   -3.12 KCAL/MOL
REMARK 922        TOTAL FREE ENERGY PREDICTED BY IDOCK:   -4.00 KCAL/MOL
REMARK 923 INTER-LIGAND FREE ENERGY PREDICTED BY IDOCK:   -3.65 KCAL/MOL
REMARK 924 INTRA-LIGAND FREE ENERGY PREDICTED BY IDOCK:   -0.35 KCAL/MOL
REMARK 927      BINDING AFFINITY PREDICTED BY RF-SCORE:    0.00 PKD
ROOT
HETATM    1  O   UNL     1     -11.672   5.968  72.508  1.00  0.00    -0.394 OA 
HETATM    2  C   UNL     1     -10.653   6.724  71.857  1.00  0.00    -0.209 C  
HETATM    3  H   UNL     1     -11.616   6.112  73.445  1.00  0.00     0.000 HD 
ENDROOT
BRANCH   2   4
HETATM    4  C   UNL     1     -10.744   6.491  70.338  1.00  0.00    -0.255 C  
BRANCH   4   5
HETATM    5  N   UNL     1      -9.446   6.495  69.628  1.00  0.00    -0.145 NA 
HETATM    6  C   UNL     1      -9.011   5.148  69.211  1.00  0.00    -0.100 C  
HETATM    7  C   UNL     1      -9.892   4.511  68.120  1.00  0.00    -0.088 C  
HETATM    8  C   UNL     1      -9.986   5.443  66.901  1.00  0.00    -0.184 C  
HETATM    9  O   UNL     1      -9.355   3.252  67.704  1.00  0.00    -0.181 OA 
HETATM   10  H   UNL     1      -9.898   2.859  67.032  1.00  0.00     0.000 HD 
HETATM   11  O   UNL     1     -10.989   5.013  65.958  1.00  0.00    -0.663 OA 
HETATM   12  C   UNL     1     -10.357   6.874  67.298  1.00  0.00    -0.251 C  
HETATM   13  O   UNL     1     -10.282   7.702  66.125  1.00  0.00    -0.437 OA 
HETATM   14  H   UNL     1     -11.048   5.589  65.204  1.00  0.00     0.000 HD 
HETATM   15  C   UNL     1      -9.432   7.388  68.428  1.00  0.00    -0.143 C  
HETATM   16  H   UNL     1     -10.512   8.590  66.372  1.00  0.00     0.000 HD 
BRANCH  15  17
HETATM   17  C   UNL     1      -9.701   8.882  68.728  1.00  0.00    -0.164 C  
HETATM   18  O   UNL     1     -11.030   9.258  68.348  1.00  0.00    -0.440 OA 
HETATM   19  H   UNL     1     -11.196  10.175  68.532  1.00  0.00     0.000 HD 
ENDBRANCH  15  17
ENDBRANCH   4   5
ENDBRANCH   2   4
TORSDOF 3
ENDMDL
MODEL      123
REMARK 921   NORMALIZED FREE ENERGY PREDICTED BY IDOCK:   -3.11 KCAL/MOL
REMARK 922        TOTAL FREE ENERGY PREDICTED BY IDOCK:   -4.00 KCAL/MOL
REMARK 923 INTER-LIGAND FREE ENERGY PREDICTED BY IDOCK:   -3.62 KCAL/MOL
REMARK 924 INTRA-LIGAND FREE ENERGY PREDICTED BY IDOCK:   -0.38 KCAL/MOL
REMARK 927      BINDING AFFINITY PREDICTED BY RF-SCORE:    0.00 PKD
ROOT
HETATM    1  O   UNL     1      -9.573  12.081  64.277  1.00  0.00    -0.464 OA 
HETATM    2  C   UNL     1     -10.378  11.637  65.368  1.00  0.00    -0.267 C  
HETATM    3  H   UNL     1      -9.665  11.472  63.554  1.00  0.00     0.000 HD 
ENDROOT
BRANCH   2   4
HETATM    4  C   UNL     1     -10.228  12.624  66.540  1.00  0.00    -0.243 C  
BRANCH   4   5
HETATM    5  N   UNL     1      -9.171  13.644  66.366  1.00  0.00    -0.181 NA 
HETATM    6  C   UNL     1      -9.699  15.021  66.320  1.00  0.00    -0.291 C  
HETATM    7  C   UNL     1     -10.301  15.508  67.651  1.00  0.00    -0.269 C  
HETATM    8  C   UNL     1      -9.271  15.369  68.784  1.00  0.00    -0.206 C  
HETATM    9  O   UNL     1     -10.704  16.878  67.555  1.00  0.00    -0.329 OA 
HETATM   10  H   UNL     1     -11.076  17.179  68.375  1.00  0.00     0.000 HD 
HETATM   11  O   UNL     1      -9.856  15.576  70.087  1.00  0.00    -0.363 OA 
HETATM   12  C   UNL     1      -8.638  13.976  68.816  1.00  0.00    -0.032 C  
HETATM   13  O   UNL     1      -7.593  13.977  69.805  1.00  0.00    -0.316 OA 
HETATM   14  H   UNL     1      -9.220  15.489  70.787  1.00  0.00     0.000 HD 
HETATM   15  C   UNL     1      -8.108  13.580  67.416  1.00  0.00    -0.176 C  
HETATM   16  H   UNL     1      -7.199  13.112  69.824  1.00  0.00     0.000 HD 
BRANCH  15  17
HETATM   17  C   UNL     1      -7.333  12.242  67.475  1.00  0.00    -0.137 C  
HETATM   18  O   UNL     1      -6.957  11.800  66.165  1.00  0.00    -0.344 OA 
HETATM   19  H   UNL     1      -6.481  10.979  66.201  1.00  0.00     0.000 HD 
ENDBRANCH  15  17
ENDBRANCH   4   5
ENDBRANCH   2   4
TORSDOF 3
ENDMDL
MODEL      124
REMARK 921   NORMALIZED FREE ENERGY PREDICTED BY IDOCK:   -3.10 KCAL/MOL
REMARK 922        TOTAL FREE ENERGY PREDICTED BY IDOCK:   -3.98 KCAL/MOL
REMARK 923 INTER-LIGAND FREE ENERGY PREDICTED BY IDOCK:   -3.75 KCAL/MOL
REMARK 924 INTRA-LIGAND FREE ENERGY PREDICTED BY IDOCK:   -0.23 KCAL/MOL
REMARK 927      BINDING AFFINITY PREDICTED BY RF-SCORE:    0.00 PKD
ROOT
HETATM    1  O   UNL     1      -9.651   6.572  66.892  1.00  0.00    -0.146 OA 
HETATM    2  C   UNL     1     -10.436   5.769  67.771  1.00  0.00    -0.226 C  
HETATM    3  H   UNL     1      -9.231   6.012  66.251  1.00  0.00     0.000 HD 
ENDROOT
BRANCH   2   4
HETATM    4  C   UNL     1     -11.117   6.677  68.811  1.00  0.00    -0.227 C  
BRANCH   4   5
HETATM    5  N   UNL     1     -10.327   6.923  70.037  1.00  0.00    -0.196 NA 
HETATM    6  C   UNL     1      -9.109   7.718  69.790  1.00  0.00    -0.147 C  
HETATM    7  C   UNL     1      -9.382   9.175  69.371  1.00  0.00    -0.160 C  
HETATM    8  C   UNL     1     -10.271   9.871  70.414  1.00  0.00    -0.236 C  
HETATM    9  O   UNL     1      -8.158   9.904  69.241  1.00  0.00    -0.105 OA 
HETATM   10  H   UNL     1      -8.327  10.803  68.982  1.00  0.00     0.000 HD 
HETATM   11  O   UNL     1     -10.760  11.148  69.956  1.00  0.00    -0.454 OA 
HETATM   12  C   UNL     1     -11.509   9.039  70.762  1.00  0.00    -0.282 C  
HETATM   13  O   UNL     1     -12.203   9.690  71.840  1.00  0.00    -0.376 OA 
HETATM   14  H   UNL     1     -11.309  11.578  70.601  1.00  0.00     0.000 HD 
HETATM   15  C   UNL     1     -11.112   7.587  71.124  1.00  0.00    -0.251 C  
HETATM   16  H   UNL     1     -12.971   9.174  72.056  1.00  0.00     0.000 HD 
BRANCH  15  17
HETATM   17  C   UNL     1     -12.337   6.785  71.622  1.00  0.00    -0.362 C  
HETATM   18  O   UNL     1     -13.563   7.374  71.171  1.00  0.00    -0.584 OA 
HETATM   19  H   UNL     1     -14.316   6.882  71.476  1.00  0.00     0.000 HD 
ENDBRANCH  15  17
ENDBRANCH   4   5
ENDBRANCH   2   4
TORSDOF 3
ENDMDL
MODEL      125
REMARK 921   NORMALIZED FREE ENERGY PREDICTED BY IDOCK:   -3.09 KCAL/MOL
REMARK 922        TOTAL FREE ENERGY PREDICTED BY IDOCK:   -3.98 KCAL/MOL
REMARK 923 INTER-LIGAND FREE ENERGY PREDICTED BY IDOCK:   -3.90 KCAL/MOL
REMARK 924 INTRA-LIGAND FREE ENERGY PREDICTED BY IDOCK:   -0.08 KCAL/MOL
REMARK 927      BINDING AFFINITY PREDICTED BY RF-SCORE:    0.00 PKD
ROOT
HETATM    1  O   UNL     1      -8.306   6.344  73.850  1.00  0.00    -0.114 OA 
HETATM    2  C   UNL     1      -9.284   7.360  74.061  1.00  0.00    -0.245 C  
HETATM    3  H   UNL     1      -7.543   6.531  74.383  1.00  0.00     0.000 HD 
ENDROOT
BRANCH   2   4
HETATM    4  C   UNL     1     -10.522   7.058  73.197  1.00  0.00    -0.303 C  
BRANCH   4   5
HETATM    5  N   UNL     1     -10.955   8.167  72.319  1.00  0.00    -0.305 NA 
HETATM    6  C   UNL     1      -9.827   8.950  71.778  1.00  0.00    -0.315 C  
HETATM    7  C   UNL     1      -8.942   8.175  70.784  1.00  0.00    -0.145 C  
HETATM    8  C   UNL     1      -9.797   7.608  69.639  1.00  0.00    -0.181 C  
HETATM    9  O   UNL     1      -7.931   9.025  70.234  1.00  0.00    -0.092 OA 
HETATM   10  H   UNL     1      -7.384   8.547  69.622  1.00  0.00     0.000 HD 
HETATM   11  O   UNL     1      -9.067   6.673  68.819  1.00  0.00    -0.132 OA 
HETATM   12  C   UNL     1     -11.025   6.855  70.156  1.00  0.00    -0.281 C  
HETATM   13  O   UNL     1     -11.838   6.487  69.029  1.00  0.00    -0.523 OA 
HETATM   14  H   UNL     1      -9.595   6.323  68.111  1.00  0.00     0.000 HD 
HETATM   15  C   UNL     1     -11.809   7.717  71.176  1.00  0.00    -0.291 C  
HETATM   16  H   UNL     1     -12.600   6.019  69.350  1.00  0.00     0.000 HD 
BRANCH  15  17
HETATM   17  C   UNL     1     -13.130   7.025  71.587  1.00  0.00    -0.330 C  
HETATM   18  O   UNL     1     -14.270   7.780  71.158  1.00  0.00    -0.639 OA 
HETATM   19  H   UNL     1     -15.081   7.355  71.410  1.00  0.00     0.000 HD 
ENDBRANCH  15  17
ENDBRANCH   4   5
ENDBRANCH   2   4
TORSDOF 3
ENDMDL
MODEL      126
REMARK 921   NORMALIZED FREE ENERGY PREDICTED BY IDOCK:   -3.08 KCAL/MOL
REMARK 922        TOTAL FREE ENERGY PREDICTED BY IDOCK:   -3.96 KCAL/MOL
REMARK 923 INTER-LIGAND FREE ENERGY PREDICTED BY IDOCK:   -4.10 KCAL/MOL
REMARK 924 INTRA-LIGAND FREE ENERGY PREDICTED BY IDOCK:    0.14 KCAL/MOL
REMARK 927      BINDING AFFINITY PREDICTED BY RF-SCORE:    0.00 PKD
ROOT
HETATM    1  O   UNL     1      -6.613  12.732  66.791  1.00  0.00    -0.438 OA 
HETATM    2  C   UNL     1      -7.235  13.822  67.466  1.00  0.00    -0.158 C  
HETATM    3  H   UNL     1      -5.812  12.500  67.246  1.00  0.00     0.000 HD 
ENDROOT
BRANCH   2   4
HETATM    4  C   UNL     1      -8.534  14.198  66.729  1.00  0.00     0.000 C  
BRANCH   4   5
HETATM    5  N   UNL     1      -9.098  15.516  67.092  1.00  0.00    -0.208 NA 
HETATM    6  C   UNL     1      -9.576  16.281  65.924  1.00  0.00    -0.301 C  
HETATM    7  C   UNL     1     -10.804  15.665  65.228  1.00  0.00    -0.406 C  
HETATM    8  C   UNL     1     -11.945  15.466  66.239  1.00  0.00     0.464 C  
HETATM    9  O   UNL     1     -11.264  16.510  64.168  1.00  0.00    -1.355 OA 
HETATM   10  H   UNL     1     -12.021  16.130  63.738  1.00  0.00     0.000 HD 
HETATM   11  O   UNL     1     -13.023  14.672  65.702  1.00  0.00    -0.208 OA 
HETATM   12  C   UNL     1     -11.472  14.746  67.505  1.00  0.00    -0.354 C  
HETATM   13  O   UNL     1     -12.558  14.730  68.448  1.00  0.00    -0.445 OA 
HETATM   14  H   UNL     1     -13.728  14.549  66.327  1.00  0.00     0.000 HD 
HETATM   15  C   UNL     1     -10.211  15.429  68.088  1.00  0.00    -0.230 C  
HETATM   16  H   UNL     1     -12.264  14.283  69.234  1.00  0.00     0.000 HD 
BRANCH  15  17
HETATM   17  C   UNL     1      -9.819  14.802  69.446  1.00  0.00    -0.062 C  
HETATM   18  O   UNL     1     -10.767  13.808  69.854  1.00  0.00    -0.402 OA 
HETATM   19  H   UNL     1     -10.526  13.423  70.688  1.00  0.00     0.000 HD 
ENDBRANCH  15  17
ENDBRANCH   4   5
ENDBRANCH   2   4
TORSDOF 3
ENDMDL
MODEL      127
REMARK 921   NORMALIZED FREE ENERGY PREDICTED BY IDOCK:   -3.07 KCAL/MOL
REMARK 922        TOTAL FREE ENERGY PREDICTED BY IDOCK:   -3.95 KCAL/MOL
REMARK 923 INTER-LIGAND FREE ENERGY PREDICTED BY IDOCK:   -3.63 KCAL/MOL
REMARK 924 INTRA-LIGAND FREE ENERGY PREDICTED BY IDOCK:   -0.32 KCAL/MOL
REMARK 927      BINDING AFFINITY PREDICTED BY RF-SCORE:    0.00 PKD
ROOT
HETATM    1  O   UNL     1     -12.932  13.593  72.044  1.00  0.00    -0.346 OA 
HETATM    2  C   UNL     1     -12.784  13.521  70.627  1.00  0.00    -0.205 C  
HETATM    3  H   UNL     1     -13.629  13.007  72.314  1.00  0.00     0.000 HD 
ENDROOT
BRANCH   2   4
HETATM    4  C   UNL     1     -11.655  14.471  70.189  1.00  0.00    -0.276 C  
BRANCH   4   5
HETATM    5  N   UNL     1     -11.625  14.779  68.742  1.00  0.00    -0.305 NA 
HETATM    6  C   UNL     1     -11.647  16.227  68.460  1.00  0.00    -0.188 C  
HETATM    7  C   UNL     1     -10.375  16.975  68.902  1.00  0.00    -0.337 C  
HETATM    8  C   UNL     1      -9.131  16.327  68.272  1.00  0.00    -0.197 C  
HETATM    9  O   UNL     1     -10.433  18.350  68.510  1.00  0.00    -0.342 OA 
HETATM   10  H   UNL     1      -9.648  18.811  68.783  1.00  0.00     0.000 HD 
HETATM   11  O   UNL     1      -7.904  16.826  68.842  1.00  0.00    -0.241 OA 
HETATM   12  C   UNL     1      -9.110  14.809  68.473  1.00  0.00    -0.187 C  
HETATM   13  O   UNL     1      -7.998  14.272  67.736  1.00  0.00    -0.139 OA 
HETATM   14  H   UNL     1      -7.135  16.426  68.453  1.00  0.00     0.000 HD 
HETATM   15  C   UNL     1     -10.453  14.177  68.034  1.00  0.00    -0.240 C  
HETATM   16  H   UNL     1      -7.984  13.330  67.860  1.00  0.00     0.000 HD 
BRANCH  15  17
HETATM   17  C   UNL     1     -10.384  12.633  68.091  1.00  0.00    -0.234 C  
HETATM   18  O   UNL     1      -9.315  12.190  68.936  1.00  0.00    -0.397 OA 
HETATM   19  H   UNL     1      -9.272  11.242  68.971  1.00  0.00     0.000 HD 
ENDBRANCH  15  17
ENDBRANCH   4   5
ENDBRANCH   2   4
TORSDOF 3
ENDMDL
MODEL      128
REMARK 921   NORMALIZED FREE ENERGY PREDICTED BY IDOCK:   -3.07 KCAL/MOL
REMARK 922        TOTAL FREE ENERGY PREDICTED BY IDOCK:   -3.95 KCAL/MOL
REMARK 923 INTER-LIGAND FREE ENERGY PREDICTED BY IDOCK:   -3.55 KCAL/MOL
REMARK 924 INTRA-LIGAND FREE ENERGY PREDICTED BY IDOCK:   -0.40 KCAL/MOL
REMARK 927      BINDING AFFINITY PREDICTED BY RF-SCORE:    0.00 PKD
ROOT
HETATM    1  O   UNL     1      -9.889   3.682  69.917  1.00  0.00    -0.155 OA 
HETATM    2  C   UNL     1      -9.675   4.294  71.187  1.00  0.00    -0.189 C  
HETATM    3  H   UNL     1      -9.396   2.871  69.876  1.00  0.00     0.000 HD 
ENDROOT
BRANCH   2   4
HETATM    4  C   UNL     1     -10.473   5.609  71.255  1.00  0.00    -0.236 C  
BRANCH   4   5
HETATM    5  N   UNL     1      -9.653   6.830  71.410  1.00  0.00    -0.168 NA 
HETATM    6  C   UNL     1      -8.704   7.034  70.298  1.00  0.00    -0.144 C  
HETATM    7  C   UNL     1      -9.374   7.352  68.949  1.00  0.00    -0.145 C  
HETATM    8  C   UNL     1     -10.302   8.570  69.089  1.00  0.00    -0.217 C  
HETATM    9  O   UNL     1      -8.391   7.628  67.946  1.00  0.00    -0.121 OA 
HETATM   10  H   UNL     1      -8.805   7.824  67.113  1.00  0.00     0.000 HD 
HETATM   11  O   UNL     1     -11.138   8.760  67.929  1.00  0.00    -0.487 OA 
HETATM   12  C   UNL     1     -11.250   8.436  70.283  1.00  0.00    -0.173 C  
HETATM   13  O   UNL     1     -11.976   9.669  70.425  1.00  0.00    -0.408 OA 
HETATM   14  H   UNL     1     -11.711   9.513  68.016  1.00  0.00     0.000 HD 
HETATM   15  C   UNL     1     -10.468   8.074  71.569  1.00  0.00    -0.217 C  
HETATM   16  H   UNL     1     -12.564   9.586  71.166  1.00  0.00     0.000 HD 
BRANCH  15  17
HETATM   17  C   UNL     1     -11.398   8.086  72.805  1.00  0.00    -0.374 C  
HETATM   18  O   UNL     1     -12.775   7.986  72.423  1.00  0.00    -0.514 OA 
HETATM   19  H   UNL     1     -13.346   7.994  73.181  1.00  0.00     0.000 HD 
ENDBRANCH  15  17
ENDBRANCH   4   5
ENDBRANCH   2   4
TORSDOF 3
ENDMDL
MODEL      129
REMARK 921   NORMALIZED FREE ENERGY PREDICTED BY IDOCK:   -3.05 KCAL/MOL
REMARK 922        TOTAL FREE ENERGY PREDICTED BY IDOCK:   -3.92 KCAL/MOL
REMARK 923 INTER-LIGAND FREE ENERGY PREDICTED BY IDOCK:   -3.57 KCAL/MOL
REMARK 924 INTRA-LIGAND FREE ENERGY PREDICTED BY IDOCK:   -0.35 KCAL/MOL
REMARK 927      BINDING AFFINITY PREDICTED BY RF-SCORE:    0.00 PKD
ROOT
HETATM    1  O   UNL     1      -9.427   7.217  72.479  1.00  0.00    -0.143 OA 
HETATM    2  C   UNL     1     -10.464   6.979  71.529  1.00  0.00    -0.204 C  
HETATM    3  H   UNL     1      -9.569   6.665  73.238  1.00  0.00     0.000 HD 
ENDROOT
BRANCH   2   4
HETATM    4  C   UNL     1     -10.236   7.875  70.298  1.00  0.00    -0.200 C  
BRANCH   4   5
HETATM    5  N   UNL     1      -9.799   9.255  70.603  1.00  0.00    -0.249 NA 
HETATM    6  C   UNL     1      -8.616   9.671  69.825  1.00  0.00    -0.199 C  
HETATM    7  C   UNL     1      -8.875   9.819  68.314  1.00  0.00    -0.119 C  
HETATM    8  C   UNL     1     -10.045  10.786  68.067  1.00  0.00    -0.176 C  
HETATM    9  O   UNL     1      -7.711  10.314  67.645  1.00  0.00    -0.090 OA 
HETATM   10  H   UNL     1      -7.871  10.404  66.713  1.00  0.00     0.000 HD 
HETATM   11  O   UNL     1     -10.489  10.770  66.694  1.00  0.00    -0.236 OA 
HETATM   12  C   UNL     1     -11.269  10.437  68.917  1.00  0.00    -0.235 C  
HETATM   13  O   UNL     1     -12.256  11.467  68.732  1.00  0.00    -0.502 OA 
HETATM   14  H   UNL     1     -11.211  11.368  66.541  1.00  0.00     0.000 HD 
HETATM   15  C   UNL     1     -10.877  10.274  70.406  1.00  0.00    -0.253 C  
HETATM   16  H   UNL     1     -13.016  11.250  69.260  1.00  0.00     0.000 HD 
BRANCH  15  17
HETATM   17  C   UNL     1     -12.130  10.072  71.290  1.00  0.00    -0.394 C  
HETATM   18  O   UNL     1     -13.246   9.618  70.516  1.00  0.00    -0.566 OA 
HETATM   19  H   UNL     1     -14.016   9.494  71.058  1.00  0.00     0.000 HD 
ENDBRANCH  15  17
ENDBRANCH   4   5
ENDBRANCH   2   4
TORSDOF 3
ENDMDL
MODEL      130
REMARK 921   NORMALIZED FREE ENERGY PREDICTED BY IDOCK:   -3.02 KCAL/MOL
REMARK 922        TOTAL FREE ENERGY PREDICTED BY IDOCK:   -3.89 KCAL/MOL
REMARK 923 INTER-LIGAND FREE ENERGY PREDICTED BY IDOCK:   -3.51 KCAL/MOL
REMARK 924 INTRA-LIGAND FREE ENERGY PREDICTED BY IDOCK:   -0.38 KCAL/MOL
REMARK 927      BINDING AFFINITY PREDICTED BY RF-SCORE:    0.00 PKD
ROOT
HETATM    1  O   UNL     1      -6.860   8.438  70.345  1.00  0.00    -0.036 OA 
HETATM    2  C   UNL     1      -7.416   7.896  69.149  1.00  0.00    -0.093 C  
HETATM    3  H   UNL     1      -6.037   8.001  70.531  1.00  0.00     0.000 HD 
ENDROOT
BRANCH   2   4
HETATM    4  C   UNL     1      -8.750   8.603  68.847  1.00  0.00    -0.131 C  
BRANCH   4   5
HETATM    5  N   UNL     1      -8.922   9.917  69.505  1.00  0.00    -0.198 NA 
HETATM    6  C   UNL     1      -8.463  11.045  68.671  1.00  0.00    -0.157 C  
HETATM    7  C   UNL     1      -9.313  11.283  67.410  1.00  0.00    -0.162 C  
HETATM    8  C   UNL     1     -10.791  11.468  67.791  1.00  0.00    -0.221 C  
HETATM    9  O   UNL     1      -8.864  12.445  66.706  1.00  0.00    -0.207 OA 
HETATM   10  H   UNL     1      -9.388  12.592  65.928  1.00  0.00     0.000 HD 
HETATM   11  O   UNL     1     -11.661  11.447  66.641  1.00  0.00    -0.434 OA 
HETATM   12  C   UNL     1     -11.287  10.360  68.723  1.00  0.00    -0.214 C  
HETATM   13  O   UNL     1     -12.624  10.686  69.141  1.00  0.00    -0.734 OA 
HETATM   14  H   UNL     1     -12.574  11.562  66.876  1.00  0.00     0.000 HD 
HETATM   15  C   UNL     1     -10.331  10.186  69.929  1.00  0.00    -0.261 C  
HETATM   16  H   UNL     1     -12.932   9.999  69.720  1.00  0.00     0.000 HD 
BRANCH  15  17
HETATM   17  C   UNL     1     -10.905   9.177  70.950  1.00  0.00    -0.278 C  
HETATM   18  O   UNL     1     -11.980   9.751  71.703  1.00  0.00    -0.383 OA 
HETATM   19  H   UNL     1     -12.333   9.132  72.331  1.00  0.00     0.000 HD 
ENDBRANCH  15  17
ENDBRANCH   4   5
ENDBRANCH   2   4
TORSDOF 3
ENDMDL
MODEL      131
REMARK 921   NORMALIZED FREE ENERGY PREDICTED BY IDOCK:   -3.01 KCAL/MOL
REMARK 922        TOTAL FREE ENERGY PREDICTED BY IDOCK:   -3.88 KCAL/MOL
REMARK 923 INTER-LIGAND FREE ENERGY PREDICTED BY IDOCK:   -3.52 KCAL/MOL
REMARK 924 INTRA-LIGAND FREE ENERGY PREDICTED BY IDOCK:   -0.37 KCAL/MOL
REMARK 927      BINDING AFFINITY PREDICTED BY RF-SCORE:    0.00 PKD
ROOT
HETATM    1  O   UNL     1     -10.644   7.810  66.498  1.00  0.00    -0.470 OA 
HETATM    2  C   UNL     1      -9.284   7.995  66.885  1.00  0.00    -0.154 C  
HETATM    3  H   UNL     1     -10.696   7.782  65.550  1.00  0.00     0.000 HD 
ENDROOT
BRANCH   2   4
HETATM    4  C   UNL     1      -9.198   8.041  68.422  1.00  0.00    -0.135 C  
BRANCH   4   5
HETATM    5  N   UNL     1      -9.122   9.399  69.002  1.00  0.00    -0.139 NA 
HETATM    6  C   UNL     1     -10.436  10.064  69.092  1.00  0.00    -0.219 C  
HETATM    7  C   UNL     1     -11.402   9.415  70.101  1.00  0.00    -0.185 C  
HETATM    8  C   UNL     1     -10.747   9.335  71.490  1.00  0.00    -0.355 C  
HETATM    9  O   UNL     1     -12.615  10.168  70.200  1.00  0.00    -0.522 OA 
HETATM   10  H   UNL     1     -13.211   9.767  70.822  1.00  0.00     0.000 HD 
HETATM   11  O   UNL     1     -11.503   8.519  72.408  1.00  0.00    -0.369 OA 
HETATM   12  C   UNL     1      -9.345   8.725  71.430  1.00  0.00    -0.258 C  
HETATM   13  O   UNL     1      -8.754   8.820  72.737  1.00  0.00    -0.398 OA 
HETATM   14  H   UNL     1     -11.099   8.471  73.266  1.00  0.00     0.000 HD 
HETATM   15  C   UNL     1      -8.483   9.430  70.354  1.00  0.00    -0.214 C  
HETATM   16  H   UNL     1      -7.883   8.441  72.700  1.00  0.00     0.000 HD 
BRANCH  15  17
HETATM   17  C   UNL     1      -7.022   8.922  70.393  1.00  0.00    -0.052 C  
HETATM   18  O   UNL     1      -6.932   7.645  71.037  1.00  0.00    -0.049 OA 
HETATM   19  H   UNL     1      -6.036   7.333  71.062  1.00  0.00     0.000 HD 
ENDBRANCH  15  17
ENDBRANCH   4   5
ENDBRANCH   2   4
TORSDOF 3
ENDMDL
MODEL      132
REMARK 921   NORMALIZED FREE ENERGY PREDICTED BY IDOCK:   -3.01 KCAL/MOL
REMARK 922        TOTAL FREE ENERGY PREDICTED BY IDOCK:   -3.88 KCAL/MOL
REMARK 923 INTER-LIGAND FREE ENERGY PREDICTED BY IDOCK:   -3.72 KCAL/MOL
REMARK 924 INTRA-LIGAND FREE ENERGY PREDICTED BY IDOCK:   -0.17 KCAL/MOL
REMARK 927      BINDING AFFINITY PREDICTED BY RF-SCORE:    0.00 PKD
ROOT
HETATM    1  O   UNL     1      -6.161  13.178  68.080  1.00  0.00    -0.088 OA 
HETATM    2  C   UNL     1      -7.572  12.978  68.008  1.00  0.00    -0.139 C  
HETATM    3  H   UNL     1      -5.747  12.373  68.368  1.00  0.00     0.000 HD 
ENDROOT
BRANCH   2   4
HETATM    4  C   UNL     1      -8.244  14.281  67.540  1.00  0.00    -0.189 C  
BRANCH   4   5
HETATM    5  N   UNL     1      -9.722  14.267  67.572  1.00  0.00    -0.220 NA 
HETATM    6  C   UNL     1     -10.270  14.240  68.942  1.00  0.00    -0.200 C  
HETATM    7  C   UNL     1     -10.014  15.526  69.749  1.00  0.00    -0.274 C  
HETATM    8  C   UNL     1     -10.548  16.749  68.985  1.00  0.00    -0.343 C  
HETATM    9  O   UNL     1     -10.654  15.460  71.027  1.00  0.00    -0.423 OA 
HETATM   10  H   UNL     1     -10.496  16.254  71.525  1.00  0.00     0.000 HD 
HETATM   11  O   UNL     1     -10.119  17.994  69.572  1.00  0.00    -0.170 OA 
HETATM   12  C   UNL     1     -10.068  16.773  67.531  1.00  0.00    -0.276 C  
HETATM   13  O   UNL     1     -10.724  17.860  66.856  1.00  0.00    -0.296 OA 
HETATM   14  H   UNL     1     -10.449  18.750  69.100  1.00  0.00     0.000 HD 
HETATM   15  C   UNL     1     -10.341  15.415  66.839  1.00  0.00    -0.277 C  
HETATM   16  H   UNL     1     -10.426  17.875  65.954  1.00  0.00     0.000 HD 
BRANCH  15  17
HETATM   17  C   UNL     1      -9.998  15.483  65.332  1.00  0.00    -0.304 C  
HETATM   18  O   UNL     1     -10.498  14.337  64.632  1.00  0.00    -0.518 OA 
HETATM   19  H   UNL     1     -10.288  14.378  63.707  1.00  0.00     0.000 HD 
ENDBRANCH  15  17
ENDBRANCH   4   5
ENDBRANCH   2   4
TORSDOF 3
ENDMDL
MODEL      133
REMARK 921   NORMALIZED FREE ENERGY PREDICTED BY IDOCK:   -3.01 KCAL/MOL
REMARK 922        TOTAL FREE ENERGY PREDICTED BY IDOCK:   -3.88 KCAL/MOL
REMARK 923 INTER-LIGAND FREE ENERGY PREDICTED BY IDOCK:   -3.49 KCAL/MOL
REMARK 924 INTRA-LIGAND FREE ENERGY PREDICTED BY IDOCK:   -0.39 KCAL/MOL
REMARK 927      BINDING AFFINITY PREDICTED BY RF-SCORE:    0.00 PKD
ROOT
HETATM    1  O   UNL     1      -9.408   4.760  68.243  1.00  0.00    -0.121 OA 
HETATM    2  C   UNL     1      -9.309   6.169  68.444  1.00  0.00    -0.116 C  
HETATM    3  H   UNL     1      -9.484   4.583  67.313  1.00  0.00     0.000 HD 
ENDROOT
BRANCH   2   4
HETATM    4  C   UNL     1      -9.185   6.457  69.951  1.00  0.00    -0.152 C  
BRANCH   4   5
HETATM    5  N   UNL     1      -9.914   5.515  70.828  1.00  0.00    -0.190 NA 
HETATM    6  C   UNL     1      -9.042   4.852  71.816  1.00  0.00    -0.139 C  
HETATM    7  C   UNL     1      -8.469   5.799  72.887  1.00  0.00    -0.122 C  
HETATM    8  C   UNL     1      -9.608   6.548  73.598  1.00  0.00    -0.175 C  
HETATM    9  O   UNL     1      -7.713   5.069  73.859  1.00  0.00    -0.096 OA 
HETATM   10  H   UNL     1      -7.360   5.654  74.519  1.00  0.00     0.000 HD 
HETATM   11  O   UNL     1      -9.123   7.621  74.431  1.00  0.00    -0.430 OA 
HETATM   12  C   UNL     1     -10.585   7.185  72.606  1.00  0.00    -0.256 C  
HETATM   13  O   UNL     1     -11.686   7.737  73.347  1.00  0.00    -0.607 OA 
HETATM   14  H   UNL     1      -9.826   8.084  74.871  1.00  0.00     0.000 HD 
HETATM   15  C   UNL     1     -11.057   6.149  71.556  1.00  0.00    -0.286 C  
HETATM   16  H   UNL     1     -12.293   8.132  72.731  1.00  0.00     0.000 HD 
BRANCH  15  17
HETATM   17  C   UNL     1     -12.157   6.744  70.646  1.00  0.00    -0.314 C  
HETATM   18  O   UNL     1     -12.172   8.174  70.714  1.00  0.00    -0.488 OA 
HETATM   19  H   UNL     1     -12.847   8.540  70.156  1.00  0.00     0.000 HD 
ENDBRANCH  15  17
ENDBRANCH   4   5
ENDBRANCH   2   4
TORSDOF 3
ENDMDL
MODEL      134
REMARK 921   NORMALIZED FREE ENERGY PREDICTED BY IDOCK:   -2.99 KCAL/MOL
REMARK 922        TOTAL FREE ENERGY PREDICTED BY IDOCK:   -3.85 KCAL/MOL
REMARK 923 INTER-LIGAND FREE ENERGY PREDICTED BY IDOCK:   -3.48 KCAL/MOL
REMARK 924 INTRA-LIGAND FREE ENERGY PREDICTED BY IDOCK:   -0.37 KCAL/MOL
REMARK 927      BINDING AFFINITY PREDICTED BY RF-SCORE:    0.00 PKD
ROOT
HETATM    1  O   UNL     1      -6.913   7.427  67.324  1.00  0.00    -0.077 OA 
HETATM    2  C   UNL     1      -7.953   8.068  66.589  1.00  0.00    -0.102 C  
HETATM    3  H   UNL     1      -6.451   6.827  66.751  1.00  0.00     0.000 HD 
ENDROOT
BRANCH   2   4
HETATM    4  C   UNL     1      -8.702   9.041  67.518  1.00  0.00    -0.119 C  
BRANCH   4   5
HETATM    5  N   UNL     1     -10.169   8.857  67.560  1.00  0.00    -0.230 NA 
HETATM    6  C   UNL     1     -10.581   7.672  68.336  1.00  0.00    -0.122 C  
HETATM    7  C   UNL     1     -10.298   7.778  69.846  1.00  0.00    -0.223 C  
HETATM    8  C   UNL     1     -10.950   9.046  70.422  1.00  0.00    -0.247 C  
HETATM    9  O   UNL     1     -10.808   6.635  70.540  1.00  0.00    -0.233 OA 
HETATM   10  H   UNL     1     -10.634   6.701  71.472  1.00  0.00     0.000 HD 
HETATM   11  O   UNL     1     -10.514   9.325  71.768  1.00  0.00    -0.337 OA 
HETATM   12  C   UNL     1     -10.614  10.291  69.597  1.00  0.00    -0.256 C  
HETATM   13  O   UNL     1     -11.373  11.396  70.116  1.00  0.00    -0.463 OA 
HETATM   14  H   UNL     1     -10.917  10.108  72.124  1.00  0.00     0.000 HD 
HETATM   15  C   UNL     1     -10.899  10.049  68.094  1.00  0.00    -0.255 C  
HETATM   16  H   UNL     1     -11.164  12.168  69.603  1.00  0.00     0.000 HD 
BRANCH  15  17
HETATM   17  C   UNL     1     -10.706  11.348  67.277  1.00  0.00    -0.241 C  
HETATM   18  O   UNL     1     -11.914  12.117  67.229  1.00  0.00    -0.573 OA 
HETATM   19  H   UNL     1     -11.796  12.915  66.727  1.00  0.00     0.000 HD 
ENDBRANCH  15  17
ENDBRANCH   4   5
ENDBRANCH   2   4
TORSDOF 3
ENDMDL
MODEL      135
REMARK 921   NORMALIZED FREE ENERGY PREDICTED BY IDOCK:   -2.98 KCAL/MOL
REMARK 922        TOTAL FREE ENERGY PREDICTED BY IDOCK:   -3.84 KCAL/MOL
REMARK 923 INTER-LIGAND FREE ENERGY PREDICTED BY IDOCK:   -3.45 KCAL/MOL
REMARK 924 INTRA-LIGAND FREE ENERGY PREDICTED BY IDOCK:   -0.39 KCAL/MOL
REMARK 927      BINDING AFFINITY PREDICTED BY RF-SCORE:    0.00 PKD
ROOT
HETATM    1  O   UNL     1     -11.675  13.806  69.485  1.00  0.00    -0.284 OA 
HETATM    2  C   UNL     1     -11.642  13.968  68.068  1.00  0.00    -0.337 C  
HETATM    3  H   UNL     1     -12.537  13.501  69.743  1.00  0.00     0.000 HD 
ENDROOT
BRANCH   2   4
HETATM    4  C   UNL     1     -10.246  14.463  67.649  1.00  0.00    -0.229 C  
BRANCH   4   5
HETATM    5  N   UNL     1      -9.359  14.848  68.768  1.00  0.00    -0.199 NA 
HETATM    6  C   UNL     1      -8.027  14.219  68.692  1.00  0.00    -0.139 C  
HETATM    7  C   UNL     1      -7.166  14.705  67.511  1.00  0.00    -0.192 C  
HETATM    8  C   UNL     1      -7.032  16.236  67.546  1.00  0.00    -0.156 C  
HETATM    9  O   UNL     1      -5.861  14.121  67.560  1.00  0.00    -0.343 OA 
HETATM   10  H   UNL     1      -5.330  14.421  66.831  1.00  0.00     0.000 HD 
HETATM   11  O   UNL     1      -6.450  16.764  66.336  1.00  0.00    -0.241 OA 
HETATM   12  C   UNL     1      -8.388  16.929  67.706  1.00  0.00    -0.194 C  
HETATM   13  O   UNL     1      -8.158  18.338  67.872  1.00  0.00    -0.242 OA 
HETATM   14  H   UNL     1      -6.367  17.710  66.357  1.00  0.00     0.000 HD 
HETATM   15  C   UNL     1      -9.176  16.328  68.895  1.00  0.00    -0.249 C  
HETATM   16  H   UNL     1      -9.000  18.768  67.972  1.00  0.00     0.000 HD 
BRANCH  15  17
HETATM   17  C   UNL     1     -10.477  17.122  69.156  1.00  0.00    -0.296 C  
HETATM   18  O   UNL     1     -10.891  17.842  67.989  1.00  0.00    -0.347 OA 
HETATM   19  H   UNL     1     -11.689  18.330  68.149  1.00  0.00     0.000 HD 
ENDBRANCH  15  17
ENDBRANCH   4   5
ENDBRANCH   2   4
TORSDOF 3
ENDMDL
MODEL      136
REMARK 921   NORMALIZED FREE ENERGY PREDICTED BY IDOCK:   -2.97 KCAL/MOL
REMARK 922        TOTAL FREE ENERGY PREDICTED BY IDOCK:   -3.83 KCAL/MOL
REMARK 923 INTER-LIGAND FREE ENERGY PREDICTED BY IDOCK:   -3.44 KCAL/MOL
REMARK 924 INTRA-LIGAND FREE ENERGY PREDICTED BY IDOCK:   -0.39 KCAL/MOL
REMARK 927      BINDING AFFINITY PREDICTED BY RF-SCORE:    0.00 PKD
ROOT
HETATM    1  O   UNL     1      -9.747   6.627  66.936  1.00  0.00    -0.151 OA 
HETATM    2  C   UNL     1     -10.623   5.760  67.655  1.00  0.00    -0.239 C  
HETATM    3  H   UNL     1      -9.416   6.171  66.172  1.00  0.00     0.000 HD 
ENDROOT
BRANCH   2   4
HETATM    4  C   UNL     1     -11.160   6.499  68.894  1.00  0.00    -0.301 C  
BRANCH   4   5
HETATM    5  N   UNL     1     -10.932   5.805  70.181  1.00  0.00    -0.324 NA 
HETATM    6  C   UNL     1      -9.513   5.470  70.412  1.00  0.00    -0.163 C  
HETATM    7  C   UNL     1      -8.602   6.693  70.621  1.00  0.00    -0.142 C  
HETATM    8  C   UNL     1      -9.138   7.566  71.768  1.00  0.00    -0.125 C  
HETATM    9  O   UNL     1      -7.266   6.285  70.932  1.00  0.00    -0.068 OA 
HETATM   10  H   UNL     1      -6.704   7.040  71.061  1.00  0.00     0.000 HD 
HETATM   11  O   UNL     1      -8.471   8.843  71.845  1.00  0.00    -0.348 OA 
HETATM   12  C   UNL     1     -10.630   7.872  71.609  1.00  0.00    -0.221 C  
HETATM   13  O   UNL     1     -11.077   8.565  72.787  1.00  0.00    -0.258 OA 
HETATM   14  H   UNL     1      -8.802   9.382  72.553  1.00  0.00     0.000 HD 
HETATM   15  C   UNL     1     -11.434   6.572  71.363  1.00  0.00    -0.309 C  
HETATM   16  H   UNL     1     -12.003   8.754  72.688  1.00  0.00     0.000 HD 
BRANCH  15  17
HETATM   17  C   UNL     1     -12.955   6.855  71.353  1.00  0.00    -0.280 C  
HETATM   18  O   UNL     1     -13.226   8.238  71.095  1.00  0.00    -0.507 OA 
HETATM   19  H   UNL     1     -14.159   8.413  71.090  1.00  0.00     0.000 HD 
ENDBRANCH  15  17
ENDBRANCH   4   5
ENDBRANCH   2   4
TORSDOF 3
ENDMDL
MODEL      137
REMARK 921   NORMALIZED FREE ENERGY PREDICTED BY IDOCK:   -2.97 KCAL/MOL
REMARK 922        TOTAL FREE ENERGY PREDICTED BY IDOCK:   -3.83 KCAL/MOL
REMARK 923 INTER-LIGAND FREE ENERGY PREDICTED BY IDOCK:   -3.67 KCAL/MOL
REMARK 924 INTRA-LIGAND FREE ENERGY PREDICTED BY IDOCK:   -0.16 KCAL/MOL
REMARK 927      BINDING AFFINITY PREDICTED BY RF-SCORE:    0.00 PKD
ROOT
HETATM    1  O   UNL     1      -6.172  13.195  67.957  1.00  0.00    -0.088 OA 
HETATM    2  C   UNL     1      -7.418  12.922  67.319  1.00  0.00    -0.085 C  
HETATM    3  H   UNL     1      -5.533  12.549  67.681  1.00  0.00     0.000 HD 
ENDROOT
BRANCH   2   4
HETATM    4  C   UNL     1      -8.454  13.969  67.767  1.00  0.00    -0.184 C  
BRANCH   4   5
HETATM    5  N   UNL     1      -9.174  14.644  66.665  1.00  0.00    -0.259 NA 
HETATM    6  C   UNL     1     -10.476  14.021  66.359  1.00  0.00    -0.284 C  
HETATM    7  C   UNL     1     -11.526  14.173  67.475  1.00  0.00    -0.340 C  
HETATM    8  C   UNL     1     -11.715  15.657  67.830  1.00  0.00    -0.032 C  
HETATM    9  O   UNL     1     -12.784  13.627  67.067  1.00  0.00    -0.259 OA 
HETATM   10  H   UNL     1     -13.432  13.721  67.756  1.00  0.00     0.000 HD 
HETATM   11  O   UNL     1     -12.496  15.841  69.028  1.00  0.00    -0.548 OA 
HETATM   12  C   UNL     1     -10.379  16.364  68.077  1.00  0.00    -0.288 C  
HETATM   13  O   UNL     1     -10.637  17.766  68.258  1.00  0.00    -0.369 OA 
HETATM   14  H   UNL     1     -12.612  16.757  69.247  1.00  0.00     0.000 HD 
HETATM   15  C   UNL     1      -9.395  16.103  66.910  1.00  0.00    -0.227 C  
HETATM   16  H   UNL     1      -9.808  18.205  68.411  1.00  0.00     0.000 HD 
BRANCH  15  17
HETATM   17  C   UNL     1      -8.102  16.935  67.080  1.00  0.00    -0.198 C  
HETATM   18  O   UNL     1      -7.756  17.614  65.866  1.00  0.00    -0.508 OA 
HETATM   19  H   UNL     1      -6.963  18.125  65.970  1.00  0.00     0.000 HD 
ENDBRANCH  15  17
ENDBRANCH   4   5
ENDBRANCH   2   4
TORSDOF 3
ENDMDL
MODEL      138
REMARK 921   NORMALIZED FREE ENERGY PREDICTED BY IDOCK:   -2.95 KCAL/MOL
REMARK 922        TOTAL FREE ENERGY PREDICTED BY IDOCK:   -3.81 KCAL/MOL
REMARK 923 INTER-LIGAND FREE ENERGY PREDICTED BY IDOCK:   -3.61 KCAL/MOL
REMARK 924 INTRA-LIGAND FREE ENERGY PREDICTED BY IDOCK:   -0.20 KCAL/MOL
REMARK 927      BINDING AFFINITY PREDICTED BY RF-SCORE:    0.00 PKD
ROOT
HETATM    1  O   UNL     1     -10.942  19.182  66.588  1.00  0.00    -0.331 OA 
HETATM    2  C   UNL     1     -10.320  18.141  65.838  1.00  0.00    -0.277 C  
HETATM    3  H   UNL     1     -11.170  19.894  66.002  1.00  0.00     0.000 HD 
ENDROOT
BRANCH   2   4
HETATM    4  C   UNL     1      -9.950  16.987  66.787  1.00  0.00    -0.295 C  
BRANCH   4   5
HETATM    5  N   UNL     1      -8.933  16.050  66.263  1.00  0.00    -0.319 NA 
HETATM    6  C   UNL     1      -7.556  16.422  66.640  1.00  0.00    -0.253 C  
HETATM    7  C   UNL     1      -7.260  16.298  68.147  1.00  0.00    -0.142 C  
HETATM    8  C   UNL     1      -7.581  14.876  68.637  1.00  0.00    -0.124 C  
HETATM    9  O   UNL     1      -5.885  16.584  68.419  1.00  0.00    -0.115 OA 
HETATM   10  H   UNL     1      -5.702  16.508  69.349  1.00  0.00     0.000 HD 
HETATM   11  O   UNL     1      -7.559  14.773  70.075  1.00  0.00    -0.390 OA 
HETATM   12  C   UNL     1      -8.974  14.418  68.196  1.00  0.00    -0.185 C  
HETATM   13  O   UNL     1      -9.135  13.039  68.570  1.00  0.00    -0.327 OA 
HETATM   14  H   UNL     1      -7.757  13.895  70.378  1.00  0.00     0.000 HD 
HETATM   15  C   UNL     1      -9.168  14.631  66.675  1.00  0.00    -0.267 C  
HETATM   16  H   UNL     1      -9.999  12.754  68.296  1.00  0.00     0.000 HD 
BRANCH  15  17
HETATM   17  C   UNL     1     -10.512  14.031  66.198  1.00  0.00    -0.297 C  
HETATM   18  O   UNL     1     -10.308  12.833  65.440  1.00  0.00    -0.285 OA 
HETATM   19  H   UNL     1     -11.133  12.464  65.147  1.00  0.00     0.000 HD 
ENDBRANCH  15  17
ENDBRANCH   4   5
ENDBRANCH   2   4
TORSDOF 3
ENDMDL
MODEL      139
REMARK 921   NORMALIZED FREE ENERGY PREDICTED BY IDOCK:   -2.94 KCAL/MOL
REMARK 922        TOTAL FREE ENERGY PREDICTED BY IDOCK:   -3.80 KCAL/MOL
REMARK 923 INTER-LIGAND FREE ENERGY PREDICTED BY IDOCK:   -3.43 KCAL/MOL
REMARK 924 INTRA-LIGAND FREE ENERGY PREDICTED BY IDOCK:   -0.37 KCAL/MOL
REMARK 927      BINDING AFFINITY PREDICTED BY RF-SCORE:    0.00 PKD
ROOT
HETATM    1  O   UNL     1      -6.757   8.342  71.237  1.00  0.00    -0.043 OA 
HETATM    2  C   UNL     1      -6.584   7.087  70.582  1.00  0.00    -0.052 C  
HETATM    3  H   UNL     1      -6.105   8.428  71.921  1.00  0.00     0.000 HD 
ENDROOT
BRANCH   2   4
HETATM    4  C   UNL     1      -7.642   6.946  69.472  1.00  0.00    -0.099 C  
BRANCH   4   5
HETATM    5  N   UNL     1      -8.552   8.103  69.328  1.00  0.00    -0.134 NA 
HETATM    6  C   UNL     1      -8.603   8.629  67.950  1.00  0.00    -0.137 C  
HETATM    7  C   UNL     1      -9.252   7.671  66.933  1.00  0.00    -0.145 C  
HETATM    8  C   UNL     1     -10.659   7.269  67.404  1.00  0.00    -0.300 C  
HETATM    9  O   UNL     1      -9.349   8.287  65.645  1.00  0.00    -0.408 OA 
HETATM   10  H   UNL     1      -9.749   7.696  65.018  1.00  0.00     0.000 HD 
HETATM   11  O   UNL     1     -11.211   6.189  66.623  1.00  0.00    -0.724 OA 
HETATM   12  C   UNL     1     -10.665   6.792  68.858  1.00  0.00    -0.240 C  
HETATM   13  O   UNL     1     -12.029   6.575  69.258  1.00  0.00    -0.519 OA 
HETATM   14  H   UNL     1     -12.081   5.941  66.914  1.00  0.00     0.000 HD 
HETATM   15  C   UNL     1      -9.950   7.815  69.775  1.00  0.00    -0.189 C  
HETATM   16  H   UNL     1     -12.032   6.279  70.161  1.00  0.00     0.000 HD 
BRANCH  15  17
HETATM   17  C   UNL     1     -10.085   7.414  71.263  1.00  0.00    -0.188 C  
HETATM   18  O   UNL     1     -11.282   7.949  71.840  1.00  0.00    -0.249 OA 
HETATM   19  H   UNL     1     -11.365   7.703  72.754  1.00  0.00     0.000 HD 
ENDBRANCH  15  17
ENDBRANCH   4   5
ENDBRANCH   2   4
TORSDOF 3
ENDMDL
MODEL      140
REMARK 921   NORMALIZED FREE ENERGY PREDICTED BY IDOCK:   -2.93 KCAL/MOL
REMARK 922        TOTAL FREE ENERGY PREDICTED BY IDOCK:   -3.79 KCAL/MOL
REMARK 923 INTER-LIGAND FREE ENERGY PREDICTED BY IDOCK:   -3.44 KCAL/MOL
REMARK 924 INTRA-LIGAND FREE ENERGY PREDICTED BY IDOCK:   -0.35 KCAL/MOL
REMARK 927      BINDING AFFINITY PREDICTED BY RF-SCORE:    0.00 PKD
ROOT
HETATM    1  O   UNL     1      -6.941   6.389  72.477  1.00  0.00    -0.072 OA 
HETATM    2  C   UNL     1      -7.146   7.636  73.138  1.00  0.00    -0.074 C  
HETATM    3  H   UNL     1      -6.059   6.084  72.653  1.00  0.00     0.000 HD 
ENDROOT
BRANCH   2   4
HETATM    4  C   UNL     1      -8.575   8.131  72.852  1.00  0.00    -0.205 C  
BRANCH   4   5
HETATM    5  N   UNL     1      -9.145   7.681  71.563  1.00  0.00    -0.131 NA 
HETATM    6  C   UNL     1     -10.370   6.875  71.723  1.00  0.00    -0.198 C  
HETATM    7  C   UNL     1     -11.576   7.663  72.269  1.00  0.00    -0.322 C  
HETATM    8  C   UNL     1     -11.855   8.889  71.384  1.00  0.00    -0.317 C  
HETATM    9  O   UNL     1     -12.746   6.840  72.307  1.00  0.00    -0.536 OA 
HETATM   10  H   UNL     1     -13.489   7.326  72.644  1.00  0.00     0.000 HD 
HETATM   11  O   UNL     1     -12.807   9.793  71.982  1.00  0.00    -0.395 OA 
HETATM   12  C   UNL     1     -10.589   9.711  71.125  1.00  0.00    -0.257 C  
HETATM   13  O   UNL     1     -10.909  10.748  70.181  1.00  0.00    -0.443 OA 
HETATM   14  H   UNL     1     -12.980  10.550  71.435  1.00  0.00     0.000 HD 
HETATM   15  C   UNL     1      -9.438   8.806  70.622  1.00  0.00    -0.197 C  
HETATM   16  H   UNL     1     -10.124  11.258  70.020  1.00  0.00     0.000 HD 
BRANCH  15  17
HETATM   17  C   UNL     1      -8.208   9.650  70.215  1.00  0.00    -0.191 C  
HETATM   18  O   UNL     1      -8.179   9.881  68.801  1.00  0.00    -0.106 OA 
HETATM   19  H   UNL     1      -7.423  10.398  68.551  1.00  0.00     0.000 HD 
ENDBRANCH  15  17
ENDBRANCH   4   5
ENDBRANCH   2   4
TORSDOF 3
ENDMDL
MODEL      141
REMARK 921   NORMALIZED FREE ENERGY PREDICTED BY IDOCK:   -2.92 KCAL/MOL
REMARK 922        TOTAL FREE ENERGY PREDICTED BY IDOCK:   -3.78 KCAL/MOL
REMARK 923 INTER-LIGAND FREE ENERGY PREDICTED BY IDOCK:   -3.42 KCAL/MOL
REMARK 924 INTRA-LIGAND FREE ENERGY PREDICTED BY IDOCK:   -0.36 KCAL/MOL
REMARK 927      BINDING AFFINITY PREDICTED BY RF-SCORE:    0.00 PKD
ROOT
HETATM    1  O   UNL     1     -12.371   7.892  73.005  1.00  0.00    -0.600 OA 
HETATM    2  C   UNL     1     -12.266   7.219  71.752  1.00  0.00    -0.334 C  
HETATM    3  H   UNL     1     -12.868   7.352  73.608  1.00  0.00     0.000 HD 
ENDROOT
BRANCH   2   4
HETATM    4  C   UNL     1     -11.460   8.094  70.775  1.00  0.00    -0.261 C  
BRANCH   4   5
HETATM    5  N   UNL     1     -10.298   7.425  70.152  1.00  0.00    -0.210 NA 
HETATM    6  C   UNL     1     -10.256   7.585  68.686  1.00  0.00    -0.197 C  
HETATM    7  C   UNL     1      -9.995   9.028  68.217  1.00  0.00    -0.173 C  
HETATM    8  C   UNL     1      -8.702   9.569  68.849  1.00  0.00    -0.133 C  
HETATM    9  O   UNL     1      -9.876   9.086  66.792  1.00  0.00    -0.192 OA 
HETATM   10  H   UNL     1      -9.716   9.976  66.502  1.00  0.00     0.000 HD 
HETATM   11  O   UNL     1      -8.541  10.987  68.644  1.00  0.00    -0.147 OA 
HETATM   12  C   UNL     1      -8.668   9.349  70.364  1.00  0.00    -0.240 C  
HETATM   13  O   UNL     1      -7.375   9.749  70.850  1.00  0.00    -0.321 OA 
HETATM   14  H   UNL     1      -7.742  11.321  69.035  1.00  0.00     0.000 HD 
HETATM   15  C   UNL     1      -8.986   7.874  70.714  1.00  0.00    -0.140 C  
HETATM   16  H   UNL     1      -7.354   9.613  71.790  1.00  0.00     0.000 HD 
BRANCH  15  17
HETATM   17  C   UNL     1      -8.804   7.612  72.227  1.00  0.00    -0.131 C  
HETATM   18  O   UNL     1      -8.855   8.832  72.977  1.00  0.00    -0.340 OA 
HETATM   19  H   UNL     1      -8.743   8.671  73.906  1.00  0.00     0.000 HD 
ENDBRANCH  15  17
ENDBRANCH   4   5
ENDBRANCH   2   4
TORSDOF 3
ENDMDL
MODEL      142
REMARK 921   NORMALIZED FREE ENERGY PREDICTED BY IDOCK:   -2.92 KCAL/MOL
REMARK 922        TOTAL FREE ENERGY PREDICTED BY IDOCK:   -3.78 KCAL/MOL
REMARK 923 INTER-LIGAND FREE ENERGY PREDICTED BY IDOCK:   -3.55 KCAL/MOL
REMARK 924 INTRA-LIGAND FREE ENERGY PREDICTED BY IDOCK:   -0.23 KCAL/MOL
REMARK 927      BINDING AFFINITY PREDICTED BY RF-SCORE:    0.00 PKD
ROOT
HETATM    1  O   UNL     1     -11.893  11.441  71.050  1.00  0.00    -0.320 OA 
HETATM    2  C   UNL     1     -12.248  11.894  69.745  1.00  0.00    -0.174 C  
HETATM    3  H   UNL     1     -12.171  12.086  71.689  1.00  0.00     0.000 HD 
ENDROOT
BRANCH   2   4
HETATM    4  C   UNL     1     -11.797  10.850  68.708  1.00  0.00    -0.235 C  
BRANCH   4   5
HETATM    5  N   UNL     1     -10.384  10.429  68.821  1.00  0.00    -0.184 NA 
HETATM    6  C   UNL     1     -10.218   9.153  69.544  1.00  0.00    -0.203 C  
HETATM    7  C   UNL     1     -10.785   7.929  68.801  1.00  0.00    -0.051 C  
HETATM    8  C   UNL     1     -10.173   7.829  67.395  1.00  0.00    -0.251 C  
HETATM    9  O   UNL     1     -10.503   6.724  69.519  1.00  0.00    -0.199 OA 
HETATM   10  H   UNL     1     -10.854   5.969  69.061  1.00  0.00     0.000 HD 
HETATM   11  O   UNL     1     -10.845   6.855  66.571  1.00  0.00    -0.509 OA 
HETATM   12  C   UNL     1     -10.251   9.157  66.638  1.00  0.00    -0.258 C  
HETATM   13  O   UNL     1      -9.534   9.015  65.400  1.00  0.00    -0.409 OA 
HETATM   14  H   UNL     1     -10.467   6.793  65.702  1.00  0.00     0.000 HD 
HETATM   15  C   UNL     1      -9.692  10.316  67.500  1.00  0.00    -0.169 C  
HETATM   16  H   UNL     1      -9.583   9.840  64.930  1.00  0.00     0.000 HD 
BRANCH  15  17
HETATM   17  C   UNL     1      -9.628  11.630  66.687  1.00  0.00    -0.204 C  
HETATM   18  O   UNL     1      -8.360  11.780  66.036  1.00  0.00    -0.382 OA 
HETATM   19  H   UNL     1      -8.321  12.587  65.537  1.00  0.00     0.000 HD 
ENDBRANCH  15  17
ENDBRANCH   4   5
ENDBRANCH   2   4
TORSDOF 3
ENDMDL
MODEL      143
REMARK 921   NORMALIZED FREE ENERGY PREDICTED BY IDOCK:   -2.92 KCAL/MOL
REMARK 922        TOTAL FREE ENERGY PREDICTED BY IDOCK:   -3.78 KCAL/MOL
REMARK 923 INTER-LIGAND FREE ENERGY PREDICTED BY IDOCK:   -3.40 KCAL/MOL
REMARK 924 INTRA-LIGAND FREE ENERGY PREDICTED BY IDOCK:   -0.37 KCAL/MOL
REMARK 927      BINDING AFFINITY PREDICTED BY RF-SCORE:    0.00 PKD
ROOT
HETATM    1  O   UNL     1     -11.862   6.820  69.585  1.00  0.00    -0.633 OA 
HETATM    2  C   UNL     1     -10.472   6.899  69.273  1.00  0.00    -0.214 C  
HETATM    3  H   UNL     1     -12.123   5.908  69.614  1.00  0.00     0.000 HD 
ENDROOT
BRANCH   2   4
HETATM    4  C   UNL     1     -10.048   8.378  69.225  1.00  0.00    -0.202 C  
BRANCH   4   5
HETATM    5  N   UNL     1      -9.677   8.878  67.883  1.00  0.00    -0.155 NA 
HETATM    6  C   UNL     1     -10.759   9.640  67.231  1.00  0.00    -0.214 C  
HETATM    7  C   UNL     1     -11.087  10.980  67.916  1.00  0.00    -0.288 C  
HETATM    8  C   UNL     1      -9.819  11.843  68.030  1.00  0.00    -0.190 C  
HETATM    9  O   UNL     1     -12.076  11.701  67.175  1.00  0.00    -0.575 OA 
HETATM   10  H   UNL     1     -12.278  12.528  67.598  1.00  0.00     0.000 HD 
HETATM   11  O   UNL     1     -10.013  12.994  68.878  1.00  0.00    -0.417 OA 
HETATM   12  C   UNL     1      -8.645  11.064  68.629  1.00  0.00    -0.157 C  
HETATM   13  O   UNL     1      -7.473  11.895  68.567  1.00  0.00    -0.106 OA 
HETATM   14  H   UNL     1      -9.230  13.528  68.948  1.00  0.00     0.000 HD 
HETATM   15  C   UNL     1      -8.441   9.720  67.887  1.00  0.00    -0.125 C  
HETATM   16  H   UNL     1      -6.744  11.411  68.938  1.00  0.00     0.000 HD 
BRANCH  15  17
HETATM   17  C   UNL     1      -7.166   9.000  68.385  1.00  0.00    -0.077 C  
HETATM   18  O   UNL     1      -6.801   9.438  69.699  1.00  0.00    -0.051 OA 
HETATM   19  H   UNL     1      -6.018   8.996  70.005  1.00  0.00     0.000 HD 
ENDBRANCH  15  17
ENDBRANCH   4   5
ENDBRANCH   2   4
TORSDOF 3
ENDMDL
MODEL      144
REMARK 921   NORMALIZED FREE ENERGY PREDICTED BY IDOCK:   -2.92 KCAL/MOL
REMARK 922        TOTAL FREE ENERGY PREDICTED BY IDOCK:   -3.78 KCAL/MOL
REMARK 923 INTER-LIGAND FREE ENERGY PREDICTED BY IDOCK:   -3.65 KCAL/MOL
REMARK 924 INTRA-LIGAND FREE ENERGY PREDICTED BY IDOCK:   -0.12 KCAL/MOL
REMARK 927      BINDING AFFINITY PREDICTED BY RF-SCORE:    0.00 PKD
ROOT
HETATM    1  O   UNL     1     -11.584   6.499  67.052  1.00  0.00    -0.729 OA 
HETATM    2  C   UNL     1     -10.262   7.029  66.977  1.00  0.00    -0.260 C  
HETATM    3  H   UNL     1     -11.538   5.551  67.072  1.00  0.00     0.000 HD 
ENDROOT
BRANCH   2   4
HETATM    4  C   UNL     1     -10.335   8.566  66.945  1.00  0.00    -0.297 C  
BRANCH   4   5
HETATM    5  N   UNL     1      -9.027   9.252  66.870  1.00  0.00    -0.129 NA 
HETATM    6  C   UNL     1      -8.133   8.680  65.845  1.00  0.00    -0.111 C  
HETATM    7  C   UNL     1      -8.613   8.897  64.398  1.00  0.00    -0.115 C  
HETATM    8  C   UNL     1      -8.841  10.394  64.132  1.00  0.00    -0.214 C  
HETATM    9  O   UNL     1      -7.651   8.399  63.464  1.00  0.00    -0.118 OA 
HETATM   10  H   UNL     1      -7.947   8.533  62.571  1.00  0.00     0.000 HD 
HETATM   11  O   UNL     1      -9.522  10.633  62.884  1.00  0.00    -0.284 OA 
HETATM   12  C   UNL     1      -9.699  11.047  65.219  1.00  0.00    -0.239 C  
HETATM   13  O   UNL     1      -9.742  12.463  64.972  1.00  0.00    -0.438 OA 
HETATM   14  H   UNL     1      -9.662  11.558  62.719  1.00  0.00     0.000 HD 
HETATM   15  C   UNL     1      -9.143  10.723  66.628  1.00  0.00    -0.159 C  
HETATM   16  H   UNL     1     -10.274  12.868  65.646  1.00  0.00     0.000 HD 
BRANCH  15  17
HETATM   17  C   UNL     1      -9.913  11.502  67.720  1.00  0.00    -0.183 C  
HETATM   18  O   UNL     1      -9.107  11.697  68.888  1.00  0.00    -0.379 OA 
HETATM   19  H   UNL     1      -9.580  12.175  69.559  1.00  0.00     0.000 HD 
ENDBRANCH  15  17
ENDBRANCH   4   5
ENDBRANCH   2   4
TORSDOF 3
ENDMDL
MODEL      145
REMARK 921   NORMALIZED FREE ENERGY PREDICTED BY IDOCK:   -2.92 KCAL/MOL
REMARK 922        TOTAL FREE ENERGY PREDICTED BY IDOCK:   -3.77 KCAL/MOL
REMARK 923 INTER-LIGAND FREE ENERGY PREDICTED BY IDOCK:   -3.41 KCAL/MOL
REMARK 924 INTRA-LIGAND FREE ENERGY PREDICTED BY IDOCK:   -0.36 KCAL/MOL
REMARK 927      BINDING AFFINITY PREDICTED BY RF-SCORE:    0.00 PKD
ROOT
HETATM    1  O   UNL     1      -6.676   6.804  68.036  1.00  0.00    -0.062 OA 
HETATM    2  C   UNL     1      -8.090   6.954  67.917  1.00  0.00    -0.114 C  
HETATM    3  H   UNL     1      -6.300   6.698  67.170  1.00  0.00     0.000 HD 
ENDROOT
BRANCH   2   4
HETATM    4  C   UNL     1      -8.699   7.126  69.320  1.00  0.00    -0.136 C  
BRANCH   4   5
HETATM    5  N   UNL     1      -8.978   8.524  69.712  1.00  0.00    -0.144 NA 
HETATM    6  C   UNL     1     -10.412   8.867  69.650  1.00  0.00    -0.216 C  
HETATM    7  C   UNL     1     -11.280   8.137  70.692  1.00  0.00    -0.260 C  
HETATM    8  C   UNL     1     -10.733   8.384  72.107  1.00  0.00    -0.337 C  
HETATM    9  O   UNL     1     -12.636   8.590  70.631  1.00  0.00    -0.482 OA 
HETATM   10  H   UNL     1     -13.171   8.139  71.273  1.00  0.00     0.000 HD 
HETATM   11  O   UNL     1     -11.352   7.531  73.092  1.00  0.00    -0.571 OA 
HETATM   12  C   UNL     1      -9.228   8.118  72.196  1.00  0.00    -0.194 C  
HETATM   13  O   UNL     1      -8.777   8.508  73.505  1.00  0.00    -0.314 OA 
HETATM   14  H   UNL     1     -11.014   7.684  73.966  1.00  0.00     0.000 HD 
HETATM   15  C   UNL     1      -8.469   8.869  71.075  1.00  0.00    -0.198 C  
HETATM   16  H   UNL     1      -7.842   8.343  73.560  1.00  0.00     0.000 HD 
BRANCH  15  17
HETATM   17  C   UNL     1      -6.938   8.727  71.251  1.00  0.00    -0.088 C  
HETATM   18  O   UNL     1      -6.476   9.453  72.397  1.00  0.00    -0.298 OA 
HETATM   19  H   UNL     1      -5.537   9.366  72.505  1.00  0.00     0.000 HD 
ENDBRANCH  15  17
ENDBRANCH   4   5
ENDBRANCH   2   4
TORSDOF 3
ENDMDL
MODEL      146
REMARK 921   NORMALIZED FREE ENERGY PREDICTED BY IDOCK:   -2.91 KCAL/MOL
REMARK 922        TOTAL FREE ENERGY PREDICTED BY IDOCK:   -3.77 KCAL/MOL
REMARK 923 INTER-LIGAND FREE ENERGY PREDICTED BY IDOCK:   -3.40 KCAL/MOL
REMARK 924 INTRA-LIGAND FREE ENERGY PREDICTED BY IDOCK:   -0.37 KCAL/MOL
REMARK 927      BINDING AFFINITY PREDICTED BY RF-SCORE:    0.00 PKD
ROOT
HETATM    1  O   UNL     1      -7.329   9.713  71.307  1.00  0.00    -0.322 OA 
HETATM    2  C   UNL     1      -8.398   8.801  71.549  1.00  0.00    -0.152 C  
HETATM    3  H   UNL     1      -7.047  10.089  72.132  1.00  0.00     0.000 HD 
ENDROOT
BRANCH   2   4
HETATM    4  C   UNL     1      -8.856   8.192  70.212  1.00  0.00    -0.141 C  
BRANCH   4   5
HETATM    5  N   UNL     1     -10.313   8.252  69.965  1.00  0.00    -0.207 NA 
HETATM    6  C   UNL     1     -10.758   9.563  69.454  1.00  0.00    -0.225 C  
HETATM    7  C   UNL     1     -10.250   9.893  68.038  1.00  0.00    -0.182 C  
HETATM    8  C   UNL     1     -10.643   8.777  67.058  1.00  0.00    -0.213 C  
HETATM    9  O   UNL     1     -10.798  11.132  67.578  1.00  0.00    -0.219 OA 
HETATM   10  H   UNL     1     -10.484  11.336  66.705  1.00  0.00     0.000 HD 
HETATM   11  O   UNL     1      -9.986   8.911  65.781  1.00  0.00    -0.459 OA 
HETATM   12  C   UNL     1     -10.271   7.389  67.587  1.00  0.00    -0.201 C  
HETATM   13  O   UNL     1     -10.799   6.404  66.682  1.00  0.00    -0.493 OA 
HETATM   14  H   UNL     1     -10.229   8.221  65.175  1.00  0.00     0.000 HD 
HETATM   15  C   UNL     1     -10.798   7.191  69.029  1.00  0.00    -0.146 C  
HETATM   16  H   UNL     1     -10.568   5.543  67.011  1.00  0.00     0.000 HD 
BRANCH  15  17
HETATM   17  C   UNL     1     -10.559   5.741  69.512  1.00  0.00    -0.319 C  
HETATM   18  O   UNL     1      -9.518   5.106  68.760  1.00  0.00    -0.119 OA 
HETATM   19  H   UNL     1      -9.371   4.216  69.056  1.00  0.00     0.000 HD 
ENDBRANCH  15  17
ENDBRANCH   4   5
ENDBRANCH   2   4
TORSDOF 3
ENDMDL
MODEL      147
REMARK 921   NORMALIZED FREE ENERGY PREDICTED BY IDOCK:   -2.88 KCAL/MOL
REMARK 922        TOTAL FREE ENERGY PREDICTED BY IDOCK:   -3.73 KCAL/MOL
REMARK 923 INTER-LIGAND FREE ENERGY PREDICTED BY IDOCK:   -3.32 KCAL/MOL
REMARK 924 INTRA-LIGAND FREE ENERGY PREDICTED BY IDOCK:   -0.41 KCAL/MOL
REMARK 927      BINDING AFFINITY PREDICTED BY RF-SCORE:    0.00 PKD
ROOT
HETATM    1  O   UNL     1      -5.752  10.668  70.470  1.00  0.00    -0.080 OA 
HETATM    2  C   UNL     1      -6.591   9.514  70.490  1.00  0.00    -0.094 C  
HETATM    3  H   UNL     1      -4.904  10.441  70.832  1.00  0.00     0.000 HD 
ENDROOT
BRANCH   2   4
HETATM    4  C   UNL     1      -7.966   9.881  69.903  1.00  0.00    -0.182 C  
BRANCH   4   5
HETATM    5  N   UNL     1      -8.048   9.832  68.427  1.00  0.00    -0.103 NA 
HETATM    6  C   UNL     1      -8.887   8.724  67.931  1.00  0.00    -0.136 C  
HETATM    7  C   UNL     1     -10.384   8.871  68.261  1.00  0.00    -0.206 C  
HETATM    8  C   UNL     1     -10.914  10.217  67.739  1.00  0.00    -0.277 C  
HETATM    9  O   UNL     1     -11.141   7.811  67.668  1.00  0.00    -0.508 OA 
HETATM   10  H   UNL     1     -12.065   7.901  67.872  1.00  0.00     0.000 HD 
HETATM   11  O   UNL     1     -12.237  10.515  68.232  1.00  0.00    -0.744 OA 
HETATM   12  C   UNL     1     -10.025  11.389  68.164  1.00  0.00    -0.189 C  
HETATM   13  O   UNL     1     -10.509  12.579  67.519  1.00  0.00    -0.216 OA 
HETATM   14  H   UNL     1     -12.564  11.346  67.909  1.00  0.00     0.000 HD 
HETATM   15  C   UNL     1      -8.542  11.107  67.820  1.00  0.00    -0.131 C  
HETATM   16  H   UNL     1      -9.957  13.307  67.783  1.00  0.00     0.000 HD 
BRANCH  15  17
HETATM   17  C   UNL     1      -7.662  12.346  68.107  1.00  0.00    -0.139 C  
HETATM   18  O   UNL     1      -8.263  13.196  69.092  1.00  0.00    -0.314 OA 
HETATM   19  H   UNL     1      -7.723  13.956  69.268  1.00  0.00     0.000 HD 
ENDBRANCH  15  17
ENDBRANCH   4   5
ENDBRANCH   2   4
TORSDOF 3
ENDMDL
MODEL      148
REMARK 921   NORMALIZED FREE ENERGY PREDICTED BY IDOCK:   -2.88 KCAL/MOL
REMARK 922        TOTAL FREE ENERGY PREDICTED BY IDOCK:   -3.72 KCAL/MOL
REMARK 923 INTER-LIGAND FREE ENERGY PREDICTED BY IDOCK:   -3.40 KCAL/MOL
REMARK 924 INTRA-LIGAND FREE ENERGY PREDICTED BY IDOCK:   -0.32 KCAL/MOL
REMARK 927      BINDING AFFINITY PREDICTED BY RF-SCORE:    0.00 PKD
ROOT
HETATM    1  O   UNL     1      -8.208   6.375  65.069  1.00  0.00    -0.140 OA 
HETATM    2  C   UNL     1      -8.123   6.703  66.455  1.00  0.00    -0.113 C  
HETATM    3  H   UNL     1      -8.018   5.451  64.956  1.00  0.00     0.000 HD 
ENDROOT
BRANCH   2   4
HETATM    4  C   UNL     1      -8.431   8.200  66.639  1.00  0.00    -0.128 C  
BRANCH   4   5
HETATM    5  N   UNL     1      -9.788   8.614  66.221  1.00  0.00    -0.270 NA 
HETATM    6  C   UNL     1     -10.775   8.543  67.316  1.00  0.00    -0.149 C  
HETATM    7  C   UNL     1     -10.538   9.564  68.445  1.00  0.00    -0.219 C  
HETATM    8  C   UNL     1     -10.478  10.989  67.870  1.00  0.00    -0.192 C  
HETATM    9  O   UNL     1     -11.585   9.497  69.418  1.00  0.00    -0.441 OA 
HETATM   10  H   UNL     1     -11.438  10.127  70.115  1.00  0.00     0.000 HD 
HETATM   11  O   UNL     1     -10.015  11.952  68.839  1.00  0.00    -0.382 OA 
HETATM   12  C   UNL     1      -9.524  11.088  66.678  1.00  0.00    -0.184 C  
HETATM   13  O   UNL     1      -9.637  12.407  66.117  1.00  0.00    -0.244 OA 
HETATM   14  H   UNL     1      -9.978  12.833  68.484  1.00  0.00     0.000 HD 
HETATM   15  C   UNL     1      -9.833   9.988  65.633  1.00  0.00    -0.295 C  
HETATM   16  H   UNL     1      -9.044  12.469  65.376  1.00  0.00     0.000 HD 
BRANCH  15  17
HETATM   17  C   UNL     1      -8.974  10.177  64.360  1.00  0.00    -0.233 C  
HETATM   18  O   UNL     1      -9.050   9.029  63.505  1.00  0.00    -0.415 OA 
HETATM   19  H   UNL     1      -8.523   9.144  62.724  1.00  0.00     0.000 HD 
ENDBRANCH  15  17
ENDBRANCH   4   5
ENDBRANCH   2   4
TORSDOF 3
ENDMDL
MODEL      149
REMARK 921   NORMALIZED FREE ENERGY PREDICTED BY IDOCK:   -2.87 KCAL/MOL
REMARK 922        TOTAL FREE ENERGY PREDICTED BY IDOCK:   -3.72 KCAL/MOL
REMARK 923 INTER-LIGAND FREE ENERGY PREDICTED BY IDOCK:   -3.86 KCAL/MOL
REMARK 924 INTRA-LIGAND FREE ENERGY PREDICTED BY IDOCK:    0.14 KCAL/MOL
REMARK 927      BINDING AFFINITY PREDICTED BY RF-SCORE:    0.00 PKD
ROOT
HETATM    1  O   UNL     1     -11.320  15.027  68.550  1.00  0.00    -0.274 OA 
HETATM    2  C   UNL     1     -12.167  14.643  67.468  1.00  0.00    -0.046 C  
HETATM    3  H   UNL     1     -11.805  15.593  69.139  1.00  0.00     0.000 HD 
ENDROOT
BRANCH   2   4
HETATM    4  C   UNL     1     -11.382  13.725  66.514  1.00  0.00    -0.325 C  
BRANCH   4   5
HETATM    5  N   UNL     1     -11.963  12.378  66.326  1.00  0.00    -0.607 NA 
HETATM    6  C   UNL     1     -12.737  12.252  65.076  1.00  0.00     0.085 C  
HETATM    7  C   UNL     1     -11.885  12.338  63.796  1.00  0.00    -0.498 C  
HETATM    8  C   UNL     1     -10.758  11.293  63.834  1.00  0.00    -0.384 C  
HETATM    9  O   UNL     1     -12.689  12.114  62.634  1.00  0.00    -0.265 OA 
HETATM   10  H   UNL     1     -12.164  12.168  61.844  1.00  0.00     0.000 HD 
HETATM   11  O   UNL     1      -9.788  11.491  62.785  1.00  0.00    -0.575 OA 
HETATM   12  C   UNL     1      -9.979  11.335  65.151  1.00  0.00    -0.264 C  
HETATM   13  O   UNL     1      -9.048  10.240  65.160  1.00  0.00    -0.169 OA 
HETATM   14  H   UNL     1      -9.093  10.845  62.809  1.00  0.00     0.000 HD 
HETATM   15  C   UNL     1     -10.943  11.284  66.362  1.00  0.00    -0.227 C  
HETATM   16  H   UNL     1      -8.564  10.266  65.978  1.00  0.00     0.000 HD 
BRANCH  15  17
HETATM   17  C   UNL     1     -10.158  11.173  67.690  1.00  0.00    -0.179 C  
HETATM   18  O   UNL     1      -8.981  10.371  67.535  1.00  0.00    -0.134 OA 
HETATM   19  H   UNL     1      -8.499  10.303  68.350  1.00  0.00     0.000 HD 
ENDBRANCH  15  17
ENDBRANCH   4   5
ENDBRANCH   2   4
TORSDOF 3
ENDMDL
MODEL      150
REMARK 921   NORMALIZED FREE ENERGY PREDICTED BY IDOCK:   -2.87 KCAL/MOL
REMARK 922        TOTAL FREE ENERGY PREDICTED BY IDOCK:   -3.72 KCAL/MOL
REMARK 923 INTER-LIGAND FREE ENERGY PREDICTED BY IDOCK:   -3.53 KCAL/MOL
REMARK 924 INTRA-LIGAND FREE ENERGY PREDICTED BY IDOCK:   -0.19 KCAL/MOL
REMARK 927      BINDING AFFINITY PREDICTED BY RF-SCORE:    0.00 PKD
ROOT
HETATM    1  O   UNL     1     -11.537   6.541  67.191  1.00  0.00    -0.743 OA 
HETATM    2  C   UNL     1     -10.146   6.798  67.372  1.00  0.00    -0.175 C  
HETATM    3  H   UNL     1     -11.674   5.604  67.118  1.00  0.00     0.000 HD 
ENDROOT
BRANCH   2   4
HETATM    4  C   UNL     1      -9.924   8.317  67.490  1.00  0.00    -0.193 C  
BRANCH   4   5
HETATM    5  N   UNL     1     -10.133   8.874  68.844  1.00  0.00    -0.192 NA 
HETATM    6  C   UNL     1      -9.243   8.278  69.858  1.00  0.00    -0.154 C  
HETATM    7  C   UNL     1      -7.754   8.625  69.672  1.00  0.00    -0.089 C  
HETATM    8  C   UNL     1      -7.565  10.150  69.626  1.00  0.00    -0.156 C  
HETATM    9  O   UNL     1      -6.970   8.090  70.743  1.00  0.00    -0.044 OA 
HETATM   10  H   UNL     1      -6.051   8.304  70.628  1.00  0.00     0.000 HD 
HETATM   11  O   UNL     1      -6.237  10.526  69.208  1.00  0.00    -0.043 OA 
HETATM   12  C   UNL     1      -8.528  10.819  68.642  1.00  0.00    -0.143 C  
HETATM   13  O   UNL     1      -8.384  12.244  68.767  1.00  0.00    -0.335 OA 
HETATM   14  H   UNL     1      -6.120  11.468  69.180  1.00  0.00     0.000 HD 
HETATM   15  C   UNL     1      -9.985  10.362  68.901  1.00  0.00    -0.199 C  
HETATM   16  H   UNL     1      -8.982  12.660  68.157  1.00  0.00     0.000 HD 
BRANCH  15  17
HETATM   17  C   UNL     1     -10.978  11.147  68.013  1.00  0.00    -0.252 C  
HETATM   18  O   UNL     1     -12.336  10.829  68.343  1.00  0.00    -0.813 OA 
HETATM   19  H   UNL     1     -12.946  11.311  67.798  1.00  0.00     0.000 HD 
ENDBRANCH  15  17
ENDBRANCH   4   5
ENDBRANCH   2   4
TORSDOF 3
ENDMDL
MODEL      151
REMARK 921   NORMALIZED FREE ENERGY PREDICTED BY IDOCK:   -2.87 KCAL/MOL
REMARK 922        TOTAL FREE ENERGY PREDICTED BY IDOCK:   -3.72 KCAL/MOL
REMARK 923 INTER-LIGAND FREE ENERGY PREDICTED BY IDOCK:   -3.34 KCAL/MOL
REMARK 924 INTRA-LIGAND FREE ENERGY PREDICTED BY IDOCK:   -0.37 KCAL/MOL
REMARK 927      BINDING AFFINITY PREDICTED BY RF-SCORE:    0.00 PKD
ROOT
HETATM    1  O   UNL     1     -12.263  12.314  66.041  1.00  0.00    -0.646 OA 
HETATM    2  C   UNL     1     -11.244  11.534  65.418  1.00  0.00    -0.140 C  
HETATM    3  H   UNL     1     -12.847  12.652  65.373  1.00  0.00     0.000 HD 
ENDROOT
BRANCH   2   4
HETATM    4  C   UNL     1     -10.297  10.984  66.500  1.00  0.00    -0.245 C  
BRANCH   4   5
HETATM    5  N   UNL     1     -10.760   9.747  67.165  1.00  0.00    -0.237 NA 
HETATM    6  C   UNL     1      -9.996   8.552  66.757  1.00  0.00    -0.281 C  
HETATM    7  C   UNL     1      -8.528   8.552  67.222  1.00  0.00    -0.123 C  
HETATM    8  C   UNL     1      -8.453   8.738  68.746  1.00  0.00    -0.129 C  
HETATM    9  O   UNL     1      -7.884   7.324  66.870  1.00  0.00    -0.107 OA 
HETATM   10  H   UNL     1      -6.978   7.324  67.157  1.00  0.00     0.000 HD 
HETATM   11  O   UNL     1      -7.109   8.993  69.203  1.00  0.00    -0.061 OA 
HETATM   12  C   UNL     1      -9.299   9.922  69.223  1.00  0.00    -0.206 C  
HETATM   13  O   UNL     1      -9.287   9.936  70.661  1.00  0.00    -0.324 OA 
HETATM   14  H   UNL     1      -7.062   9.108  70.144  1.00  0.00     0.000 HD 
HETATM   15  C   UNL     1     -10.738   9.834  68.658  1.00  0.00    -0.216 C  
HETATM   16  H   UNL     1      -9.811  10.671  70.957  1.00  0.00     0.000 HD 
BRANCH  15  17
HETATM   17  C   UNL     1     -11.637  10.941  69.257  1.00  0.00    -0.318 C  
HETATM   18  O   UNL     1     -11.906  10.701  70.644  1.00  0.00    -0.312 OA 
HETATM   19  H   UNL     1     -12.458  11.380  71.011  1.00  0.00     0.000 HD 
ENDBRANCH  15  17
ENDBRANCH   4   5
ENDBRANCH   2   4
TORSDOF 3
ENDMDL
MODEL      152
REMARK 921   NORMALIZED FREE ENERGY PREDICTED BY IDOCK:   -2.87 KCAL/MOL
REMARK 922        TOTAL FREE ENERGY PREDICTED BY IDOCK:   -3.71 KCAL/MOL
REMARK 923 INTER-LIGAND FREE ENERGY PREDICTED BY IDOCK:   -3.33 KCAL/MOL
REMARK 924 INTRA-LIGAND FREE ENERGY PREDICTED BY IDOCK:   -0.39 KCAL/MOL
REMARK 927      BINDING AFFINITY PREDICTED BY RF-SCORE:    0.00 PKD
ROOT
HETATM    1  O   UNL     1      -6.176   7.882  68.621  1.00  0.00    -0.038 OA 
HETATM    2  C   UNL     1      -7.244   8.208  67.735  1.00  0.00    -0.091 C  
HETATM    3  H   UNL     1      -5.353   7.933  68.149  1.00  0.00     0.000 HD 
ENDROOT
BRANCH   2   4
HETATM    4  C   UNL     1      -8.578   8.125  68.500  1.00  0.00    -0.130 C  
BRANCH   4   5
HETATM    5  N   UNL     1      -8.639   8.937  69.735  1.00  0.00    -0.128 NA 
HETATM    6  C   UNL     1      -8.629  10.390  69.472  1.00  0.00    -0.093 C  
HETATM    7  C   UNL     1      -9.894  10.911  68.766  1.00  0.00    -0.196 C  
HETATM    8  C   UNL     1     -11.149  10.522  69.564  1.00  0.00    -0.268 C  
HETATM    9  O   UNL     1      -9.850  12.335  68.631  1.00  0.00    -0.336 OA 
HETATM   10  H   UNL     1     -10.630  12.657  68.195  1.00  0.00     0.000 HD 
HETATM   11  O   UNL     1     -12.365  10.766  68.830  1.00  0.00    -0.812 OA 
HETATM   12  C   UNL     1     -11.160   9.035  69.929  1.00  0.00    -0.142 C  
HETATM   13  O   UNL     1     -12.285   8.789  70.790  1.00  0.00    -0.470 OA 
HETATM   14  H   UNL     1     -13.141  10.526  69.323  1.00  0.00     0.000 HD 
HETATM   15  C   UNL     1      -9.824   8.621  70.592  1.00  0.00    -0.183 C  
HETATM   16  H   UNL     1     -12.292   7.867  71.016  1.00  0.00     0.000 HD 
BRANCH  15  17
HETATM   17  C   UNL     1      -9.886   7.161  71.099  1.00  0.00    -0.179 C  
HETATM   18  O   UNL     1     -10.933   6.429  70.451  1.00  0.00    -0.258 OA 
HETATM   19  H   UNL     1     -10.972   5.532  70.762  1.00  0.00     0.000 HD 
ENDBRANCH  15  17
ENDBRANCH   4   5
ENDBRANCH   2   4
TORSDOF 3
ENDMDL
MODEL      153
REMARK 921   NORMALIZED FREE ENERGY PREDICTED BY IDOCK:   -2.85 KCAL/MOL
REMARK 922        TOTAL FREE ENERGY PREDICTED BY IDOCK:   -3.69 KCAL/MOL
REMARK 923 INTER-LIGAND FREE ENERGY PREDICTED BY IDOCK:   -3.55 KCAL/MOL
REMARK 924 INTRA-LIGAND FREE ENERGY PREDICTED BY IDOCK:   -0.14 KCAL/MOL
REMARK 927      BINDING AFFINITY PREDICTED BY RF-SCORE:    0.00 PKD
ROOT
HETATM    1  O   UNL     1     -13.542  10.070  70.683  1.00  0.00    -0.526 OA 
HETATM    2  C   UNL     1     -12.150  10.343  70.533  1.00  0.00    -0.332 C  
HETATM    3  H   UNL     1     -14.027  10.563  70.032  1.00  0.00     0.000 HD 
ENDROOT
BRANCH   2   4
HETATM    4  C   UNL     1     -11.363   9.545  71.588  1.00  0.00    -0.341 C  
BRANCH   4   5
HETATM    5  N   UNL     1     -10.723   8.310  71.087  1.00  0.00    -0.221 NA 
HETATM    6  C   UNL     1      -9.962   8.518  69.839  1.00  0.00    -0.189 C  
HETATM    7  C   UNL     1      -8.711   9.400  70.005  1.00  0.00    -0.210 C  
HETATM    8  C   UNL     1      -7.795   8.825  71.098  1.00  0.00    -0.134 C  
HETATM    9  O   UNL     1      -7.978   9.477  68.777  1.00  0.00    -0.086 OA 
HETATM   10  H   UNL     1      -7.206  10.021  68.879  1.00  0.00     0.000 HD 
HETATM   11  O   UNL     1      -6.739   9.736  71.465  1.00  0.00    -0.318 OA 
HETATM   12  C   UNL     1      -8.562   8.517  72.387  1.00  0.00    -0.152 C  
HETATM   13  O   UNL     1      -7.668   7.856  73.298  1.00  0.00    -0.121 OA 
HETATM   14  H   UNL     1      -6.173   9.381  72.140  1.00  0.00     0.000 HD 
HETATM   15  C   UNL     1      -9.819   7.663  72.089  1.00  0.00    -0.178 C  
HETATM   16  H   UNL     1      -8.144   7.664  74.098  1.00  0.00     0.000 HD 
BRANCH  15  17
HETATM   17  C   UNL     1     -10.513   7.222  73.399  1.00  0.00    -0.377 C  
HETATM   18  O   UNL     1     -11.151   5.949  73.247  1.00  0.00    -0.371 OA 
HETATM   19  H   UNL     1     -11.577   5.678  74.051  1.00  0.00     0.000 HD 
ENDBRANCH  15  17
ENDBRANCH   4   5
ENDBRANCH   2   4
TORSDOF 3
ENDMDL
MODEL      154
REMARK 921   NORMALIZED FREE ENERGY PREDICTED BY IDOCK:   -2.85 KCAL/MOL
REMARK 922        TOTAL FREE ENERGY PREDICTED BY IDOCK:   -3.69 KCAL/MOL
REMARK 923 INTER-LIGAND FREE ENERGY PREDICTED BY IDOCK:   -3.41 KCAL/MOL
REMARK 924 INTRA-LIGAND FREE ENERGY PREDICTED BY IDOCK:   -0.28 KCAL/MOL
REMARK 927      BINDING AFFINITY PREDICTED BY RF-SCORE:    0.00 PKD
ROOT
HETATM    1  O   UNL     1     -12.251  10.669  68.419  1.00  0.00    -0.822 OA 
HETATM    2  C   UNL     1     -10.894  10.848  68.018  1.00  0.00    -0.245 C  
HETATM    3  H   UNL     1     -12.629  11.516  68.625  1.00  0.00     0.000 HD 
ENDROOT
BRANCH   2   4
HETATM    4  C   UNL     1     -10.282   9.475  67.684  1.00  0.00    -0.220 C  
BRANCH   4   5
HETATM    5  N   UNL     1      -9.152   9.070  68.548  1.00  0.00    -0.133 NA 
HETATM    6  C   UNL     1      -9.351   9.428  69.966  1.00  0.00    -0.226 C  
HETATM    7  C   UNL     1     -10.488   8.652  70.658  1.00  0.00    -0.204 C  
HETATM    8  C   UNL     1     -10.261   7.138  70.517  1.00  0.00    -0.196 C  
HETATM    9  O   UNL     1     -10.557   8.985  72.048  1.00  0.00    -0.345 OA 
HETATM   10  H   UNL     1     -11.258   8.507  72.475  1.00  0.00     0.000 HD 
HETATM   11  O   UNL     1     -11.411   6.370  70.926  1.00  0.00    -0.321 OA 
HETATM   12  C   UNL     1      -9.969   6.733  69.070  1.00  0.00    -0.155 C  
HETATM   13  O   UNL     1      -9.631   5.336  69.051  1.00  0.00    -0.126 OA 
HETATM   14  H   UNL     1     -11.271   5.435  70.839  1.00  0.00     0.000 HD 
HETATM   15  C   UNL     1      -8.842   7.608  68.469  1.00  0.00    -0.130 C  
HETATM   16  H   UNL     1      -9.450   5.084  68.153  1.00  0.00     0.000 HD 
BRANCH  15  17
HETATM   17  C   UNL     1      -8.439   7.106  67.063  1.00  0.00    -0.122 C  
HETATM   18  O   UNL     1      -9.496   6.353  66.456  1.00  0.00    -0.159 OA 
HETATM   19  H   UNL     1      -9.249   6.045  65.593  1.00  0.00     0.000 HD 
ENDBRANCH  15  17
ENDBRANCH   4   5
ENDBRANCH   2   4
TORSDOF 3
ENDMDL
MODEL      155
REMARK 921   NORMALIZED FREE ENERGY PREDICTED BY IDOCK:   -2.84 KCAL/MOL
REMARK 922        TOTAL FREE ENERGY PREDICTED BY IDOCK:   -3.68 KCAL/MOL
REMARK 923 INTER-LIGAND FREE ENERGY PREDICTED BY IDOCK:   -3.27 KCAL/MOL
REMARK 924 INTRA-LIGAND FREE ENERGY PREDICTED BY IDOCK:   -0.41 KCAL/MOL
REMARK 927      BINDING AFFINITY PREDICTED BY RF-SCORE:    0.00 PKD
ROOT
HETATM    1  O   UNL     1     -10.134  17.881  68.664  1.00  0.00    -0.362 OA 
HETATM    2  C   UNL     1     -11.079  17.321  67.754  1.00  0.00    -0.037 C  
HETATM    3  H   UNL     1      -9.912  18.760  68.379  1.00  0.00     0.000 HD 
ENDROOT
BRANCH   2   4
HETATM    4  C   UNL     1     -11.439  15.897  68.214  1.00  0.00    -0.320 C  
BRANCH   4   5
HETATM    5  N   UNL     1     -10.435  15.250  69.086  1.00  0.00    -0.236 NA 
HETATM    6  C   UNL     1     -10.977  14.859  70.401  1.00  0.00    -0.125 C  
HETATM    7  C   UNL     1     -12.022  13.730  70.342  1.00  0.00    -0.315 C  
HETATM    8  C   UNL     1     -11.440  12.504  69.620  1.00  0.00    -0.185 C  
HETATM    9  O   UNL     1     -12.429  13.345  71.659  1.00  0.00    -0.234 OA 
HETATM   10  H   UNL     1     -13.074  12.648  71.623  1.00  0.00     0.000 HD 
HETATM   11  O   UNL     1     -12.446  11.515  69.318  1.00  0.00    -0.221 OA 
HETATM   12  C   UNL     1     -10.794  12.877  68.283  1.00  0.00    -0.242 C  
HETATM   13  O   UNL     1     -10.154  11.706  67.747  1.00  0.00    -0.182 OA 
HETATM   14  H   UNL     1     -12.087  10.758  68.872  1.00  0.00     0.000 HD 
HETATM   15  C   UNL     1      -9.797  14.049  68.462  1.00  0.00    -0.225 C  
HETATM   16  H   UNL     1      -9.753  11.938  66.918  1.00  0.00     0.000 HD 
BRANCH  15  17
HETATM   17  C   UNL     1      -9.030  14.329  67.149  1.00  0.00    -0.225 C  
HETATM   18  O   UNL     1      -9.714  13.777  66.018  1.00  0.00    -0.361 OA 
HETATM   19  H   UNL     1      -9.243  13.949  65.211  1.00  0.00     0.000 HD 
ENDBRANCH  15  17
ENDBRANCH   4   5
ENDBRANCH   2   4
TORSDOF 3
ENDMDL
MODEL      156
REMARK 921   NORMALIZED FREE ENERGY PREDICTED BY IDOCK:   -2.84 KCAL/MOL
REMARK 922        TOTAL FREE ENERGY PREDICTED BY IDOCK:   -3.68 KCAL/MOL
REMARK 923 INTER-LIGAND FREE ENERGY PREDICTED BY IDOCK:   -3.35 KCAL/MOL
REMARK 924 INTRA-LIGAND FREE ENERGY PREDICTED BY IDOCK:   -0.33 KCAL/MOL
REMARK 927      BINDING AFFINITY PREDICTED BY RF-SCORE:    0.00 PKD
ROOT
HETATM    1  O   UNL     1      -9.693   3.913  69.482  1.00  0.00    -0.199 OA 
HETATM    2  C   UNL     1      -9.675   4.743  68.322  1.00  0.00    -0.140 C  
HETATM    3  H   UNL     1      -9.776   3.006  69.214  1.00  0.00     0.000 HD 
ENDROOT
BRANCH   2   4
HETATM    4  C   UNL     1      -9.541   6.214  68.756  1.00  0.00    -0.125 C  
BRANCH   4   5
HETATM    5  N   UNL     1     -10.818   6.955  68.852  1.00  0.00    -0.224 NA 
HETATM    6  C   UNL     1     -11.637   6.547  70.010  1.00  0.00    -0.390 C  
HETATM    7  C   UNL     1     -11.028   6.919  71.374  1.00  0.00    -0.240 C  
HETATM    8  C   UNL     1     -10.734   8.427  71.433  1.00  0.00    -0.237 C  
HETATM    9  O   UNL     1     -11.920   6.576  72.439  1.00  0.00    -0.457 OA 
HETATM   10  H   UNL     1     -11.544   6.805  73.281  1.00  0.00     0.000 HD 
HETATM   11  O   UNL     1      -9.942   8.788  72.583  1.00  0.00    -0.199 OA 
HETATM   12  C   UNL     1      -9.954   8.909  70.207  1.00  0.00    -0.186 C  
HETATM   13  O   UNL     1      -9.849  10.341  70.273  1.00  0.00    -0.400 OA 
HETATM   14  H   UNL     1      -9.761   9.720  72.619  1.00  0.00     0.000 HD 
HETATM   15  C   UNL     1     -10.638   8.439  68.900  1.00  0.00    -0.140 C  
HETATM   16  H   UNL     1      -9.365  10.641  69.512  1.00  0.00     0.000 HD 
BRANCH  15  17
HETATM   17  C   UNL     1      -9.942   9.049  67.660  1.00  0.00    -0.201 C  
HETATM   18  O   UNL     1     -10.488  10.333  67.335  1.00  0.00    -0.217 OA 
HETATM   19  H   UNL     1     -10.061  10.707  66.574  1.00  0.00     0.000 HD 
ENDBRANCH  15  17
ENDBRANCH   4   5
ENDBRANCH   2   4
TORSDOF 3
ENDMDL
MODEL      157
REMARK 921   NORMALIZED FREE ENERGY PREDICTED BY IDOCK:   -2.83 KCAL/MOL
REMARK 922        TOTAL FREE ENERGY PREDICTED BY IDOCK:   -3.67 KCAL/MOL
REMARK 923 INTER-LIGAND FREE ENERGY PREDICTED BY IDOCK:   -3.29 KCAL/MOL
REMARK 924 INTRA-LIGAND FREE ENERGY PREDICTED BY IDOCK:   -0.38 KCAL/MOL
REMARK 927      BINDING AFFINITY PREDICTED BY RF-SCORE:    0.00 PKD
ROOT
HETATM    1  O   UNL     1      -7.937   8.707  68.504  1.00  0.00    -0.112 OA 
HETATM    2  C   UNL     1      -9.331   8.962  68.666  1.00  0.00    -0.140 C  
HETATM    3  H   UNL     1      -7.584   9.308  67.858  1.00  0.00     0.000 HD 
ENDROOT
BRANCH   2   4
HETATM    4  C   UNL     1      -9.903   7.988  69.712  1.00  0.00    -0.183 C  
BRANCH   4   5
HETATM    5  N   UNL     1      -9.557   8.305  71.115  1.00  0.00    -0.156 NA 
HETATM    6  C   UNL     1     -10.672   8.921  71.860  1.00  0.00    -0.356 C  
HETATM    7  C   UNL     1     -11.865   7.977  72.102  1.00  0.00    -0.349 C  
HETATM    8  C   UNL     1     -11.395   6.695  72.809  1.00  0.00    -0.186 C  
HETATM    9  O   UNL     1     -12.861   8.615  72.908  1.00  0.00    -0.637 OA 
HETATM   10  H   UNL     1     -13.597   8.033  73.058  1.00  0.00     0.000 HD 
HETATM   11  O   UNL     1     -12.417   5.678  72.839  1.00  0.00    -0.503 OA 
HETATM   12  C   UNL     1     -10.185   6.066  72.113  1.00  0.00    -0.192 C  
HETATM   13  O   UNL     1      -9.726   4.964  72.914  1.00  0.00    -0.142 OA 
HETATM   14  H   UNL     1     -12.126   4.886  73.276  1.00  0.00     0.000 HD 
HETATM   15  C   UNL     1      -9.072   7.119  71.887  1.00  0.00    -0.134 C  
HETATM   16  H   UNL     1      -8.974   4.574  72.483  1.00  0.00     0.000 HD 
BRANCH  15  17
HETATM   17  C   UNL     1      -7.791   6.459  71.324  1.00  0.00    -0.104 C  
HETATM   18  O   UNL     1      -8.061   5.144  70.821  1.00  0.00    -0.099 OA 
HETATM   19  H   UNL     1      -7.275   4.739  70.475  1.00  0.00     0.000 HD 
ENDBRANCH  15  17
ENDBRANCH   4   5
ENDBRANCH   2   4
TORSDOF 3
ENDMDL
MODEL      158
REMARK 921   NORMALIZED FREE ENERGY PREDICTED BY IDOCK:   -2.82 KCAL/MOL
REMARK 922        TOTAL FREE ENERGY PREDICTED BY IDOCK:   -3.66 KCAL/MOL
REMARK 923 INTER-LIGAND FREE ENERGY PREDICTED BY IDOCK:   -3.22 KCAL/MOL
REMARK 924 INTRA-LIGAND FREE ENERGY PREDICTED BY IDOCK:   -0.43 KCAL/MOL
REMARK 927      BINDING AFFINITY PREDICTED BY RF-SCORE:    0.00 PKD
ROOT
HETATM    1  O   UNL     1     -12.226  10.617  68.568  1.00  0.00    -0.822 OA 
HETATM    2  C   UNL     1     -10.900  10.902  68.127  1.00  0.00    -0.234 C  
HETATM    3  H   UNL     1     -12.802  11.322  68.297  1.00  0.00     0.000 HD 
ENDROOT
BRANCH   2   4
HETATM    4  C   UNL     1      -9.966   9.759  68.566  1.00  0.00    -0.160 C  
BRANCH   4   5
HETATM    5  N   UNL     1     -10.649   8.494  68.915  1.00  0.00    -0.187 NA 
HETATM    6  C   UNL     1     -10.310   7.384  68.004  1.00  0.00    -0.199 C  
HETATM    7  C   UNL     1      -8.847   6.914  68.100  1.00  0.00    -0.125 C  
HETATM    8  C   UNL     1      -8.503   6.538  69.551  1.00  0.00    -0.131 C  
HETATM    9  O   UNL     1      -8.621   5.779  67.259  1.00  0.00    -0.111 OA 
HETATM   10  H   UNL     1      -7.718   5.490  67.318  1.00  0.00     0.000 HD 
HETATM   11  O   UNL     1      -7.089   6.329  69.744  1.00  0.00    -0.068 OA 
HETATM   12  C   UNL     1      -8.914   7.631  70.541  1.00  0.00    -0.151 C  
HETATM   13  O   UNL     1      -8.690   7.140  71.874  1.00  0.00    -0.120 OA 
HETATM   14  H   UNL     1      -6.877   6.096  70.640  1.00  0.00     0.000 HD 
HETATM   15  C   UNL     1     -10.388   8.049  70.319  1.00  0.00    -0.212 C  
HETATM   16  H   UNL     1      -8.945   7.819  72.489  1.00  0.00     0.000 HD 
BRANCH  15  17
HETATM   17  C   UNL     1     -10.853   9.041  71.411  1.00  0.00    -0.330 C  
HETATM   18  O   UNL     1     -11.355   8.351  72.562  1.00  0.00    -0.375 OA 
HETATM   19  H   UNL     1     -11.640   8.960  73.233  1.00  0.00     0.000 HD 
ENDBRANCH  15  17
ENDBRANCH   4   5
ENDBRANCH   2   4
TORSDOF 3
ENDMDL
MODEL      159
REMARK 921   NORMALIZED FREE ENERGY PREDICTED BY IDOCK:   -2.81 KCAL/MOL
REMARK 922        TOTAL FREE ENERGY PREDICTED BY IDOCK:   -3.65 KCAL/MOL
REMARK 923 INTER-LIGAND FREE ENERGY PREDICTED BY IDOCK:   -3.26 KCAL/MOL
REMARK 924 INTRA-LIGAND FREE ENERGY PREDICTED BY IDOCK:   -0.39 KCAL/MOL
REMARK 927      BINDING AFFINITY PREDICTED BY RF-SCORE:    0.00 PKD
ROOT
HETATM    1  O   UNL     1      -6.235   8.932  67.677  1.00  0.00    -0.054 OA 
HETATM    2  C   UNL     1      -5.735   9.824  66.682  1.00  0.00    -0.053 C  
HETATM    3  H   UNL     1      -5.504   8.569  68.163  1.00  0.00     0.000 HD 
ENDROOT
BRANCH   2   4
HETATM    4  C   UNL     1      -6.918  10.414  65.893  1.00  0.00    -0.131 C  
BRANCH   4   5
HETATM    5  N   UNL     1      -8.189   9.669  66.025  1.00  0.00    -0.118 NA 
HETATM    6  C   UNL     1      -9.268  10.472  66.633  1.00  0.00    -0.156 C  
HETATM    7  C   UNL     1      -9.753  11.642  65.756  1.00  0.00    -0.236 C  
HETATM    8  C   UNL     1     -10.184  11.128  64.373  1.00  0.00    -0.330 C  
HETATM    9  O   UNL     1     -10.858  12.313  66.370  1.00  0.00    -0.248 OA 
HETATM   10  H   UNL     1     -11.157  13.035  65.830  1.00  0.00     0.000 HD 
HETATM   11  O   UNL     1     -10.411  12.199  63.435  1.00  0.00    -0.441 OA 
HETATM   12  C   UNL     1      -9.125  10.222  63.741  1.00  0.00    -0.256 C  
HETATM   13  O   UNL     1      -9.665   9.675  62.526  1.00  0.00    -0.555 OA 
HETATM   14  H   UNL     1     -10.678  11.882  62.581  1.00  0.00     0.000 HD 
HETATM   15  C   UNL     1      -8.687   9.113  64.729  1.00  0.00    -0.176 C  
HETATM   16  H   UNL     1      -9.008   9.112  62.133  1.00  0.00     0.000 HD 
BRANCH  15  17
HETATM   17  C   UNL     1      -7.732   8.107  64.045  1.00  0.00    -0.137 C  
HETATM   18  O   UNL     1      -8.431   7.283  63.103  1.00  0.00    -0.365 OA 
HETATM   19  H   UNL     1      -7.845   6.665  62.683  1.00  0.00     0.000 HD 
ENDBRANCH  15  17
ENDBRANCH   4   5
ENDBRANCH   2   4
TORSDOF 3
ENDMDL
MODEL      160
REMARK 921   NORMALIZED FREE ENERGY PREDICTED BY IDOCK:   -2.81 KCAL/MOL
REMARK 922        TOTAL FREE ENERGY PREDICTED BY IDOCK:   -3.65 KCAL/MOL
REMARK 923 INTER-LIGAND FREE ENERGY PREDICTED BY IDOCK:   -3.24 KCAL/MOL
REMARK 924 INTRA-LIGAND FREE ENERGY PREDICTED BY IDOCK:   -0.41 KCAL/MOL
REMARK 927      BINDING AFFINITY PREDICTED BY RF-SCORE:    0.00 PKD
ROOT
HETATM    1  O   UNL     1     -12.285   6.401  72.699  1.00  0.00    -0.513 OA 
HETATM    2  C   UNL     1     -12.740   6.933  71.457  1.00  0.00    -0.349 C  
HETATM    3  H   UNL     1     -13.031   6.257  73.268  1.00  0.00     0.000 HD 
ENDROOT
BRANCH   2   4
HETATM    4  C   UNL     1     -11.531   7.167  70.534  1.00  0.00    -0.295 C  
BRANCH   4   5
HETATM    5  N   UNL     1     -11.276   6.088  69.555  1.00  0.00    -0.403 NA 
HETATM    6  C   UNL     1     -11.351   6.549  68.155  1.00  0.00     0.002 C  
HETATM    7  C   UNL     1     -10.229   7.524  67.752  1.00  0.00    -0.201 C  
HETATM    8  C   UNL     1      -8.853   6.900  68.035  1.00  0.00    -0.123 C  
HETATM    9  O   UNL     1     -10.316   7.850  66.361  1.00  0.00    -0.482 OA 
HETATM   10  H   UNL     1      -9.624   8.452  66.112  1.00  0.00     0.000 HD 
HETATM   11  O   UNL     1      -7.780   7.855  67.909  1.00  0.00    -0.119 OA 
HETATM   12  C   UNL     1      -8.760   6.335  69.454  1.00  0.00    -0.128 C  
HETATM   13  O   UNL     1      -7.503   5.648  69.586  1.00  0.00    -0.071 OA 
HETATM   14  H   UNL     1      -6.930   7.469  68.084  1.00  0.00     0.000 HD 
HETATM   15  C   UNL     1      -9.960   5.405  69.757  1.00  0.00    -0.224 C  
HETATM   16  H   UNL     1      -7.445   5.298  70.467  1.00  0.00     0.000 HD 
BRANCH  15  17
HETATM   17  C   UNL     1      -9.793   4.714  71.131  1.00  0.00    -0.191 C  
HETATM   18  O   UNL     1      -9.216   5.602  72.095  1.00  0.00    -0.146 OA 
HETATM   19  H   UNL     1      -9.113   5.178  72.938  1.00  0.00     0.000 HD 
ENDBRANCH  15  17
ENDBRANCH   4   5
ENDBRANCH   2   4
TORSDOF 3
ENDMDL
MODEL      161
REMARK 921   NORMALIZED FREE ENERGY PREDICTED BY IDOCK:   -2.79 KCAL/MOL
REMARK 922        TOTAL FREE ENERGY PREDICTED BY IDOCK:   -3.62 KCAL/MOL
REMARK 923 INTER-LIGAND FREE ENERGY PREDICTED BY IDOCK:   -3.27 KCAL/MOL
REMARK 924 INTRA-LIGAND FREE ENERGY PREDICTED BY IDOCK:   -0.35 KCAL/MOL
REMARK 927      BINDING AFFINITY PREDICTED BY RF-SCORE:    0.00 PKD
ROOT
HETATM    1  O   UNL     1     -12.748  13.139  71.790  1.00  0.00    -0.262 OA 
HETATM    2  C   UNL     1     -12.990  12.524  70.526  1.00  0.00     0.312 C  
HETATM    3  H   UNL     1     -13.489  12.979  72.361  1.00  0.00     0.000 HD 
ENDROOT
BRANCH   2   4
HETATM    4  C   UNL     1     -11.788  12.784  69.600  1.00  0.00    -0.317 C  
BRANCH   4   5
HETATM    5  N   UNL     1     -11.954  12.300  68.212  1.00  0.00    -0.380 NA 
HETATM    6  C   UNL     1     -12.017  13.392  67.222  1.00  0.00    -0.347 C  
HETATM    7  C   UNL     1     -10.699  14.172  67.060  1.00  0.00    -0.285 C  
HETATM    8  C   UNL     1      -9.550  13.209  66.720  1.00  0.00    -0.249 C  
HETATM    9  O   UNL     1     -10.811  15.149  66.021  1.00  0.00    -0.322 OA 
HETATM   10  H   UNL     1      -9.998  15.630  65.921  1.00  0.00     0.000 HD 
HETATM   11  O   UNL     1      -8.258  13.846  66.800  1.00  0.00    -0.402 OA 
HETATM   12  C   UNL     1      -9.498  12.015  67.676  1.00  0.00    -0.185 C  
HETATM   13  O   UNL     1      -8.495  11.100  67.203  1.00  0.00    -0.131 OA 
HETATM   14  H   UNL     1      -7.548  13.251  66.589  1.00  0.00     0.000 HD 
HETATM   15  C   UNL     1     -10.887  11.340  67.789  1.00  0.00    -0.235 C  
HETATM   16  H   UNL     1      -8.463  10.358  67.796  1.00  0.00     0.000 HD 
BRANCH  15  17
HETATM   17  C   UNL     1     -10.807  10.046  68.632  1.00  0.00    -0.229 C  
HETATM   18  O   UNL     1     -10.473   8.914  67.819  1.00  0.00    -0.237 OA 
HETATM   19  H   UNL     1     -10.424   8.119  68.336  1.00  0.00     0.000 HD 
ENDBRANCH  15  17
ENDBRANCH   4   5
ENDBRANCH   2   4
TORSDOF 3
ENDMDL
MODEL      162
REMARK 921   NORMALIZED FREE ENERGY PREDICTED BY IDOCK:   -2.77 KCAL/MOL
REMARK 922        TOTAL FREE ENERGY PREDICTED BY IDOCK:   -3.60 KCAL/MOL
REMARK 923 INTER-LIGAND FREE ENERGY PREDICTED BY IDOCK:   -3.35 KCAL/MOL
REMARK 924 INTRA-LIGAND FREE ENERGY PREDICTED BY IDOCK:   -0.24 KCAL/MOL
REMARK 927      BINDING AFFINITY PREDICTED BY RF-SCORE:    0.00 PKD
ROOT
HETATM    1  O   UNL     1     -13.576   9.061  71.227  1.00  0.00    -0.513 OA 
HETATM    2  C   UNL     1     -12.158   8.975  71.101  1.00  0.00    -0.287 C  
HETATM    3  H   UNL     1     -13.893   9.776  70.689  1.00  0.00     0.000 HD 
ENDROOT
BRANCH   2   4
HETATM    4  C   UNL     1     -11.643   7.816  71.973  1.00  0.00    -0.300 C  
BRANCH   4   5
HETATM    5  N   UNL     1     -11.700   6.482  71.336  1.00  0.00    -0.315 NA 
HETATM    6  C   UNL     1     -11.400   6.519  69.892  1.00  0.00    -0.406 C  
HETATM    7  C   UNL     1      -9.943   6.893  69.560  1.00  0.00    -0.164 C  
HETATM    8  C   UNL     1      -8.972   5.946  70.283  1.00  0.00    -0.146 C  
HETATM    9  O   UNL     1      -9.707   6.816  68.151  1.00  0.00    -0.128 OA 
HETATM   10  H   UNL     1      -8.808   7.048  67.946  1.00  0.00     0.000 HD 
HETATM   11  O   UNL     1      -7.605   6.398  70.209  1.00  0.00    -0.092 OA 
HETATM   12  C   UNL     1      -9.299   5.815  71.773  1.00  0.00    -0.148 C  
HETATM   13  O   UNL     1      -8.440   4.809  72.337  1.00  0.00    -0.113 OA 
HETATM   14  H   UNL     1      -7.005   5.813  70.655  1.00  0.00     0.000 HD 
HETATM   15  C   UNL     1     -10.796   5.479  71.981  1.00  0.00    -0.226 C  
HETATM   16  H   UNL     1      -8.643   4.727  73.262  1.00  0.00     0.000 HD 
BRANCH  15  17
HETATM   17  C   UNL     1     -11.099   5.197  73.471  1.00  0.00    -0.297 C  
HETATM   18  O   UNL     1     -10.091   5.754  74.323  1.00  0.00    -0.219 OA 
HETATM   19  H   UNL     1     -10.277   5.581  75.238  1.00  0.00     0.000 HD 
ENDBRANCH  15  17
ENDBRANCH   4   5
ENDBRANCH   2   4
TORSDOF 3
ENDMDL
MODEL      163
REMARK 921   NORMALIZED FREE ENERGY PREDICTED BY IDOCK:   -2.77 KCAL/MOL
REMARK 922        TOTAL FREE ENERGY PREDICTED BY IDOCK:   -3.60 KCAL/MOL
REMARK 923 INTER-LIGAND FREE ENERGY PREDICTED BY IDOCK:   -3.29 KCAL/MOL
REMARK 924 INTRA-LIGAND FREE ENERGY PREDICTED BY IDOCK:   -0.31 KCAL/MOL
REMARK 927      BINDING AFFINITY PREDICTED BY RF-SCORE:    0.00 PKD
ROOT
HETATM    1  O   UNL     1     -10.976   8.161  70.502  1.00  0.00    -0.239 OA 
HETATM    2  C   UNL     1      -9.964   9.113  70.182  1.00  0.00    -0.200 C  
HETATM    3  H   UNL     1     -10.886   7.906  71.413  1.00  0.00     0.000 HD 
ENDROOT
BRANCH   2   4
HETATM    4  C   UNL     1     -10.109   9.528  68.707  1.00  0.00    -0.188 C  
BRANCH   4   5
HETATM    5  N   UNL     1      -9.547  10.855  68.374  1.00  0.00    -0.170 NA 
HETATM    6  C   UNL     1      -8.354  10.776  67.508  1.00  0.00    -0.115 C  
HETATM    7  C   UNL     1      -8.641  10.261  66.086  1.00  0.00    -0.139 C  
HETATM    8  C   UNL     1      -9.729  11.118  65.418  1.00  0.00    -0.231 C  
HETATM    9  O   UNL     1      -7.458  10.302  65.282  1.00  0.00    -0.141 OA 
HETATM   10  H   UNL     1      -7.634   9.984  64.405  1.00  0.00     0.000 HD 
HETATM   11  O   UNL     1     -10.211  10.535  64.190  1.00  0.00    -0.363 OA 
HETATM   12  C   UNL     1     -10.955  11.293  66.318  1.00  0.00    -0.205 C  
HETATM   13  O   UNL     1     -11.855  12.217  65.682  1.00  0.00    -0.406 OA 
HETATM   14  H   UNL     1     -10.883  11.065  63.777  1.00  0.00     0.000 HD 
HETATM   15  C   UNL     1     -10.538  11.772  67.730  1.00  0.00    -0.200 C  
HETATM   16  H   UNL     1     -12.616  12.326  66.240  1.00  0.00     0.000 HD 
BRANCH  15  17
HETATM   17  C   UNL     1     -11.779  12.096  68.594  1.00  0.00    -0.330 C  
HETATM   18  O   UNL     1     -12.084  13.496  68.564  1.00  0.00    -0.359 OA 
HETATM   19  H   UNL     1     -12.846  13.695  69.095  1.00  0.00     0.000 HD 
ENDBRANCH  15  17
ENDBRANCH   4   5
ENDBRANCH   2   4
TORSDOF 3
ENDMDL
MODEL      164
REMARK 921   NORMALIZED FREE ENERGY PREDICTED BY IDOCK:   -2.75 KCAL/MOL
REMARK 922        TOTAL FREE ENERGY PREDICTED BY IDOCK:   -3.57 KCAL/MOL
REMARK 923 INTER-LIGAND FREE ENERGY PREDICTED BY IDOCK:   -3.20 KCAL/MOL
REMARK 924 INTRA-LIGAND FREE ENERGY PREDICTED BY IDOCK:   -0.38 KCAL/MOL
REMARK 927      BINDING AFFINITY PREDICTED BY RF-SCORE:    0.00 PKD
ROOT
HETATM    1  O   UNL     1      -9.530  13.790  68.068  1.00  0.00    -0.194 OA 
HETATM    2  C   UNL     1      -9.061  12.893  67.064  1.00  0.00    -0.228 C  
HETATM    3  H   UNL     1      -9.446  14.682  67.753  1.00  0.00     0.000 HD 
ENDROOT
BRANCH   2   4
HETATM    4  C   UNL     1      -9.197  11.447  67.575  1.00  0.00    -0.160 C  
BRANCH   4   5
HETATM    5  N   UNL     1     -10.478  10.786  67.242  1.00  0.00    -0.223 NA 
HETATM    6  C   UNL     1     -10.342   9.757  66.193  1.00  0.00    -0.144 C  
HETATM    7  C   UNL     1      -9.527   8.523  66.624  1.00  0.00    -0.207 C  
HETATM    8  C   UNL     1     -10.126   7.909  67.901  1.00  0.00    -0.191 C  
HETATM    9  O   UNL     1      -9.519   7.533  65.591  1.00  0.00    -0.383 OA 
HETATM   10  H   UNL     1      -9.017   6.772  65.856  1.00  0.00     0.000 HD 
HETATM   11  O   UNL     1      -9.267   6.909  68.484  1.00  0.00    -0.131 OA 
HETATM   12  C   UNL     1     -10.360   8.960  68.989  1.00  0.00    -0.212 C  
HETATM   13  O   UNL     1     -11.048   8.332  70.084  1.00  0.00    -0.304 OA 
HETATM   14  H   UNL     1      -9.636   6.529  69.273  1.00  0.00     0.000 HD 
HETATM   15  C   UNL     1     -11.149  10.168  68.427  1.00  0.00    -0.218 C  
HETATM   16  H   UNL     1     -11.194   8.984  70.759  1.00  0.00     0.000 HD 
BRANCH  15  17
HETATM   17  C   UNL     1     -11.520  11.160  69.554  1.00  0.00    -0.303 C  
HETATM   18  O   UNL     1     -11.989  12.404  69.020  1.00  0.00    -0.296 OA 
HETATM   19  H   UNL     1     -12.216  13.014  69.711  1.00  0.00     0.000 HD 
ENDBRANCH  15  17
ENDBRANCH   4   5
ENDBRANCH   2   4
TORSDOF 3
ENDMDL
MODEL      165
REMARK 921   NORMALIZED FREE ENERGY PREDICTED BY IDOCK:   -2.75 KCAL/MOL
REMARK 922        TOTAL FREE ENERGY PREDICTED BY IDOCK:   -3.57 KCAL/MOL
REMARK 923 INTER-LIGAND FREE ENERGY PREDICTED BY IDOCK:   -3.20 KCAL/MOL
REMARK 924 INTRA-LIGAND FREE ENERGY PREDICTED BY IDOCK:   -0.37 KCAL/MOL
REMARK 927      BINDING AFFINITY PREDICTED BY RF-SCORE:    0.00 PKD
ROOT
HETATM    1  O   UNL     1     -12.175  10.655  68.396  1.00  0.00    -0.822 OA 
HETATM    2  C   UNL     1     -10.935  10.849  67.719  1.00  0.00    -0.283 C  
HETATM    3  H   UNL     1     -12.419  11.461  68.837  1.00  0.00     0.000 HD 
ENDROOT
BRANCH   2   4
HETATM    4  C   UNL     1     -10.541   9.544  67.005  1.00  0.00    -0.201 C  
BRANCH   4   5
HETATM    5  N   UNL     1      -9.265   8.947  67.456  1.00  0.00    -0.135 NA 
HETATM    6  C   UNL     1      -9.427   8.044  68.612  1.00  0.00    -0.147 C  
HETATM    7  C   UNL     1     -10.210   6.755  68.300  1.00  0.00    -0.175 C  
HETATM    8  C   UNL     1      -9.559   6.008  67.125  1.00  0.00    -0.123 C  
HETATM    9  O   UNL     1     -10.244   5.892  69.440  1.00  0.00    -0.183 OA 
HETATM   10  H   UNL     1     -10.728   5.097  69.248  1.00  0.00     0.000 HD 
HETATM   11  O   UNL     1     -10.384   4.932  66.632  1.00  0.00    -0.244 OA 
HETATM   12  C   UNL     1      -9.297   6.929  65.931  1.00  0.00     0.109 C  
HETATM   13  O   UNL     1      -8.562   6.189  64.941  1.00  0.00    -0.305 OA 
HETATM   14  H   UNL     1      -9.981   4.470  65.907  1.00  0.00     0.000 HD 
HETATM   15  C   UNL     1      -8.543   8.206  66.375  1.00  0.00    -0.139 C  
HETATM   16  H   UNL     1      -8.400   6.761  64.200  1.00  0.00     0.000 HD 
BRANCH  15  17
HETATM   17  C   UNL     1      -8.144   9.067  65.154  1.00  0.00    -0.130 C  
HETATM   18  O   UNL     1      -8.978   8.787  64.024  1.00  0.00    -0.422 OA 
HETATM   19  H   UNL     1      -8.733   9.315  63.274  1.00  0.00     0.000 HD 
ENDBRANCH  15  17
ENDBRANCH   4   5
ENDBRANCH   2   4
TORSDOF 3
ENDMDL
MODEL      166
REMARK 921   NORMALIZED FREE ENERGY PREDICTED BY IDOCK:   -2.75 KCAL/MOL
REMARK 922        TOTAL FREE ENERGY PREDICTED BY IDOCK:   -3.57 KCAL/MOL
REMARK 923 INTER-LIGAND FREE ENERGY PREDICTED BY IDOCK:   -3.37 KCAL/MOL
REMARK 924 INTRA-LIGAND FREE ENERGY PREDICTED BY IDOCK:   -0.20 KCAL/MOL
REMARK 927      BINDING AFFINITY PREDICTED BY RF-SCORE:    0.00 PKD
ROOT
HETATM    1  O   UNL     1      -7.897   7.374  70.222  1.00  0.00    -0.092 OA 
HETATM    2  C   UNL     1      -8.891   8.267  69.723  1.00  0.00    -0.142 C  
HETATM    3  H   UNL     1      -8.221   6.957  71.011  1.00  0.00     0.000 HD 
ENDROOT
BRANCH   2   4
HETATM    4  C   UNL     1      -8.365   8.944  68.444  1.00  0.00    -0.125 C  
BRANCH   4   5
HETATM    5  N   UNL     1      -9.318   8.965  67.313  1.00  0.00    -0.137 NA 
HETATM    6  C   UNL     1     -10.713   9.191  67.737  1.00  0.00    -0.179 C  
HETATM    7  C   UNL     1     -10.977  10.594  68.313  1.00  0.00    -0.263 C  
HETATM    8  C   UNL     1     -10.544  11.673  67.307  1.00  0.00    -0.228 C  
HETATM    9  O   UNL     1     -12.366  10.767  68.613  1.00  0.00    -0.825 OA 
HETATM   10  H   UNL     1     -12.529  11.633  68.968  1.00  0.00     0.000 HD 
HETATM   11  O   UNL     1     -10.538  12.994  67.886  1.00  0.00    -0.221 OA 
HETATM   12  C   UNL     1      -9.128  11.430  66.778  1.00  0.00    -0.176 C  
HETATM   13  O   UNL     1      -8.860  12.394  65.746  1.00  0.00    -0.401 OA 
HETATM   14  H   UNL     1     -10.270  13.660  67.264  1.00  0.00     0.000 HD 
HETATM   15  C   UNL     1      -8.972   9.977  66.267  1.00  0.00    -0.148 C  
HETATM   16  H   UNL     1      -7.981  12.243  65.417  1.00  0.00     0.000 HD 
BRANCH  15  17
HETATM   17  C   UNL     1      -7.595   9.771  65.595  1.00  0.00    -0.109 C  
HETATM   18  O   UNL     1      -7.505  10.490  64.359  1.00  0.00    -0.322 OA 
HETATM   19  H   UNL     1      -6.660  10.363  63.945  1.00  0.00     0.000 HD 
ENDBRANCH  15  17
ENDBRANCH   4   5
ENDBRANCH   2   4
TORSDOF 3
ENDMDL
MODEL      167
REMARK 921   NORMALIZED FREE ENERGY PREDICTED BY IDOCK:   -2.72 KCAL/MOL
REMARK 922        TOTAL FREE ENERGY PREDICTED BY IDOCK:   -3.55 KCAL/MOL
REMARK 923 INTER-LIGAND FREE ENERGY PREDICTED BY IDOCK:   -3.14 KCAL/MOL
REMARK 924 INTRA-LIGAND FREE ENERGY PREDICTED BY IDOCK:   -0.41 KCAL/MOL
REMARK 927      BINDING AFFINITY PREDICTED BY RF-SCORE:    0.00 PKD
ROOT
HETATM    1  O   UNL     1      -9.179   7.364  67.480  1.00  0.00    -0.130 OA 
HETATM    2  C   UNL     1     -10.151   8.099  66.739  1.00  0.00    -0.295 C  
HETATM    3  H   UNL     1      -9.247   6.444  67.255  1.00  0.00     0.000 HD 
ENDROOT
BRANCH   2   4
HETATM    4  C   UNL     1     -10.042   9.590  67.104  1.00  0.00    -0.229 C  
BRANCH   4   5
HETATM    5  N   UNL     1      -8.939  10.316  66.438  1.00  0.00    -0.147 NA 
HETATM    6  C   UNL     1      -9.404  11.215  65.364  1.00  0.00    -0.219 C  
HETATM    7  C   UNL     1     -10.230  12.415  65.861  1.00  0.00    -0.251 C  
HETATM    8  C   UNL     1      -9.438  13.208  66.914  1.00  0.00    -0.244 C  
HETATM    9  O   UNL     1     -10.563  13.287  64.775  1.00  0.00    -0.341 OA 
HETATM   10  H   UNL     1     -11.073  14.028  65.082  1.00  0.00     0.000 HD 
HETATM   11  O   UNL     1     -10.251  14.189  67.589  1.00  0.00    -0.237 OA 
HETATM   12  C   UNL     1      -8.868  12.300  68.006  1.00  0.00    -0.182 C  
HETATM   13  O   UNL     1      -8.029  13.095  68.862  1.00  0.00    -0.322 OA 
HETATM   14  H   UNL     1      -9.762  14.679  68.239  1.00  0.00     0.000 HD 
HETATM   15  C   UNL     1      -8.096  11.109  67.386  1.00  0.00    -0.132 C  
HETATM   16  H   UNL     1      -7.674  12.532  69.540  1.00  0.00     0.000 HD 
BRANCH  15  17
HETATM   17  C   UNL     1      -7.391  10.275  68.481  1.00  0.00    -0.082 C  
HETATM   18  O   UNL     1      -7.970  10.511  69.770  1.00  0.00    -0.326 OA 
HETATM   19  H   UNL     1      -7.536   9.999  70.442  1.00  0.00     0.000 HD 
ENDBRANCH  15  17
ENDBRANCH   4   5
ENDBRANCH   2   4
TORSDOF 3
ENDMDL
MODEL      168
REMARK 921   NORMALIZED FREE ENERGY PREDICTED BY IDOCK:   -2.72 KCAL/MOL
REMARK 922        TOTAL FREE ENERGY PREDICTED BY IDOCK:   -3.54 KCAL/MOL
REMARK 923 INTER-LIGAND FREE ENERGY PREDICTED BY IDOCK:   -3.18 KCAL/MOL
REMARK 924 INTRA-LIGAND FREE ENERGY PREDICTED BY IDOCK:   -0.36 KCAL/MOL
REMARK 927      BINDING AFFINITY PREDICTED BY RF-SCORE:    0.00 PKD
ROOT
HETATM    1  O   UNL     1     -10.173   5.099  73.568  1.00  0.00    -0.171 OA 
HETATM    2  C   UNL     1     -11.204   5.948  73.066  1.00  0.00    -0.221 C  
HETATM    3  H   UNL     1     -10.562   4.425  74.112  1.00  0.00     0.000 HD 
ENDROOT
BRANCH   2   4
HETATM    4  C   UNL     1     -10.574   7.041  72.184  1.00  0.00    -0.213 C  
BRANCH   4   5
HETATM    5  N   UNL     1     -11.332   7.366  70.956  1.00  0.00    -0.268 NA 
HETATM    6  C   UNL     1     -11.943   8.708  70.993  1.00  0.00    -0.243 C  
HETATM    7  C   UNL     1     -10.926   9.864  70.973  1.00  0.00    -0.290 C  
HETATM    8  C   UNL     1      -9.996   9.734  69.756  1.00  0.00    -0.236 C  
HETATM    9  O   UNL     1     -11.595  11.128  70.915  1.00  0.00    -0.348 OA 
HETATM   10  H   UNL     1     -10.967  11.842  70.904  1.00  0.00     0.000 HD 
HETATM   11  O   UNL     1      -8.876  10.641  69.821  1.00  0.00    -0.386 OA 
HETATM   12  C   UNL     1      -9.402   8.329  69.634  1.00  0.00    -0.158 C  
HETATM   13  O   UNL     1      -8.666   8.254  68.400  1.00  0.00    -0.132 OA 
HETATM   14  H   UNL     1      -8.302  10.561  69.069  1.00  0.00     0.000 HD 
HETATM   15  C   UNL     1     -10.513   7.253  69.709  1.00  0.00    -0.227 C  
HETATM   16  H   UNL     1      -8.298   7.382  68.325  1.00  0.00     0.000 HD 
BRANCH  15  17
HETATM   17  C   UNL     1      -9.939   5.843  69.435  1.00  0.00    -0.178 C  
HETATM   18  O   UNL     1      -8.532   5.792  69.702  1.00  0.00    -0.110 OA 
HETATM   19  H   UNL     1      -8.180   4.927  69.534  1.00  0.00     0.000 HD 
ENDBRANCH  15  17
ENDBRANCH   4   5
ENDBRANCH   2   4
TORSDOF 3
ENDMDL
MODEL      169
REMARK 921   NORMALIZED FREE ENERGY PREDICTED BY IDOCK:   -2.71 KCAL/MOL
REMARK 922        TOTAL FREE ENERGY PREDICTED BY IDOCK:   -3.53 KCAL/MOL
REMARK 923 INTER-LIGAND FREE ENERGY PREDICTED BY IDOCK:   -3.34 KCAL/MOL
REMARK 924 INTRA-LIGAND FREE ENERGY PREDICTED BY IDOCK:   -0.18 KCAL/MOL
REMARK 927      BINDING AFFINITY PREDICTED BY RF-SCORE:    0.00 PKD
ROOT
HETATM    1  O   UNL     1      -9.737  14.711  69.172  1.00  0.00    -0.324 OA 
HETATM    2  C   UNL     1     -10.563  13.729  68.549  1.00  0.00    -0.253 C  
HETATM    3  H   UNL     1     -10.259  15.480  69.365  1.00  0.00     0.000 HD 
ENDROOT
BRANCH   2   4
HETATM    4  C   UNL     1      -9.717  12.482  68.237  1.00  0.00    -0.220 C  
BRANCH   4   5
HETATM    5  N   UNL     1     -10.364  11.496  67.345  1.00  0.00    -0.202 NA 
HETATM    6  C   UNL     1      -9.752  11.440  66.004  1.00  0.00    -0.223 C  
HETATM    7  C   UNL     1      -8.315  10.885  65.990  1.00  0.00    -0.165 C  
HETATM    8  C   UNL     1      -8.274   9.499  66.653  1.00  0.00    -0.116 C  
HETATM    9  O   UNL     1      -7.826  10.775  64.649  1.00  0.00    -0.354 OA 
HETATM   10  H   UNL     1      -6.940  10.433  64.640  1.00  0.00     0.000 HD 
HETATM   11  O   UNL     1      -6.926   9.043  66.889  1.00  0.00    -0.076 OA 
HETATM   12  C   UNL     1      -8.972   9.492  68.015  1.00  0.00    -0.123 C  
HETATM   13  O   UNL     1      -9.013   8.138  68.496  1.00  0.00    -0.137 OA 
HETATM   14  H   UNL     1      -6.900   8.186  67.298  1.00  0.00     0.000 HD 
HETATM   15  C   UNL     1     -10.388  10.111  67.911  1.00  0.00    -0.194 C  
HETATM   16  H   UNL     1      -9.447   8.134  69.341  1.00  0.00     0.000 HD 
BRANCH  15  17
HETATM   17  C   UNL     1     -11.154   9.970  69.247  1.00  0.00    -0.206 C  
HETATM   18  O   UNL     1     -12.458  10.557  69.165  1.00  0.00    -0.750 OA 
HETATM   19  H   UNL     1     -12.929  10.470  69.985  1.00  0.00     0.000 HD 
ENDBRANCH  15  17
ENDBRANCH   4   5
ENDBRANCH   2   4
TORSDOF 3
ENDMDL
MODEL      170
REMARK 921   NORMALIZED FREE ENERGY PREDICTED BY IDOCK:   -2.70 KCAL/MOL
REMARK 922        TOTAL FREE ENERGY PREDICTED BY IDOCK:   -3.52 KCAL/MOL
REMARK 923 INTER-LIGAND FREE ENERGY PREDICTED BY IDOCK:   -3.23 KCAL/MOL
REMARK 924 INTRA-LIGAND FREE ENERGY PREDICTED BY IDOCK:   -0.28 KCAL/MOL
REMARK 927      BINDING AFFINITY PREDICTED BY RF-SCORE:    0.00 PKD
ROOT
HETATM    1  O   UNL     1     -11.862   6.869  69.730  1.00  0.00    -0.613 OA 
HETATM    2  C   UNL     1     -10.782   7.737  70.069  1.00  0.00    -0.244 C  
HETATM    3  H   UNL     1     -12.035   6.288  70.462  1.00  0.00     0.000 HD 
ENDROOT
BRANCH   2   4
HETATM    4  C   UNL     1     -10.500   8.678  68.883  1.00  0.00    -0.192 C  
BRANCH   4   5
HETATM    5  N   UNL     1      -9.073   8.808  68.517  1.00  0.00    -0.138 NA 
HETATM    6  C   UNL     1      -8.334   7.534  68.606  1.00  0.00    -0.129 C  
HETATM    7  C   UNL     1      -8.765   6.482  67.567  1.00  0.00    -0.114 C  
HETATM    8  C   UNL     1      -8.659   7.062  66.147  1.00  0.00    -0.143 C  
HETATM    9  O   UNL     1      -7.943   5.314  67.656  1.00  0.00    -0.099 OA 
HETATM   10  H   UNL     1      -8.209   4.665  67.016  1.00  0.00     0.000 HD 
HETATM   11  O   UNL     1      -9.279   6.213  65.160  1.00  0.00    -0.356 OA 
HETATM   12  C   UNL     1      -9.344   8.426  66.030  1.00  0.00    -0.177 C  
HETATM   13  O   UNL     1      -9.075   8.956  64.721  1.00  0.00    -0.422 OA 
HETATM   14  H   UNL     1      -9.214   6.571  64.282  1.00  0.00     0.000 HD 
HETATM   15  C   UNL     1      -8.863   9.381  67.150  1.00  0.00    -0.127 C  
HETATM   16  H   UNL     1      -9.500   9.803  64.649  1.00  0.00     0.000 HD 
BRANCH  15  17
HETATM   17  C   UNL     1      -9.435  10.804  66.948  1.00  0.00    -0.168 C  
HETATM   18  O   UNL     1      -8.562  11.607  66.145  1.00  0.00    -0.312 OA 
HETATM   19  H   UNL     1      -8.912  12.481  66.021  1.00  0.00     0.000 HD 
ENDBRANCH  15  17
ENDBRANCH   4   5
ENDBRANCH   2   4
TORSDOF 3
ENDMDL
MODEL      171
REMARK 921   NORMALIZED FREE ENERGY PREDICTED BY IDOCK:   -2.69 KCAL/MOL
REMARK 922        TOTAL FREE ENERGY PREDICTED BY IDOCK:   -3.50 KCAL/MOL
REMARK 923 INTER-LIGAND FREE ENERGY PREDICTED BY IDOCK:   -3.07 KCAL/MOL
REMARK 924 INTRA-LIGAND FREE ENERGY PREDICTED BY IDOCK:   -0.44 KCAL/MOL
REMARK 927      BINDING AFFINITY PREDICTED BY RF-SCORE:    0.00 PKD
ROOT
HETATM    1  O   UNL     1      -9.976   2.761  67.240  1.00  0.00    -0.201 OA 
HETATM    2  C   UNL     1      -8.701   3.231  67.671  1.00  0.00    -0.117 C  
HETATM    3  H   UNL     1      -9.880   1.890  66.875  1.00  0.00     0.000 HD 
ENDROOT
BRANCH   2   4
HETATM    4  C   UNL     1      -8.857   4.644  68.262  1.00  0.00    -0.105 C  
BRANCH   4   5
HETATM    5  N   UNL     1     -10.151   4.901  68.930  1.00  0.00    -0.151 NA 
HETATM    6  C   UNL     1     -10.051   4.903  70.402  1.00  0.00    -0.245 C  
HETATM    7  C   UNL     1      -9.235   6.076  70.977  1.00  0.00    -0.157 C  
HETATM    8  C   UNL     1      -9.804   7.415  70.478  1.00  0.00    -0.180 C  
HETATM    9  O   UNL     1      -9.263   6.062  72.407  1.00  0.00    -0.143 OA 
HETATM   10  H   UNL     1      -8.759   6.786  72.762  1.00  0.00     0.000 HD 
HETATM   11  O   UNL     1      -8.937   8.527  70.781  1.00  0.00    -0.144 OA 
HETATM   12  C   UNL     1     -10.000   7.426  68.960  1.00  0.00    -0.176 C  
HETATM   13  O   UNL     1     -10.664   8.650  68.599  1.00  0.00    -0.377 OA 
HETATM   14  H   UNL     1      -9.288   9.354  70.473  1.00  0.00     0.000 HD 
HETATM   15  C   UNL     1     -10.795   6.180  68.498  1.00  0.00    -0.314 C  
HETATM   16  H   UNL     1     -10.786   8.657  67.657  1.00  0.00     0.000 HD 
BRANCH  15  17
HETATM   17  C   UNL     1     -11.128   6.263  66.990  1.00  0.00    -0.297 C  
HETATM   18  O   UNL     1     -10.246   7.164  66.310  1.00  0.00    -0.460 OA 
HETATM   19  H   UNL     1     -10.449   7.215  65.384  1.00  0.00     0.000 HD 
ENDBRANCH  15  17
ENDBRANCH   4   5
ENDBRANCH   2   4
TORSDOF 3
ENDMDL
MODEL      172
REMARK 921   NORMALIZED FREE ENERGY PREDICTED BY IDOCK:   -2.68 KCAL/MOL
REMARK 922        TOTAL FREE ENERGY PREDICTED BY IDOCK:   -3.49 KCAL/MOL
REMARK 923 INTER-LIGAND FREE ENERGY PREDICTED BY IDOCK:   -3.33 KCAL/MOL
REMARK 924 INTRA-LIGAND FREE ENERGY PREDICTED BY IDOCK:   -0.16 KCAL/MOL
REMARK 927      BINDING AFFINITY PREDICTED BY RF-SCORE:    0.00 PKD
ROOT
HETATM    1  O   UNL     1      -9.218   6.547  65.690  1.00  0.00    -0.369 OA 
HETATM    2  C   UNL     1     -10.088   6.275  66.787  1.00  0.00    -0.180 C  
HETATM    3  H   UNL     1      -9.382   5.915  64.999  1.00  0.00     0.000 HD 
ENDROOT
BRANCH   2   4
HETATM    4  C   UNL     1      -9.824   7.298  67.906  1.00  0.00    -0.144 C  
BRANCH   4   5
HETATM    5  N   UNL     1     -10.829   7.310  68.991  1.00  0.00    -0.161 NA 
HETATM    6  C   UNL     1     -10.990   5.996  69.644  1.00  0.00    -0.400 C  
HETATM    7  C   UNL     1      -9.758   5.538  70.448  1.00  0.00    -0.183 C  
HETATM    8  C   UNL     1      -9.372   6.606  71.484  1.00  0.00    -0.153 C  
HETATM    9  O   UNL     1     -10.024   4.306  71.125  1.00  0.00    -0.189 OA 
HETATM   10  H   UNL     1      -9.265   4.023  71.621  1.00  0.00     0.000 HD 
HETATM   11  O   UNL     1      -8.090   6.344  72.091  1.00  0.00    -0.107 OA 
HETATM   12  C   UNL     1      -9.274   8.001  70.863  1.00  0.00    -0.149 C  
HETATM   13  O   UNL     1      -9.051   8.952  71.918  1.00  0.00    -0.331 OA 
HETATM   14  H   UNL     1      -7.851   7.003  72.731  1.00  0.00     0.000 HD 
HETATM   15  C   UNL     1     -10.548   8.331  70.047  1.00  0.00    -0.235 C  
HETATM   16  H   UNL     1      -8.991   9.818  71.533  1.00  0.00     0.000 HD 
BRANCH  15  17
HETATM   17  C   UNL     1     -10.520   9.794  69.544  1.00  0.00    -0.232 C  
HETATM   18  O   UNL     1     -11.819  10.222  69.116  1.00  0.00    -0.491 OA 
HETATM   19  H   UNL     1     -11.802  11.120  68.807  1.00  0.00     0.000 HD 
ENDBRANCH  15  17
ENDBRANCH   4   5
ENDBRANCH   2   4
TORSDOF 3
ENDMDL
MODEL      173
REMARK 921   NORMALIZED FREE ENERGY PREDICTED BY IDOCK:   -2.67 KCAL/MOL
REMARK 922        TOTAL FREE ENERGY PREDICTED BY IDOCK:   -3.49 KCAL/MOL
REMARK 923 INTER-LIGAND FREE ENERGY PREDICTED BY IDOCK:   -3.18 KCAL/MOL
REMARK 924 INTRA-LIGAND FREE ENERGY PREDICTED BY IDOCK:   -0.31 KCAL/MOL
REMARK 927      BINDING AFFINITY PREDICTED BY RF-SCORE:    0.00 PKD
ROOT
HETATM    1  O   UNL     1      -9.997  12.369  63.220  1.00  0.00    -0.512 OA 
HETATM    2  C   UNL     1     -10.322  11.546  64.339  1.00  0.00    -0.312 C  
HETATM    3  H   UNL     1     -10.631  12.219  62.529  1.00  0.00     0.000 HD 
ENDROOT
BRANCH   2   4
HETATM    4  C   UNL     1      -9.295  11.788  65.459  1.00  0.00    -0.118 C  
BRANCH   4   5
HETATM    5  N   UNL     1      -9.846  12.392  66.692  1.00  0.00    -0.218 NA 
HETATM    6  C   UNL     1      -9.455  11.667  67.916  1.00  0.00    -0.181 C  
HETATM    7  C   UNL     1      -7.953  11.752  68.245  1.00  0.00    -0.147 C  
HETATM    8  C   UNL     1      -7.509  13.222  68.330  1.00  0.00    -0.124 C  
HETATM    9  O   UNL     1      -7.668  11.107  69.490  1.00  0.00    -0.357 OA 
HETATM   10  H   UNL     1      -6.742  11.159  69.693  1.00  0.00     0.000 HD 
HETATM   11  O   UNL     1      -6.075  13.360  68.390  1.00  0.00    -0.077 OA 
HETATM   12  C   UNL     1      -7.967  14.032  67.115  1.00  0.00    -0.059 C  
HETATM   13  O   UNL     1      -7.638  15.413  67.342  1.00  0.00    -0.167 OA 
HETATM   14  H   UNL     1      -5.801  14.268  68.443  1.00  0.00     0.000 HD 
HETATM   15  C   UNL     1      -9.481  13.833  66.859  1.00  0.00    -0.262 C  
HETATM   16  H   UNL     1      -7.922  15.916  66.587  1.00  0.00     0.000 HD 
BRANCH  15  17
HETATM   17  C   UNL     1      -9.979  14.764  65.729  1.00  0.00    -0.347 C  
HETATM   18  O   UNL     1     -10.326  16.059  66.235  1.00  0.00    -0.296 OA 
HETATM   19  H   UNL     1     -10.632  16.631  65.541  1.00  0.00     0.000 HD 
ENDBRANCH  15  17
ENDBRANCH   4   5
ENDBRANCH   2   4
TORSDOF 3
ENDMDL
MODEL      174
REMARK 921   NORMALIZED FREE ENERGY PREDICTED BY IDOCK:   -2.67 KCAL/MOL
REMARK 922        TOTAL FREE ENERGY PREDICTED BY IDOCK:   -3.48 KCAL/MOL
REMARK 923 INTER-LIGAND FREE ENERGY PREDICTED BY IDOCK:   -3.47 KCAL/MOL
REMARK 924 INTRA-LIGAND FREE ENERGY PREDICTED BY IDOCK:   -0.01 KCAL/MOL
REMARK 927      BINDING AFFINITY PREDICTED BY RF-SCORE:    0.00 PKD
ROOT
HETATM    1  O   UNL     1      -6.816  12.770  66.875  1.00  0.00    -0.398 OA 
HETATM    2  C   UNL     1      -7.849  13.408  67.625  1.00  0.00    -0.173 C  
HETATM    3  H   UNL     1      -6.242  13.433  66.510  1.00  0.00     0.000 HD 
ENDROOT
BRANCH   2   4
HETATM    4  C   UNL     1      -8.780  12.334  68.216  1.00  0.00    -0.178 C  
BRANCH   4   5
HETATM    5  N   UNL     1      -8.481  10.948  67.794  1.00  0.00    -0.122 NA 
HETATM    6  C   UNL     1      -7.328  10.364  68.505  1.00  0.00    -0.086 C  
HETATM    7  C   UNL     1      -7.571  10.122  70.007  1.00  0.00    -0.152 C  
HETATM    8  C   UNL     1      -8.822   9.251  70.210  1.00  0.00    -0.224 C  
HETATM    9  O   UNL     1      -6.447   9.469  70.605  1.00  0.00    -0.072 OA 
HETATM   10  H   UNL     1      -6.597   9.320  71.531  1.00  0.00     0.000 HD 
HETATM   11  O   UNL     1      -9.237   9.198  71.590  1.00  0.00    -0.320 OA 
HETATM   12  C   UNL     1     -10.024   9.777  69.422  1.00  0.00    -0.205 C  
HETATM   13  O   UNL     1     -11.100   8.833  69.552  1.00  0.00    -0.418 OA 
HETATM   14  H   UNL     1     -10.009   8.660  71.716  1.00  0.00     0.000 HD 
HETATM   15  C   UNL     1      -9.646  10.022  67.940  1.00  0.00    -0.145 C  
HETATM   16  H   UNL     1     -11.846   9.160  69.063  1.00  0.00     0.000 HD 
BRANCH  15  17
HETATM   17  C   UNL     1     -10.891  10.408  67.107  1.00  0.00    -0.238 C  
HETATM   18  O   UNL     1     -11.945  10.901  67.943  1.00  0.00    -0.735 OA 
HETATM   19  H   UNL     1     -12.709  11.138  67.432  1.00  0.00     0.000 HD 
ENDBRANCH  15  17
ENDBRANCH   4   5
ENDBRANCH   2   4
TORSDOF 3
ENDMDL
MODEL      175
REMARK 921   NORMALIZED FREE ENERGY PREDICTED BY IDOCK:   -2.66 KCAL/MOL
REMARK 922        TOTAL FREE ENERGY PREDICTED BY IDOCK:   -3.47 KCAL/MOL
REMARK 923 INTER-LIGAND FREE ENERGY PREDICTED BY IDOCK:   -3.07 KCAL/MOL
REMARK 924 INTRA-LIGAND FREE ENERGY PREDICTED BY IDOCK:   -0.40 KCAL/MOL
REMARK 927      BINDING AFFINITY PREDICTED BY RF-SCORE:    0.00 PKD
ROOT
HETATM    1  O   UNL     1     -11.511   6.731  68.246  1.00  0.00    -0.554 OA 
HETATM    2  C   UNL     1     -10.708   7.453  69.178  1.00  0.00    -0.166 C  
HETATM    3  H   UNL     1     -12.038   6.095  68.716  1.00  0.00     0.000 HD 
ENDROOT
BRANCH   2   4
HETATM    4  C   UNL     1      -9.853   8.482  68.417  1.00  0.00    -0.173 C  
BRANCH   4   5
HETATM    5  N   UNL     1     -10.329   8.801  67.053  1.00  0.00    -0.280 NA 
HETATM    6  C   UNL     1     -10.680  10.224  66.882  1.00  0.00    -0.184 C  
HETATM    7  C   UNL     1      -9.479  11.184  66.959  1.00  0.00    -0.177 C  
HETATM    8  C   UNL     1      -8.403  10.773  65.940  1.00  0.00    -0.162 C  
HETATM    9  O   UNL     1      -9.885  12.529  66.691  1.00  0.00    -0.229 OA 
HETATM   10  H   UNL     1      -9.144  13.122  66.739  1.00  0.00     0.000 HD 
HETATM   11  O   UNL     1      -7.161  11.480  66.137  1.00  0.00    -0.368 OA 
HETATM   12  C   UNL     1      -8.066   9.283  66.029  1.00  0.00    -0.110 C  
HETATM   13  O   UNL     1      -7.166   8.958  64.956  1.00  0.00    -0.088 OA 
HETATM   14  H   UNL     1      -6.497  11.227  65.508  1.00  0.00     0.000 HD 
HETATM   15  C   UNL     1      -9.353   8.424  65.983  1.00  0.00    -0.177 C  
HETATM   16  H   UNL     1      -6.957   8.033  65.010  1.00  0.00     0.000 HD 
BRANCH  15  17
HETATM   17  C   UNL     1      -9.011   6.916  65.919  1.00  0.00    -0.064 C  
HETATM   18  O   UNL     1      -8.778   6.492  64.571  1.00  0.00    -0.339 OA 
HETATM   19  H   UNL     1      -8.568   5.566  64.532  1.00  0.00     0.000 HD 
ENDBRANCH  15  17
ENDBRANCH   4   5
ENDBRANCH   2   4
TORSDOF 3
ENDMDL
MODEL      176
REMARK 921   NORMALIZED FREE ENERGY PREDICTED BY IDOCK:   -2.64 KCAL/MOL
REMARK 922        TOTAL FREE ENERGY PREDICTED BY IDOCK:   -3.44 KCAL/MOL
REMARK 923 INTER-LIGAND FREE ENERGY PREDICTED BY IDOCK:   -3.06 KCAL/MOL
REMARK 924 INTRA-LIGAND FREE ENERGY PREDICTED BY IDOCK:   -0.38 KCAL/MOL
REMARK 927      BINDING AFFINITY PREDICTED BY RF-SCORE:    0.00 PKD
ROOT
HETATM    1  O   UNL     1      -6.498  10.407  70.195  1.00  0.00    -0.105 OA 
HETATM    2  C   UNL     1      -7.792  10.208  69.630  1.00  0.00    -0.175 C  
HETATM    3  H   UNL     1      -6.282  11.331  70.160  1.00  0.00     0.000 HD 
ENDROOT
BRANCH   2   4
HETATM    4  C   UNL     1      -8.142   8.710  69.685  1.00  0.00    -0.112 C  
BRANCH   4   5
HETATM    5  N   UNL     1      -8.442   8.189  71.037  1.00  0.00    -0.125 NA 
HETATM    6  C   UNL     1      -9.540   8.915  71.705  1.00  0.00    -0.293 C  
HETATM    7  C   UNL     1     -10.919   8.715  71.048  1.00  0.00    -0.260 C  
HETATM    8  C   UNL     1     -11.250   7.217  70.951  1.00  0.00    -0.272 C  
HETATM    9  O   UNL     1     -11.942   9.371  71.804  1.00  0.00    -0.360 OA 
HETATM   10  H   UNL     1     -12.792   9.248  71.398  1.00  0.00     0.000 HD 
HETATM   11  O   UNL     1     -12.407   6.963  70.127  1.00  0.00    -0.628 OA 
HETATM   12  C   UNL     1     -10.102   6.413  70.336  1.00  0.00    -0.185 C  
HETATM   13  O   UNL     1     -10.435   5.016  70.415  1.00  0.00    -0.249 OA 
HETATM   14  H   UNL     1     -12.612   6.037  70.067  1.00  0.00     0.000 HD 
HETATM   15  C   UNL     1      -8.765   6.729  71.050  1.00  0.00    -0.137 C  
HETATM   16  H   UNL     1      -9.722   4.517  70.033  1.00  0.00     0.000 HD 
BRANCH  15  17
HETATM   17  C   UNL     1      -7.632   5.810  70.537  1.00  0.00    -0.090 C  
HETATM   18  O   UNL     1      -7.652   4.538  71.197  1.00  0.00    -0.067 OA 
HETATM   19  H   UNL     1      -6.956   3.974  70.882  1.00  0.00     0.000 HD 
ENDBRANCH  15  17
ENDBRANCH   4   5
ENDBRANCH   2   4
TORSDOF 3
ENDMDL
MODEL      177
REMARK 921   NORMALIZED FREE ENERGY PREDICTED BY IDOCK:   -2.60 KCAL/MOL
REMARK 922        TOTAL FREE ENERGY PREDICTED BY IDOCK:   -3.40 KCAL/MOL
REMARK 923 INTER-LIGAND FREE ENERGY PREDICTED BY IDOCK:   -3.22 KCAL/MOL
REMARK 924 INTRA-LIGAND FREE ENERGY PREDICTED BY IDOCK:   -0.18 KCAL/MOL
REMARK 927      BINDING AFFINITY PREDICTED BY RF-SCORE:    0.00 PKD
ROOT
HETATM    1  O   UNL     1     -10.533  10.378  63.426  1.00  0.00    -0.405 OA 
HETATM    2  C   UNL     1     -10.423  11.547  64.236  1.00  0.00    -0.338 C  
HETATM    3  H   UNL     1     -11.053  10.581  62.657  1.00  0.00     0.000 HD 
ENDROOT
BRANCH   2   4
HETATM    4  C   UNL     1      -9.581  11.219  65.483  1.00  0.00    -0.228 C  
BRANCH   4   5
HETATM    5  N   UNL     1     -10.246  11.497  66.775  1.00  0.00    -0.214 NA 
HETATM    6  C   UNL     1     -11.059  10.366  67.261  1.00  0.00    -0.179 C  
HETATM    7  C   UNL     1     -10.238   9.126  67.662  1.00  0.00    -0.236 C  
HETATM    8  C   UNL     1      -9.175   9.507  68.706  1.00  0.00    -0.140 C  
HETATM    9  O   UNL     1     -11.086   8.111  68.209  1.00  0.00    -0.427 OA 
HETATM   10  H   UNL     1     -10.580   7.346  68.457  1.00  0.00     0.000 HD 
HETATM   11  O   UNL     1      -8.224   8.447  68.933  1.00  0.00    -0.112 OA 
HETATM   12  C   UNL     1      -8.360  10.729  68.277  1.00  0.00    -0.125 C  
HETATM   13  O   UNL     1      -7.495  11.100  69.364  1.00  0.00    -0.249 OA 
HETATM   14  H   UNL     1      -7.567   8.682  69.577  1.00  0.00     0.000 HD 
HETATM   15  C   UNL     1      -9.292  11.893  67.857  1.00  0.00    -0.187 C  
HETATM   16  H   UNL     1      -6.989  11.859  69.098  1.00  0.00     0.000 HD 
BRANCH  15  17
HETATM   17  C   UNL     1      -8.479  13.177  67.569  1.00  0.00    -0.198 C  
HETATM   18  O   UNL     1      -9.206  14.350  67.953  1.00  0.00    -0.184 OA 
HETATM   19  H   UNL     1      -8.707  15.139  67.776  1.00  0.00     0.000 HD 
ENDBRANCH  15  17
ENDBRANCH   4   5
ENDBRANCH   2   4
TORSDOF 3
ENDMDL
MODEL      178
REMARK 921   NORMALIZED FREE ENERGY PREDICTED BY IDOCK:   -2.59 KCAL/MOL
REMARK 922        TOTAL FREE ENERGY PREDICTED BY IDOCK:   -3.38 KCAL/MOL
REMARK 923 INTER-LIGAND FREE ENERGY PREDICTED BY IDOCK:   -3.24 KCAL/MOL
REMARK 924 INTRA-LIGAND FREE ENERGY PREDICTED BY IDOCK:   -0.14 KCAL/MOL
REMARK 927      BINDING AFFINITY PREDICTED BY RF-SCORE:    0.00 PKD
ROOT
HETATM    1  O   UNL     1      -6.825  11.348  68.574  1.00  0.00    -0.064 OA 
HETATM    2  C   UNL     1      -7.201   9.978  68.440  1.00  0.00    -0.073 C  
HETATM    3  H   UNL     1      -6.063  11.515  68.033  1.00  0.00     0.000 HD 
ENDROOT
BRANCH   2   4
HETATM    4  C   UNL     1      -8.436   9.706  69.316  1.00  0.00    -0.150 C  
BRANCH   4   5
HETATM    5  N   UNL     1      -9.734   9.795  68.611  1.00  0.00    -0.152 NA 
HETATM    6  C   UNL     1      -9.741   9.078  67.322  1.00  0.00    -0.179 C  
HETATM    7  C   UNL     1      -9.631   7.547  67.452  1.00  0.00    -0.149 C  
HETATM    8  C   UNL     1     -10.743   7.010  68.368  1.00  0.00    -0.179 C  
HETATM    9  O   UNL     1      -9.739   6.920  66.170  1.00  0.00    -0.393 OA 
HETATM   10  H   UNL     1      -9.671   5.976  66.250  1.00  0.00     0.000 HD 
HETATM   11  O   UNL     1     -10.542   5.626  68.721  1.00  0.00    -0.229 OA 
HETATM   12  C   UNL     1     -10.824   7.781  69.687  1.00  0.00    -0.184 C  
HETATM   13  O   UNL     1     -11.971   7.312  70.416  1.00  0.00    -0.512 OA 
HETATM   14  H   UNL     1     -11.229   5.294  69.287  1.00  0.00     0.000 HD 
HETATM   15  C   UNL     1     -10.887   9.307  69.430  1.00  0.00    -0.169 C  
HETATM   16  H   UNL     1     -12.021   7.791  71.235  1.00  0.00     0.000 HD 
BRANCH  15  17
HETATM   17  C   UNL     1     -11.121  10.082  70.748  1.00  0.00    -0.334 C  
HETATM   18  O   UNL     1     -11.476  11.447  70.494  1.00  0.00    -0.475 OA 
HETATM   19  H   UNL     1     -11.620  11.923  71.303  1.00  0.00     0.000 HD 
ENDBRANCH  15  17
ENDBRANCH   4   5
ENDBRANCH   2   4
TORSDOF 3
ENDMDL
MODEL      179
REMARK 921   NORMALIZED FREE ENERGY PREDICTED BY IDOCK:   -2.56 KCAL/MOL
REMARK 922        TOTAL FREE ENERGY PREDICTED BY IDOCK:   -3.35 KCAL/MOL
REMARK 923 INTER-LIGAND FREE ENERGY PREDICTED BY IDOCK:   -3.27 KCAL/MOL
REMARK 924 INTRA-LIGAND FREE ENERGY PREDICTED BY IDOCK:   -0.08 KCAL/MOL
REMARK 927      BINDING AFFINITY PREDICTED BY RF-SCORE:    0.00 PKD
ROOT
HETATM    1  O   UNL     1     -12.655  15.033  69.052  1.00  0.00    -0.552 OA 
HETATM    2  C   UNL     1     -11.762  14.504  68.074  1.00  0.00    -0.342 C  
HETATM    3  H   UNL     1     -13.537  15.034  68.700  1.00  0.00     0.000 HD 
ENDROOT
BRANCH   2   4
HETATM    4  C   UNL     1     -10.332  14.502  68.644  1.00  0.00    -0.242 C  
BRANCH   4   5
HETATM    5  N   UNL     1      -9.258  14.653  67.638  1.00  0.00    -0.189 NA 
HETATM    6  C   UNL     1      -8.144  15.499  68.106  1.00  0.00    -0.132 C  
HETATM    7  C   UNL     1      -7.325  14.883  69.256  1.00  0.00    -0.175 C  
HETATM    8  C   UNL     1      -6.807  13.492  68.856  1.00  0.00    -0.111 C  
HETATM    9  O   UNL     1      -6.210  15.717  69.589  1.00  0.00    -0.150 OA 
HETATM   10  H   UNL     1      -5.705  15.338  70.298  1.00  0.00     0.000 HD 
HETATM   11  O   UNL     1      -6.249  12.771  69.973  1.00  0.00    -0.250 OA 
HETATM   12  C   UNL     1      -7.919  12.607  68.288  1.00  0.00    -0.153 C  
HETATM   13  O   UNL     1      -7.326  11.387  67.810  1.00  0.00    -0.090 OA 
HETATM   14  H   UNL     1      -5.929  11.912  69.726  1.00  0.00     0.000 HD 
HETATM   15  C   UNL     1      -8.697  13.347  67.172  1.00  0.00    -0.215 C  
HETATM   16  H   UNL     1      -8.017  10.837  67.457  1.00  0.00     0.000 HD 
BRANCH  15  17
HETATM   17  C   UNL     1      -9.719  12.407  66.492  1.00  0.00    -0.240 C  
HETATM   18  O   UNL     1      -9.212  11.894  65.254  1.00  0.00    -0.423 OA 
HETATM   19  H   UNL     1      -9.840  11.317  64.836  1.00  0.00     0.000 HD 
ENDBRANCH  15  17
ENDBRANCH   4   5
ENDBRANCH   2   4
TORSDOF 3
ENDMDL
MODEL      180
REMARK 921   NORMALIZED FREE ENERGY PREDICTED BY IDOCK:   -2.54 KCAL/MOL
REMARK 922        TOTAL FREE ENERGY PREDICTED BY IDOCK:   -3.32 KCAL/MOL
REMARK 923 INTER-LIGAND FREE ENERGY PREDICTED BY IDOCK:   -3.31 KCAL/MOL
REMARK 924 INTRA-LIGAND FREE ENERGY PREDICTED BY IDOCK:   -0.01 KCAL/MOL
REMARK 927      BINDING AFFINITY PREDICTED BY RF-SCORE:    0.00 PKD
ROOT
HETATM    1  O   UNL     1     -11.826  15.061  67.156  1.00  0.00    -0.288 OA 
HETATM    2  C   UNL     1     -12.254  13.882  66.477  1.00  0.00    -0.442 C  
HETATM    3  H   UNL     1     -12.448  15.760  66.989  1.00  0.00     0.000 HD 
ENDROOT
BRANCH   2   4
HETATM    4  C   UNL     1     -11.246  12.750  66.748  1.00  0.00    -0.295 C  
BRANCH   4   5
HETATM    5  N   UNL     1      -9.934  12.912  66.085  1.00  0.00    -0.269 NA 
HETATM    6  C   UNL     1      -9.024  13.814  66.818  1.00  0.00    -0.185 C  
HETATM    7  C   UNL     1      -8.553  13.265  68.177  1.00  0.00    -0.177 C  
HETATM    8  C   UNL     1      -7.903  11.883  67.997  1.00  0.00    -0.140 C  
HETATM    9  O   UNL     1      -7.604  14.150  68.781  1.00  0.00    -0.125 OA 
HETATM   10  H   UNL     1      -7.313  13.811  69.620  1.00  0.00     0.000 HD 
HETATM   11  O   UNL     1      -7.669  11.218  69.255  1.00  0.00    -0.302 OA 
HETATM   12  C   UNL     1      -8.781  10.939  67.170  1.00  0.00    -0.132 C  
HETATM   13  O   UNL     1      -8.042   9.729  66.930  1.00  0.00    -0.112 OA 
HETATM   14  H   UNL     1      -7.268  10.364  69.143  1.00  0.00     0.000 HD 
HETATM   15  C   UNL     1      -9.226  11.616  65.850  1.00  0.00    -0.196 C  
HETATM   16  H   UNL     1      -8.586   9.143  66.417  1.00  0.00     0.000 HD 
BRANCH  15  17
HETATM   17  C   UNL     1      -9.984  10.617  64.944  1.00  0.00    -0.318 C  
HETATM   18  O   UNL     1     -10.260   9.393  65.635  1.00  0.00    -0.331 OA 
HETATM   19  H   UNL     1     -10.726   8.780  65.079  1.00  0.00     0.000 HD 
ENDBRANCH  15  17
ENDBRANCH   4   5
ENDBRANCH   2   4
TORSDOF 3
ENDMDL
MODEL      181
REMARK 921   NORMALIZED FREE ENERGY PREDICTED BY IDOCK:   -2.53 KCAL/MOL
REMARK 922        TOTAL FREE ENERGY PREDICTED BY IDOCK:   -3.32 KCAL/MOL
REMARK 923 INTER-LIGAND FREE ENERGY PREDICTED BY IDOCK:   -2.96 KCAL/MOL
REMARK 924 INTRA-LIGAND FREE ENERGY PREDICTED BY IDOCK:   -0.36 KCAL/MOL
REMARK 927      BINDING AFFINITY PREDICTED BY RF-SCORE:    0.00 PKD
ROOT
HETATM    1  O   UNL     1      -6.731  11.949  69.402  1.00  0.00    -0.132 OA 
HETATM    2  C   UNL     1      -8.137  11.900  69.172  1.00  0.00     0.300 C  
HETATM    3  H   UNL     1      -6.502  12.803  69.749  1.00  0.00     0.000 HD 
ENDROOT
BRANCH   2   4
HETATM    4  C   UNL     1      -8.509  10.516  68.609  1.00  0.00    -0.138 C  
BRANCH   4   5
HETATM    5  N   UNL     1      -9.874  10.417  68.049  1.00  0.00    -0.149 NA 
HETATM    6  C   UNL     1     -10.112  11.357  66.937  1.00  0.00    -0.214 C  
HETATM    7  C   UNL     1      -9.297  11.049  65.667  1.00  0.00    -0.214 C  
HETATM    8  C   UNL     1      -9.551   9.604  65.208  1.00  0.00    -0.277 C  
HETATM    9  O   UNL     1      -9.650  11.943  64.607  1.00  0.00    -0.407 OA 
HETATM   10  H   UNL     1      -9.147  11.754  63.824  1.00  0.00     0.000 HD 
HETATM   11  O   UNL     1      -8.633   9.185  64.177  1.00  0.00    -0.191 OA 
HETATM   12  C   UNL     1      -9.394   8.601  66.354  1.00  0.00    -0.211 C  
HETATM   13  O   UNL     1      -9.786   7.303  65.876  1.00  0.00    -0.391 OA 
HETATM   14  H   UNL     1      -8.790   8.292  63.894  1.00  0.00     0.000 HD 
HETATM   15  C   UNL     1     -10.224   9.038  67.586  1.00  0.00    -0.242 C  
HETATM   16  H   UNL     1      -9.689   6.680  66.587  1.00  0.00     0.000 HD 
BRANCH  15  17
HETATM   17  C   UNL     1     -10.191   7.955  68.689  1.00  0.00    -0.205 C  
HETATM   18  O   UNL     1     -11.175   6.941  68.454  1.00  0.00    -0.496 OA 
HETATM   19  H   UNL     1     -11.155   6.275  69.131  1.00  0.00     0.000 HD 
ENDBRANCH  15  17
ENDBRANCH   4   5
ENDBRANCH   2   4
TORSDOF 3
ENDMDL
MODEL      182
REMARK 921   NORMALIZED FREE ENERGY PREDICTED BY IDOCK:   -2.53 KCAL/MOL
REMARK 922        TOTAL FREE ENERGY PREDICTED BY IDOCK:   -3.32 KCAL/MOL
REMARK 923 INTER-LIGAND FREE ENERGY PREDICTED BY IDOCK:   -3.07 KCAL/MOL
REMARK 924 INTRA-LIGAND FREE ENERGY PREDICTED BY IDOCK:   -0.25 KCAL/MOL
REMARK 927      BINDING AFFINITY PREDICTED BY RF-SCORE:    0.00 PKD
ROOT
HETATM    1  O   UNL     1     -12.271  14.569  69.782  1.00  0.00    -0.315 OA 
HETATM    2  C   UNL     1     -12.231  15.450  68.661  1.00  0.00     0.042 C  
HETATM    3  H   UNL     1     -13.064  14.048  69.740  1.00  0.00     0.000 HD 
ENDROOT
BRANCH   2   4
HETATM    4  C   UNL     1     -10.946  16.294  68.727  1.00  0.00    -0.343 C  
BRANCH   4   5
HETATM    5  N   UNL     1     -10.946  17.499  67.869  1.00  0.00    -0.243 NA 
HETATM    6  C   UNL     1     -10.488  18.711  68.576  1.00  0.00    -0.140 C  
HETATM    7  C   UNL     1      -9.000  18.685  68.972  1.00  0.00    -0.081 C  
HETATM    8  C   UNL     1      -8.124  18.425  67.735  1.00  0.00    -0.254 C  
HETATM    9  O   UNL     1      -8.611  19.927  69.566  1.00  0.00     0.114 OA 
HETATM   10  H   UNL     1      -7.693  19.911  69.810  1.00  0.00     0.000 HD 
HETATM   11  O   UNL     1      -6.753  18.146  68.082  1.00  0.00    -0.198 OA 
HETATM   12  C   UNL     1      -8.615  17.221  66.926  1.00  0.00    -0.240 C  
HETATM   13  O   UNL     1      -7.834  17.138  65.722  1.00  0.00    -0.449 OA 
HETATM   14  H   UNL     1      -6.212  17.986  67.318  1.00  0.00     0.000 HD 
HETATM   15  C   UNL     1     -10.129  17.340  66.626  1.00  0.00    -0.302 C  
HETATM   16  H   UNL     1      -8.139  16.391  65.219  1.00  0.00     0.000 HD 
BRANCH  15  17
HETATM   17  C   UNL     1     -10.597  16.207  65.683  1.00  0.00    -0.363 C  
HETATM   18  O   UNL     1      -9.815  15.021  65.865  1.00  0.00    -0.297 OA 
HETATM   19  H   UNL     1     -10.103  14.325  65.286  1.00  0.00     0.000 HD 
ENDBRANCH  15  17
ENDBRANCH   4   5
ENDBRANCH   2   4
TORSDOF 3
ENDMDL
MODEL      183
REMARK 921   NORMALIZED FREE ENERGY PREDICTED BY IDOCK:   -2.53 KCAL/MOL
REMARK 922        TOTAL FREE ENERGY PREDICTED BY IDOCK:   -3.31 KCAL/MOL
REMARK 923 INTER-LIGAND FREE ENERGY PREDICTED BY IDOCK:   -2.94 KCAL/MOL
REMARK 924 INTRA-LIGAND FREE ENERGY PREDICTED BY IDOCK:   -0.37 KCAL/MOL
REMARK 927      BINDING AFFINITY PREDICTED BY RF-SCORE:    0.00 PKD
ROOT
HETATM    1  O   UNL     1      -9.587   1.544  67.092  1.00  0.00    -0.366 OA 
HETATM    2  C   UNL     1      -8.592   2.279  67.800  1.00  0.00    -0.095 C  
HETATM    3  H   UNL     1      -9.171   0.834  66.617  1.00  0.00     0.000 HD 
ENDROOT
BRANCH   2   4
HETATM    4  C   UNL     1      -9.266   3.429  68.570  1.00  0.00    -0.171 C  
BRANCH   4   5
HETATM    5  N   UNL     1      -8.592   4.740  68.449  1.00  0.00    -0.097 NA 
HETATM    6  C   UNL     1      -8.342   5.135  67.049  1.00  0.00    -0.107 C  
HETATM    7  C   UNL     1      -9.619   5.434  66.242  1.00  0.00    -0.160 C  
HETATM    8  C   UNL     1     -10.462   6.504  66.956  1.00  0.00    -0.295 C  
HETATM    9  O   UNL     1      -9.292   5.899  64.929  1.00  0.00    -0.268 OA 
HETATM   10  H   UNL     1     -10.080   6.083  64.430  1.00  0.00     0.000 HD 
HETATM   11  O   UNL     1     -11.776   6.643  66.379  1.00  0.00    -0.139 OA 
HETATM   12  C   UNL     1     -10.677   6.173  68.435  1.00  0.00    -0.293 C  
HETATM   13  O   UNL     1     -11.345   7.286  69.055  1.00  0.00    -0.450 OA 
HETATM   14  H   UNL     1     -12.297   7.304  66.820  1.00  0.00     0.000 HD 
HETATM   15  C   UNL     1      -9.330   5.850  69.128  1.00  0.00    -0.120 C  
HETATM   16  H   UNL     1     -11.478   7.081  69.973  1.00  0.00     0.000 HD 
BRANCH  15  17
HETATM   17  C   UNL     1      -9.522   5.665  70.652  1.00  0.00    -0.164 C  
HETATM   18  O   UNL     1     -10.887   5.376  70.974  1.00  0.00    -0.215 OA 
HETATM   19  H   UNL     1     -11.005   5.262  71.910  1.00  0.00     0.000 HD 
ENDBRANCH  15  17
ENDBRANCH   4   5
ENDBRANCH   2   4
TORSDOF 3
ENDMDL
MODEL      184
REMARK 921   NORMALIZED FREE ENERGY PREDICTED BY IDOCK:   -2.52 KCAL/MOL
REMARK 922        TOTAL FREE ENERGY PREDICTED BY IDOCK:   -3.30 KCAL/MOL
REMARK 923 INTER-LIGAND FREE ENERGY PREDICTED BY IDOCK:   -2.95 KCAL/MOL
REMARK 924 INTRA-LIGAND FREE ENERGY PREDICTED BY IDOCK:   -0.35 KCAL/MOL
REMARK 927      BINDING AFFINITY PREDICTED BY RF-SCORE:    0.00 PKD
ROOT
HETATM    1  O   UNL     1      -6.940   6.586  68.127  1.00  0.00    -0.071 OA 
HETATM    2  C   UNL     1      -8.365   6.525  68.123  1.00  0.00    -0.116 C  
HETATM    3  H   UNL     1      -6.632   6.712  67.237  1.00  0.00     0.000 HD 
ENDROOT
BRANCH   2   4
HETATM    4  C   UNL     1      -8.865   6.320  69.565  1.00  0.00    -0.135 C  
BRANCH   4   5
HETATM    5  N   UNL     1     -10.119   5.545  69.686  1.00  0.00    -0.215 NA 
HETATM    6  C   UNL     1      -9.889   4.114  69.959  1.00  0.00    -0.175 C  
HETATM    7  C   UNL     1      -9.282   3.826  71.345  1.00  0.00    -0.126 C  
HETATM    8  C   UNL     1     -10.155   4.447  72.448  1.00  0.00    -0.181 C  
HETATM    9  O   UNL     1      -9.177   2.417  71.571  1.00  0.00    -0.086 OA 
HETATM   10  H   UNL     1      -8.802   2.240  72.426  1.00  0.00     0.000 HD 
HETATM   11  O   UNL     1      -9.510   4.422  73.738  1.00  0.00    -0.115 OA 
HETATM   12  C   UNL     1     -10.486   5.914  72.162  1.00  0.00    -0.207 C  
HETATM   13  O   UNL     1     -11.416   6.370  73.160  1.00  0.00    -0.474 OA 
HETATM   14  H   UNL     1     -10.050   4.805  74.419  1.00  0.00     0.000 HD 
HETATM   15  C   UNL     1     -11.048   6.082  70.729  1.00  0.00    -0.286 C  
HETATM   16  H   UNL     1     -11.621   7.280  72.982  1.00  0.00     0.000 HD 
BRANCH  15  17
HETATM   17  C   UNL     1     -11.525   7.534  70.488  1.00  0.00    -0.237 C  
HETATM   18  O   UNL     1     -12.850   7.737  70.993  1.00  0.00    -0.521 OA 
HETATM   19  H   UNL     1     -13.143   8.628  70.845  1.00  0.00     0.000 HD 
ENDBRANCH  15  17
ENDBRANCH   4   5
ENDBRANCH   2   4
TORSDOF 3
ENDMDL
MODEL      185
REMARK 921   NORMALIZED FREE ENERGY PREDICTED BY IDOCK:   -2.52 KCAL/MOL
REMARK 922        TOTAL FREE ENERGY PREDICTED BY IDOCK:   -3.30 KCAL/MOL
REMARK 923 INTER-LIGAND FREE ENERGY PREDICTED BY IDOCK:   -3.03 KCAL/MOL
REMARK 924 INTRA-LIGAND FREE ENERGY PREDICTED BY IDOCK:   -0.28 KCAL/MOL
REMARK 927      BINDING AFFINITY PREDICTED BY RF-SCORE:    0.00 PKD
ROOT
HETATM    1  O   UNL     1      -9.805   5.813  73.038  1.00  0.00    -0.164 OA 
HETATM    2  C   UNL     1      -9.689   4.687  72.171  1.00  0.00    -0.165 C  
HETATM    3  H   UNL     1      -9.961   5.508  73.924  1.00  0.00     0.000 HD 
ENDROOT
BRANCH   2   4
HETATM    4  C   UNL     1      -9.436   5.179  70.735  1.00  0.00    -0.167 C  
BRANCH   4   5
HETATM    5  N   UNL     1     -10.654   5.371  69.917  1.00  0.00    -0.312 NA 
HETATM    6  C   UNL     1     -11.488   6.498  70.379  1.00  0.00    -0.404 C  
HETATM    7  C   UNL     1     -10.838   7.881  70.190  1.00  0.00    -0.243 C  
HETATM    8  C   UNL     1     -10.434   8.083  68.720  1.00  0.00    -0.173 C  
HETATM    9  O   UNL     1     -11.742   8.923  70.572  1.00  0.00    -0.413 OA 
HETATM   10  H   UNL     1     -11.341   9.777  70.456  1.00  0.00     0.000 HD 
HETATM   11  O   UNL     1      -9.605   9.249  68.533  1.00  0.00    -0.145 OA 
HETATM   12  C   UNL     1      -9.635   6.897  68.175  1.00  0.00    -0.124 C  
HETATM   13  O   UNL     1      -9.424   7.102  66.768  1.00  0.00    -0.155 OA 
HETATM   14  H   UNL     1      -9.356   9.374  67.626  1.00  0.00     0.000 HD 
HETATM   15  C   UNL     1     -10.365   5.562  68.462  1.00  0.00    -0.178 C  
HETATM   16  H   UNL     1      -8.927   6.366  66.430  1.00  0.00     0.000 HD 
BRANCH  15  17
HETATM   17  C   UNL     1      -9.640   4.377  67.783  1.00  0.00    -0.160 C  
HETATM   18  O   UNL     1      -9.981   4.284  66.394  1.00  0.00    -0.221 OA 
HETATM   19  H   UNL     1      -9.535   3.556  65.977  1.00  0.00     0.000 HD 
ENDBRANCH  15  17
ENDBRANCH   4   5
ENDBRANCH   2   4
TORSDOF 3
ENDMDL
MODEL      186
REMARK 921   NORMALIZED FREE ENERGY PREDICTED BY IDOCK:   -2.50 KCAL/MOL
REMARK 922        TOTAL FREE ENERGY PREDICTED BY IDOCK:   -3.28 KCAL/MOL
REMARK 923 INTER-LIGAND FREE ENERGY PREDICTED BY IDOCK:   -2.81 KCAL/MOL
REMARK 924 INTRA-LIGAND FREE ENERGY PREDICTED BY IDOCK:   -0.48 KCAL/MOL
REMARK 927      BINDING AFFINITY PREDICTED BY RF-SCORE:    0.00 PKD
ROOT
HETATM    1  O   UNL     1      -7.522   9.195  71.683  1.00  0.00    -0.326 OA 
HETATM    2  C   UNL     1      -8.395   8.155  72.119  1.00  0.00    -0.157 C  
HETATM    3  H   UNL     1      -7.163   9.639  72.442  1.00  0.00     0.000 HD 
ENDROOT
BRANCH   2   4
HETATM    4  C   UNL     1      -8.979   7.437  70.890  1.00  0.00    -0.149 C  
BRANCH   4   5
HETATM    5  N   UNL     1      -8.351   7.798  69.600  1.00  0.00    -0.127 NA 
HETATM    6  C   UNL     1      -7.773   6.639  68.893  1.00  0.00    -0.109 C  
HETATM    7  C   UNL     1      -8.816   5.624  68.389  1.00  0.00    -0.108 C  
HETATM    8  C   UNL     1      -9.855   6.326  67.501  1.00  0.00    -0.120 C  
HETATM    9  O   UNL     1      -8.187   4.582  67.637  1.00  0.00    -0.099 OA 
HETATM   10  H   UNL     1      -8.831   3.956  67.326  1.00  0.00     0.000 HD 
HETATM   11  O   UNL     1     -10.986   5.481  67.205  1.00  0.00    -0.381 OA 
HETATM   12  C   UNL     1     -10.423   7.584  68.164  1.00  0.00    -0.183 C  
HETATM   13  O   UNL     1     -11.272   8.251  67.215  1.00  0.00    -0.319 OA 
HETATM   14  H   UNL     1     -11.628   5.915  66.656  1.00  0.00     0.000 HD 
HETATM   15  C   UNL     1      -9.283   8.504  68.666  1.00  0.00    -0.142 C  
HETATM   16  H   UNL     1     -11.625   9.032  67.626  1.00  0.00     0.000 HD 
BRANCH  15  17
HETATM   17  C   UNL     1      -9.846   9.842  69.199  1.00  0.00    -0.198 C  
HETATM   18  O   UNL     1      -8.793  10.759  69.521  1.00  0.00    -0.388 OA 
HETATM   19  H   UNL     1      -9.138  11.581  69.849  1.00  0.00     0.000 HD 
ENDBRANCH  15  17
ENDBRANCH   4   5
ENDBRANCH   2   4
TORSDOF 3
ENDMDL
MODEL      187
REMARK 921   NORMALIZED FREE ENERGY PREDICTED BY IDOCK:   -2.49 KCAL/MOL
REMARK 922        TOTAL FREE ENERGY PREDICTED BY IDOCK:   -3.27 KCAL/MOL
REMARK 923 INTER-LIGAND FREE ENERGY PREDICTED BY IDOCK:   -2.90 KCAL/MOL
REMARK 924 INTRA-LIGAND FREE ENERGY PREDICTED BY IDOCK:   -0.37 KCAL/MOL
REMARK 927      BINDING AFFINITY PREDICTED BY RF-SCORE:    0.00 PKD
ROOT
HETATM    1  O   UNL     1      -8.824   6.981  64.899  1.00  0.00    -0.349 OA 
HETATM    2  C   UNL     1      -8.936   6.506  66.239  1.00  0.00    -0.156 C  
HETATM    3  H   UNL     1      -8.528   6.272  64.341  1.00  0.00     0.000 HD 
ENDROOT
BRANCH   2   4
HETATM    4  C   UNL     1      -9.415   7.655  67.144  1.00  0.00    -0.155 C  
BRANCH   4   5
HETATM    5  N   UNL     1      -8.508   7.985  68.265  1.00  0.00    -0.123 NA 
HETATM    6  C   UNL     1      -7.465   8.962  67.896  1.00  0.00    -0.092 C  
HETATM    7  C   UNL     1      -8.004  10.371  67.586  1.00  0.00    -0.106 C  
HETATM    8  C   UNL     1      -8.833  10.897  68.769  1.00  0.00    -0.161 C  
HETATM    9  O   UNL     1      -6.930  11.281  67.329  1.00  0.00    -0.093 OA 
HETATM   10  H   UNL     1      -7.262  12.150  67.137  1.00  0.00     0.000 HD 
HETATM   11  O   UNL     1      -9.562  12.097  68.439  1.00  0.00    -0.209 OA 
HETATM   12  C   UNL     1      -9.875   9.878  69.238  1.00  0.00    -0.207 C  
HETATM   13  O   UNL     1     -10.502  10.388  70.427  1.00  0.00    -0.432 OA 
HETATM   14  H   UNL     1     -10.074  12.422  69.170  1.00  0.00     0.000 HD 
HETATM   15  C   UNL     1      -9.224   8.494  69.476  1.00  0.00    -0.150 C  
HETATM   16  H   UNL     1     -11.149   9.756  70.718  1.00  0.00     0.000 HD 
BRANCH  15  17
HETATM   17  C   UNL     1     -10.239   7.503  70.093  1.00  0.00    -0.206 C  
HETATM   18  O   UNL     1     -11.586   7.953  69.907  1.00  0.00    -0.465 OA 
HETATM   19  H   UNL     1     -12.209   7.345  70.286  1.00  0.00     0.000 HD 
ENDBRANCH  15  17
ENDBRANCH   4   5
ENDBRANCH   2   4
TORSDOF 3
ENDMDL
MODEL      188
REMARK 921   NORMALIZED FREE ENERGY PREDICTED BY IDOCK:   -2.49 KCAL/MOL
REMARK 922        TOTAL FREE ENERGY PREDICTED BY IDOCK:   -3.26 KCAL/MOL
REMARK 923 INTER-LIGAND FREE ENERGY PREDICTED BY IDOCK:   -2.90 KCAL/MOL
REMARK 924 INTRA-LIGAND FREE ENERGY PREDICTED BY IDOCK:   -0.37 KCAL/MOL
REMARK 927      BINDING AFFINITY PREDICTED BY RF-SCORE:    0.00 PKD
ROOT
HETATM    1  O   UNL     1      -9.980   3.008  66.036  1.00  0.00    -0.352 OA 
HETATM    2  C   UNL     1      -8.808   3.799  65.847  1.00  0.00    -0.122 C  
HETATM    3  H   UNL     1      -9.941   2.252  65.461  1.00  0.00     0.000 HD 
ENDROOT
BRANCH   2   4
HETATM    4  C   UNL     1      -8.871   5.024  66.778  1.00  0.00    -0.107 C  
BRANCH   4   5
HETATM    5  N   UNL     1      -9.863   6.051  66.391  1.00  0.00    -0.143 NA 
HETATM    6  C   UNL     1     -11.002   6.133  67.325  1.00  0.00    -0.326 C  
HETATM    7  C   UNL     1     -10.633   6.656  68.725  1.00  0.00    -0.236 C  
HETATM    8  C   UNL     1      -9.932   8.020  68.616  1.00  0.00    -0.189 C  
HETATM    9  O   UNL     1     -11.801   6.797  69.540  1.00  0.00    -0.635 OA 
HETATM   10  H   UNL     1     -11.573   7.119  70.404  1.00  0.00     0.000 HD 
HETATM   11  O   UNL     1      -9.347   8.439  69.867  1.00  0.00    -0.154 OA 
HETATM   12  C   UNL     1      -8.791   8.001  67.596  1.00  0.00    -0.125 C  
HETATM   13  O   UNL     1      -8.289   9.340  67.453  1.00  0.00    -0.120 OA 
HETATM   14  H   UNL     1      -8.914   9.282  69.799  1.00  0.00     0.000 HD 
HETATM   15  C   UNL     1      -9.272   7.417  66.244  1.00  0.00    -0.135 C  
HETATM   16  H   UNL     1      -7.581   9.328  66.819  1.00  0.00     0.000 HD 
BRANCH  15  17
HETATM   17  C   UNL     1      -8.170   7.535  65.166  1.00  0.00    -0.120 C  
HETATM   18  O   UNL     1      -8.040   8.883  64.698  1.00  0.00    -0.133 OA 
HETATM   19  H   UNL     1      -7.363   8.955  64.036  1.00  0.00     0.000 HD 
ENDBRANCH  15  17
ENDBRANCH   4   5
ENDBRANCH   2   4
TORSDOF 3
ENDMDL
MODEL      189
REMARK 921   NORMALIZED FREE ENERGY PREDICTED BY IDOCK:   -2.48 KCAL/MOL
REMARK 922        TOTAL FREE ENERGY PREDICTED BY IDOCK:   -3.26 KCAL/MOL
REMARK 923 INTER-LIGAND FREE ENERGY PREDICTED BY IDOCK:   -3.82 KCAL/MOL
REMARK 924 INTRA-LIGAND FREE ENERGY PREDICTED BY IDOCK:    0.55 KCAL/MOL
REMARK 927      BINDING AFFINITY PREDICTED BY RF-SCORE:    0.00 PKD
ROOT
HETATM    1  O   UNL     1     -12.035   6.416  69.763  1.00  0.00    -0.542 OA 
HETATM    2  C   UNL     1     -10.841   5.989  69.110  1.00  0.00    -0.352 C  
HETATM    3  H   UNL     1     -12.784   6.171  69.233  1.00  0.00     0.000 HD 
ENDROOT
BRANCH   2   4
HETATM    4  C   UNL     1      -9.627   6.385  69.969  1.00  0.00    -0.158 C  
BRANCH   4   5
HETATM    5  N   UNL     1      -8.605   7.194  69.269  1.00  0.00    -0.136 NA 
HETATM    6  C   UNL     1      -8.788   7.214  67.805  1.00  0.00    -0.124 C  
HETATM    7  C   UNL     1     -10.056   7.953  67.338  1.00  0.00    -0.226 C  
HETATM    8  C   UNL     1     -10.074   9.384  67.898  1.00  0.00    -0.194 C  
HETATM    9  O   UNL     1     -10.113   8.010  65.909  1.00  0.00    -0.374 OA 
HETATM   10  H   UNL     1     -10.896   8.465  65.621  1.00  0.00     0.000 HD 
HETATM   11  O   UNL     1     -11.345  10.036  67.700  1.00  0.00    -0.491 OA 
HETATM   12  C   UNL     1      -9.807   9.416  69.405  1.00  0.00    -0.178 C  
HETATM   13  O   UNL     1      -9.699  10.790  69.816  1.00  0.00    -0.422 OA 
HETATM   14  H   UNL     1     -11.356  10.921  68.045  1.00  0.00     0.000 HD 
HETATM   15  C   UNL     1      -8.534   8.607  69.755  1.00  0.00    -0.129 C  
HETATM   16  H   UNL     1      -9.533  10.810  70.751  1.00  0.00     0.000 HD 
BRANCH  15  17
HETATM   17  C   UNL     1      -8.174   8.761  71.252  1.00  0.00    -0.167 C  
HETATM   18  O   UNL     1      -7.091   9.680  71.435  1.00  0.00    -0.324 OA 
HETATM   19  H   UNL     1      -6.870   9.775  72.354  1.00  0.00     0.000 HD 
ENDBRANCH  15  17
ENDBRANCH   4   5
ENDBRANCH   2   4
TORSDOF 3
ENDMDL
MODEL      190
REMARK 921   NORMALIZED FREE ENERGY PREDICTED BY IDOCK:   -2.47 KCAL/MOL
REMARK 922        TOTAL FREE ENERGY PREDICTED BY IDOCK:   -3.24 KCAL/MOL
REMARK 923 INTER-LIGAND FREE ENERGY PREDICTED BY IDOCK:   -2.86 KCAL/MOL
REMARK 924 INTRA-LIGAND FREE ENERGY PREDICTED BY IDOCK:   -0.39 KCAL/MOL
REMARK 927      BINDING AFFINITY PREDICTED BY RF-SCORE:    0.00 PKD
ROOT
HETATM    1  O   UNL     1      -6.080  10.591  71.253  1.00  0.00    -0.332 OA 
HETATM    2  C   UNL     1      -6.376   9.208  71.067  1.00  0.00    -0.071 C  
HETATM    3  H   UNL     1      -5.138  10.705  71.289  1.00  0.00     0.000 HD 
ENDROOT
BRANCH   2   4
HETATM    4  C   UNL     1      -7.902   9.021  71.010  1.00  0.00    -0.142 C  
BRANCH   4   5
HETATM    5  N   UNL     1      -8.428   8.585  69.698  1.00  0.00    -0.127 NA 
HETATM    6  C   UNL     1      -9.130   7.288  69.759  1.00  0.00    -0.141 C  
HETATM    7  C   UNL     1     -10.446   7.321  70.558  1.00  0.00    -0.217 C  
HETATM    8  C   UNL     1     -11.380   8.407  70.002  1.00  0.00    -0.001 C  
HETATM    9  O   UNL     1     -11.111   6.056  70.493  1.00  0.00    -0.310 OA 
HETATM   10  H   UNL     1     -11.923   6.075  70.986  1.00  0.00     0.000 HD 
HETATM   11  O   UNL     1     -12.514   8.648  70.860  1.00  0.00    -0.482 OA 
HETATM   12  C   UNL     1     -10.668   9.753  69.846  1.00  0.00    -0.268 C  
HETATM   13  O   UNL     1     -11.565  10.666  69.191  1.00  0.00    -0.291 OA 
HETATM   14  H   UNL     1     -13.092   9.320  70.516  1.00  0.00     0.000 HD 
HETATM   15  C   UNL     1      -9.341   9.587  69.064  1.00  0.00    -0.155 C  
HETATM   16  H   UNL     1     -11.123  11.502  69.094  1.00  0.00     0.000 HD 
BRANCH  15  17
HETATM   17  C   UNL     1      -8.694  10.961  68.772  1.00  0.00    -0.158 C  
HETATM   18  O   UNL     1      -9.221  11.540  67.572  1.00  0.00    -0.162 OA 
HETATM   19  H   UNL     1      -8.824  12.384  67.392  1.00  0.00     0.000 HD 
ENDBRANCH  15  17
ENDBRANCH   4   5
ENDBRANCH   2   4
TORSDOF 3
ENDMDL
MODEL      191
REMARK 921   NORMALIZED FREE ENERGY PREDICTED BY IDOCK:   -2.46 KCAL/MOL
REMARK 922        TOTAL FREE ENERGY PREDICTED BY IDOCK:   -3.23 KCAL/MOL
REMARK 923 INTER-LIGAND FREE ENERGY PREDICTED BY IDOCK:   -2.86 KCAL/MOL
REMARK 924 INTRA-LIGAND FREE ENERGY PREDICTED BY IDOCK:   -0.37 KCAL/MOL
REMARK 927      BINDING AFFINITY PREDICTED BY RF-SCORE:    0.00 PKD
ROOT
HETATM    1  O   UNL     1      -9.717   3.188  69.342  1.00  0.00    -0.093 OA 
HETATM    2  C   UNL     1      -9.834   4.557  68.959  1.00  0.00    -0.132 C  
HETATM    3  H   UNL     1      -9.292   2.705  68.643  1.00  0.00     0.000 HD 
ENDROOT
BRANCH   2   4
HETATM    4  C   UNL     1     -10.522   5.340  70.091  1.00  0.00    -0.268 C  
BRANCH   4   5
HETATM    5  N   UNL     1      -9.648   5.683  71.234  1.00  0.00    -0.158 NA 
HETATM    6  C   UNL     1      -8.494   6.517  70.849  1.00  0.00    -0.134 C  
HETATM    7  C   UNL     1      -8.869   7.937  70.386  1.00  0.00    -0.142 C  
HETATM    8  C   UNL     1      -9.703   8.646  71.466  1.00  0.00    -0.263 C  
HETATM    9  O   UNL     1      -7.696   8.712  70.121  1.00  0.00    -0.073 OA 
HETATM   10  H   UNL     1      -7.927   9.588  69.835  1.00  0.00     0.000 HD 
HETATM   11  O   UNL     1     -10.288   9.876  70.990  1.00  0.00    -0.325 OA 
HETATM   12  C   UNL     1     -10.868   7.780  71.954  1.00  0.00    -0.235 C  
HETATM   13  O   UNL     1     -11.503   8.454  73.054  1.00  0.00    -0.167 OA 
HETATM   14  H   UNL     1     -10.803  10.314  71.657  1.00  0.00     0.000 HD 
HETATM   15  C   UNL     1     -10.374   6.367  72.350  1.00  0.00    -0.190 C  
HETATM   16  H   UNL     1     -12.225   7.916  73.356  1.00  0.00     0.000 HD 
BRANCH  15  17
HETATM   17  C   UNL     1     -11.516   5.539  72.985  1.00  0.00    -0.228 C  
HETATM   18  O   UNL     1     -12.799   6.090  72.665  1.00  0.00    -0.451 OA 
HETATM   19  H   UNL     1     -13.500   5.582  73.055  1.00  0.00     0.000 HD 
ENDBRANCH  15  17
ENDBRANCH   4   5
ENDBRANCH   2   4
TORSDOF 3
ENDMDL
MODEL      192
REMARK 921   NORMALIZED FREE ENERGY PREDICTED BY IDOCK:   -2.45 KCAL/MOL
REMARK 922        TOTAL FREE ENERGY PREDICTED BY IDOCK:   -3.22 KCAL/MOL
REMARK 923 INTER-LIGAND FREE ENERGY PREDICTED BY IDOCK:   -3.24 KCAL/MOL
REMARK 924 INTRA-LIGAND FREE ENERGY PREDICTED BY IDOCK:    0.01 KCAL/MOL
REMARK 927      BINDING AFFINITY PREDICTED BY RF-SCORE:    0.00 PKD
ROOT
HETATM    1  O   UNL     1      -9.339  11.053  69.676  1.00  0.00    -0.363 OA 
HETATM    2  C   UNL     1     -10.243   9.998  69.999  1.00  0.00    -0.255 C  
HETATM    3  H   UNL     1      -9.764  11.654  69.075  1.00  0.00     0.000 HD 
ENDROOT
BRANCH   2   4
HETATM    4  C   UNL     1      -9.556   9.025  70.973  1.00  0.00    -0.279 C  
BRANCH   4   5
HETATM    5  N   UNL     1     -10.397   7.895  71.423  1.00  0.00    -0.196 NA 
HETATM    6  C   UNL     1     -11.344   7.432  70.390  1.00  0.00    -0.249 C  
HETATM    7  C   UNL     1     -10.674   6.775  69.170  1.00  0.00    -0.253 C  
HETATM    8  C   UNL     1      -9.767   5.617  69.620  1.00  0.00    -0.169 C  
HETATM    9  O   UNL     1     -11.657   6.271  68.260  1.00  0.00    -0.459 OA 
HETATM   10  H   UNL     1     -11.243   5.865  67.507  1.00  0.00     0.000 HD 
HETATM   11  O   UNL     1      -8.930   5.128  68.553  1.00  0.00    -0.103 OA 
HETATM   12  C   UNL     1      -8.822   6.033  70.750  1.00  0.00    -0.139 C  
HETATM   13  O   UNL     1      -8.119   4.864  71.204  1.00  0.00    -0.096 OA 
HETATM   14  H   UNL     1      -8.370   4.413  68.830  1.00  0.00     0.000 HD 
HETATM   15  C   UNL     1      -9.604   6.718  71.897  1.00  0.00    -0.148 C  
HETATM   16  H   UNL     1      -7.532   5.122  71.905  1.00  0.00     0.000 HD 
BRANCH  15  17
HETATM   17  C   UNL     1      -8.680   7.003  73.105  1.00  0.00    -0.125 C  
HETATM   18  O   UNL     1      -9.390   7.663  74.160  1.00  0.00    -0.401 OA 
HETATM   19  H   UNL     1      -8.822   7.837  74.901  1.00  0.00     0.000 HD 
ENDBRANCH  15  17
ENDBRANCH   4   5
ENDBRANCH   2   4
TORSDOF 3
ENDMDL
MODEL      193
REMARK 921   NORMALIZED FREE ENERGY PREDICTED BY IDOCK:   -2.44 KCAL/MOL
REMARK 922        TOTAL FREE ENERGY PREDICTED BY IDOCK:   -3.22 KCAL/MOL
REMARK 923 INTER-LIGAND FREE ENERGY PREDICTED BY IDOCK:   -2.85 KCAL/MOL
REMARK 924 INTRA-LIGAND FREE ENERGY PREDICTED BY IDOCK:   -0.37 KCAL/MOL
REMARK 927      BINDING AFFINITY PREDICTED BY RF-SCORE:    0.00 PKD
ROOT
HETATM    1  O   UNL     1     -10.056  13.896  67.366  1.00  0.00    -0.240 OA 
HETATM    2  C   UNL     1     -10.240  15.076  68.145  1.00  0.00    -0.221 C  
HETATM    3  H   UNL     1     -10.880  13.429  67.310  1.00  0.00     0.000 HD 
ENDROOT
BRANCH   2   4
HETATM    4  C   UNL     1      -8.904  15.834  68.238  1.00  0.00    -0.180 C  
BRANCH   4   5
HETATM    5  N   UNL     1      -8.634  16.763  67.118  1.00  0.00    -0.190 NA 
HETATM    6  C   UNL     1      -9.642  17.834  67.001  1.00  0.00    -0.284 C  
HETATM    7  C   UNL     1      -9.631  18.839  68.168  1.00  0.00    -0.332 C  
HETATM    8  C   UNL     1      -8.227  19.443  68.339  1.00  0.00    -0.347 C  
HETATM    9  O   UNL     1     -10.568  19.896  67.937  1.00  0.00    -0.388 OA 
HETATM   10  H   UNL     1     -10.562  20.516  68.657  1.00  0.00     0.000 HD 
HETATM   11  O   UNL     1      -8.098  20.197  69.561  1.00  0.00     0.222 OA 
HETATM   12  C   UNL     1      -7.140  18.366  68.383  1.00  0.00    -0.264 C  
HETATM   13  O   UNL     1      -5.859  19.018  68.399  1.00  0.00    -0.206 OA 
HETATM   14  H   UNL     1      -7.231  20.570  69.666  1.00  0.00     0.000 HD 
HETATM   15  C   UNL     1      -7.279  17.393  67.186  1.00  0.00    -0.172 C  
HETATM   16  H   UNL     1      -5.184  18.349  68.426  1.00  0.00     0.000 HD 
BRANCH  15  17
HETATM   17  C   UNL     1      -6.097  16.397  67.141  1.00  0.00    -0.147 C  
HETATM   18  O   UNL     1      -5.455  16.293  68.418  1.00  0.00    -0.099 OA 
HETATM   19  H   UNL     1      -4.729  15.681  68.390  1.00  0.00     0.000 HD 
ENDBRANCH  15  17
ENDBRANCH   4   5
ENDBRANCH   2   4
TORSDOF 3
ENDMDL
MODEL      194
REMARK 921   NORMALIZED FREE ENERGY PREDICTED BY IDOCK:   -2.43 KCAL/MOL
REMARK 922        TOTAL FREE ENERGY PREDICTED BY IDOCK:   -3.20 KCAL/MOL
REMARK 923 INTER-LIGAND FREE ENERGY PREDICTED BY IDOCK:   -2.80 KCAL/MOL
REMARK 924 INTRA-LIGAND FREE ENERGY PREDICTED BY IDOCK:   -0.40 KCAL/MOL
REMARK 927      BINDING AFFINITY PREDICTED BY RF-SCORE:    0.00 PKD
ROOT
HETATM    1  O   UNL     1      -7.083   6.716  68.284  1.00  0.00    -0.077 OA 
HETATM    2  C   UNL     1      -8.462   7.062  68.171  1.00  0.00    -0.129 C  
HETATM    3  H   UNL     1      -6.714   6.619  67.414  1.00  0.00     0.000 HD 
ENDROOT
BRANCH   2   4
HETATM    4  C   UNL     1      -9.060   7.219  69.581  1.00  0.00    -0.140 C  
BRANCH   4   5
HETATM    5  N   UNL     1      -8.362   6.463  70.643  1.00  0.00    -0.131 NA 
HETATM    6  C   UNL     1      -7.892   7.320  71.748  1.00  0.00    -0.091 C  
HETATM    7  C   UNL     1      -9.024   7.943  72.587  1.00  0.00    -0.192 C  
HETATM    8  C   UNL     1      -9.957   6.844  73.122  1.00  0.00    -0.201 C  
HETATM    9  O   UNL     1      -8.491   8.681  73.691  1.00  0.00    -0.353 OA 
HETATM   10  H   UNL     1      -9.189   9.065  74.208  1.00  0.00     0.000 HD 
HETATM   11  O   UNL     1     -11.163   7.381  73.702  1.00  0.00    -0.588 OA 
HETATM   12  C   UNL     1     -10.404   5.882  72.019  1.00  0.00    -0.207 C  
HETATM   13  O   UNL     1     -11.149   4.812  72.626  1.00  0.00    -0.188 OA 
HETATM   14  H   UNL     1     -11.739   6.703  74.033  1.00  0.00     0.000 HD 
HETATM   15  C   UNL     1      -9.185   5.356  71.220  1.00  0.00    -0.146 C  
HETATM   16  H   UNL     1     -11.426   4.215  71.941  1.00  0.00     0.000 HD 
BRANCH  15  17
HETATM   17  C   UNL     1      -9.615   4.270  70.206  1.00  0.00    -0.199 C  
HETATM   18  O   UNL     1      -9.752   2.992  70.838  1.00  0.00    -0.161 OA 
HETATM   19  H   UNL     1     -10.016   2.325  70.216  1.00  0.00     0.000 HD 
ENDBRANCH  15  17
ENDBRANCH   4   5
ENDBRANCH   2   4
TORSDOF 3
ENDMDL
MODEL      195
REMARK 921   NORMALIZED FREE ENERGY PREDICTED BY IDOCK:   -2.42 KCAL/MOL
REMARK 922        TOTAL FREE ENERGY PREDICTED BY IDOCK:   -3.19 KCAL/MOL
REMARK 923 INTER-LIGAND FREE ENERGY PREDICTED BY IDOCK:   -2.84 KCAL/MOL
REMARK 924 INTRA-LIGAND FREE ENERGY PREDICTED BY IDOCK:   -0.35 KCAL/MOL
REMARK 927      BINDING AFFINITY PREDICTED BY RF-SCORE:    0.00 PKD
ROOT
HETATM    1  O   UNL     1      -9.441   3.345  68.707  1.00  0.00    -0.166 OA 
HETATM    2  C   UNL     1      -8.587   4.044  69.611  1.00  0.00    -0.068 C  
HETATM    3  H   UNL     1      -8.981   2.586  68.368  1.00  0.00     0.000 HD 
ENDROOT
BRANCH   2   4
HETATM    4  C   UNL     1      -9.332   5.275  70.159  1.00  0.00    -0.153 C  
BRANCH   4   5
HETATM    5  N   UNL     1      -9.711   5.190  71.587  1.00  0.00    -0.157 NA 
HETATM    6  C   UNL     1      -8.547   5.082  72.488  1.00  0.00    -0.120 C  
HETATM    7  C   UNL     1      -7.669   6.347  72.536  1.00  0.00    -0.101 C  
HETATM    8  C   UNL     1      -8.520   7.572  72.907  1.00  0.00    -0.125 C  
HETATM    9  O   UNL     1      -6.619   6.200  73.498  1.00  0.00    -0.072 OA 
HETATM   10  H   UNL     1      -6.077   6.979  73.527  1.00  0.00     0.000 HD 
HETATM   11  O   UNL     1      -7.806   8.812  72.726  1.00  0.00    -0.377 OA 
HETATM   12  C   UNL     1      -9.783   7.676  72.048  1.00  0.00    -0.166 C  
HETATM   13  O   UNL     1     -10.585   8.758  72.553  1.00  0.00    -0.249 OA 
HETATM   14  H   UNL     1      -8.331   9.569  72.955  1.00  0.00     0.000 HD 
HETATM   15  C   UNL     1     -10.557   6.336  72.043  1.00  0.00    -0.217 C  
HETATM   16  H   UNL     1     -11.369   8.822  72.020  1.00  0.00     0.000 HD 
BRANCH  15  17
HETATM   17  C   UNL     1     -11.908   6.479  71.304  1.00  0.00    -0.329 C  
HETATM   18  O   UNL     1     -12.943   6.921  72.190  1.00  0.00    -0.536 OA 
HETATM   19  H   UNL     1     -13.773   7.009  71.737  1.00  0.00     0.000 HD 
ENDBRANCH  15  17
ENDBRANCH   4   5
ENDBRANCH   2   4
TORSDOF 3
ENDMDL
MODEL      196
REMARK 921   NORMALIZED FREE ENERGY PREDICTED BY IDOCK:   -2.41 KCAL/MOL
REMARK 922        TOTAL FREE ENERGY PREDICTED BY IDOCK:   -3.17 KCAL/MOL
REMARK 923 INTER-LIGAND FREE ENERGY PREDICTED BY IDOCK:   -2.82 KCAL/MOL
REMARK 924 INTRA-LIGAND FREE ENERGY PREDICTED BY IDOCK:   -0.35 KCAL/MOL
REMARK 927      BINDING AFFINITY PREDICTED BY RF-SCORE:    0.00 PKD
ROOT
HETATM    1  O   UNL     1     -11.677  10.009  67.943  1.00  0.00    -0.593 OA 
HETATM    2  C   UNL     1     -10.297   9.685  68.100  1.00  0.00    -0.209 C  
HETATM    3  H   UNL     1     -11.952  10.559  68.668  1.00  0.00     0.000 HD 
ENDROOT
BRANCH   2   4
HETATM    4  C   UNL     1      -9.852   8.794  66.927  1.00  0.00    -0.229 C  
BRANCH   4   5
HETATM    5  N   UNL     1      -8.419   8.426  66.932  1.00  0.00    -0.116 NA 
HETATM    6  C   UNL     1      -8.195   6.976  67.090  1.00  0.00    -0.118 C  
HETATM    7  C   UNL     1      -8.667   6.132  65.891  1.00  0.00    -0.154 C  
HETATM    8  C   UNL     1      -8.011   6.635  64.595  1.00  0.00    -0.113 C  
HETATM    9  O   UNL     1      -8.332   4.753  66.078  1.00  0.00    -0.111 OA 
HETATM   10  H   UNL     1      -8.623   4.232  65.338  1.00  0.00     0.000 HD 
HETATM   11  O   UNL     1      -8.600   6.047  63.417  1.00  0.00    -0.336 OA 
HETATM   12  C   UNL     1      -8.149   8.151  64.432  1.00  0.00    -0.138 C  
HETATM   13  O   UNL     1      -7.390   8.552  63.278  1.00  0.00    -0.097 OA 
HETATM   14  H   UNL     1      -8.194   6.358  62.616  1.00  0.00     0.000 HD 
HETATM   15  C   UNL     1      -7.685   8.887  65.713  1.00  0.00    -0.094 C  
HETATM   16  H   UNL     1      -7.476   9.493  63.177  1.00  0.00     0.000 HD 
BRANCH  15  17
HETATM   17  C   UNL     1      -7.679  10.419  65.500  1.00  0.00    -0.147 C  
HETATM   18  O   UNL     1      -6.509  10.842  64.790  1.00  0.00    -0.366 OA 
HETATM   19  H   UNL     1      -6.505  11.782  64.659  1.00  0.00     0.000 HD 
ENDBRANCH  15  17
ENDBRANCH   4   5
ENDBRANCH   2   4
TORSDOF 3
ENDMDL
MODEL      197
REMARK 921   NORMALIZED FREE ENERGY PREDICTED BY IDOCK:   -2.38 KCAL/MOL
REMARK 922        TOTAL FREE ENERGY PREDICTED BY IDOCK:   -3.14 KCAL/MOL
REMARK 923 INTER-LIGAND FREE ENERGY PREDICTED BY IDOCK:   -3.10 KCAL/MOL
REMARK 924 INTRA-LIGAND FREE ENERGY PREDICTED BY IDOCK:   -0.04 KCAL/MOL
REMARK 927      BINDING AFFINITY PREDICTED BY RF-SCORE:    0.00 PKD
ROOT
HETATM    1  O   UNL     1      -9.014  11.783  68.745  1.00  0.00    -0.346 OA 
HETATM    2  C   UNL     1      -8.687  10.460  69.164  1.00  0.00    -0.166 C  
HETATM    3  H   UNL     1      -8.302  12.127  68.219  1.00  0.00     0.000 HD 
ENDROOT
BRANCH   2   4
HETATM    4  C   UNL     1      -9.841   9.901  70.017  1.00  0.00    -0.243 C  
BRANCH   4   5
HETATM    5  N   UNL     1      -9.969   8.428  70.005  1.00  0.00    -0.186 NA 
HETATM    6  C   UNL     1      -8.668   7.734  70.073  1.00  0.00    -0.141 C  
HETATM    7  C   UNL     1      -7.928   7.911  71.412  1.00  0.00    -0.094 C  
HETATM    8  C   UNL     1      -8.828   7.472  72.579  1.00  0.00    -0.132 C  
HETATM    9  O   UNL     1      -6.726   7.136  71.434  1.00  0.00    -0.050 OA 
HETATM   10  H   UNL     1      -6.269   7.245  72.260  1.00  0.00     0.000 HD 
HETATM   11  O   UNL     1      -8.284   7.845  73.862  1.00  0.00    -0.186 OA 
HETATM   12  C   UNL     1     -10.219   8.107  72.503  1.00  0.00    -0.313 C  
HETATM   13  O   UNL     1     -11.034   7.537  73.541  1.00  0.00    -0.495 OA 
HETATM   14  H   UNL     1      -8.840   7.574  74.583  1.00  0.00     0.000 HD 
HETATM   15  C   UNL     1     -10.842   7.901  71.100  1.00  0.00    -0.234 C  
HETATM   16  H   UNL     1     -11.897   7.931  73.493  1.00  0.00     0.000 HD 
BRANCH  15  17
HETATM   17  C   UNL     1     -12.304   8.406  71.064  1.00  0.00    -0.129 C  
HETATM   18  O   UNL     1     -12.670   9.031  72.299  1.00  0.00    -0.380 OA 
HETATM   19  H   UNL     1     -13.567   9.341  72.277  1.00  0.00     0.000 HD 
ENDBRANCH  15  17
ENDBRANCH   4   5
ENDBRANCH   2   4
TORSDOF 3
ENDMDL
MODEL      198
REMARK 921   NORMALIZED FREE ENERGY PREDICTED BY IDOCK:   -2.38 KCAL/MOL
REMARK 922        TOTAL FREE ENERGY PREDICTED BY IDOCK:   -3.14 KCAL/MOL
REMARK 923 INTER-LIGAND FREE ENERGY PREDICTED BY IDOCK:   -4.10 KCAL/MOL
REMARK 924 INTRA-LIGAND FREE ENERGY PREDICTED BY IDOCK:    0.96 KCAL/MOL
REMARK 927      BINDING AFFINITY PREDICTED BY RF-SCORE:    0.00 PKD
ROOT
HETATM    1  O   UNL     1      -6.786  12.683  66.729  1.00  0.00    -0.427 OA 
HETATM    2  C   UNL     1      -8.010  13.085  67.340  1.00  0.00    -0.172 C  
HETATM    3  H   UNL     1      -6.391  13.433  66.300  1.00  0.00     0.000 HD 
ENDROOT
BRANCH   2   4
HETATM    4  C   UNL     1      -8.651  11.870  68.034  1.00  0.00    -0.168 C  
BRANCH   4   5
HETATM    5  N   UNL     1     -10.127  11.815  67.958  1.00  0.00    -0.186 NA 
HETATM    6  C   UNL     1     -10.746  13.142  67.782  1.00  0.00    -0.240 C  
HETATM    7  C   UNL     1     -10.450  13.800  66.421  1.00  0.00    -0.284 C  
HETATM    8  C   UNL     1     -10.862  12.861  65.275  1.00  0.00    -0.292 C  
HETATM    9  O   UNL     1     -11.158  15.036  66.289  1.00  0.00    -0.340 OA 
HETATM   10  H   UNL     1     -10.975  15.442  65.450  1.00  0.00     0.000 HD 
HETATM   11  O   UNL     1     -10.384  13.317  63.993  1.00  0.00    -0.564 OA 
HETATM   12  C   UNL     1     -10.307  11.447  65.462  1.00  0.00    -0.266 C  
HETATM   13  O   UNL     1     -10.854  10.607  64.432  1.00  0.00    -0.264 OA 
HETATM   14  H   UNL     1     -10.639  12.737  63.285  1.00  0.00     0.000 HD 
HETATM   15  C   UNL     1     -10.630  10.911  66.878  1.00  0.00    -0.261 C  
HETATM   16  H   UNL     1     -10.509   9.729  64.548  1.00  0.00     0.000 HD 
BRANCH  15  17
HETATM   17  C   UNL     1     -10.206   9.430  67.020  1.00  0.00    -0.255 C  
HETATM   18  O   UNL     1     -11.241   8.647  67.626  1.00  0.00    -0.380 OA 
HETATM   19  H   UNL     1     -10.981   7.738  67.713  1.00  0.00     0.000 HD 
ENDBRANCH  15  17
ENDBRANCH   4   5
ENDBRANCH   2   4
TORSDOF 3
ENDMDL
MODEL      199
REMARK 921   NORMALIZED FREE ENERGY PREDICTED BY IDOCK:   -2.37 KCAL/MOL
REMARK 922        TOTAL FREE ENERGY PREDICTED BY IDOCK:   -3.13 KCAL/MOL
REMARK 923 INTER-LIGAND FREE ENERGY PREDICTED BY IDOCK:   -2.77 KCAL/MOL
REMARK 924 INTRA-LIGAND FREE ENERGY PREDICTED BY IDOCK:   -0.36 KCAL/MOL
REMARK 927      BINDING AFFINITY PREDICTED BY RF-SCORE:    0.00 PKD
ROOT
HETATM    1  O   UNL     1      -5.714   6.993  68.088  1.00  0.00    -0.019 OA 
HETATM    2  C   UNL     1      -5.934   7.790  66.926  1.00  0.00    -0.047 C  
HETATM    3  H   UNL     1      -4.972   6.420  67.936  1.00  0.00     0.000 HD 
ENDROOT
BRANCH   2   4
HETATM    4  C   UNL     1      -7.136   8.720  67.171  1.00  0.00    -0.075 C  
BRANCH   4   5
HETATM    5  N   UNL     1      -8.134   8.750  66.080  1.00  0.00    -0.109 NA 
HETATM    6  C   UNL     1      -8.551   7.405  65.640  1.00  0.00    -0.112 C  
HETATM    7  C   UNL     1      -9.355   6.619  66.693  1.00  0.00    -0.163 C  
HETATM    8  C   UNL     1     -10.576   7.435  67.147  1.00  0.00    -0.342 C  
HETATM    9  O   UNL     1      -9.801   5.368  66.161  1.00  0.00    -0.163 OA 
HETATM   10  H   UNL     1     -10.297   4.883  66.811  1.00  0.00     0.000 HD 
HETATM   11  O   UNL     1     -11.222   6.860  68.302  1.00  0.00    -0.503 OA 
HETATM   12  C   UNL     1     -10.199   8.867  67.536  1.00  0.00    -0.248 C  
HETATM   13  O   UNL     1     -11.409   9.595  67.807  1.00  0.00    -0.484 OA 
HETATM   14  H   UNL     1     -11.977   7.364  68.582  1.00  0.00     0.000 HD 
HETATM   15  C   UNL     1      -9.360   9.537  66.421  1.00  0.00    -0.179 C  
HETATM   16  H   UNL     1     -11.175  10.484  68.049  1.00  0.00     0.000 HD 
BRANCH  15  17
HETATM   17  C   UNL     1      -9.105  11.029  66.740  1.00  0.00    -0.162 C  
HETATM   18  O   UNL     1      -9.352  11.316  68.121  1.00  0.00    -0.167 OA 
HETATM   19  H   UNL     1      -9.196  12.232  68.317  1.00  0.00     0.000 HD 
ENDBRANCH  15  17
ENDBRANCH   4   5
ENDBRANCH   2   4
TORSDOF 3
ENDMDL
MODEL      200
REMARK 921   NORMALIZED FREE ENERGY PREDICTED BY IDOCK:   -2.35 KCAL/MOL
REMARK 922        TOTAL FREE ENERGY PREDICTED BY IDOCK:   -3.11 KCAL/MOL
REMARK 923 INTER-LIGAND FREE ENERGY PREDICTED BY IDOCK:   -3.20 KCAL/MOL
REMARK 924 INTRA-LIGAND FREE ENERGY PREDICTED BY IDOCK:    0.09 KCAL/MOL
REMARK 927      BINDING AFFINITY PREDICTED BY RF-SCORE:    0.00 PKD
ROOT
HETATM    1  O   UNL     1     -12.320  12.919  66.922  1.00  0.00    -0.384 OA 
HETATM    2  C   UNL     1     -11.080  12.241  67.116  1.00  0.00    -0.278 C  
HETATM    3  H   UNL     1     -12.218  13.565  66.234  1.00  0.00     0.000 HD 
ENDROOT
BRANCH   2   4
HETATM    4  C   UNL     1     -11.246  11.193  68.231  1.00  0.00    -0.279 C  
BRANCH   4   5
HETATM    5  N   UNL     1     -10.532   9.919  68.001  1.00  0.00    -0.208 NA 
HETATM    6  C   UNL     1      -9.348  10.069  67.132  1.00  0.00    -0.149 C  
HETATM    7  C   UNL     1      -8.205  10.888  67.761  1.00  0.00    -0.116 C  
HETATM    8  C   UNL     1      -7.800  10.284  69.115  1.00  0.00    -0.127 C  
HETATM    9  O   UNL     1      -7.063  10.909  66.900  1.00  0.00    -0.104 OA 
HETATM   10  H   UNL     1      -6.358  11.415  67.287  1.00  0.00     0.000 HD 
HETATM   11  O   UNL     1      -6.913  11.145  69.858  1.00  0.00    -0.297 OA 
HETATM   12  C   UNL     1      -9.010  10.036  70.019  1.00  0.00    -0.081 C  
HETATM   13  O   UNL     1      -8.561   9.343  71.197  1.00  0.00    -0.297 OA 
HETATM   14  H   UNL     1      -6.662  10.772  70.694  1.00  0.00     0.000 HD 
HETATM   15  C   UNL     1     -10.106   9.243  69.266  1.00  0.00    -0.200 C  
HETATM   16  H   UNL     1      -9.312   9.189  71.757  1.00  0.00     0.000 HD 
BRANCH  15  17
HETATM   17  C   UNL     1     -11.264   8.858  70.217  1.00  0.00    -0.197 C  
HETATM   18  O   UNL     1     -11.756   7.542  69.933  1.00  0.00    -0.483 OA 
HETATM   19  H   UNL     1     -12.466   7.306  70.517  1.00  0.00     0.000 HD 
ENDBRANCH  15  17
ENDBRANCH   4   5
ENDBRANCH   2   4
TORSDOF 3
ENDMDL
MODEL      201
REMARK 921   NORMALIZED FREE ENERGY PREDICTED BY IDOCK:   -2.32 KCAL/MOL
REMARK 922        TOTAL FREE ENERGY PREDICTED BY IDOCK:   -3.07 KCAL/MOL
REMARK 923 INTER-LIGAND FREE ENERGY PREDICTED BY IDOCK:   -3.62 KCAL/MOL
REMARK 924 INTRA-LIGAND FREE ENERGY PREDICTED BY IDOCK:    0.55 KCAL/MOL
REMARK 927      BINDING AFFINITY PREDICTED BY RF-SCORE:    0.00 PKD
ROOT
HETATM    1  O   UNL     1     -13.087   9.311  72.478  1.00  0.00    -0.418 OA 
HETATM    2  C   UNL     1     -11.831   8.980  71.888  1.00  0.00    -0.376 C  
HETATM    3  H   UNL     1     -13.358   8.603  73.050  1.00  0.00     0.000 HD 
ENDROOT
BRANCH   2   4
HETATM    4  C   UNL     1     -11.391  10.127  70.961  1.00  0.00    -0.307 C  
BRANCH   4   5
HETATM    5  N   UNL     1     -12.456  10.670  70.091  1.00  0.00    -0.312 NA 
HETATM    6  C   UNL     1     -13.370  11.586  70.800  1.00  0.00     0.598 C  
HETATM    7  C   UNL     1     -12.716  12.906  71.248  1.00  0.00    -0.278 C  
HETATM    8  C   UNL     1     -12.073  13.617  70.045  1.00  0.00    -0.348 C  
HETATM    9  O   UNL     1     -13.684  13.777  71.841  1.00  0.00    -0.395 OA 
HETATM   10  H   UNL     1     -13.280  14.591  72.118  1.00  0.00     0.000 HD 
HETATM   11  O   UNL     1     -11.240  14.725  70.443  1.00  0.00    -0.366 OA 
HETATM   12  C   UNL     1     -11.179  12.678  69.233  1.00  0.00    -0.193 C  
HETATM   13  O   UNL     1     -10.737  13.378  68.057  1.00  0.00    -0.237 OA 
HETATM   14  H   UNL     1     -10.843  15.164  69.700  1.00  0.00     0.000 HD 
HETATM   15  C   UNL     1     -11.930  11.371  68.879  1.00  0.00    -0.304 C  
HETATM   16  H   UNL     1     -10.182  12.795  67.553  1.00  0.00     0.000 HD 
BRANCH  15  17
HETATM   17  C   UNL     1     -11.086  10.486  67.932  1.00  0.00    -0.304 C  
HETATM   18  O   UNL     1     -11.396   9.098  68.103  1.00  0.00    -0.380 OA 
HETATM   19  H   UNL     1     -10.878   8.554  67.522  1.00  0.00     0.000 HD 
ENDBRANCH  15  17
ENDBRANCH   4   5
ENDBRANCH   2   4
TORSDOF 3
ENDMDL
MODEL      202
REMARK 921   NORMALIZED FREE ENERGY PREDICTED BY IDOCK:   -2.29 KCAL/MOL
REMARK 922        TOTAL FREE ENERGY PREDICTED BY IDOCK:   -3.04 KCAL/MOL
REMARK 923 INTER-LIGAND FREE ENERGY PREDICTED BY IDOCK:   -2.86 KCAL/MOL
REMARK 924 INTRA-LIGAND FREE ENERGY PREDICTED BY IDOCK:   -0.18 KCAL/MOL
REMARK 927      BINDING AFFINITY PREDICTED BY RF-SCORE:    0.00 PKD
ROOT
HETATM    1  O   UNL     1     -10.229   6.443  66.040  1.00  0.00    -0.397 OA 
HETATM    2  C   UNL     1     -10.589   5.691  67.196  1.00  0.00    -0.270 C  
HETATM    3  H   UNL     1     -10.052   5.846  65.322  1.00  0.00     0.000 HD 
ENDROOT
BRANCH   2   4
HETATM    4  C   UNL     1     -10.875   6.658  68.359  1.00  0.00    -0.255 C  
BRANCH   4   5
HETATM    5  N   UNL     1     -10.048   6.444  69.567  1.00  0.00    -0.164 NA 
HETATM    6  C   UNL     1      -8.705   5.915  69.261  1.00  0.00    -0.119 C  
HETATM    7  C   UNL     1      -7.796   6.903  68.506  1.00  0.00    -0.118 C  
HETATM    8  C   UNL     1      -7.685   8.225  69.284  1.00  0.00    -0.103 C  
HETATM    9  O   UNL     1      -6.486   6.355  68.330  1.00  0.00    -0.045 OA 
HETATM   10  H   UNL     1      -5.925   6.964  67.864  1.00  0.00     0.000 HD 
HETATM   11  O   UNL     1      -7.053   9.265  68.511  1.00  0.00    -0.070 OA 
HETATM   12  C   UNL     1      -9.056   8.768  69.693  1.00  0.00    -0.149 C  
HETATM   13  O   UNL     1      -8.855   9.918  70.531  1.00  0.00    -0.309 OA 
HETATM   14  H   UNL     1      -6.984  10.082  68.991  1.00  0.00     0.000 HD 
HETATM   15  C   UNL     1      -9.892   7.675  70.402  1.00  0.00    -0.183 C  
HETATM   16  H   UNL     1      -9.706  10.256  70.785  1.00  0.00     0.000 HD 
BRANCH  15  17
HETATM   17  C   UNL     1     -11.215   8.258  70.952  1.00  0.00    -0.265 C  
HETATM   18  O   UNL     1     -11.636   9.398  70.193  1.00  0.00    -0.409 OA 
HETATM   19  H   UNL     1     -12.449   9.756  70.530  1.00  0.00     0.000 HD 
ENDBRANCH  15  17
ENDBRANCH   4   5
ENDBRANCH   2   4
TORSDOF 3
ENDMDL
MODEL      203
REMARK 921   NORMALIZED FREE ENERGY PREDICTED BY IDOCK:   -2.28 KCAL/MOL
REMARK 922        TOTAL FREE ENERGY PREDICTED BY IDOCK:   -3.03 KCAL/MOL
REMARK 923 INTER-LIGAND FREE ENERGY PREDICTED BY IDOCK:   -2.68 KCAL/MOL
REMARK 924 INTRA-LIGAND FREE ENERGY PREDICTED BY IDOCK:   -0.35 KCAL/MOL
REMARK 927      BINDING AFFINITY PREDICTED BY RF-SCORE:    0.00 PKD
ROOT
HETATM    1  O   UNL     1     -12.042  11.879  67.504  1.00  0.00    -0.573 OA 
HETATM    2  C   UNL     1     -11.124  11.451  66.500  1.00  0.00    -0.251 C  
HETATM    3  H   UNL     1     -12.537  12.621  67.177  1.00  0.00     0.000 HD 
ENDROOT
BRANCH   2   4
HETATM    4  C   UNL     1     -10.322  10.248  67.029  1.00  0.00    -0.243 C  
BRANCH   4   5
HETATM    5  N   UNL     1     -10.165   9.133  66.070  1.00  0.00    -0.166 NA 
HETATM    6  C   UNL     1      -9.160   9.408  65.024  1.00  0.00    -0.215 C  
HETATM    7  C   UNL     1      -7.714   9.494  65.548  1.00  0.00    -0.105 C  
HETATM    8  C   UNL     1      -7.349   8.214  66.316  1.00  0.00    -0.078 C  
HETATM    9  O   UNL     1      -6.793   9.668  64.467  1.00  0.00    -0.095 OA 
HETATM   10  H   UNL     1      -5.901   9.722  64.789  1.00  0.00     0.000 HD 
HETATM   11  O   UNL     1      -6.104   8.340  67.034  1.00  0.00    -0.052 OA 
HETATM   12  C   UNL     1      -8.408   7.847  67.358  1.00  0.00    -0.123 C  
HETATM   13  O   UNL     1      -8.062   6.571  67.925  1.00  0.00    -0.114 OA 
HETATM   14  H   UNL     1      -5.878   7.549  67.508  1.00  0.00     0.000 HD 
HETATM   15  C   UNL     1      -9.822   7.833  66.725  1.00  0.00    -0.241 C  
HETATM   16  H   UNL     1      -8.720   6.343  68.571  1.00  0.00     0.000 HD 
BRANCH  15  17
HETATM   17  C   UNL     1     -10.875   7.316  67.733  1.00  0.00    -0.144 C  
HETATM   18  O   UNL     1     -10.964   5.887  67.706  1.00  0.00    -0.279 OA 
HETATM   19  H   UNL     1     -11.611   5.569  68.325  1.00  0.00     0.000 HD 
ENDBRANCH  15  17
ENDBRANCH   4   5
ENDBRANCH   2   4
TORSDOF 3
ENDMDL
MODEL      204
REMARK 921   NORMALIZED FREE ENERGY PREDICTED BY IDOCK:   -2.28 KCAL/MOL
REMARK 922        TOTAL FREE ENERGY PREDICTED BY IDOCK:   -3.02 KCAL/MOL
REMARK 923 INTER-LIGAND FREE ENERGY PREDICTED BY IDOCK:   -2.85 KCAL/MOL
REMARK 924 INTRA-LIGAND FREE ENERGY PREDICTED BY IDOCK:   -0.17 KCAL/MOL
REMARK 927      BINDING AFFINITY PREDICTED BY RF-SCORE:    0.00 PKD
ROOT
HETATM    1  O   UNL     1      -7.019   7.966  71.393  1.00  0.00    -0.051 OA 
HETATM    2  C   UNL     1      -7.500   6.623  71.370  1.00  0.00    -0.088 C  
HETATM    3  H   UNL     1      -6.880   8.231  72.295  1.00  0.00     0.000 HD 
ENDROOT
BRANCH   2   4
HETATM    4  C   UNL     1      -7.725   6.193  69.909  1.00  0.00    -0.100 C  
BRANCH   4   5
HETATM    5  N   UNL     1      -8.757   5.151  69.717  1.00  0.00    -0.098 NA 
HETATM    6  C   UNL     1     -10.075   5.537  70.256  1.00  0.00    -0.237 C  
HETATM    7  C   UNL     1     -10.748   6.699  69.501  1.00  0.00    -0.260 C  
HETATM    8  C   UNL     1     -10.860   6.367  68.004  1.00  0.00    -0.316 C  
HETATM    9  O   UNL     1     -12.057   6.952  70.021  1.00  0.00    -0.637 OA 
HETATM   10  H   UNL     1     -12.472   7.668  69.556  1.00  0.00     0.000 HD 
HETATM   11  O   UNL     1     -11.253   7.510  67.216  1.00  0.00    -0.521 OA 
HETATM   12  C   UNL     1      -9.529   5.883  67.422  1.00  0.00    -0.111 C  
HETATM   13  O   UNL     1      -9.756   5.462  66.066  1.00  0.00    -0.190 OA 
HETATM   14  H   UNL     1     -11.322   7.305  66.291  1.00  0.00     0.000 HD 
HETATM   15  C   UNL     1      -8.931   4.747  68.287  1.00  0.00    -0.111 C  
HETATM   16  H   UNL     1      -8.930   5.162  65.704  1.00  0.00     0.000 HD 
BRANCH  15  17
HETATM   17  C   UNL     1      -7.667   4.152  67.622  1.00  0.00    -0.079 C  
HETATM   18  O   UNL     1      -7.402   2.828  68.101  1.00  0.00    -0.049 OA 
HETATM   19  H   UNL     1      -6.626   2.462  67.693  1.00  0.00     0.000 HD 
ENDBRANCH  15  17
ENDBRANCH   4   5
ENDBRANCH   2   4
TORSDOF 3
ENDMDL
MODEL      205
REMARK 921   NORMALIZED FREE ENERGY PREDICTED BY IDOCK:   -2.27 KCAL/MOL
REMARK 922        TOTAL FREE ENERGY PREDICTED BY IDOCK:   -3.01 KCAL/MOL
REMARK 923 INTER-LIGAND FREE ENERGY PREDICTED BY IDOCK:   -2.87 KCAL/MOL
REMARK 924 INTRA-LIGAND FREE ENERGY PREDICTED BY IDOCK:   -0.14 KCAL/MOL
REMARK 927      BINDING AFFINITY PREDICTED BY RF-SCORE:    0.00 PKD
ROOT
HETATM    1  O   UNL     1      -5.954   8.218  71.799  1.00  0.00    -0.036 OA 
HETATM    2  C   UNL     1      -5.937   7.413  70.622  1.00  0.00    -0.031 C  
HETATM    3  H   UNL     1      -5.084   8.228  72.181  1.00  0.00     0.000 HD 
ENDROOT
BRANCH   2   4
HETATM    4  C   UNL     1      -7.347   7.395  70.003  1.00  0.00    -0.082 C  
BRANCH   4   5
HETATM    5  N   UNL     1      -8.457   7.490  70.976  1.00  0.00    -0.116 NA 
HETATM    6  C   UNL     1      -8.913   8.875  71.199  1.00  0.00    -0.241 C  
HETATM    7  C   UNL     1      -9.595   9.518  69.977  1.00  0.00    -0.238 C  
HETATM    8  C   UNL     1     -10.764   8.642  69.497  1.00  0.00    -0.182 C  
HETATM    9  O   UNL     1     -10.091  10.821  70.299  1.00  0.00    -0.273 OA 
HETATM   10  H   UNL     1     -10.511  11.218  69.545  1.00  0.00     0.000 HD 
HETATM   11  O   UNL     1     -11.278   9.065  68.218  1.00  0.00    -0.459 OA 
HETATM   12  C   UNL     1     -10.353   7.177  69.330  1.00  0.00    -0.198 C  
HETATM   13  O   UNL     1     -11.529   6.410  69.022  1.00  0.00    -0.580 OA 
HETATM   14  H   UNL     1     -12.000   8.524  67.921  1.00  0.00     0.000 HD 
HETATM   15  C   UNL     1      -9.642   6.656  70.604  1.00  0.00    -0.169 C  
HETATM   16  H   UNL     1     -11.275   5.501  68.918  1.00  0.00     0.000 HD 
BRANCH  15  17
HETATM   17  C   UNL     1      -9.361   5.139  70.500  1.00  0.00    -0.158 C  
HETATM   18  O   UNL     1      -9.279   4.716  69.134  1.00  0.00    -0.109 OA 
HETATM   19  H   UNL     1      -9.107   3.784  69.070  1.00  0.00     0.000 HD 
ENDBRANCH  15  17
ENDBRANCH   4   5
ENDBRANCH   2   4
TORSDOF 3
ENDMDL
MODEL      206
REMARK 921   NORMALIZED FREE ENERGY PREDICTED BY IDOCK:   -2.26 KCAL/MOL
REMARK 922        TOTAL FREE ENERGY PREDICTED BY IDOCK:   -3.00 KCAL/MOL
REMARK 923 INTER-LIGAND FREE ENERGY PREDICTED BY IDOCK:   -2.78 KCAL/MOL
REMARK 924 INTRA-LIGAND FREE ENERGY PREDICTED BY IDOCK:   -0.22 KCAL/MOL
REMARK 927      BINDING AFFINITY PREDICTED BY RF-SCORE:    0.00 PKD
ROOT
HETATM    1  O   UNL     1      -6.365   7.809  68.298  1.00  0.00    -0.043 OA 
HETATM    2  C   UNL     1      -5.823   8.965  67.663  1.00  0.00    -0.043 C  
HETATM    3  H   UNL     1      -5.669   7.179  68.444  1.00  0.00     0.000 HD 
ENDROOT
BRANCH   2   4
HETATM    4  C   UNL     1      -6.951   9.987  67.426  1.00  0.00    -0.083 C  
BRANCH   4   5
HETATM    5  N   UNL     1      -8.318   9.472  67.659  1.00  0.00    -0.124 NA 
HETATM    6  C   UNL     1      -9.084  10.282  68.624  1.00  0.00    -0.152 C  
HETATM    7  C   UNL     1      -9.431  11.697  68.124  1.00  0.00    -0.191 C  
HETATM    8  C   UNL     1     -10.177  11.619  66.782  1.00  0.00    -0.217 C  
HETATM    9  O   UNL     1     -10.251  12.385  69.074  1.00  0.00    -0.420 OA 
HETATM   10  H   UNL     1     -10.465  13.258  68.765  1.00  0.00     0.000 HD 
HETATM   11  O   UNL     1     -10.307  12.909  66.150  1.00  0.00    -0.265 OA 
HETATM   12  C   UNL     1      -9.456  10.719  65.775  1.00  0.00    -0.204 C  
HETATM   13  O   UNL     1     -10.287  10.589  64.609  1.00  0.00    -0.344 OA 
HETATM   14  H   UNL     1     -10.768  12.861  65.321  1.00  0.00     0.000 HD 
HETATM   15  C   UNL     1      -9.123   9.344  66.404  1.00  0.00    -0.161 C  
HETATM   16  H   UNL     1      -9.839  10.030  63.984  1.00  0.00     0.000 HD 
BRANCH  15  17
HETATM   17  C   UNL     1      -8.532   8.380  65.349  1.00  0.00    -0.176 C  
HETATM   18  O   UNL     1      -9.220   7.123  65.350  1.00  0.00    -0.360 OA 
HETATM   19  H   UNL     1      -8.857   6.531  64.702  1.00  0.00     0.000 HD 
ENDBRANCH  15  17
ENDBRANCH   4   5
ENDBRANCH   2   4
TORSDOF 3
ENDMDL
MODEL      207
REMARK 921   NORMALIZED FREE ENERGY PREDICTED BY IDOCK:   -2.22 KCAL/MOL
REMARK 922        TOTAL FREE ENERGY PREDICTED BY IDOCK:   -2.95 KCAL/MOL
REMARK 923 INTER-LIGAND FREE ENERGY PREDICTED BY IDOCK:   -2.59 KCAL/MOL
REMARK 924 INTRA-LIGAND FREE ENERGY PREDICTED BY IDOCK:   -0.37 KCAL/MOL
REMARK 927      BINDING AFFINITY PREDICTED BY RF-SCORE:    0.00 PKD
ROOT
HETATM    1  O   UNL     1      -5.357   5.908  68.052  1.00  0.00    -0.004 OA 
HETATM    2  C   UNL     1      -6.687   5.399  68.127  1.00  0.00    -0.054 C  
HETATM    3  H   UNL     1      -4.868   5.409  67.409  1.00  0.00     0.000 HD 
ENDROOT
BRANCH   2   4
HETATM    4  C   UNL     1      -7.480   6.207  69.169  1.00  0.00    -0.090 C  
BRANCH   4   5
HETATM    5  N   UNL     1      -8.068   7.468  68.665  1.00  0.00    -0.123 NA 
HETATM    6  C   UNL     1      -9.348   7.266  67.959  1.00  0.00    -0.130 C  
HETATM    7  C   UNL     1     -10.501   6.797  68.865  1.00  0.00    -0.207 C  
HETATM    8  C   UNL     1     -10.687   7.772  70.039  1.00  0.00    -0.244 C  
HETATM    9  O   UNL     1     -11.725   6.715  68.129  1.00  0.00    -0.452 OA 
HETATM   10  H   UNL     1     -12.437   6.425  68.688  1.00  0.00     0.000 HD 
HETATM   11  O   UNL     1     -11.580   7.256  71.047  1.00  0.00    -0.279 OA 
HETATM   12  C   UNL     1      -9.366   8.073  70.751  1.00  0.00    -0.157 C  
HETATM   13  O   UNL     1      -9.604   9.095  71.734  1.00  0.00    -0.283 OA 
HETATM   14  H   UNL     1     -11.695   7.859  71.771  1.00  0.00     0.000 HD 
HETATM   15  C   UNL     1      -8.275   8.493  69.735  1.00  0.00    -0.121 C  
HETATM   16  H   UNL     1      -8.784   9.282  72.176  1.00  0.00     0.000 HD 
BRANCH  15  17
HETATM   17  C   UNL     1      -6.986   8.943  70.460  1.00  0.00    -0.057 C  
HETATM   18  O   UNL     1      -7.092  10.296  70.920  1.00  0.00    -0.388 OA 
HETATM   19  H   UNL     1      -6.300  10.573  71.366  1.00  0.00     0.000 HD 
ENDBRANCH  15  17
ENDBRANCH   4   5
ENDBRANCH   2   4
TORSDOF 3
ENDMDL
MODEL      208
REMARK 921   NORMALIZED FREE ENERGY PREDICTED BY IDOCK:   -2.22 KCAL/MOL
REMARK 922        TOTAL FREE ENERGY PREDICTED BY IDOCK:   -2.95 KCAL/MOL
REMARK 923 INTER-LIGAND FREE ENERGY PREDICTED BY IDOCK:   -2.78 KCAL/MOL
REMARK 924 INTRA-LIGAND FREE ENERGY PREDICTED BY IDOCK:   -0.17 KCAL/MOL
REMARK 927      BINDING AFFINITY PREDICTED BY RF-SCORE:    0.00 PKD
ROOT
HETATM    1  O   UNL     1      -7.339   9.331  71.723  1.00  0.00    -0.337 OA 
HETATM    2  C   UNL     1      -8.079   8.143  71.997  1.00  0.00    -0.138 C  
HETATM    3  H   UNL     1      -7.072   9.727  72.544  1.00  0.00     0.000 HD 
ENDROOT
BRANCH   2   4
HETATM    4  C   UNL     1      -8.513   7.501  70.666  1.00  0.00    -0.132 C  
BRANCH   4   5
HETATM    5  N   UNL     1      -9.947   7.149  70.582  1.00  0.00    -0.190 NA 
HETATM    6  C   UNL     1     -10.685   7.963  69.597  1.00  0.00    -0.218 C  
HETATM    7  C   UNL     1     -10.277   7.706  68.135  1.00  0.00    -0.196 C  
HETATM    8  C   UNL     1     -10.411   6.212  67.800  1.00  0.00    -0.231 C  
HETATM    9  O   UNL     1     -11.098   8.460  67.238  1.00  0.00    -0.409 OA 
HETATM   10  H   UNL     1     -10.846   8.302  66.336  1.00  0.00     0.000 HD 
HETATM   11  O   UNL     1      -9.813   5.877  66.531  1.00  0.00    -0.155 OA 
HETATM   12  C   UNL     1      -9.727   5.324  68.843  1.00  0.00    -0.148 C  
HETATM   13  O   UNL     1     -10.023   3.952  68.533  1.00  0.00    -0.017 OA 
HETATM   14  H   UNL     1      -9.896   4.954  66.324  1.00  0.00     0.000 HD 
HETATM   15  C   UNL     1     -10.184   5.704  70.273  1.00  0.00    -0.243 C  
HETATM   16  H   UNL     1      -9.598   3.401  69.180  1.00  0.00     0.000 HD 
BRANCH  15  17
HETATM   17  C   UNL     1      -9.615   4.716  71.317  1.00  0.00    -0.172 C  
HETATM   18  O   UNL     1     -10.501   4.570  72.434  1.00  0.00    -0.194 OA 
HETATM   19  H   UNL     1     -10.152   3.963  73.075  1.00  0.00     0.000 HD 
ENDBRANCH  15  17
ENDBRANCH   4   5
ENDBRANCH   2   4
TORSDOF 3
ENDMDL
MODEL      209
REMARK 921   NORMALIZED FREE ENERGY PREDICTED BY IDOCK:   -2.19 KCAL/MOL
REMARK 922        TOTAL FREE ENERGY PREDICTED BY IDOCK:   -2.92 KCAL/MOL
REMARK 923 INTER-LIGAND FREE ENERGY PREDICTED BY IDOCK:   -2.76 KCAL/MOL
REMARK 924 INTRA-LIGAND FREE ENERGY PREDICTED BY IDOCK:   -0.16 KCAL/MOL
REMARK 927      BINDING AFFINITY PREDICTED BY RF-SCORE:    0.00 PKD
ROOT
HETATM    1  O   UNL     1      -6.295   8.008  68.368  1.00  0.00    -0.047 OA 
HETATM    2  C   UNL     1      -7.274   7.407  69.213  1.00  0.00    -0.080 C  
HETATM    3  H   UNL     1      -6.127   8.894  68.667  1.00  0.00     0.000 HD 
ENDROOT
BRANCH   2   4
HETATM    4  C   UNL     1      -7.546   5.971  68.728  1.00  0.00    -0.091 C  
BRANCH   4   5
HETATM    5  N   UNL     1      -8.809   5.377  69.217  1.00  0.00    -0.101 NA 
HETATM    6  C   UNL     1      -9.992   6.208  68.919  1.00  0.00    -0.152 C  
HETATM    7  C   UNL     1     -10.328   6.312  67.420  1.00  0.00    -0.211 C  
HETATM    8  C   UNL     1     -10.494   4.909  66.813  1.00  0.00    -0.182 C  
HETATM    9  O   UNL     1     -11.535   7.053  67.220  1.00  0.00    -0.615 OA 
HETATM   10  H   UNL     1     -11.742   7.118  66.295  1.00  0.00     0.000 HD 
HETATM   11  O   UNL     1     -10.564   4.939  65.373  1.00  0.00    -0.473 OA 
HETATM   12  C   UNL     1      -9.325   3.987  67.166  1.00  0.00    -0.184 C  
HETATM   13  O   UNL     1      -9.629   2.667  66.685  1.00  0.00    -0.398 OA 
HETATM   14  H   UNL     1     -10.667   4.072  64.998  1.00  0.00     0.000 HD 
HETATM   15  C   UNL     1      -9.057   3.998  68.691  1.00  0.00    -0.133 C  
HETATM   16  H   UNL     1      -8.903   2.094  66.904  1.00  0.00     0.000 HD 
BRANCH  15  17
HETATM   17  C   UNL     1      -7.979   2.956  69.072  1.00  0.00    -0.055 C  
HETATM   18  O   UNL     1      -8.269   2.344  70.334  1.00  0.00    -0.041 OA 
HETATM   19  H   UNL     1      -7.607   1.704  70.568  1.00  0.00     0.000 HD 
ENDBRANCH  15  17
ENDBRANCH   4   5
ENDBRANCH   2   4
TORSDOF 3
ENDMDL
MODEL      210
REMARK 921   NORMALIZED FREE ENERGY PREDICTED BY IDOCK:   -2.18 KCAL/MOL
REMARK 922        TOTAL FREE ENERGY PREDICTED BY IDOCK:   -2.90 KCAL/MOL
REMARK 923 INTER-LIGAND FREE ENERGY PREDICTED BY IDOCK:   -2.52 KCAL/MOL
REMARK 924 INTRA-LIGAND FREE ENERGY PREDICTED BY IDOCK:   -0.38 KCAL/MOL
REMARK 927      BINDING AFFINITY PREDICTED BY RF-SCORE:    0.00 PKD
ROOT
HETATM    1  O   UNL     1      -8.319  11.259  69.131  1.00  0.00    -0.355 OA 
HETATM    2  C   UNL     1      -8.909  10.089  69.694  1.00  0.00    -0.199 C  
HETATM    3  H   UNL     1      -8.549  12.011  69.664  1.00  0.00     0.000 HD 
ENDROOT
BRANCH   2   4
HETATM    4  C   UNL     1      -8.535   8.871  68.831  1.00  0.00    -0.131 C  
BRANCH   4   5
HETATM    5  N   UNL     1      -9.672   8.226  68.137  1.00  0.00    -0.154 NA 
HETATM    6  C   UNL     1     -10.015   8.882  66.860  1.00  0.00    -0.247 C  
HETATM    7  C   UNL     1      -8.940   8.737  65.768  1.00  0.00    -0.206 C  
HETATM    8  C   UNL     1      -8.614   7.252  65.535  1.00  0.00    -0.075 C  
HETATM    9  O   UNL     1      -9.385   9.315  64.537  1.00  0.00    -0.437 OA 
HETATM   10  H   UNL     1      -8.721   9.226  63.863  1.00  0.00     0.000 HD 
HETATM   11  O   UNL     1      -7.447   7.069  64.708  1.00  0.00    -0.082 OA 
HETATM   12  C   UNL     1      -8.330   6.514  66.846  1.00  0.00    -0.113 C  
HETATM   13  O   UNL     1      -8.178   5.114  66.552  1.00  0.00    -0.108 OA 
HETATM   14  H   UNL     1      -7.246   6.152  64.564  1.00  0.00     0.000 HD 
HETATM   15  C   UNL     1      -9.456   6.769  67.877  1.00  0.00    -0.118 C  
HETATM   16  H   UNL     1      -8.002   4.656  67.366  1.00  0.00     0.000 HD 
BRANCH  15  17
HETATM   17  C   UNL     1      -9.253   5.907  69.145  1.00  0.00    -0.121 C  
HETATM   18  O   UNL     1      -9.791   4.590  68.971  1.00  0.00    -0.173 OA 
HETATM   19  H   UNL     1      -9.666   4.061  69.750  1.00  0.00     0.000 HD 
ENDBRANCH  15  17
ENDBRANCH   4   5
ENDBRANCH   2   4
TORSDOF 3
ENDMDL
MODEL      211
REMARK 921   NORMALIZED FREE ENERGY PREDICTED BY IDOCK:   -2.17 KCAL/MOL
REMARK 922        TOTAL FREE ENERGY PREDICTED BY IDOCK:   -2.90 KCAL/MOL
REMARK 923 INTER-LIGAND FREE ENERGY PREDICTED BY IDOCK:   -2.49 KCAL/MOL
REMARK 924 INTRA-LIGAND FREE ENERGY PREDICTED BY IDOCK:   -0.41 KCAL/MOL
REMARK 927      BINDING AFFINITY PREDICTED BY RF-SCORE:    0.00 PKD
ROOT
HETATM    1  O   UNL     1      -5.728   8.974  72.712  1.00  0.00    -0.086 OA 
HETATM    2  C   UNL     1      -5.678   8.096  71.589  1.00  0.00    -0.035 C  
HETATM    3  H   UNL     1      -4.849   9.103  73.046  1.00  0.00     0.000 HD 
ENDROOT
BRANCH   2   4
HETATM    4  C   UNL     1      -7.104   7.888  71.047  1.00  0.00    -0.049 C  
BRANCH   4   5
HETATM    5  N   UNL     1      -8.002   9.055  71.187  1.00  0.00    -0.238 NA 
HETATM    6  C   UNL     1      -7.955   9.962  70.024  1.00  0.00    -0.180 C  
HETATM    7  C   UNL     1      -8.530   9.357  68.730  1.00  0.00    -0.122 C  
HETATM    8  C   UNL     1      -9.967   8.865  68.965  1.00  0.00    -0.190 C  
HETATM    9  O   UNL     1      -8.536  10.325  67.676  1.00  0.00    -0.118 OA 
HETATM   10  H   UNL     1      -8.890   9.952  66.877  1.00  0.00     0.000 HD 
HETATM   11  O   UNL     1     -10.463   8.072  67.867  1.00  0.00    -0.245 OA 
HETATM   12  C   UNL     1     -10.076   7.983  70.212  1.00  0.00    -0.192 C  
HETATM   13  O   UNL     1     -11.465   7.687  70.437  1.00  0.00    -0.372 OA 
HETATM   14  H   UNL     1     -11.351   7.768  68.012  1.00  0.00     0.000 HD 
HETATM   15  C   UNL     1      -9.428   8.678  71.435  1.00  0.00    -0.237 C  
HETATM   16  H   UNL     1     -11.533   7.141  71.211  1.00  0.00     0.000 HD 
BRANCH  15  17
HETATM   17  C   UNL     1      -9.668   7.862  72.727  1.00  0.00    -0.257 C  
HETATM   18  O   UNL     1      -9.919   6.483  72.433  1.00  0.00    -0.170 OA 
HETATM   19  H   UNL     1     -10.067   5.982  73.226  1.00  0.00     0.000 HD 
ENDBRANCH  15  17
ENDBRANCH   4   5
ENDBRANCH   2   4
TORSDOF 3
ENDMDL
MODEL      212
REMARK 921   NORMALIZED FREE ENERGY PREDICTED BY IDOCK:   -2.16 KCAL/MOL
REMARK 922        TOTAL FREE ENERGY PREDICTED BY IDOCK:   -2.88 KCAL/MOL
REMARK 923 INTER-LIGAND FREE ENERGY PREDICTED BY IDOCK:   -2.67 KCAL/MOL
REMARK 924 INTRA-LIGAND FREE ENERGY PREDICTED BY IDOCK:   -0.21 KCAL/MOL
REMARK 927      BINDING AFFINITY PREDICTED BY RF-SCORE:    0.00 PKD
ROOT
HETATM    1  O   UNL     1      -6.624   9.887  69.299  1.00  0.00    -0.047 OA 
HETATM    2  C   UNL     1      -7.043  11.242  69.444  1.00  0.00    -0.090 C  
HETATM    3  H   UNL     1      -5.742   9.795  69.638  1.00  0.00     0.000 HD 
ENDROOT
BRANCH   2   4
HETATM    4  C   UNL     1      -8.472  11.391  68.894  1.00  0.00    -0.024 C  
BRANCH   4   5
HETATM    5  N   UNL     1      -8.638  12.440  67.864  1.00  0.00    -0.161 NA 
HETATM    6  C   UNL     1      -7.962  12.114  66.594  1.00  0.00     0.058 C  
HETATM    7  C   UNL     1      -8.579  10.921  65.839  1.00  0.00    -0.176 C  
HETATM    8  C   UNL     1     -10.078  11.162  65.599  1.00  0.00    -0.253 C  
HETATM    9  O   UNL     1      -7.930  10.727  64.579  1.00  0.00    -0.355 OA 
HETATM   10  H   UNL     1      -8.311   9.991  64.113  1.00  0.00     0.000 HD 
HETATM   11  O   UNL     1     -10.754   9.981  65.121  1.00  0.00     0.119 OA 
HETATM   12  C   UNL     1     -10.805  11.582  66.879  1.00  0.00    -0.284 C  
HETATM   13  O   UNL     1     -12.160  11.923  66.538  1.00  0.00    -0.568 OA 
HETATM   14  H   UNL     1     -11.681  10.129  64.973  1.00  0.00     0.000 HD 
HETATM   15  C   UNL     1     -10.070  12.758  67.569  1.00  0.00    -0.213 C  
HETATM   16  H   UNL     1     -12.611  12.184  67.333  1.00  0.00     0.000 HD 
BRANCH  15  17
HETATM   17  C   UNL     1     -10.880  13.286  68.776  1.00  0.00    -0.243 C  
HETATM   18  O   UNL     1     -12.170  13.760  68.371  1.00  0.00    -0.431 OA 
HETATM   19  H   UNL     1     -12.667  14.084  69.113  1.00  0.00     0.000 HD 
ENDBRANCH  15  17
ENDBRANCH   4   5
ENDBRANCH   2   4
TORSDOF 3
ENDMDL
MODEL      213
REMARK 921   NORMALIZED FREE ENERGY PREDICTED BY IDOCK:   -2.15 KCAL/MOL
REMARK 922        TOTAL FREE ENERGY PREDICTED BY IDOCK:   -2.87 KCAL/MOL
REMARK 923 INTER-LIGAND FREE ENERGY PREDICTED BY IDOCK:   -2.84 KCAL/MOL
REMARK 924 INTRA-LIGAND FREE ENERGY PREDICTED BY IDOCK:   -0.03 KCAL/MOL
REMARK 927      BINDING AFFINITY PREDICTED BY RF-SCORE:    0.00 PKD
ROOT
HETATM    1  O   UNL     1      -7.833   6.224  73.978  1.00  0.00    -0.099 OA 
HETATM    2  C   UNL     1      -8.280   7.571  73.833  1.00  0.00    -0.165 C  
HETATM    3  H   UNL     1      -7.268   6.164  74.739  1.00  0.00     0.000 HD 
ENDROOT
BRANCH   2   4
HETATM    4  C   UNL     1      -9.196   7.669  72.600  1.00  0.00    -0.164 C  
BRANCH   4   5
HETATM    5  N   UNL     1      -8.529   7.408  71.305  1.00  0.00    -0.113 NA 
HETATM    6  C   UNL     1      -8.654   6.006  70.863  1.00  0.00    -0.131 C  
HETATM    7  C   UNL     1     -10.089   5.587  70.495  1.00  0.00    -0.226 C  
HETATM    8  C   UNL     1     -10.664   6.535  69.430  1.00  0.00    -0.277 C  
HETATM    9  O   UNL     1     -10.114   4.248  69.989  1.00  0.00    -0.196 OA 
HETATM   10  H   UNL     1     -10.999   3.990  69.762  1.00  0.00     0.000 HD 
HETATM   11  O   UNL     1     -12.079   6.343  69.230  1.00  0.00    -0.256 OA 
HETATM   12  C   UNL     1     -10.482   8.006  69.812  1.00  0.00    -0.227 C  
HETATM   13  O   UNL     1     -10.913   8.817  68.706  1.00  0.00    -0.432 OA 
HETATM   14  H   UNL     1     -12.435   6.928  68.572  1.00  0.00     0.000 HD 
HETATM   15  C   UNL     1      -9.012   8.296  70.202  1.00  0.00    -0.142 C  
HETATM   16  H   UNL     1     -10.800   9.730  68.943  1.00  0.00     0.000 HD 
BRANCH  15  17
HETATM   17  C   UNL     1      -8.789   9.808  70.441  1.00  0.00    -0.072 C  
HETATM   18  O   UNL     1      -7.501  10.060  71.015  1.00  0.00    -0.342 OA 
HETATM   19  H   UNL     1      -7.364  10.988  71.162  1.00  0.00     0.000 HD 
ENDBRANCH  15  17
ENDBRANCH   4   5
ENDBRANCH   2   4
TORSDOF 3
ENDMDL
MODEL      214
REMARK 921   NORMALIZED FREE ENERGY PREDICTED BY IDOCK:   -2.14 KCAL/MOL
REMARK 922        TOTAL FREE ENERGY PREDICTED BY IDOCK:   -2.86 KCAL/MOL
REMARK 923 INTER-LIGAND FREE ENERGY PREDICTED BY IDOCK:   -2.68 KCAL/MOL
REMARK 924 INTRA-LIGAND FREE ENERGY PREDICTED BY IDOCK:   -0.18 KCAL/MOL
REMARK 927      BINDING AFFINITY PREDICTED BY RF-SCORE:    0.00 PKD
ROOT
HETATM    1  O   UNL     1      -6.408   8.127  68.428  1.00  0.00    -0.048 OA 
HETATM    2  C   UNL     1      -6.973   9.435  68.484  1.00  0.00    -0.066 C  
HETATM    3  H   UNL     1      -5.774   8.032  69.129  1.00  0.00     0.000 HD 
ENDROOT
BRANCH   2   4
HETATM    4  C   UNL     1      -8.000   9.591  67.347  1.00  0.00    -0.106 C  
BRANCH   4   5
HETATM    5  N   UNL     1      -7.756  10.731  66.437  1.00  0.00    -0.140 NA 
HETATM    6  C   UNL     1      -6.697  10.461  65.445  1.00  0.00    -0.113 C  
HETATM    7  C   UNL     1      -7.066   9.385  64.407  1.00  0.00    -0.101 C  
HETATM    8  C   UNL     1      -8.379   9.757  63.698  1.00  0.00    -0.169 C  
HETATM    9  O   UNL     1      -6.031   9.248  63.428  1.00  0.00    -0.087 OA 
HETATM   10  H   UNL     1      -6.259   8.584  62.787  1.00  0.00     0.000 HD 
HETATM   11  O   UNL     1      -8.898   8.675  62.899  1.00  0.00    -0.432 OA 
HETATM   12  C   UNL     1      -9.484  10.124  64.692  1.00  0.00    -0.297 C  
HETATM   13  O   UNL     1     -10.622  10.594  63.949  1.00  0.00    -0.479 OA 
HETATM   14  H   UNL     1      -9.709   8.905  62.462  1.00  0.00     0.000 HD 
HETATM   15  C   UNL     1      -8.983  11.179  65.708  1.00  0.00    -0.196 C  
HETATM   16  H   UNL     1     -11.308  10.822  64.566  1.00  0.00     0.000 HD 
BRANCH  15  17
HETATM   17  C   UNL     1     -10.136  11.665  66.618  1.00  0.00    -0.208 C  
HETATM   18  O   UNL     1     -10.021  13.065  66.902  1.00  0.00    -0.234 OA 
HETATM   19  H   UNL     1     -10.729  13.363  67.460  1.00  0.00     0.000 HD 
ENDBRANCH  15  17
ENDBRANCH   4   5
ENDBRANCH   2   4
TORSDOF 3
ENDMDL
MODEL      215
REMARK 921   NORMALIZED FREE ENERGY PREDICTED BY IDOCK:   -2.14 KCAL/MOL
REMARK 922        TOTAL FREE ENERGY PREDICTED BY IDOCK:   -2.86 KCAL/MOL
REMARK 923 INTER-LIGAND FREE ENERGY PREDICTED BY IDOCK:   -2.72 KCAL/MOL
REMARK 924 INTRA-LIGAND FREE ENERGY PREDICTED BY IDOCK:   -0.13 KCAL/MOL
REMARK 927      BINDING AFFINITY PREDICTED BY RF-SCORE:    0.00 PKD
ROOT
HETATM    1  O   UNL     1      -5.815   5.947  69.117  1.00  0.00    -0.014 OA 
HETATM    2  C   UNL     1      -6.722   6.332  70.148  1.00  0.00    -0.050 C  
HETATM    3  H   UNL     1      -5.204   5.307  69.464  1.00  0.00     0.000 HD 
ENDROOT
BRANCH   2   4
HETATM    4  C   UNL     1      -7.712   7.369  69.587  1.00  0.00    -0.107 C  
BRANCH   4   5
HETATM    5  N   UNL     1      -9.068   6.850  69.306  1.00  0.00    -0.140 NA 
HETATM    6  C   UNL     1      -9.437   5.707  70.164  1.00  0.00    -0.159 C  
HETATM    7  C   UNL     1      -9.609   6.065  71.652  1.00  0.00    -0.151 C  
HETATM    8  C   UNL     1     -10.629   7.204  71.811  1.00  0.00    -0.206 C  
HETATM    9  O   UNL     1     -10.056   4.930  72.399  1.00  0.00    -0.173 OA 
HETATM   10  H   UNL     1     -10.162   5.150  73.317  1.00  0.00     0.000 HD 
HETATM   11  O   UNL     1     -10.645   7.744  73.148  1.00  0.00    -0.359 OA 
HETATM   12  C   UNL     1     -10.329   8.380  70.878  1.00  0.00    -0.194 C  
HETATM   13  O   UNL     1     -11.403   9.329  70.987  1.00  0.00    -0.271 OA 
HETATM   14  H   UNL     1     -11.276   8.447  73.247  1.00  0.00     0.000 HD 
HETATM   15  C   UNL     1     -10.136   7.891  69.422  1.00  0.00    -0.196 C  
HETATM   16  H   UNL     1     -11.217  10.059  70.408  1.00  0.00     0.000 HD 
BRANCH  15  17
HETATM   17  C   UNL     1      -9.984   9.087  68.452  1.00  0.00    -0.180 C  
HETATM   18  O   UNL     1     -11.258   9.537  67.975  1.00  0.00    -0.522 OA 
HETATM   19  H   UNL     1     -11.164  10.270  67.380  1.00  0.00     0.000 HD 
ENDBRANCH  15  17
ENDBRANCH   4   5
ENDBRANCH   2   4
TORSDOF 3
ENDMDL
MODEL      216
REMARK 921   NORMALIZED FREE ENERGY PREDICTED BY IDOCK:   -2.13 KCAL/MOL
REMARK 922        TOTAL FREE ENERGY PREDICTED BY IDOCK:   -2.84 KCAL/MOL
REMARK 923 INTER-LIGAND FREE ENERGY PREDICTED BY IDOCK:   -2.71 KCAL/MOL
REMARK 924 INTRA-LIGAND FREE ENERGY PREDICTED BY IDOCK:   -0.14 KCAL/MOL
REMARK 927      BINDING AFFINITY PREDICTED BY RF-SCORE:    0.00 PKD
ROOT
HETATM    1  O   UNL     1      -7.055   6.397  64.875  1.00  0.00    -0.056 OA 
HETATM    2  C   UNL     1      -8.440   6.732  64.933  1.00  0.00     0.053 C  
HETATM    3  H   UNL     1      -6.820   6.199  63.977  1.00  0.00     0.000 HD 
ENDROOT
BRANCH   2   4
HETATM    4  C   UNL     1      -8.822   7.053  66.389  1.00  0.00    -0.145 C  
BRANCH   4   5
HETATM    5  N   UNL     1     -10.228   7.470  66.588  1.00  0.00    -0.231 NA 
HETATM    6  C   UNL     1     -10.955   6.612  67.542  1.00  0.00    -0.338 C  
HETATM    7  C   UNL     1     -10.454   6.719  68.994  1.00  0.00    -0.206 C  
HETATM    8  C   UNL     1     -10.485   8.183  69.462  1.00  0.00    -0.227 C  
HETATM    9  O   UNL     1     -11.267   5.932  69.871  1.00  0.00    -0.378 OA 
HETATM   10  H   UNL     1     -10.957   5.998  70.767  1.00  0.00     0.000 HD 
HETATM   11  O   UNL     1      -9.800   8.374  70.717  1.00  0.00    -0.175 OA 
HETATM   12  C   UNL     1      -9.810   9.122  68.459  1.00  0.00    -0.164 C  
HETATM   13  O   UNL     1     -10.010  10.475  68.901  1.00  0.00    -0.185 OA 
HETATM   14  H   UNL     1      -9.820   9.278  71.006  1.00  0.00     0.000 HD 
HETATM   15  C   UNL     1     -10.365   8.893  67.031  1.00  0.00    -0.269 C  
HETATM   16  H   UNL     1      -9.591  11.058  68.278  1.00  0.00     0.000 HD 
BRANCH  15  17
HETATM   17  C   UNL     1      -9.799   9.938  66.042  1.00  0.00    -0.264 C  
HETATM   18  O   UNL     1      -8.391  10.125  66.231  1.00  0.00    -0.125 OA 
HETATM   19  H   UNL     1      -8.043  10.767  65.624  1.00  0.00     0.000 HD 
ENDBRANCH  15  17
ENDBRANCH   4   5
ENDBRANCH   2   4
TORSDOF 3
ENDMDL
MODEL      217
REMARK 921   NORMALIZED FREE ENERGY PREDICTED BY IDOCK:   -2.09 KCAL/MOL
REMARK 922        TOTAL FREE ENERGY PREDICTED BY IDOCK:   -2.80 KCAL/MOL
REMARK 923 INTER-LIGAND FREE ENERGY PREDICTED BY IDOCK:   -2.58 KCAL/MOL
REMARK 924 INTRA-LIGAND FREE ENERGY PREDICTED BY IDOCK:   -0.22 KCAL/MOL
REMARK 927      BINDING AFFINITY PREDICTED BY RF-SCORE:    0.00 PKD
ROOT
HETATM    1  O   UNL     1     -11.215   5.587  73.780  1.00  0.00    -0.423 OA 
HETATM    2  C   UNL     1     -11.691   6.323  72.655  1.00  0.00    -0.125 C  
HETATM    3  H   UNL     1     -11.955   5.311  74.308  1.00  0.00     0.000 HD 
ENDROOT
BRANCH   2   4
HETATM    4  C   UNL     1     -10.491   6.770  71.800  1.00  0.00    -0.207 C  
BRANCH   4   5
HETATM    5  N   UNL     1      -9.816   8.000  72.269  1.00  0.00    -0.213 NA 
HETATM    6  C   UNL     1      -8.561   7.728  72.996  1.00  0.00    -0.165 C  
HETATM    7  C   UNL     1      -7.438   7.144  72.119  1.00  0.00    -0.085 C  
HETATM    8  C   UNL     1      -7.170   8.063  70.916  1.00  0.00    -0.053 C  
HETATM    9  O   UNL     1      -6.230   6.997  72.872  1.00  0.00    -0.056 OA 
HETATM   10  H   UNL     1      -5.537   6.636  72.331  1.00  0.00     0.000 HD 
HETATM   11  O   UNL     1      -6.308   7.448  69.936  1.00  0.00    -0.030 OA 
HETATM   12  C   UNL     1      -8.458   8.437  70.179  1.00  0.00    -0.126 C  
HETATM   13  O   UNL     1      -8.135   9.404  69.166  1.00  0.00    -0.100 OA 
HETATM   14  H   UNL     1      -6.142   8.016  69.194  1.00  0.00     0.000 HD 
HETATM   15  C   UNL     1      -9.523   8.970  71.168  1.00  0.00    -0.278 C  
HETATM   16  H   UNL     1      -8.935   9.636  68.708  1.00  0.00     0.000 HD 
BRANCH  15  17
HETATM   17  C   UNL     1     -10.769   9.490  70.414  1.00  0.00    -0.284 C  
HETATM   18  O   UNL     1     -11.110   8.633  69.318  1.00  0.00    -0.432 OA 
HETATM   19  H   UNL     1     -11.875   8.952  68.854  1.00  0.00     0.000 HD 
ENDBRANCH  15  17
ENDBRANCH   4   5
ENDBRANCH   2   4
TORSDOF 3
ENDMDL
MODEL      218
REMARK 921   NORMALIZED FREE ENERGY PREDICTED BY IDOCK:   -2.08 KCAL/MOL
REMARK 922        TOTAL FREE ENERGY PREDICTED BY IDOCK:   -2.79 KCAL/MOL
REMARK 923 INTER-LIGAND FREE ENERGY PREDICTED BY IDOCK:   -2.41 KCAL/MOL
REMARK 924 INTRA-LIGAND FREE ENERGY PREDICTED BY IDOCK:   -0.38 KCAL/MOL
REMARK 927      BINDING AFFINITY PREDICTED BY RF-SCORE:    0.00 PKD
ROOT
HETATM    1  O   UNL     1     -11.365   5.425  73.887  1.00  0.00    -0.411 OA 
HETATM    2  C   UNL     1     -11.783   6.125  72.717  1.00  0.00    -0.070 C  
HETATM    3  H   UNL     1     -12.051   4.823  74.151  1.00  0.00     0.000 HD 
ENDROOT
BRANCH   2   4
HETATM    4  C   UNL     1     -10.672   7.100  72.288  1.00  0.00    -0.221 C  
BRANCH   4   5
HETATM    5  N   UNL     1      -9.698   6.551  71.320  1.00  0.00    -0.174 NA 
HETATM    6  C   UNL     1      -9.897   7.059  69.949  1.00  0.00    -0.170 C  
HETATM    7  C   UNL     1      -9.595   8.560  69.784  1.00  0.00    -0.170 C  
HETATM    8  C   UNL     1      -8.170   8.873  70.268  1.00  0.00    -0.129 C  
HETATM    9  O   UNL     1      -9.720   8.955  68.414  1.00  0.00    -0.155 OA 
HETATM   10  H   UNL     1      -9.534   9.881  68.312  1.00  0.00     0.000 HD 
HETATM   11  O   UNL     1      -7.922  10.290  70.367  1.00  0.00    -0.423 OA 
HETATM   12  C   UNL     1      -7.894   8.292  71.657  1.00  0.00    -0.114 C  
HETATM   13  O   UNL     1      -6.506   8.505  71.968  1.00  0.00    -0.064 OA 
HETATM   14  H   UNL     1      -7.042  10.484  70.665  1.00  0.00     0.000 HD 
HETATM   15  C   UNL     1      -8.275   6.792  71.712  1.00  0.00    -0.106 C  
HETATM   16  H   UNL     1      -6.335   8.144  72.830  1.00  0.00     0.000 HD 
BRANCH  15  17
HETATM   17  C   UNL     1      -7.858   6.164  73.062  1.00  0.00    -0.104 C  
HETATM   18  O   UNL     1      -8.347   4.823  73.186  1.00  0.00    -0.100 OA 
HETATM   19  H   UNL     1      -8.092   4.437  74.015  1.00  0.00     0.000 HD 
ENDBRANCH  15  17
ENDBRANCH   4   5
ENDBRANCH   2   4
TORSDOF 3
ENDMDL
MODEL      219
REMARK 921   NORMALIZED FREE ENERGY PREDICTED BY IDOCK:   -2.08 KCAL/MOL
REMARK 922        TOTAL FREE ENERGY PREDICTED BY IDOCK:   -2.79 KCAL/MOL
REMARK 923 INTER-LIGAND FREE ENERGY PREDICTED BY IDOCK:   -2.41 KCAL/MOL
REMARK 924 INTRA-LIGAND FREE ENERGY PREDICTED BY IDOCK:   -0.38 KCAL/MOL
REMARK 927      BINDING AFFINITY PREDICTED BY RF-SCORE:    0.00 PKD
ROOT
HETATM    1  O   UNL     1      -6.176   8.886  69.455  1.00  0.00    -0.040 OA 
HETATM    2  C   UNL     1      -7.316   8.995  68.604  1.00  0.00    -0.077 C  
HETATM    3  H   UNL     1      -5.843   9.755  69.642  1.00  0.00     0.000 HD 
ENDROOT
BRANCH   2   4
HETATM    4  C   UNL     1      -7.855   7.586  68.300  1.00  0.00    -0.122 C  
BRANCH   4   5
HETATM    5  N   UNL     1      -9.192   7.294  68.863  1.00  0.00    -0.142 NA 
HETATM    6  C   UNL     1     -10.237   7.159  67.830  1.00  0.00    -0.187 C  
HETATM    7  C   UNL     1     -10.071   5.924  66.925  1.00  0.00    -0.188 C  
HETATM    8  C   UNL     1      -9.994   4.646  67.777  1.00  0.00    -0.092 C  
HETATM    9  O   UNL     1     -11.169   5.810  66.015  1.00  0.00    -0.677 OA 
HETATM   10  H   UNL     1     -11.067   5.049  65.456  1.00  0.00     0.000 HD 
HETATM   11  O   UNL     1      -9.594   3.495  67.006  1.00  0.00    -0.286 OA 
HETATM   12  C   UNL     1      -8.976   4.774  68.914  1.00  0.00    -0.108 C  
HETATM   13  O   UNL     1      -9.071   3.601  69.739  1.00  0.00    -0.095 OA 
HETATM   14  H   UNL     1      -9.546   2.706  67.532  1.00  0.00     0.000 HD 
HETATM   15  C   UNL     1      -9.217   6.071  69.724  1.00  0.00    -0.143 C  
HETATM   16  H   UNL     1      -8.440   3.680  70.445  1.00  0.00     0.000 HD 
BRANCH  15  17
HETATM   17  C   UNL     1      -8.292   6.131  70.963  1.00  0.00    -0.124 C  
HETATM   18  O   UNL     1      -8.771   5.280  72.012  1.00  0.00    -0.128 OA 
HETATM   19  H   UNL     1      -8.203   5.316  72.772  1.00  0.00     0.000 HD 
ENDBRANCH  15  17
ENDBRANCH   4   5
ENDBRANCH   2   4
TORSDOF 3
ENDMDL
MODEL      220
REMARK 921   NORMALIZED FREE ENERGY PREDICTED BY IDOCK:   -2.07 KCAL/MOL
REMARK 922        TOTAL FREE ENERGY PREDICTED BY IDOCK:   -2.77 KCAL/MOL
REMARK 923 INTER-LIGAND FREE ENERGY PREDICTED BY IDOCK:   -2.38 KCAL/MOL
REMARK 924 INTRA-LIGAND FREE ENERGY PREDICTED BY IDOCK:   -0.40 KCAL/MOL
REMARK 927      BINDING AFFINITY PREDICTED BY RF-SCORE:    0.00 PKD
ROOT
HETATM    1  O   UNL     1      -7.189   8.106  70.938  1.00  0.00    -0.051 OA 
HETATM    2  C   UNL     1      -6.852   6.906  70.245  1.00  0.00    -0.057 C  
HETATM    3  H   UNL     1      -6.500   8.311  71.558  1.00  0.00     0.000 HD 
ENDROOT
BRANCH   2   4
HETATM    4  C   UNL     1      -7.969   6.573  69.239  1.00  0.00    -0.111 C  
BRANCH   4   5
HETATM    5  N   UNL     1      -7.969   7.397  68.011  1.00  0.00    -0.118 NA 
HETATM    6  C   UNL     1      -7.278   6.749  66.880  1.00  0.00    -0.081 C  
HETATM    7  C   UNL     1      -7.991   5.495  66.341  1.00  0.00    -0.105 C  
HETATM    8  C   UNL     1      -9.442   5.832  65.958  1.00  0.00    -0.086 C  
HETATM    9  O   UNL     1      -7.313   4.980  65.191  1.00  0.00    -0.069 OA 
HETATM   10  H   UNL     1      -7.753   4.207  64.858  1.00  0.00     0.000 HD 
HETATM   11  O   UNL     1     -10.225   4.652  65.682  1.00  0.00    -0.238 OA 
HETATM   12  C   UNL     1     -10.173   6.579  67.076  1.00  0.00    -0.215 C  
HETATM   13  O   UNL     1     -11.464   6.978  66.584  1.00  0.00    -0.410 OA 
HETATM   14  H   UNL     1     -11.121   4.860  65.446  1.00  0.00     0.000 HD 
HETATM   15  C   UNL     1      -9.341   7.791  67.563  1.00  0.00    -0.139 C  
HETATM   16  H   UNL     1     -11.918   7.442  67.278  1.00  0.00     0.000 HD 
BRANCH  15  17
HETATM   17  C   UNL     1     -10.139   8.636  68.584  1.00  0.00    -0.190 C  
HETATM   18  O   UNL     1     -11.044   9.530  67.925  1.00  0.00    -0.507 OA 
HETATM   19  H   UNL     1     -11.534  10.049  68.551  1.00  0.00     0.000 HD 
ENDBRANCH  15  17
ENDBRANCH   4   5
ENDBRANCH   2   4
TORSDOF 3
ENDMDL
MODEL      221
REMARK 921   NORMALIZED FREE ENERGY PREDICTED BY IDOCK:   -2.06 KCAL/MOL
REMARK 922        TOTAL FREE ENERGY PREDICTED BY IDOCK:   -2.77 KCAL/MOL
REMARK 923 INTER-LIGAND FREE ENERGY PREDICTED BY IDOCK:   -2.42 KCAL/MOL
REMARK 924 INTRA-LIGAND FREE ENERGY PREDICTED BY IDOCK:   -0.34 KCAL/MOL
REMARK 927      BINDING AFFINITY PREDICTED BY RF-SCORE:    0.00 PKD
ROOT
HETATM    1  O   UNL     1     -11.773   9.138  69.812  1.00  0.00    -0.434 OA 
HETATM    2  C   UNL     1     -10.503   8.488  69.799  1.00  0.00    -0.220 C  
HETATM    3  H   UNL     1     -11.827   9.730  69.071  1.00  0.00     0.000 HD 
ENDROOT
BRANCH   2   4
HETATM    4  C   UNL     1     -10.414   7.529  70.999  1.00  0.00    -0.215 C  
BRANCH   4   5
HETATM    5  N   UNL     1      -9.573   6.333  70.781  1.00  0.00    -0.175 NA 
HETATM    6  C   UNL     1      -8.195   6.663  70.368  1.00  0.00    -0.125 C  
HETATM    7  C   UNL     1      -7.361   7.361  71.458  1.00  0.00    -0.079 C  
HETATM    8  C   UNL     1      -7.345   6.513  72.741  1.00  0.00    -0.089 C  
HETATM    9  O   UNL     1      -6.015   7.563  71.017  1.00  0.00    -0.035 OA 
HETATM   10  H   UNL     1      -5.500   7.994  71.689  1.00  0.00     0.000 HD 
HETATM   11  O   UNL     1      -6.791   7.227  73.865  1.00  0.00    -0.079 OA 
HETATM   12  C   UNL     1      -8.752   6.079  73.161  1.00  0.00    -0.121 C  
HETATM   13  O   UNL     1      -8.633   5.179  74.276  1.00  0.00    -0.113 OA 
HETATM   14  H   UNL     1      -6.781   6.703  74.657  1.00  0.00     0.000 HD 
HETATM   15  C   UNL     1      -9.505   5.431  71.973  1.00  0.00    -0.148 C  
HETATM   16  H   UNL     1      -9.507   4.910  74.536  1.00  0.00     0.000 HD 
BRANCH  15  17
HETATM   17  C   UNL     1     -10.867   4.855  72.428  1.00  0.00    -0.137 C  
HETATM   18  O   UNL     1     -11.295   5.444  73.662  1.00  0.00    -0.454 OA 
HETATM   19  H   UNL     1     -12.131   5.091  73.942  1.00  0.00     0.000 HD 
ENDBRANCH  15  17
ENDBRANCH   4   5
ENDBRANCH   2   4
TORSDOF 3
ENDMDL
MODEL      222
REMARK 921   NORMALIZED FREE ENERGY PREDICTED BY IDOCK:   -2.06 KCAL/MOL
REMARK 922        TOTAL FREE ENERGY PREDICTED BY IDOCK:   -2.77 KCAL/MOL
REMARK 923 INTER-LIGAND FREE ENERGY PREDICTED BY IDOCK:   -2.59 KCAL/MOL
REMARK 924 INTRA-LIGAND FREE ENERGY PREDICTED BY IDOCK:   -0.18 KCAL/MOL
REMARK 927      BINDING AFFINITY PREDICTED BY RF-SCORE:    0.00 PKD
ROOT
HETATM    1  O   UNL     1     -10.821  20.349  68.971  1.00  0.00    -0.219 OA 
HETATM    2  C   UNL     1      -9.754  19.922  69.816  1.00  0.00     0.305 C  
HETATM    3  H   UNL     1     -11.594  20.503  69.501  1.00  0.00     0.000 HD 
ENDROOT
BRANCH   2   4
HETATM    4  C   UNL     1      -8.501  19.671  68.958  1.00  0.00    -0.125 C  
BRANCH   4   5
HETATM    5  N   UNL     1      -8.036  18.267  68.928  1.00  0.00    -0.228 NA 
HETATM    6  C   UNL     1      -9.141  17.291  69.008  1.00  0.00    -0.096 C  
HETATM    7  C   UNL     1     -10.061  17.278  67.772  1.00  0.00    -0.311 C  
HETATM    8  C   UNL     1      -9.235  17.046  66.496  1.00  0.00    -0.271 C  
HETATM    9  O   UNL     1     -11.046  16.247  67.884  1.00  0.00    -0.332 OA 
HETATM   10  H   UNL     1     -11.614  16.239  67.122  1.00  0.00     0.000 HD 
HETATM   11  O   UNL     1     -10.004  17.270  65.297  1.00  0.00    -0.378 OA 
HETATM   12  C   UNL     1      -8.029  17.986  66.413  1.00  0.00    -0.262 C  
HETATM   13  O   UNL     1      -7.239  17.607  65.273  1.00  0.00    -0.110 OA 
HETATM   14  H   UNL     1      -9.494  17.126  64.508  1.00  0.00     0.000 HD 
HETATM   15  C   UNL     1      -7.207  17.944  67.725  1.00  0.00    -0.209 C  
HETATM   16  H   UNL     1      -6.490  18.190  65.221  1.00  0.00     0.000 HD 
BRANCH  15  17
HETATM   17  C   UNL     1      -5.908  18.772  67.591  1.00  0.00    -0.180 C  
HETATM   18  O   UNL     1      -6.026  19.765  66.566  1.00  0.00    -0.169 OA 
HETATM   19  H   UNL     1      -5.229  20.274  66.483  1.00  0.00     0.000 HD 
ENDBRANCH  15  17
ENDBRANCH   4   5
ENDBRANCH   2   4
TORSDOF 3
ENDMDL
MODEL      223
REMARK 921   NORMALIZED FREE ENERGY PREDICTED BY IDOCK:   -2.02 KCAL/MOL
REMARK 922        TOTAL FREE ENERGY PREDICTED BY IDOCK:   -2.71 KCAL/MOL
REMARK 923 INTER-LIGAND FREE ENERGY PREDICTED BY IDOCK:   -2.64 KCAL/MOL
REMARK 924 INTRA-LIGAND FREE ENERGY PREDICTED BY IDOCK:   -0.07 KCAL/MOL
REMARK 927      BINDING AFFINITY PREDICTED BY RF-SCORE:    0.00 PKD
ROOT
HETATM    1  O   UNL     1      -9.774   2.590  65.365  1.00  0.00    -0.360 OA 
HETATM    2  C   UNL     1      -8.527   3.263  65.522  1.00  0.00    -0.106 C  
HETATM    3  H   UNL     1      -9.721   2.006  64.618  1.00  0.00     0.000 HD 
ENDROOT
BRANCH   2   4
HETATM    4  C   UNL     1      -8.612   4.209  66.733  1.00  0.00    -0.108 C  
BRANCH   4   5
HETATM    5  N   UNL     1      -9.750   3.956  67.644  1.00  0.00    -0.150 NA 
HETATM    6  C   UNL     1      -9.419   3.019  68.735  1.00  0.00    -0.115 C  
HETATM    7  C   UNL     1      -8.402   3.570  69.752  1.00  0.00    -0.052 C  
HETATM    8  C   UNL     1      -8.896   4.907  70.327  1.00  0.00    -0.103 C  
HETATM    9  O   UNL     1      -8.204   2.645  70.825  1.00  0.00    -0.049 OA 
HETATM   10  H   UNL     1      -7.577   2.985  71.452  1.00  0.00     0.000 HD 
HETATM   11  O   UNL     1      -7.879   5.586  71.092  1.00  0.00    -0.103 OA 
HETATM   12  C   UNL     1      -9.328   5.882  69.229  1.00  0.00    -0.128 C  
HETATM   13  O   UNL     1      -9.906   7.041  69.854  1.00  0.00    -0.169 OA 
HETATM   14  H   UNL     1      -8.184   6.412  71.448  1.00  0.00     0.000 HD 
HETATM   15  C   UNL     1     -10.314   5.203  68.247  1.00  0.00    -0.070 C  
HETATM   16  H   UNL     1     -10.174   7.646  69.172  1.00  0.00     0.000 HD 
BRANCH  15  17
HETATM   17  C   UNL     1     -10.870   6.223  67.226  1.00  0.00    -0.375 C  
HETATM   18  O   UNL     1     -11.383   5.567  66.060  1.00  0.00    -0.753 OA 
HETATM   19  H   UNL     1     -11.724   6.193  65.433  1.00  0.00     0.000 HD 
ENDBRANCH  15  17
ENDBRANCH   4   5
ENDBRANCH   2   4
TORSDOF 3
ENDMDL
MODEL      224
REMARK 921   NORMALIZED FREE ENERGY PREDICTED BY IDOCK:   -2.00 KCAL/MOL
REMARK 922        TOTAL FREE ENERGY PREDICTED BY IDOCK:   -2.69 KCAL/MOL
REMARK 923 INTER-LIGAND FREE ENERGY PREDICTED BY IDOCK:   -2.35 KCAL/MOL
REMARK 924 INTRA-LIGAND FREE ENERGY PREDICTED BY IDOCK:   -0.35 KCAL/MOL
REMARK 927      BINDING AFFINITY PREDICTED BY RF-SCORE:    0.00 PKD
ROOT
HETATM    1  O   UNL     1      -8.425   6.333  74.028  1.00  0.00    -0.115 OA 
HETATM    2  C   UNL     1      -7.705   7.484  73.591  1.00  0.00    -0.117 C  
HETATM    3  H   UNL     1      -8.300   6.224  74.963  1.00  0.00     0.000 HD 
ENDROOT
BRANCH   2   4
HETATM    4  C   UNL     1      -7.907   7.661  72.075  1.00  0.00    -0.096 C  
BRANCH   4   5
HETATM    5  N   UNL     1      -9.292   7.975  71.664  1.00  0.00    -0.151 NA 
HETATM    6  C   UNL     1      -9.440   9.342  71.127  1.00  0.00    -0.217 C  
HETATM    7  C   UNL     1      -8.721   9.572  69.785  1.00  0.00    -0.194 C  
HETATM    8  C   UNL     1      -9.187   8.538  68.747  1.00  0.00    -0.142 C  
HETATM    9  O   UNL     1      -8.987  10.886  69.285  1.00  0.00    -0.362 OA 
HETATM   10  H   UNL     1      -8.543  11.029  68.457  1.00  0.00     0.000 HD 
HETATM   11  O   UNL     1      -8.373   8.549  67.556  1.00  0.00    -0.125 OA 
HETATM   12  C   UNL     1      -9.127   7.109  69.292  1.00  0.00    -0.137 C  
HETATM   13  O   UNL     1      -9.710   6.228  68.317  1.00  0.00    -0.119 OA 
HETATM   14  H   UNL     1      -8.661   7.911  66.915  1.00  0.00     0.000 HD 
HETATM   15  C   UNL     1      -9.844   7.012  70.661  1.00  0.00    -0.182 C  
HETATM   16  H   UNL     1      -9.673   5.341  68.656  1.00  0.00     0.000 HD 
BRANCH  15  17
HETATM   17  C   UNL     1      -9.919   5.544  71.144  1.00  0.00    -0.195 C  
HETATM   18  O   UNL     1     -10.460   5.459  72.468  1.00  0.00    -0.197 OA 
HETATM   19  H   UNL     1     -10.506   4.558  72.765  1.00  0.00     0.000 HD 
ENDBRANCH  15  17
ENDBRANCH   4   5
ENDBRANCH   2   4
TORSDOF 3
ENDMDL
MODEL      225
REMARK 921   NORMALIZED FREE ENERGY PREDICTED BY IDOCK:   -2.00 KCAL/MOL
REMARK 922        TOTAL FREE ENERGY PREDICTED BY IDOCK:   -2.69 KCAL/MOL
REMARK 923 INTER-LIGAND FREE ENERGY PREDICTED BY IDOCK:   -2.52 KCAL/MOL
REMARK 924 INTRA-LIGAND FREE ENERGY PREDICTED BY IDOCK:   -0.17 KCAL/MOL
REMARK 927      BINDING AFFINITY PREDICTED BY RF-SCORE:    0.00 PKD
ROOT
HETATM    1  O   UNL     1      -7.554   4.840  66.987  1.00  0.00    -0.085 OA 
HETATM    2  C   UNL     1      -8.940   4.956  66.670  1.00  0.00    -0.111 C  
HETATM    3  H   UNL     1      -7.168   4.159  66.449  1.00  0.00     0.000 HD 
ENDROOT
BRANCH   2   4
HETATM    4  C   UNL     1      -9.566   6.059  67.541  1.00  0.00    -0.113 C  
BRANCH   4   5
HETATM    5  N   UNL     1      -8.630   7.120  67.973  1.00  0.00    -0.128 NA 
HETATM    6  C   UNL     1      -8.375   8.127  66.925  1.00  0.00    -0.115 C  
HETATM    7  C   UNL     1      -9.597   8.997  66.577  1.00  0.00    -0.223 C  
HETATM    8  C   UNL     1     -10.148   9.673  67.844  1.00  0.00    -0.181 C  
HETATM    9  O   UNL     1      -9.247  10.007  65.626  1.00  0.00    -0.162 OA 
HETATM   10  H   UNL     1     -10.001  10.544  65.411  1.00  0.00     0.000 HD 
HETATM   11  O   UNL     1     -11.429  10.296  67.621  1.00  0.00    -0.570 OA 
HETATM   12  C   UNL     1     -10.351   8.673  68.986  1.00  0.00    -0.213 C  
HETATM   13  O   UNL     1     -10.728   9.405  70.165  1.00  0.00    -0.215 OA 
HETATM   14  H   UNL     1     -11.770  10.714  68.404  1.00  0.00     0.000 HD 
HETATM   15  C   UNL     1      -9.073   7.830  69.213  1.00  0.00    -0.145 C  
HETATM   16  H   UNL     1     -10.854   8.785  70.874  1.00  0.00     0.000 HD 
BRANCH  15  17
HETATM   17  C   UNL     1      -9.219   6.927  70.461  1.00  0.00    -0.156 C  
HETATM   18  O   UNL     1      -7.948   6.430  70.896  1.00  0.00    -0.108 OA 
HETATM   19  H   UNL     1      -8.038   5.876  71.662  1.00  0.00     0.000 HD 
ENDBRANCH  15  17
ENDBRANCH   4   5
ENDBRANCH   2   4
TORSDOF 3
ENDMDL
MODEL      226
REMARK 921   NORMALIZED FREE ENERGY PREDICTED BY IDOCK:   -1.97 KCAL/MOL
REMARK 922        TOTAL FREE ENERGY PREDICTED BY IDOCK:   -2.66 KCAL/MOL
REMARK 923 INTER-LIGAND FREE ENERGY PREDICTED BY IDOCK:   -2.40 KCAL/MOL
REMARK 924 INTRA-LIGAND FREE ENERGY PREDICTED BY IDOCK:   -0.26 KCAL/MOL
REMARK 927      BINDING AFFINITY PREDICTED BY RF-SCORE:    0.00 PKD
ROOT
HETATM    1  O   UNL     1      -8.728   6.252  65.566  1.00  0.00    -0.219 OA 
HETATM    2  C   UNL     1      -8.773   7.446  66.345  1.00  0.00    -0.142 C  
HETATM    3  H   UNL     1      -9.260   6.368  64.788  1.00  0.00     0.000 HD 
ENDROOT
BRANCH   2   4
HETATM    4  C   UNL     1      -7.911   7.259  67.606  1.00  0.00    -0.113 C  
BRANCH   4   5
HETATM    5  N   UNL     1      -8.400   7.969  68.808  1.00  0.00    -0.126 NA 
HETATM    6  C   UNL     1      -9.869   7.931  68.943  1.00  0.00    -0.173 C  
HETATM    7  C   UNL     1     -10.438   6.529  69.232  1.00  0.00    -0.219 C  
HETATM    8  C   UNL     1      -9.771   5.930  70.480  1.00  0.00    -0.175 C  
HETATM    9  O   UNL     1     -11.853   6.589  69.442  1.00  0.00    -0.636 OA 
HETATM   10  H   UNL     1     -12.204   5.724  69.620  1.00  0.00     0.000 HD 
HETATM   11  O   UNL     1     -10.083   4.532  70.653  1.00  0.00    -0.216 OA 
HETATM   12  C   UNL     1      -8.244   6.023  70.417  1.00  0.00    -0.116 C  
HETATM   13  O   UNL     1      -7.712   5.576  71.676  1.00  0.00    -0.101 OA 
HETATM   14  H   UNL     1      -9.671   4.162  71.424  1.00  0.00     0.000 HD 
HETATM   15  C   UNL     1      -7.795   7.466  70.080  1.00  0.00    -0.099 C  
HETATM   16  H   UNL     1      -6.764   5.634  71.637  1.00  0.00     0.000 HD 
BRANCH  15  17
HETATM   17  C   UNL     1      -6.256   7.601  70.164  1.00  0.00    -0.033 C  
HETATM   18  O   UNL     1      -5.807   7.602  71.525  1.00  0.00    -0.035 OA 
HETATM   19  H   UNL     1      -4.863   7.685  71.577  1.00  0.00     0.000 HD 
ENDBRANCH  15  17
ENDBRANCH   4   5
ENDBRANCH   2   4
TORSDOF 3
ENDMDL
MODEL      227
REMARK 921   NORMALIZED FREE ENERGY PREDICTED BY IDOCK:   -1.97 KCAL/MOL
REMARK 922        TOTAL FREE ENERGY PREDICTED BY IDOCK:   -2.66 KCAL/MOL
REMARK 923 INTER-LIGAND FREE ENERGY PREDICTED BY IDOCK:   -2.94 KCAL/MOL
REMARK 924 INTRA-LIGAND FREE ENERGY PREDICTED BY IDOCK:    0.28 KCAL/MOL
REMARK 927      BINDING AFFINITY PREDICTED BY RF-SCORE:    0.00 PKD
ROOT
HETATM    1  O   UNL     1     -11.109  15.491  68.278  1.00  0.00    -0.292 OA 
HETATM    2  C   UNL     1     -10.143  16.047  69.168  1.00  0.00    -0.242 C  
HETATM    3  H   UNL     1     -11.724  14.964  68.775  1.00  0.00     0.000 HD 
ENDROOT
BRANCH   2   4
HETATM    4  C   UNL     1      -9.148  16.901  68.362  1.00  0.00    -0.243 C  
BRANCH   4   5
HETATM    5  N   UNL     1      -7.966  17.365  69.122  1.00  0.00    -0.093 NA 
HETATM    6  C   UNL     1      -6.918  16.333  69.246  1.00  0.00    -0.217 C  
HETATM    7  C   UNL     1      -6.234  15.968  67.916  1.00  0.00    -0.131 C  
HETATM    8  C   UNL     1      -5.665  17.229  67.246  1.00  0.00    -0.142 C  
HETATM    9  O   UNL     1      -5.170  15.034  68.131  1.00  0.00    -0.105 OA 
HETATM   10  H   UNL     1      -4.748  14.808  67.310  1.00  0.00     0.000 HD 
HETATM   11  O   UNL     1      -5.234  16.985  65.891  1.00  0.00    -0.272 OA 
HETATM   12  C   UNL     1      -6.698  18.356  67.170  1.00  0.00    -0.192 C  
HETATM   13  O   UNL     1      -6.046  19.534  66.666  1.00  0.00    -0.167 OA 
HETATM   14  H   UNL     1      -4.882  17.764  65.477  1.00  0.00     0.000 HD 
HETATM   15  C   UNL     1      -7.346  18.602  68.554  1.00  0.00    -0.295 C  
HETATM   16  H   UNL     1      -6.687  20.233  66.619  1.00  0.00     0.000 HD 
BRANCH  15  17
HETATM   17  C   UNL     1      -8.277  19.837  68.518  1.00  0.00    -0.234 C  
HETATM   18  O   UNL     1      -9.355  19.649  67.594  1.00  0.00    -0.317 OA 
HETATM   19  H   UNL     1      -9.927  20.407  67.571  1.00  0.00     0.000 HD 
ENDBRANCH  15  17
ENDBRANCH   4   5
ENDBRANCH   2   4
TORSDOF 3
ENDMDL
MODEL      228
REMARK 921   NORMALIZED FREE ENERGY PREDICTED BY IDOCK:   -1.95 KCAL/MOL
REMARK 922        TOTAL FREE ENERGY PREDICTED BY IDOCK:   -2.63 KCAL/MOL
REMARK 923 INTER-LIGAND FREE ENERGY PREDICTED BY IDOCK:   -2.46 KCAL/MOL
REMARK 924 INTRA-LIGAND FREE ENERGY PREDICTED BY IDOCK:   -0.17 KCAL/MOL
REMARK 927      BINDING AFFINITY PREDICTED BY RF-SCORE:    0.00 PKD
ROOT
HETATM    1  O   UNL     1      -7.170  14.083  69.142  1.00  0.00    -0.148 OA 
HETATM    2  C   UNL     1      -6.724  13.485  67.927  1.00  0.00    -0.150 C  
HETATM    3  H   UNL     1      -6.505  14.684  69.456  1.00  0.00     0.000 HD 
ENDROOT
BRANCH   2   4
HETATM    4  C   UNL     1      -7.801  12.511  67.418  1.00  0.00    -0.175 C  
BRANCH   4   5
HETATM    5  N   UNL     1      -9.038  12.470  68.228  1.00  0.00    -0.200 NA 
HETATM    6  C   UNL     1     -10.121  13.304  67.672  1.00  0.00    -0.229 C  
HETATM    7  C   UNL     1     -10.682  12.796  66.331  1.00  0.00    -0.262 C  
HETATM    8  C   UNL     1     -11.149  11.337  66.468  1.00  0.00    -0.216 C  
HETATM    9  O   UNL     1     -11.787  13.600  65.906  1.00  0.00    -0.344 OA 
HETATM   10  H   UNL     1     -12.133  13.287  65.078  1.00  0.00     0.000 HD 
HETATM   11  O   UNL     1     -11.452  10.736  65.193  1.00  0.00     0.405 OA 
HETATM   12  C   UNL     1     -10.083  10.451  67.117  1.00  0.00    -0.208 C  
HETATM   13  O   UNL     1     -10.650   9.148  67.336  1.00  0.00    -0.272 OA 
HETATM   14  H   UNL     1     -11.741   9.835  65.277  1.00  0.00     0.000 HD 
HETATM   15  C   UNL     1      -9.566  11.085  68.432  1.00  0.00    -0.181 C  
HETATM   16  H   UNL     1      -9.988   8.598  67.739  1.00  0.00     0.000 HD 
BRANCH  15  17
HETATM   17  C   UNL     1      -8.602  10.125  69.168  1.00  0.00    -0.165 C  
HETATM   18  O   UNL     1      -8.964   9.979  70.547  1.00  0.00    -0.317 OA 
HETATM   19  H   UNL     1      -8.373   9.390  70.999  1.00  0.00     0.000 HD 
ENDBRANCH  15  17
ENDBRANCH   4   5
ENDBRANCH   2   4
TORSDOF 3
ENDMDL
MODEL      229
REMARK 921   NORMALIZED FREE ENERGY PREDICTED BY IDOCK:   -1.95 KCAL/MOL
REMARK 922        TOTAL FREE ENERGY PREDICTED BY IDOCK:   -2.63 KCAL/MOL
REMARK 923 INTER-LIGAND FREE ENERGY PREDICTED BY IDOCK:   -2.28 KCAL/MOL
REMARK 924 INTRA-LIGAND FREE ENERGY PREDICTED BY IDOCK:   -0.35 KCAL/MOL
REMARK 927      BINDING AFFINITY PREDICTED BY RF-SCORE:    0.00 PKD
ROOT
HETATM    1  O   UNL     1      -7.140  10.326  68.972  1.00  0.00    -0.062 OA 
HETATM    2  C   UNL     1      -7.039   8.991  69.462  1.00  0.00    -0.059 C  
HETATM    3  H   UNL     1      -6.343  10.548  68.506  1.00  0.00     0.000 HD 
ENDROOT
BRANCH   2   4
HETATM    4  C   UNL     1      -8.330   8.630  70.219  1.00  0.00    -0.129 C  
BRANCH   4   5
HETATM    5  N   UNL     1      -9.071   7.473  69.672  1.00  0.00    -0.141 NA 
HETATM    6  C   UNL     1      -8.252   6.248  69.591  1.00  0.00    -0.124 C  
HETATM    7  C   UNL     1      -7.853   5.666  70.960  1.00  0.00    -0.105 C  
HETATM    8  C   UNL     1      -9.104   5.416  71.818  1.00  0.00    -0.138 C  
HETATM    9  O   UNL     1      -7.143   4.434  70.800  1.00  0.00    -0.036 OA 
HETATM   10  H   UNL     1      -6.896   4.075  71.645  1.00  0.00     0.000 HD 
HETATM   11  O   UNL     1      -8.777   5.107  73.188  1.00  0.00    -0.116 OA 
HETATM   12  C   UNL     1     -10.024   6.639  71.862  1.00  0.00    -0.177 C  
HETATM   13  O   UNL     1     -11.227   6.274  72.560  1.00  0.00    -0.256 OA 
HETATM   14  H   UNL     1      -9.550   4.953  73.718  1.00  0.00     0.000 HD 
HETATM   15  C   UNL     1     -10.320   7.157  70.434  1.00  0.00    -0.203 C  
HETATM   16  H   UNL     1     -11.799   7.032  72.587  1.00  0.00     0.000 HD 
BRANCH  15  17
HETATM   17  C   UNL     1     -11.367   8.295  70.463  1.00  0.00    -0.219 C  
HETATM   18  O   UNL     1     -12.696   7.776  70.597  1.00  0.00    -0.513 OA 
HETATM   19  H   UNL     1     -13.339   8.475  70.615  1.00  0.00     0.000 HD 
ENDBRANCH  15  17
ENDBRANCH   4   5
ENDBRANCH   2   4
TORSDOF 3
ENDMDL
MODEL      230
REMARK 921   NORMALIZED FREE ENERGY PREDICTED BY IDOCK:   -1.93 KCAL/MOL
REMARK 922        TOTAL FREE ENERGY PREDICTED BY IDOCK:   -2.62 KCAL/MOL
REMARK 923 INTER-LIGAND FREE ENERGY PREDICTED BY IDOCK:   -2.39 KCAL/MOL
REMARK 924 INTRA-LIGAND FREE ENERGY PREDICTED BY IDOCK:   -0.22 KCAL/MOL
REMARK 927      BINDING AFFINITY PREDICTED BY RF-SCORE:    0.00 PKD
ROOT
HETATM    1  O   UNL     1      -5.751   5.854  68.935  1.00  0.00    -0.011 OA 
HETATM    2  C   UNL     1      -6.184   6.858  69.850  1.00  0.00    -0.031 C  
HETATM    3  H   UNL     1      -5.165   5.256  69.383  1.00  0.00     0.000 HD 
ENDROOT
BRANCH   2   4
HETATM    4  C   UNL     1      -7.133   7.828  69.123  1.00  0.00    -0.073 C  
BRANCH   4   5
HETATM    5  N   UNL     1      -8.457   8.001  69.760  1.00  0.00    -0.126 NA 
HETATM    6  C   UNL     1      -8.758   9.406  70.095  1.00  0.00    -0.221 C  
HETATM    7  C   UNL     1      -8.948  10.319  68.869  1.00  0.00    -0.164 C  
HETATM    8  C   UNL     1     -10.034   9.746  67.943  1.00  0.00    -0.163 C  
HETATM    9  O   UNL     1      -9.328  11.638  69.273  1.00  0.00    -0.376 OA 
HETATM   10  H   UNL     1      -9.446  12.201  68.517  1.00  0.00     0.000 HD 
HETATM   11  O   UNL     1     -10.080  10.421  66.669  1.00  0.00    -0.208 OA 
HETATM   12  C   UNL     1      -9.804   8.265  67.635  1.00  0.00    -0.169 C  
HETATM   13  O   UNL     1     -10.931   7.778  66.888  1.00  0.00    -0.443 OA 
HETATM   14  H   UNL     1     -10.751  10.067  66.097  1.00  0.00     0.000 HD 
HETATM   15  C   UNL     1      -9.583   7.459  68.939  1.00  0.00    -0.148 C  
HETATM   16  H   UNL     1     -10.789   6.858  66.696  1.00  0.00     0.000 HD 
BRANCH  15  17
HETATM   17  C   UNL     1      -9.502   5.942  68.646  1.00  0.00    -0.122 C  
HETATM   18  O   UNL     1      -9.529   5.176  69.856  1.00  0.00    -0.139 OA 
HETATM   19  H   UNL     1      -9.479   4.245  69.677  1.00  0.00     0.000 HD 
ENDBRANCH  15  17
ENDBRANCH   4   5
ENDBRANCH   2   4
TORSDOF 3
ENDMDL
MODEL      231
REMARK 921   NORMALIZED FREE ENERGY PREDICTED BY IDOCK:   -1.92 KCAL/MOL
REMARK 922        TOTAL FREE ENERGY PREDICTED BY IDOCK:   -2.60 KCAL/MOL
REMARK 923 INTER-LIGAND FREE ENERGY PREDICTED BY IDOCK:   -2.31 KCAL/MOL
REMARK 924 INTRA-LIGAND FREE ENERGY PREDICTED BY IDOCK:   -0.30 KCAL/MOL
REMARK 927      BINDING AFFINITY PREDICTED BY RF-SCORE:    0.00 PKD
ROOT
HETATM    1  O   UNL     1     -11.755  10.238  67.843  1.00  0.00    -0.691 OA 
HETATM    2  C   UNL     1     -10.577   9.714  68.453  1.00  0.00    -0.225 C  
HETATM    3  H   UNL     1     -12.034  11.011  68.319  1.00  0.00     0.000 HD 
ENDROOT
BRANCH   2   4
HETATM    4  C   UNL     1     -10.124   8.461  67.684  1.00  0.00    -0.209 C  
BRANCH   4   5
HETATM    5  N   UNL     1      -9.167   7.596  68.408  1.00  0.00    -0.140 NA 
HETATM    6  C   UNL     1      -9.593   6.184  68.465  1.00  0.00    -0.119 C  
HETATM    7  C   UNL     1      -9.594   5.470  67.101  1.00  0.00    -0.134 C  
HETATM    8  C   UNL     1      -8.210   5.583  66.440  1.00  0.00    -0.106 C  
HETATM    9  O   UNL     1      -9.926   4.087  67.252  1.00  0.00    -0.185 OA 
HETATM   10  H   UNL     1      -9.927   3.646  66.410  1.00  0.00     0.000 HD 
HETATM   11  O   UNL     1      -8.222   5.151  65.064  1.00  0.00    -0.117 OA 
HETATM   12  C   UNL     1      -7.693   7.024  66.432  1.00  0.00    -0.104 C  
HETATM   13  O   UNL     1      -6.345   7.018  65.932  1.00  0.00    -0.044 OA 
HETATM   14  H   UNL     1      -7.367   5.221  64.656  1.00  0.00     0.000 HD 
HETATM   15  C   UNL     1      -7.781   7.648  67.847  1.00  0.00    -0.115 C  
HETATM   16  H   UNL     1      -6.024   7.912  65.927  1.00  0.00     0.000 HD 
BRANCH  15  17
HETATM   17  C   UNL     1      -7.121   9.047  67.877  1.00  0.00    -0.079 C  
HETATM   18  O   UNL     1      -5.696   8.948  67.991  1.00  0.00    -0.038 OA 
HETATM   19  H   UNL     1      -5.291   9.807  68.010  1.00  0.00     0.000 HD 
ENDBRANCH  15  17
ENDBRANCH   4   5
ENDBRANCH   2   4
TORSDOF 3
ENDMDL
MODEL      232
REMARK 921   NORMALIZED FREE ENERGY PREDICTED BY IDOCK:   -1.83 KCAL/MOL
REMARK 922        TOTAL FREE ENERGY PREDICTED BY IDOCK:   -2.49 KCAL/MOL
REMARK 923 INTER-LIGAND FREE ENERGY PREDICTED BY IDOCK:   -2.37 KCAL/MOL
REMARK 924 INTRA-LIGAND FREE ENERGY PREDICTED BY IDOCK:   -0.12 KCAL/MOL
REMARK 927      BINDING AFFINITY PREDICTED BY RF-SCORE:    0.00 PKD
ROOT
HETATM    1  O   UNL     1      -8.471  15.888  68.472  1.00  0.00    -0.168 OA 
HETATM    2  C   UNL     1      -7.824  14.637  68.693  1.00  0.00    -0.138 C  
HETATM    3  H   UNL     1      -8.305  16.459  69.212  1.00  0.00     0.000 HD 
ENDROOT
BRANCH   2   4
HETATM    4  C   UNL     1      -8.093  13.709  67.494  1.00  0.00    -0.184 C  
BRANCH   4   5
HETATM    5  N   UNL     1      -8.601  12.366  67.847  1.00  0.00    -0.161 NA 
HETATM    6  C   UNL     1     -10.050  12.217  67.614  1.00  0.00    -0.200 C  
HETATM    7  C   UNL     1     -10.457  12.258  66.129  1.00  0.00    -0.240 C  
HETATM    8  C   UNL     1      -9.677  11.198  65.334  1.00  0.00    -0.231 C  
HETATM    9  O   UNL     1     -11.859  12.014  65.980  1.00  0.00    -0.522 OA 
HETATM   10  H   UNL     1     -12.111  12.040  65.064  1.00  0.00     0.000 HD 
HETATM   11  O   UNL     1      -9.834  11.355  63.909  1.00  0.00    -0.255 OA 
HETATM   12  C   UNL     1      -8.173  11.264  65.609  1.00  0.00     0.133 C  
HETATM   13  O   UNL     1      -7.542  10.157  64.944  1.00  0.00    -0.137 OA 
HETATM   14  H   UNL     1      -9.352  10.700  63.418  1.00  0.00     0.000 HD 
HETATM   15  C   UNL     1      -7.892  11.259  67.132  1.00  0.00    -0.151 C  
HETATM   16  H   UNL     1      -6.609  10.198  65.115  1.00  0.00     0.000 HD 
BRANCH  15  17
HETATM   17  C   UNL     1      -6.373  11.172  67.415  1.00  0.00    -0.067 C  
HETATM   18  O   UNL     1      -6.083  11.445  68.791  1.00  0.00    -0.047 OA 
HETATM   19  H   UNL     1      -5.151  11.392  68.965  1.00  0.00     0.000 HD 
ENDBRANCH  15  17
ENDBRANCH   4   5
ENDBRANCH   2   4
TORSDOF 3
ENDMDL
MODEL      233
REMARK 921   NORMALIZED FREE ENERGY PREDICTED BY IDOCK:   -1.80 KCAL/MOL
REMARK 922        TOTAL FREE ENERGY PREDICTED BY IDOCK:   -2.46 KCAL/MOL
REMARK 923 INTER-LIGAND FREE ENERGY PREDICTED BY IDOCK:   -2.11 KCAL/MOL
REMARK 924 INTRA-LIGAND FREE ENERGY PREDICTED BY IDOCK:   -0.35 KCAL/MOL
REMARK 927      BINDING AFFINITY PREDICTED BY RF-SCORE:    0.00 PKD
ROOT
HETATM    1  O   UNL     1      -9.113   2.698  69.421  1.00  0.00    -0.099 OA 
HETATM    2  C   UNL     1      -9.279   3.699  68.418  1.00  0.00    -0.163 C  
HETATM    3  H   UNL     1      -9.066   1.846  69.005  1.00  0.00     0.000 HD 
ENDROOT
BRANCH   2   4
HETATM    4  C   UNL     1      -9.354   5.081  69.092  1.00  0.00    -0.122 C  
BRANCH   4   5
HETATM    5  N   UNL     1      -8.514   6.126  68.467  1.00  0.00    -0.114 NA 
HETATM    6  C   UNL     1      -9.290   7.078  67.648  1.00  0.00    -0.122 C  
HETATM    7  C   UNL     1     -10.244   7.975  68.460  1.00  0.00    -0.207 C  
HETATM    8  C   UNL     1      -9.468   8.722  69.556  1.00  0.00    -0.165 C  
HETATM    9  O   UNL     1     -10.888   8.930  67.611  1.00  0.00    -0.468 OA 
HETATM   10  H   UNL     1     -11.477   9.483  68.111  1.00  0.00     0.000 HD 
HETATM   11  O   UNL     1     -10.341   9.381  70.496  1.00  0.00    -0.238 OA 
HETATM   12  C   UNL     1      -8.584   7.781  70.379  1.00  0.00    -0.137 C  
HETATM   13  O   UNL     1      -7.792   8.575  71.279  1.00  0.00    -0.096 OA 
HETATM   14  H   UNL     1      -9.862   9.843  71.173  1.00  0.00     0.000 HD 
HETATM   15  C   UNL     1      -7.704   6.904  69.455  1.00  0.00    -0.104 C  
HETATM   16  H   UNL     1      -7.244   7.991  71.789  1.00  0.00     0.000 HD 
BRANCH  15  17
HETATM   17  C   UNL     1      -6.703   6.061  70.280  1.00  0.00    -0.049 C  
HETATM   18  O   UNL     1      -5.491   6.784  70.525  1.00  0.00    -0.022 OA 
HETATM   19  H   UNL     1      -4.876   6.267  71.031  1.00  0.00     0.000 HD 
ENDBRANCH  15  17
ENDBRANCH   4   5
ENDBRANCH   2   4
TORSDOF 3
ENDMDL
MODEL      234
REMARK 921   NORMALIZED FREE ENERGY PREDICTED BY IDOCK:   -1.78 KCAL/MOL
REMARK 922        TOTAL FREE ENERGY PREDICTED BY IDOCK:   -2.44 KCAL/MOL
REMARK 923 INTER-LIGAND FREE ENERGY PREDICTED BY IDOCK:   -2.28 KCAL/MOL
REMARK 924 INTRA-LIGAND FREE ENERGY PREDICTED BY IDOCK:   -0.16 KCAL/MOL
REMARK 927      BINDING AFFINITY PREDICTED BY RF-SCORE:    0.00 PKD
ROOT
HETATM    1  O   UNL     1     -12.193  16.001  70.729  1.00  0.00    -0.481 OA 
HETATM    2  C   UNL     1     -11.134  16.589  69.976  1.00  0.00    -0.208 C  
HETATM    3  H   UNL     1     -12.798  16.682  70.999  1.00  0.00     0.000 HD 
ENDROOT
BRANCH   2   4
HETATM    4  C   UNL     1     -10.153  15.486  69.538  1.00  0.00    -0.278 C  
BRANCH   4   5
HETATM    5  N   UNL     1      -8.907  15.973  68.907  1.00  0.00    -0.219 NA 
HETATM    6  C   UNL     1      -7.759  15.991  69.834  1.00  0.00     0.436 C  
HETATM    7  C   UNL     1      -7.286  14.594  70.277  1.00  0.00     0.304 C  
HETATM    8  C   UNL     1      -6.967  13.726  69.049  1.00  0.00    -0.104 C  
HETATM    9  O   UNL     1      -6.116  14.690  71.096  1.00  0.00    -0.097 OA 
HETATM   10  H   UNL     1      -5.824  13.829  71.369  1.00  0.00     0.000 HD 
HETATM   11  O   UNL     1      -6.759  12.341  69.395  1.00  0.00    -0.192 OA 
HETATM   12  C   UNL     1      -8.102  13.744  68.022  1.00  0.00    -0.163 C  
HETATM   13  O   UNL     1      -7.666  13.030  66.853  1.00  0.00    -0.389 OA 
HETATM   14  H   UNL     1      -6.562  11.804  68.636  1.00  0.00     0.000 HD 
HETATM   15  C   UNL     1      -8.519  15.198  67.688  1.00  0.00    -0.160 C  
HETATM   16  H   UNL     1      -8.370  13.041  66.215  1.00  0.00     0.000 HD 
BRANCH  15  17
HETATM   17  C   UNL     1      -9.557  15.227  66.542  1.00  0.00    -0.271 C  
HETATM   18  O   UNL     1      -9.308  16.313  65.641  1.00  0.00    -0.457 OA 
HETATM   19  H   UNL     1      -9.945  16.331  64.937  1.00  0.00     0.000 HD 
ENDBRANCH  15  17
ENDBRANCH   4   5
ENDBRANCH   2   4
TORSDOF 3
ENDMDL
MODEL      235
REMARK 921   NORMALIZED FREE ENERGY PREDICTED BY IDOCK:   -1.76 KCAL/MOL
REMARK 922        TOTAL FREE ENERGY PREDICTED BY IDOCK:   -2.41 KCAL/MOL
REMARK 923 INTER-LIGAND FREE ENERGY PREDICTED BY IDOCK:   -2.14 KCAL/MOL
REMARK 924 INTRA-LIGAND FREE ENERGY PREDICTED BY IDOCK:   -0.28 KCAL/MOL
REMARK 927      BINDING AFFINITY PREDICTED BY RF-SCORE:    0.00 PKD
ROOT
HETATM    1  O   UNL     1      -6.112  10.049  70.417  1.00  0.00    -0.070 OA 
HETATM    2  C   UNL     1      -6.806   9.066  69.651  1.00  0.00    -0.050 C  
HETATM    3  H   UNL     1      -6.079   9.771  71.324  1.00  0.00     0.000 HD 
ENDROOT
BRANCH   2   4
HETATM    4  C   UNL     1      -6.860   9.516  68.180  1.00  0.00    -0.070 C  
BRANCH   4   5
HETATM    5  N   UNL     1      -7.787   8.743  67.325  1.00  0.00    -0.097 NA 
HETATM    6  C   UNL     1      -9.207   9.028  67.608  1.00  0.00    -0.136 C  
HETATM    7  C   UNL     1      -9.651  10.454  67.234  1.00  0.00    -0.156 C  
HETATM    8  C   UNL     1      -9.333  10.740  65.757  1.00  0.00    -0.203 C  
HETATM    9  O   UNL     1     -11.055  10.622  67.450  1.00  0.00    -0.302 OA 
HETATM   10  H   UNL     1     -11.329  11.502  67.219  1.00  0.00     0.000 HD 
HETATM   11  O   UNL     1      -9.498  12.133  65.419  1.00  0.00    -0.409 OA 
HETATM   12  C   UNL     1      -7.888  10.382  65.400  1.00  0.00    -0.143 C  
HETATM   13  O   UNL     1      -7.720  10.543  63.981  1.00  0.00    -0.319 OA 
HETATM   14  H   UNL     1      -9.303  12.310  64.507  1.00  0.00     0.000 HD 
HETATM   15  C   UNL     1      -7.548   8.944  65.862  1.00  0.00    -0.093 C  
HETATM   16  H   UNL     1      -6.824  10.321  63.759  1.00  0.00     0.000 HD 
BRANCH  15  17
HETATM   17  C   UNL     1      -6.143   8.522  65.371  1.00  0.00    -0.049 C  
HETATM   18  O   UNL     1      -5.243   9.637  65.346  1.00  0.00    -0.038 OA 
HETATM   19  H   UNL     1      -4.381   9.378  65.044  1.00  0.00     0.000 HD 
ENDBRANCH  15  17
ENDBRANCH   4   5
ENDBRANCH   2   4
TORSDOF 3
ENDMDL
MODEL      236
REMARK 921   NORMALIZED FREE ENERGY PREDICTED BY IDOCK:   -1.72 KCAL/MOL
REMARK 922        TOTAL FREE ENERGY PREDICTED BY IDOCK:   -2.36 KCAL/MOL
REMARK 923 INTER-LIGAND FREE ENERGY PREDICTED BY IDOCK:   -2.01 KCAL/MOL
REMARK 924 INTRA-LIGAND FREE ENERGY PREDICTED BY IDOCK:   -0.35 KCAL/MOL
REMARK 927      BINDING AFFINITY PREDICTED BY RF-SCORE:    0.00 PKD
ROOT
HETATM    1  O   UNL     1      -5.728  11.789  71.270  1.00  0.00    -0.381 OA 
HETATM    2  C   UNL     1      -6.020  10.458  70.850  1.00  0.00    -0.042 C  
HETATM    3  H   UNL     1      -5.093  11.760  71.976  1.00  0.00     0.000 HD 
ENDROOT
BRANCH   2   4
HETATM    4  C   UNL     1      -7.050  10.504  69.706  1.00  0.00    -0.150 C  
BRANCH   4   5
HETATM    5  N   UNL     1      -7.005   9.353  68.779  1.00  0.00    -0.063 NA 
HETATM    6  C   UNL     1      -8.111   8.399  68.989  1.00  0.00    -0.116 C  
HETATM    7  C   UNL     1      -9.501   8.956  68.629  1.00  0.00    -0.151 C  
HETATM    8  C   UNL     1      -9.508   9.472  67.180  1.00  0.00    -0.149 C  
HETATM    9  O   UNL     1     -10.505   7.947  68.769  1.00  0.00    -0.207 OA 
HETATM   10  H   UNL     1     -11.362   8.291  68.547  1.00  0.00     0.000 HD 
HETATM   11  O   UNL     1     -10.699  10.225  66.871  1.00  0.00    -0.239 OA 
HETATM   12  C   UNL     1      -8.327  10.404  66.896  1.00  0.00    -0.124 C  
HETATM   13  O   UNL     1      -8.330  10.723  65.494  1.00  0.00    -0.172 OA 
HETATM   14  H   UNL     1     -10.704  10.544  65.977  1.00  0.00     0.000 HD 
HETATM   15  C   UNL     1      -6.994   9.754  67.338  1.00  0.00    -0.084 C  
HETATM   16  H   UNL     1      -7.597  11.301  65.317  1.00  0.00     0.000 HD 
BRANCH  15  17
HETATM   17  C   UNL     1      -5.786  10.623  66.916  1.00  0.00    -0.062 C  
HETATM   18  O   UNL     1      -5.420  10.380  65.552  1.00  0.00    -0.071 OA 
HETATM   19  H   UNL     1      -4.679  10.914  65.293  1.00  0.00     0.000 HD 
ENDBRANCH  15  17
ENDBRANCH   4   5
ENDBRANCH   2   4
TORSDOF 3
ENDMDL
MODEL      237
REMARK 921   NORMALIZED FREE ENERGY PREDICTED BY IDOCK:   -1.64 KCAL/MOL
REMARK 922        TOTAL FREE ENERGY PREDICTED BY IDOCK:   -2.27 KCAL/MOL
REMARK 923 INTER-LIGAND FREE ENERGY PREDICTED BY IDOCK:   -2.49 KCAL/MOL
REMARK 924 INTRA-LIGAND FREE ENERGY PREDICTED BY IDOCK:    0.22 KCAL/MOL
REMARK 927      BINDING AFFINITY PREDICTED BY RF-SCORE:    0.00 PKD
ROOT
HETATM    1  O   UNL     1     -10.616  19.823  68.863  1.00  0.00    -0.526 OA 
HETATM    2  C   UNL     1      -9.722  19.567  69.944  1.00  0.00     0.413 C  
HETATM    3  H   UNL     1     -11.422  20.191  69.205  1.00  0.00     0.000 HD 
ENDROOT
BRANCH   2   4
HETATM    4  C   UNL     1      -8.417  18.969  69.389  1.00  0.00     0.215 C  
BRANCH   4   5
HETATM    5  N   UNL     1      -8.515  17.562  68.944  1.00  0.00    -0.198 NA 
HETATM    6  C   UNL     1      -9.422  17.381  67.795  1.00  0.00    -0.261 C  
HETATM    7  C   UNL     1      -8.920  18.023  66.488  1.00  0.00    -0.265 C  
HETATM    8  C   UNL     1      -7.514  17.502  66.146  1.00  0.00    -0.299 C  
HETATM    9  O   UNL     1      -9.804  17.725  65.403  1.00  0.00    -0.248 OA 
HETATM   10  H   UNL     1      -9.494  18.121  64.597  1.00  0.00     0.000 HD 
HETATM   11  O   UNL     1      -6.898  18.247  65.076  1.00  0.00    -0.397 OA 
HETATM   12  C   UNL     1      -6.560  17.596  67.339  1.00  0.00    -0.159 C  
HETATM   13  O   UNL     1      -5.321  16.961  66.978  1.00  0.00    -0.138 OA 
HETATM   14  H   UNL     1      -6.030  17.925  64.864  1.00  0.00     0.000 HD 
HETATM   15  C   UNL     1      -7.190  16.957  68.600  1.00  0.00    -0.215 C  
HETATM   16  H   UNL     1      -4.729  17.019  67.719  1.00  0.00     0.000 HD 
BRANCH  15  17
HETATM   17  C   UNL     1      -6.175  16.913  69.766  1.00  0.00    -0.205 C  
HETATM   18  O   UNL     1      -5.422  18.129  69.847  1.00  0.00    -0.203 OA 
HETATM   19  H   UNL     1      -4.798  18.102  70.563  1.00  0.00     0.000 HD 
ENDBRANCH  15  17
ENDBRANCH   4   5
ENDBRANCH   2   4
TORSDOF 3
ENDMDL
MODEL      238
REMARK 921   NORMALIZED FREE ENERGY PREDICTED BY IDOCK:   -1.61 KCAL/MOL
REMARK 922        TOTAL FREE ENERGY PREDICTED BY IDOCK:   -2.24 KCAL/MOL
REMARK 923 INTER-LIGAND FREE ENERGY PREDICTED BY IDOCK:   -2.03 KCAL/MOL
REMARK 924 INTRA-LIGAND FREE ENERGY PREDICTED BY IDOCK:   -0.21 KCAL/MOL
REMARK 927      BINDING AFFINITY PREDICTED BY RF-SCORE:    0.00 PKD
ROOT
HETATM    1  O   UNL     1      -6.010  10.416  70.259  1.00  0.00    -0.070 OA 
HETATM    2  C   UNL     1      -6.826   9.246  70.240  1.00  0.00    -0.071 C  
HETATM    3  H   UNL     1      -5.413  10.367  70.996  1.00  0.00     0.000 HD 
ENDROOT
BRANCH   2   4
HETATM    4  C   UNL     1      -7.794   9.325  69.045  1.00  0.00    -0.082 C  
BRANCH   4   5
HETATM    5  N   UNL     1      -7.147   9.303  67.715  1.00  0.00    -0.081 NA 
HETATM    6  C   UNL     1      -6.771   7.944  67.279  1.00  0.00    -0.069 C  
HETATM    7  C   UNL     1      -7.970   7.021  66.991  1.00  0.00    -0.116 C  
HETATM    8  C   UNL     1      -8.907   7.672  65.961  1.00  0.00    -0.155 C  
HETATM    9  O   UNL     1      -7.528   5.758  66.485  1.00  0.00    -0.081 OA 
HETATM   10  H   UNL     1      -8.267   5.188  66.307  1.00  0.00     0.000 HD 
HETATM   11  O   UNL     1     -10.162   6.971  65.839  1.00  0.00    -0.113 OA 
HETATM   12  C   UNL     1      -9.258   9.115  66.334  1.00  0.00    -0.183 C  
HETATM   13  O   UNL     1     -10.015   9.690  65.255  1.00  0.00    -0.396 OA 
HETATM   14  H   UNL     1     -10.741   7.373  65.203  1.00  0.00     0.000 HD 
HETATM   15  C   UNL     1      -7.979   9.930  66.642  1.00  0.00    -0.113 C  
HETATM   16  H   UNL     1     -10.232  10.585  65.487  1.00  0.00     0.000 HD 
BRANCH  15  17
HETATM   17  C   UNL     1      -8.315  11.423  66.871  1.00  0.00    -0.159 C  
HETATM   18  O   UNL     1      -7.128  12.224  66.911  1.00  0.00    -0.343 OA 
HETATM   19  H   UNL     1      -7.334  13.140  67.052  1.00  0.00     0.000 HD 
ENDBRANCH  15  17
ENDBRANCH   4   5
ENDBRANCH   2   4
TORSDOF 3
ENDMDL
MODEL      239
REMARK 921   NORMALIZED FREE ENERGY PREDICTED BY IDOCK:   -1.53 KCAL/MOL
REMARK 922        TOTAL FREE ENERGY PREDICTED BY IDOCK:   -2.14 KCAL/MOL
REMARK 923 INTER-LIGAND FREE ENERGY PREDICTED BY IDOCK:   -2.19 KCAL/MOL
REMARK 924 INTRA-LIGAND FREE ENERGY PREDICTED BY IDOCK:    0.04 KCAL/MOL
REMARK 927      BINDING AFFINITY PREDICTED BY RF-SCORE:    0.00 PKD
ROOT
HETATM    1  O   UNL     1      -8.177   6.933  65.213  1.00  0.00    -0.133 OA 
HETATM    2  C   UNL     1      -7.472   7.795  66.104  1.00  0.00    -0.079 C  
HETATM    3  H   UNL     1      -7.805   7.013  64.343  1.00  0.00     0.000 HD 
ENDROOT
BRANCH   2   4
HETATM    4  C   UNL     1      -8.073   7.664  67.515  1.00  0.00    -0.120 C  
BRANCH   4   5
HETATM    5  N   UNL     1      -9.505   7.295  67.550  1.00  0.00    -0.127 NA 
HETATM    6  C   UNL     1      -9.731   5.842  67.425  1.00  0.00    -0.117 C  
HETATM    7  C   UNL     1      -9.230   5.022  68.628  1.00  0.00    -0.122 C  
HETATM    8  C   UNL     1      -9.856   5.549  69.930  1.00  0.00    -0.194 C  
HETATM    9  O   UNL     1      -9.567   3.639  68.475  1.00  0.00    -0.162 OA 
HETATM   10  H   UNL     1      -9.258   3.133  69.217  1.00  0.00     0.000 HD 
HETATM   11  O   UNL     1      -9.238   4.983  71.104  1.00  0.00    -0.138 OA 
HETATM   12  C   UNL     1      -9.715   7.067  70.061  1.00  0.00    -0.170 C  
HETATM   13  O   UNL     1     -10.447   7.490  71.225  1.00  0.00    -0.207 OA 
HETATM   14  H   UNL     1      -9.625   5.309  71.909  1.00  0.00     0.000 HD 
HETATM   15  C   UNL     1     -10.210   7.779  68.778  1.00  0.00    -0.201 C  
HETATM   16  H   UNL     1     -10.360   8.433  71.307  1.00  0.00     0.000 HD 
BRANCH  15  17
HETATM   17  C   UNL     1     -10.213   9.315  68.962  1.00  0.00    -0.206 C  
HETATM   18  O   UNL     1      -9.236   9.726  69.926  1.00  0.00    -0.212 OA 
HETATM   19  H   UNL     1      -9.237  10.669  70.039  1.00  0.00     0.000 HD 
ENDBRANCH  15  17
ENDBRANCH   4   5
ENDBRANCH   2   4
TORSDOF 3
ENDMDL
MODEL      240
REMARK 921   NORMALIZED FREE ENERGY PREDICTED BY IDOCK:   -1.53 KCAL/MOL
REMARK 922        TOTAL FREE ENERGY PREDICTED BY IDOCK:   -2.14 KCAL/MOL
REMARK 923 INTER-LIGAND FREE ENERGY PREDICTED BY IDOCK:   -1.88 KCAL/MOL
REMARK 924 INTRA-LIGAND FREE ENERGY PREDICTED BY IDOCK:   -0.26 KCAL/MOL
REMARK 927      BINDING AFFINITY PREDICTED BY RF-SCORE:    0.00 PKD
ROOT
HETATM    1  O   UNL     1      -9.207  10.115  67.168  1.00  0.00    -0.137 OA 
HETATM    2  C   UNL     1      -9.997   8.966  67.468  1.00  0.00    -0.203 C  
HETATM    3  H   UNL     1      -9.599  10.580  66.439  1.00  0.00     0.000 HD 
ENDROOT
BRANCH   2   4
HETATM    4  C   UNL     1      -9.363   8.211  68.650  1.00  0.00    -0.143 C  
BRANCH   4   5
HETATM    5  N   UNL     1      -9.701   6.773  68.725  1.00  0.00    -0.132 NA 
HETATM    6  C   UNL     1      -8.691   5.907  68.086  1.00  0.00    -0.111 C  
HETATM    7  C   UNL     1      -7.333   5.884  68.812  1.00  0.00    -0.084 C  
HETATM    8  C   UNL     1      -7.523   5.485  70.284  1.00  0.00    -0.076 C  
HETATM    9  O   UNL     1      -6.440   4.954  68.189  1.00  0.00    -0.039 OA 
HETATM   10  H   UNL     1      -5.602   4.940  68.636  1.00  0.00     0.000 HD 
HETATM   11  O   UNL     1      -6.328   5.685  71.066  1.00  0.00    -0.032 OA 
HETATM   12  C   UNL     1      -8.622   6.305  70.965  1.00  0.00    -0.132 C  
HETATM   13  O   UNL     1      -8.831   5.774  72.284  1.00  0.00    -0.135 OA 
HETATM   14  H   UNL     1      -6.445   5.439  71.976  1.00  0.00     0.000 HD 
HETATM   15  C   UNL     1      -9.921   6.289  70.123  1.00  0.00    -0.172 C  
HETATM   16  H   UNL     1      -9.513   6.283  72.707  1.00  0.00     0.000 HD 
BRANCH  15  17
HETATM   17  C   UNL     1     -11.078   6.987  70.876  1.00  0.00    -0.267 C  
HETATM   18  O   UNL     1     -10.603   8.099  71.645  1.00  0.00    -0.215 OA 
HETATM   19  H   UNL     1     -11.313   8.527  72.108  1.00  0.00     0.000 HD 
ENDBRANCH  15  17
ENDBRANCH   4   5
ENDBRANCH   2   4
TORSDOF 3
ENDMDL
MODEL      241
REMARK 921   NORMALIZED FREE ENERGY PREDICTED BY IDOCK:   -1.48 KCAL/MOL
REMARK 922        TOTAL FREE ENERGY PREDICTED BY IDOCK:   -2.08 KCAL/MOL
REMARK 923 INTER-LIGAND FREE ENERGY PREDICTED BY IDOCK:   -2.32 KCAL/MOL
REMARK 924 INTRA-LIGAND FREE ENERGY PREDICTED BY IDOCK:    0.24 KCAL/MOL
REMARK 927      BINDING AFFINITY PREDICTED BY RF-SCORE:    0.00 PKD
ROOT
HETATM    1  O   UNL     1      -5.945  10.358  70.321  1.00  0.00    -0.070 OA 
HETATM    2  C   UNL     1      -6.526   9.055  70.321  1.00  0.00    -0.043 C  
HETATM    3  H   UNL     1      -5.465  10.484  71.130  1.00  0.00     0.000 HD 
ENDROOT
BRANCH   2   4
HETATM    4  C   UNL     1      -7.306   8.850  69.009  1.00  0.00    -0.073 C  
BRANCH   4   5
HETATM    5  N   UNL     1      -8.238   9.944  68.660  1.00  0.00    -0.105 NA 
HETATM    6  C   UNL     1      -7.562  11.108  68.055  1.00  0.00    -0.100 C  
HETATM    7  C   UNL     1      -6.962  10.835  66.663  1.00  0.00    -0.129 C  
HETATM    8  C   UNL     1      -8.044  10.294  65.714  1.00  0.00    -0.149 C  
HETATM    9  O   UNL     1      -6.409  12.031  66.105  1.00  0.00    -0.346 OA 
HETATM   10  H   UNL     1      -6.039  11.863  65.246  1.00  0.00     0.000 HD 
HETATM   11  O   UNL     1      -7.492   9.792  64.480  1.00  0.00    -0.122 OA 
HETATM   12  C   UNL     1      -8.827   9.135  66.336  1.00  0.00    -0.141 C  
HETATM   13  O   UNL     1      -9.903   8.787  65.448  1.00  0.00    -0.394 OA 
HETATM   14  H   UNL     1      -8.160   9.458  63.894  1.00  0.00     0.000 HD 
HETATM   15  C   UNL     1      -9.341   9.512  67.747  1.00  0.00    -0.127 C  
HETATM   16  H   UNL     1     -10.388   8.067  65.834  1.00  0.00     0.000 HD 
BRANCH  15  17
HETATM   17  C   UNL     1     -10.258   8.404  68.317  1.00  0.00    -0.205 C  
HETATM   18  O   UNL     1     -10.858   8.809  69.553  1.00  0.00    -0.319 OA 
HETATM   19  H   UNL     1     -11.421   8.130  69.904  1.00  0.00     0.000 HD 
ENDBRANCH  15  17
ENDBRANCH   4   5
ENDBRANCH   2   4
TORSDOF 3
ENDMDL
MODEL      242
REMARK 921   NORMALIZED FREE ENERGY PREDICTED BY IDOCK:   -1.29 KCAL/MOL
REMARK 922        TOTAL FREE ENERGY PREDICTED BY IDOCK:   -1.86 KCAL/MOL
REMARK 923 INTER-LIGAND FREE ENERGY PREDICTED BY IDOCK:   -1.70 KCAL/MOL
REMARK 924 INTRA-LIGAND FREE ENERGY PREDICTED BY IDOCK:   -0.17 KCAL/MOL
REMARK 927      BINDING AFFINITY PREDICTED BY RF-SCORE:    0.00 PKD
ROOT
HETATM    1  O   UNL     1      -8.886   5.193  63.549  1.00  0.00    -0.294 OA 
HETATM    2  C   UNL     1      -9.224   5.180  64.935  1.00  0.00     0.026 C  
HETATM    3  H   UNL     1      -9.439   4.573  63.088  1.00  0.00     0.000 HD 
ENDROOT
BRANCH   2   4
HETATM    4  C   UNL     1      -8.328   6.185  65.682  1.00  0.00    -0.146 C  
BRANCH   4   5
HETATM    5  N   UNL     1      -9.049   7.310  66.317  1.00  0.00    -0.164 NA 
HETATM    6  C   UNL     1      -9.351   7.073  67.741  1.00  0.00    -0.125 C  
HETATM    7  C   UNL     1      -8.109   7.026  68.650  1.00  0.00    -0.121 C  
HETATM    8  C   UNL     1      -7.281   8.312  68.487  1.00  0.00    -0.088 C  
HETATM    9  O   UNL     1      -8.488   6.887  70.023  1.00  0.00    -0.136 OA 
HETATM   10  H   UNL     1      -7.722   6.858  70.583  1.00  0.00     0.000 HD 
HETATM   11  O   UNL     1      -5.990   8.218  69.121  1.00  0.00    -0.037 OA 
HETATM   12  C   UNL     1      -7.013   8.640  67.016  1.00  0.00    -0.074 C  
HETATM   13  O   UNL     1      -6.364   9.922  66.950  1.00  0.00    -0.063 OA 
HETATM   14  H   UNL     1      -5.479   9.012  69.021  1.00  0.00     0.000 HD 
HETATM   15  C   UNL     1      -8.328   8.616  66.198  1.00  0.00    -0.125 C  
HETATM   16  H   UNL     1      -6.198  10.126  66.037  1.00  0.00     0.000 HD 
BRANCH  15  17
HETATM   17  C   UNL     1      -8.086   9.094  64.747  1.00  0.00    -0.140 C  
HETATM   18  O   UNL     1      -9.040  10.092  64.362  1.00  0.00    -0.208 OA 
HETATM   19  H   UNL     1      -8.892  10.386  63.471  1.00  0.00     0.000 HD 
ENDBRANCH  15  17
ENDBRANCH   4   5
ENDBRANCH   2   4
TORSDOF 3
ENDMDL
MODEL      243
REMARK 921   NORMALIZED FREE ENERGY PREDICTED BY IDOCK:   -1.28 KCAL/MOL
REMARK 922        TOTAL FREE ENERGY PREDICTED BY IDOCK:   -1.84 KCAL/MOL
REMARK 923 INTER-LIGAND FREE ENERGY PREDICTED BY IDOCK:   -1.66 KCAL/MOL
REMARK 924 INTRA-LIGAND FREE ENERGY PREDICTED BY IDOCK:   -0.18 KCAL/MOL
REMARK 927      BINDING AFFINITY PREDICTED BY RF-SCORE:    0.00 PKD
ROOT
HETATM    1  O   UNL     1      -6.835  14.475  69.424  1.00  0.00    -0.132 OA 
HETATM    2  C   UNL     1      -5.722  14.097  68.616  1.00  0.00    -0.087 C  
HETATM    3  H   UNL     1      -6.636  15.292  69.865  1.00  0.00     0.000 HD 
ENDROOT
BRANCH   2   4
HETATM    4  C   UNL     1      -6.044  12.773  67.901  1.00  0.00    -0.116 C  
BRANCH   4   5
HETATM    5  N   UNL     1      -7.173  12.011  68.477  1.00  0.00    -0.096 NA 
HETATM    6  C   UNL     1      -8.372  12.015  67.617  1.00  0.00    -0.160 C  
HETATM    7  C   UNL     1      -8.200  11.246  66.294  1.00  0.00    -0.126 C  
HETATM    8  C   UNL     1      -7.747   9.803  66.571  1.00  0.00    -0.105 C  
HETATM    9  O   UNL     1      -9.429  11.216  65.561  1.00  0.00    -0.208 OA 
HETATM   10  H   UNL     1      -9.323  10.742  64.744  1.00  0.00     0.000 HD 
HETATM   11  O   UNL     1      -7.335   9.117  65.371  1.00  0.00    -0.087 OA 
HETATM   12  C   UNL     1      -6.553   9.750  67.527  1.00  0.00    -0.069 C  
HETATM   13  O   UNL     1      -6.288   8.372  67.843  1.00  0.00    -0.054 OA 
HETATM   14  H   UNL     1      -7.056   8.225  65.543  1.00  0.00     0.000 HD 
HETATM   15  C   UNL     1      -6.826  10.591  68.797  1.00  0.00    -0.060 C  
HETATM   16  H   UNL     1      -5.547   8.338  68.436  1.00  0.00     0.000 HD 
BRANCH  15  17
HETATM   17  C   UNL     1      -5.689  10.418  69.832  1.00  0.00    -0.050 C  
HETATM   18  O   UNL     1      -6.207  10.330  71.165  1.00  0.00    -0.313 OA 
HETATM   19  H   UNL     1      -5.509  10.224  71.800  1.00  0.00     0.000 HD 
ENDBRANCH  15  17
ENDBRANCH   4   5
ENDBRANCH   2   4
TORSDOF 3
ENDMDL
MODEL      244
REMARK 921   NORMALIZED FREE ENERGY PREDICTED BY IDOCK:   -1.27 KCAL/MOL
REMARK 922        TOTAL FREE ENERGY PREDICTED BY IDOCK:   -1.83 KCAL/MOL
REMARK 923 INTER-LIGAND FREE ENERGY PREDICTED BY IDOCK:   -3.24 KCAL/MOL
REMARK 924 INTRA-LIGAND FREE ENERGY PREDICTED BY IDOCK:    1.41 KCAL/MOL
REMARK 927      BINDING AFFINITY PREDICTED BY RF-SCORE:    0.00 PKD
ROOT
HETATM    1  O   UNL     1     -11.071  14.521  69.950  1.00  0.00    -0.354 OA 
HETATM    2  C   UNL     1     -10.212  14.261  68.842  1.00  0.00    -0.200 C  
HETATM    3  H   UNL     1     -11.538  13.725  70.175  1.00  0.00     0.000 HD 
ENDROOT
BRANCH   2   4
HETATM    4  C   UNL     1      -9.455  15.551  68.477  1.00  0.00    -0.200 C  
BRANCH   4   5
HETATM    5  N   UNL     1      -8.712  15.498  67.199  1.00  0.00    -0.196 NA 
HETATM    6  C   UNL     1      -7.342  14.972  67.349  1.00  0.00    -0.201 C  
HETATM    7  C   UNL     1      -7.278  13.483  67.738  1.00  0.00    -0.154 C  
HETATM    8  C   UNL     1      -8.068  12.635  66.729  1.00  0.00     0.082 C  
HETATM    9  O   UNL     1      -5.923  13.025  67.772  1.00  0.00    -0.118 OA 
HETATM   10  H   UNL     1      -5.883  12.106  68.013  1.00  0.00     0.000 HD 
HETATM   11  O   UNL     1      -8.249  11.275  67.176  1.00  0.00    -0.137 OA 
HETATM   12  C   UNL     1      -9.471  13.194  66.482  1.00  0.00    -0.243 C  
HETATM   13  O   UNL     1     -10.083  12.431  65.428  1.00  0.00    -0.271 OA 
HETATM   14  H   UNL     1      -8.737  10.751  66.552  1.00  0.00     0.000 HD 
HETATM   15  C   UNL     1      -9.410  14.703  66.142  1.00  0.00    -0.230 C  
HETATM   16  H   UNL     1     -10.954  12.778  65.274  1.00  0.00     0.000 HD 
BRANCH  15  17
HETATM   17  C   UNL     1     -10.806  15.239  65.743  1.00  0.00    -0.358 C  
HETATM   18  O   UNL     1     -10.704  16.475  65.027  1.00  0.00    -0.662 OA 
HETATM   19  H   UNL     1     -11.561  16.804  64.782  1.00  0.00     0.000 HD 
ENDBRANCH  15  17
ENDBRANCH   4   5
ENDBRANCH   2   4
TORSDOF 3
ENDMDL
MODEL      245
REMARK 921   NORMALIZED FREE ENERGY PREDICTED BY IDOCK:   -1.24 KCAL/MOL
REMARK 922        TOTAL FREE ENERGY PREDICTED BY IDOCK:   -1.80 KCAL/MOL
REMARK 923 INTER-LIGAND FREE ENERGY PREDICTED BY IDOCK:   -3.01 KCAL/MOL
REMARK 924 INTRA-LIGAND FREE ENERGY PREDICTED BY IDOCK:    1.21 KCAL/MOL
REMARK 927      BINDING AFFINITY PREDICTED BY RF-SCORE:    0.00 PKD
ROOT
HETATM    1  O   UNL     1      -8.218   6.805  65.882  1.00  0.00    -0.119 OA 
HETATM    2  C   UNL     1      -8.306   7.776  66.924  1.00  0.00    -0.124 C  
HETATM    3  H   UNL     1      -8.826   7.035  65.190  1.00  0.00     0.000 HD 
ENDROOT
BRANCH   2   4
HETATM    4  C   UNL     1      -7.320   7.404  68.046  1.00  0.00    -0.096 C  
BRANCH   4   5
HETATM    5  N   UNL     1      -7.871   7.494  69.415  1.00  0.00    -0.118 NA 
HETATM    6  C   UNL     1      -8.071   8.885  69.867  1.00  0.00    -0.112 C  
HETATM    7  C   UNL     1      -9.172   9.643  69.103  1.00  0.00    -0.168 C  
HETATM    8  C   UNL     1     -10.497   8.865  69.168  1.00  0.00    -0.223 C  
HETATM    9  O   UNL     1      -9.370  10.947  69.658  1.00  0.00    -0.395 OA 
HETATM   10  H   UNL     1     -10.049  11.415  69.187  1.00  0.00     0.000 HD 
HETATM   11  O   UNL     1     -11.492   9.399  68.270  1.00  0.00    -0.372 OA 
HETATM   12  C   UNL     1     -10.319   7.394  68.784  1.00  0.00    -0.199 C  
HETATM   13  O   UNL     1     -11.566   6.714  69.009  1.00  0.00    -0.611 OA 
HETATM   14  H   UNL     1     -12.310   8.918  68.310  1.00  0.00     0.000 HD 
HETATM   15  C   UNL     1      -9.159   6.753  69.585  1.00  0.00    -0.143 C  
HETATM   16  H   UNL     1     -11.456   5.801  68.771  1.00  0.00     0.000 HD 
BRANCH  15  17
HETATM   17  C   UNL     1      -9.073   5.232  69.314  1.00  0.00    -0.108 C  
HETATM   18  O   UNL     1     -10.093   4.518  70.023  1.00  0.00    -0.227 OA 
HETATM   19  H   UNL     1     -10.041   3.585  69.857  1.00  0.00     0.000 HD 
ENDBRANCH  15  17
ENDBRANCH   4   5
ENDBRANCH   2   4
TORSDOF 3
ENDMDL
MODEL      246
REMARK 921   NORMALIZED FREE ENERGY PREDICTED BY IDOCK:   -0.96 KCAL/MOL
REMARK 922        TOTAL FREE ENERGY PREDICTED BY IDOCK:   -1.47 KCAL/MOL
REMARK 923 INTER-LIGAND FREE ENERGY PREDICTED BY IDOCK:   -2.30 KCAL/MOL
REMARK 924 INTRA-LIGAND FREE ENERGY PREDICTED BY IDOCK:    0.83 KCAL/MOL
REMARK 927      BINDING AFFINITY PREDICTED BY RF-SCORE:    0.00 PKD
ROOT
HETATM    1  O   UNL     1     -11.344   9.953  67.619  1.00  0.00    -0.480 OA 
HETATM    2  C   UNL     1     -10.327   9.626  68.564  1.00  0.00    -0.205 C  
HETATM    3  H   UNL     1     -11.339  10.891  67.468  1.00  0.00     0.000 HD 
ENDROOT
BRANCH   2   4
HETATM    4  C   UNL     1     -10.334   8.107  68.809  1.00  0.00    -0.202 C  
BRANCH   4   5
HETATM    5  N   UNL     1      -9.437   7.644  69.890  1.00  0.00    -0.161 NA 
HETATM    6  C   UNL     1      -9.201   6.188  69.861  1.00  0.00    -0.149 C  
HETATM    7  C   UNL     1      -8.394   5.704  68.642  1.00  0.00    -0.106 C  
HETATM    8  C   UNL     1      -7.060   6.463  68.550  1.00  0.00    -0.083 C  
HETATM    9  O   UNL     1      -8.127   4.302  68.733  1.00  0.00    -0.072 OA 
HETATM   10  H   UNL     1      -7.630   4.003  67.981  1.00  0.00     0.000 HD 
HETATM   11  O   UNL     1      -6.380   6.231  67.300  1.00  0.00    -0.034 OA 
HETATM   12  C   UNL     1      -7.252   7.978  68.658  1.00  0.00    -0.081 C  
HETATM   13  O   UNL     1      -5.955   8.596  68.708  1.00  0.00    -0.043 OA 
HETATM   14  H   UNL     1      -5.556   6.699  67.244  1.00  0.00     0.000 HD 
HETATM   15  C   UNL     1      -8.111   8.338  69.895  1.00  0.00    -0.117 C  
HETATM   16  H   UNL     1      -6.074   9.536  68.775  1.00  0.00     0.000 HD 
BRANCH  15  17
HETATM   17  C   UNL     1      -8.182   9.870  70.094  1.00  0.00    -0.136 C  
HETATM   18  O   UNL     1      -7.046  10.354  70.822  1.00  0.00    -0.431 OA 
HETATM   19  H   UNL     1      -7.089  11.294  70.944  1.00  0.00     0.000 HD 
ENDBRANCH  15  17
ENDBRANCH   4   5
ENDBRANCH   2   4
TORSDOF 3
ENDMDL
MODEL      247
REMARK 921   NORMALIZED FREE ENERGY PREDICTED BY IDOCK:   -0.88 KCAL/MOL
REMARK 922        TOTAL FREE ENERGY PREDICTED BY IDOCK:   -1.38 KCAL/MOL
REMARK 923 INTER-LIGAND FREE ENERGY PREDICTED BY IDOCK:   -2.59 KCAL/MOL
REMARK 924 INTRA-LIGAND FREE ENERGY PREDICTED BY IDOCK:    1.21 KCAL/MOL
REMARK 927      BINDING AFFINITY PREDICTED BY RF-SCORE:    0.00 PKD
ROOT
HETATM    1  O   UNL     1     -11.696  10.196  67.734  1.00  0.00    -0.594 OA 
HETATM    2  C   UNL     1     -10.292   9.949  67.702  1.00  0.00    -0.225 C  
HETATM    3  H   UNL     1     -11.847  11.109  67.949  1.00  0.00     0.000 HD 
ENDROOT
BRANCH   2   4
HETATM    4  C   UNL     1     -10.047   8.470  67.354  1.00  0.00    -0.234 C  
BRANCH   4   5
HETATM    5  N   UNL     1      -9.257   7.717  68.352  1.00  0.00    -0.140 NA 
HETATM    6  C   UNL     1      -7.952   7.263  67.833  1.00  0.00    -0.119 C  
HETATM    7  C   UNL     1      -6.960   8.403  67.538  1.00  0.00    -0.075 C  
HETATM    8  C   UNL     1      -6.764   9.275  68.790  1.00  0.00    -0.053 C  
HETATM    9  O   UNL     1      -5.692   7.881  67.130  1.00  0.00    -0.035 OA 
HETATM   10  H   UNL     1      -5.080   8.584  66.948  1.00  0.00     0.000 HD 
HETATM   11  O   UNL     1      -6.044  10.491  68.504  1.00  0.00    -0.044 OA 
HETATM   12  C   UNL     1      -8.097   9.701  69.409  1.00  0.00    -0.118 C  
HETATM   13  O   UNL     1      -7.824  10.385  70.643  1.00  0.00    -0.328 OA 
HETATM   14  H   UNL     1      -5.922  11.030  69.277  1.00  0.00     0.000 HD 
HETATM   15  C   UNL     1      -9.023   8.478  69.618  1.00  0.00    -0.145 C  
HETATM   16  H   UNL     1      -8.652  10.650  71.028  1.00  0.00     0.000 HD 
BRANCH  15  17
HETATM   17  C   UNL     1     -10.308   8.880  70.380  1.00  0.00    -0.204 C  
HETATM   18  O   UNL     1     -10.118   8.802  71.798  1.00  0.00    -0.277 OA 
HETATM   19  H   UNL     1     -10.907   9.049  72.267  1.00  0.00     0.000 HD 
ENDBRANCH  15  17
ENDBRANCH   4   5
ENDBRANCH   2   4
TORSDOF 3
ENDMDL
MODEL      248
REMARK 921   NORMALIZED FREE ENERGY PREDICTED BY IDOCK:   -0.64 KCAL/MOL
REMARK 922        TOTAL FREE ENERGY PREDICTED BY IDOCK:   -1.09 KCAL/MOL
REMARK 923 INTER-LIGAND FREE ENERGY PREDICTED BY IDOCK:   -2.36 KCAL/MOL
REMARK 924 INTRA-LIGAND FREE ENERGY PREDICTED BY IDOCK:    1.27 KCAL/MOL
REMARK 927      BINDING AFFINITY PREDICTED BY RF-SCORE:    0.00 PKD
ROOT
HETATM    1  O   UNL     1     -12.280  11.896  65.950  1.00  0.00    -0.435 OA 
HETATM    2  C   UNL     1     -11.618  12.779  66.853  1.00  0.00    -0.366 C  
HETATM    3  H   UNL     1     -11.892  11.985  65.088  1.00  0.00     0.000 HD 
ENDROOT
BRANCH   2   4
HETATM    4  C   UNL     1     -12.245  12.636  68.251  1.00  0.00     0.112 C  
BRANCH   4   5
HETATM    5  N   UNL     1     -11.277  12.590  69.368  1.00  0.00    -0.194 NA 
HETATM    6  C   UNL     1     -11.255  11.286  70.060  1.00  0.00    -0.132 C  
HETATM    7  C   UNL     1     -10.707  10.129  69.205  1.00  0.00    -0.226 C  
HETATM    8  C   UNL     1      -9.306  10.475  68.674  1.00  0.00    -0.172 C  
HETATM    9  O   UNL     1     -10.630   8.923  69.972  1.00  0.00    -0.210 OA 
HETATM   10  H   UNL     1     -10.292   8.209  69.445  1.00  0.00     0.000 HD 
HETATM   11  O   UNL     1      -8.851   9.541  67.674  1.00  0.00    -0.119 OA 
HETATM   12  C   UNL     1      -9.266  11.858  68.019  1.00  0.00    -0.190 C  
HETATM   13  O   UNL     1      -7.900  12.159  67.683  1.00  0.00    -0.131 OA 
HETATM   14  H   UNL     1      -7.986   9.755  67.346  1.00  0.00     0.000 HD 
HETATM   15  C   UNL     1      -9.880  12.928  68.954  1.00  0.00     0.152 C  
HETATM   16  H   UNL     1      -7.875  13.017  67.276  1.00  0.00     0.000 HD 
BRANCH  15  17
HETATM   17  C   UNL     1      -9.704  14.347  68.363  1.00  0.00    -0.226 C  
HETATM   18  O   UNL     1     -10.209  15.349  69.254  1.00  0.00    -0.221 OA 
HETATM   19  H   UNL     1     -10.102  16.220  68.891  1.00  0.00     0.000 HD 
ENDBRANCH  15  17
ENDBRANCH   4   5
ENDBRANCH   2   4
TORSDOF 3
ENDMDL
MODEL      249
REMARK 921   NORMALIZED FREE ENERGY PREDICTED BY IDOCK:    0.38 KCAL/MOL
REMARK 922        TOTAL FREE ENERGY PREDICTED BY IDOCK:    0.11 KCAL/MOL
REMARK 923 INTER-LIGAND FREE ENERGY PREDICTED BY IDOCK:   -3.39 KCAL/MOL
REMARK 924 INTRA-LIGAND FREE ENERGY PREDICTED BY IDOCK:    3.50 KCAL/MOL
REMARK 927      BINDING AFFINITY PREDICTED BY RF-SCORE:    0.00 PKD
ROOT
HETATM    1  O   UNL     1     -13.761  15.297  70.156  1.00  0.00    -0.339 OA 
HETATM    2  C   UNL     1     -14.150  15.696  71.469  1.00  0.00    -0.215 C  
HETATM    3  H   UNL     1     -13.632  16.071  69.621  1.00  0.00     0.000 HD 
ENDROOT
BRANCH   2   4
HETATM    4  C   UNL     1     -14.359  14.442  72.337  1.00  0.00    -0.289 C  
BRANCH   4   5
HETATM    5  N   UNL     1     -13.116  13.748  72.739  1.00  0.00    -0.420 NA 
HETATM    6  C   UNL     1     -13.076  12.338  72.306  1.00  0.00    -0.157 C  
HETATM    7  C   UNL     1     -12.986  12.150  70.781  1.00  0.00     0.099 C  
HETATM    8  C   UNL     1     -11.776  12.914  70.220  1.00  0.00    -0.107 C  
HETATM    9  O   UNL     1     -12.857  10.764  70.447  1.00  0.00    -0.313 OA 
HETATM   10  H   UNL     1     -12.802  10.647  69.505  1.00  0.00     0.000 HD 
HETATM   11  O   UNL     1     -11.785  12.977  68.779  1.00  0.00    -0.285 OA 
HETATM   12  C   UNL     1     -11.734  14.364  70.711  1.00  0.00    -0.236 C  
HETATM   13  O   UNL     1     -10.505  14.959  70.259  1.00  0.00    -0.478 OA 
HETATM   14  H   UNL     1     -11.037  13.449  68.432  1.00  0.00     0.000 HD 
HETATM   15  C   UNL     1     -11.875  14.427  72.251  1.00  0.00     0.229 C  
HETATM   16  H   UNL     1     -10.479  15.858  70.564  1.00  0.00     0.000 HD 
BRANCH  15  17
HETATM   17  C   UNL     1     -11.682  15.873  72.766  1.00  0.00    -0.392 C  
HETATM   18  O   UNL     1     -11.499  16.792  71.682  1.00  0.00    -0.490 OA 
HETATM   19  H   UNL     1     -11.381  17.680  71.998  1.00  0.00     0.000 HD 
ENDBRANCH  15  17
ENDBRANCH   4   5
ENDBRANCH   2   4
TORSDOF 3
ENDMDL
MODEL      250
REMARK 921   NORMALIZED FREE ENERGY PREDICTED BY IDOCK:   17.41 KCAL/MOL
REMARK 922        TOTAL FREE ENERGY PREDICTED BY IDOCK:   20.12 KCAL/MOL
REMARK 923 INTER-LIGAND FREE ENERGY PREDICTED BY IDOCK:   20.01 KCAL/MOL
REMARK 924 INTRA-LIGAND FREE ENERGY PREDICTED BY IDOCK:    0.12 KCAL/MOL
REMARK 927      BINDING AFFINITY PREDICTED BY RF-SCORE:    0.00 PKD
ROOT
HETATM    1  O   UNL     1     -11.355  20.541  69.322  1.00  0.00     0.814 OA 
HETATM    2  C   UNL     1     -10.494  20.292  70.432  1.00  0.00     1.362 C  
HETATM    3  H   UNL     1     -12.068  21.103  69.601  1.00  0.00     0.000 HD 
ENDROOT
BRANCH   2   4
HETATM    4  C   UNL     1      -9.339  19.381  69.981  1.00  0.00     0.829 C  
BRANCH   4   5
HETATM    5  N   UNL     1      -9.445  17.973  70.422  1.00  0.00     2.408 NA 
HETATM    6  C   UNL     1     -10.063  17.095  69.410  1.00  0.00    -0.116 C  
HETATM    7  C   UNL     1      -9.209  16.897  68.143  1.00  0.00    -0.234 C  
HETATM    8  C   UNL     1      -7.812  16.378  68.519  1.00  0.00    -0.197 C  
HETATM    9  O   UNL     1      -9.830  15.963  67.254  1.00  0.00    -0.230 OA 
HETATM   10  H   UNL     1      -9.303  15.841  66.472  1.00  0.00     0.000 HD 
HETATM   11  O   UNL     1      -6.896  16.409  67.405  1.00  0.00    -0.136 OA 
HETATM   12  C   UNL     1      -7.166  17.214  69.627  1.00  0.00     0.279 C  
HETATM   13  O   UNL     1      -5.936  16.580  70.013  1.00  0.00    -0.209 OA 
HETATM   14  H   UNL     1      -6.033  16.088  67.637  1.00  0.00     0.000 HD 
HETATM   15  C   UNL     1      -8.133  17.379  70.825  1.00  0.00     5.322 C  
HETATM   16  H   UNL     1      -5.535  17.098  70.701  1.00  0.00     0.000 HD 
BRANCH  15  17
HETATM   17  C   UNL     1      -7.433  18.092  72.007  1.00  0.00     8.999 C  
HETATM   18  O   UNL     1      -6.900  19.360  71.608  1.00  0.00     1.117 OA 
HETATM   19  H   UNL     1      -6.471  19.798  72.334  1.00  0.00     0.000 HD 
ENDBRANCH  15  17
ENDBRANCH   4   5
ENDBRANCH   2   4
TORSDOF 3
ENDMDL
