MODEL        1
REMARK 921   NORMALIZED FREE ENERGY PREDICTED BY IDOCK:   -5.58 KCAL/MOL
REMARK 922        TOTAL FREE ENERGY PREDICTED BY IDOCK:   -7.37 KCAL/MOL
REMARK 923 INTER-LIGAND FREE ENERGY PREDICTED BY IDOCK:   -6.88 KCAL/MOL
REMARK 924 INTRA-LIGAND FREE ENERGY PREDICTED BY IDOCK:   -0.49 KCAL/MOL
REMARK 927      BINDING AFFINITY PREDICTED BY RF-SCORE:    0.00 PKD
ROOT
HETATM    1  C   UNL     1     -11.702  11.356  69.255  1.00  0.00    -0.404 C  
HETATM    2  C   UNL     1     -11.463  11.646  67.781  1.00  0.00    -0.373 C  
ENDROOT
BRANCH   2   3
HETATM    3  C   UNL     1     -10.024  12.103  67.515  1.00  0.00    -0.202 C  
BRANCH   3   4
HETATM    4  C   UNL     1      -9.957  13.468  66.797  1.00  0.00    -0.269 C  
BRANCH   4   5
HETATM    5  N   UNL     1     -11.232  14.207  66.803  1.00  0.00    -0.313 NA 
HETATM    6  C   UNL     1     -11.284  15.267  67.825  1.00  0.00    -0.326 C  
HETATM    7  C   UNL     1     -10.409  16.492  67.502  1.00  0.00    -0.294 C  
HETATM    8  C   UNL     1     -10.884  17.098  66.177  1.00  0.00     0.026 C  
HETATM    9  O   UNL     1     -10.480  17.477  68.537  1.00  0.00    -0.362 OA 
HETATM   10  H   UNL     1      -9.940  18.233  68.338  1.00  0.00     0.000 HD 
HETATM   11  C   UNL     1     -10.885  16.045  65.067  1.00  0.00    -0.404 C  
HETATM   12  O   UNL     1     -10.027  18.160  65.716  1.00  0.00    -0.547 OA 
HETATM   13  C   UNL     1     -11.645  14.758  65.478  1.00  0.00    -0.301 C  
HETATM   14  H   UNL     1     -10.322  18.535  64.895  1.00  0.00     0.000 HD 
HETATM   15  O   UNL     1     -11.476  16.633  63.890  1.00  0.00    -1.604 OA 
HETATM   16  H   UNL     1     -11.477  15.980  63.201  1.00  0.00     0.000 HD 
BRANCH  13  17
HETATM   17  C   UNL     1     -11.610  13.742  64.306  1.00  0.00    -0.369 C  
HETATM   18  O   UNL     1     -12.535  14.089  63.276  1.00  0.00    -1.139 OA 
HETATM   19  H   UNL     1     -12.514  13.467  62.559  1.00  0.00     0.000 HD 
ENDBRANCH  13  17
ENDBRANCH   4   5
ENDBRANCH   3   4
ENDBRANCH   2   3
TORSDOF 4
ENDMDL
MODEL        2
REMARK 921   NORMALIZED FREE ENERGY PREDICTED BY IDOCK:   -5.54 KCAL/MOL
REMARK 922        TOTAL FREE ENERGY PREDICTED BY IDOCK:   -7.33 KCAL/MOL
REMARK 923 INTER-LIGAND FREE ENERGY PREDICTED BY IDOCK:   -6.90 KCAL/MOL
REMARK 924 INTRA-LIGAND FREE ENERGY PREDICTED BY IDOCK:   -0.43 KCAL/MOL
REMARK 927      BINDING AFFINITY PREDICTED BY RF-SCORE:    0.00 PKD
ROOT
HETATM    1  C   UNL     1     -12.185  12.480  70.240  1.00  0.00    -0.345 C  
HETATM    2  C   UNL     1     -11.542  11.831  69.023  1.00  0.00    -0.372 C  
ENDROOT
BRANCH   2   3
HETATM    3  C   UNL     1     -10.642  12.810  68.261  1.00  0.00    -0.251 C  
BRANCH   3   4
HETATM    4  C   UNL     1     -11.330  13.401  67.011  1.00  0.00    -0.317 C  
BRANCH   4   5
HETATM    5  N   UNL     1     -10.448  13.488  65.834  1.00  0.00    -0.286 NA 
HETATM    6  C   UNL     1      -9.913  12.182  65.412  1.00  0.00    -0.246 C  
HETATM    7  C   UNL     1     -10.954  11.263  64.746  1.00  0.00    -0.192 C  
HETATM    8  C   UNL     1     -11.502  11.966  63.500  1.00  0.00    -0.430 C  
HETATM    9  O   UNL     1     -10.384  10.003  64.379  1.00  0.00    -0.376 OA 
HETATM   10  H   UNL     1     -11.027   9.436  63.968  1.00  0.00     0.000 HD 
HETATM   11  C   UNL     1     -12.054  13.349  63.854  1.00  0.00    -0.455 C  
HETATM   12  O   UNL     1     -12.594  11.248  62.895  1.00  0.00    -0.917 OA 
HETATM   13  C   UNL     1     -11.038  14.199  64.660  1.00  0.00    -0.371 C  
HETATM   14  H   UNL     1     -12.933  11.683  62.122  1.00  0.00     0.000 HD 
HETATM   15  O   UNL     1     -12.418  14.015  62.629  1.00  0.00    -0.599 OA 
HETATM   16  H   UNL     1     -12.761  14.873  62.848  1.00  0.00     0.000 HD 
BRANCH  13  17
HETATM   17  C   UNL     1     -11.660  15.583  64.977  1.00  0.00    -0.133 C  
HETATM   18  O   UNL     1     -11.533  16.486  63.879  1.00  0.00    -1.608 OA 
HETATM   19  H   UNL     1     -11.914  17.334  64.073  1.00  0.00     0.000 HD 
ENDBRANCH  13  17
ENDBRANCH   4   5
ENDBRANCH   3   4
ENDBRANCH   2   3
TORSDOF 4
ENDMDL
MODEL        3
REMARK 921   NORMALIZED FREE ENERGY PREDICTED BY IDOCK:   -5.54 KCAL/MOL
REMARK 922        TOTAL FREE ENERGY PREDICTED BY IDOCK:   -7.33 KCAL/MOL
REMARK 923 INTER-LIGAND FREE ENERGY PREDICTED BY IDOCK:   -7.03 KCAL/MOL
REMARK 924 INTRA-LIGAND FREE ENERGY PREDICTED BY IDOCK:   -0.30 KCAL/MOL
REMARK 927      BINDING AFFINITY PREDICTED BY RF-SCORE:    0.00 PKD
ROOT
HETATM    1  C   UNL     1     -11.843  15.852  71.709  1.00  0.00    -0.579 C  
HETATM    2  C   UNL     1     -12.288  15.581  70.279  1.00  0.00    -0.431 C  
ENDROOT
BRANCH   2   3
HETATM    3  C   UNL     1     -11.167  14.956  69.441  1.00  0.00    -0.302 C  
BRANCH   3   4
HETATM    4  C   UNL     1     -11.614  14.625  68.000  1.00  0.00    -0.340 C  
BRANCH   4   5
HETATM    5  N   UNL     1     -10.510  14.610  67.024  1.00  0.00    -0.267 NA 
HETATM    6  C   UNL     1     -10.418  13.347  66.272  1.00  0.00    -0.289 C  
HETATM    7  C   UNL     1     -11.535  13.154  65.230  1.00  0.00    -0.301 C  
HETATM    8  C   UNL     1     -11.466  14.305  64.219  1.00  0.00    -0.242 C  
HETATM    9  O   UNL     1     -11.409  11.903  64.548  1.00  0.00    -0.329 OA 
HETATM   10  H   UNL     1     -12.098  11.785  63.905  1.00  0.00     0.000 HD 
HETATM   11  C   UNL     1     -11.529  15.658  64.931  1.00  0.00    -0.245 C  
HETATM   12  O   UNL     1     -12.569  14.293  63.293  1.00  0.00    -1.069 OA 
HETATM   13  C   UNL     1     -10.493  15.767  66.080  1.00  0.00    -0.338 C  
HETATM   14  H   UNL     1     -12.526  15.006  62.667  1.00  0.00     0.000 HD 
HETATM   15  O   UNL     1     -11.314  16.692  63.950  1.00  0.00    -1.558 OA 
HETATM   16  H   UNL     1     -11.352  17.532  64.391  1.00  0.00     0.000 HD 
BRANCH  13  17
HETATM   17  C   UNL     1     -10.608  17.161  66.748  1.00  0.00    -0.192 C  
HETATM   18  O   UNL     1     -10.116  18.198  65.901  1.00  0.00    -0.546 OA 
HETATM   19  H   UNL     1     -10.187  19.052  66.311  1.00  0.00     0.000 HD 
ENDBRANCH  13  17
ENDBRANCH   4   5
ENDBRANCH   3   4
ENDBRANCH   2   3
TORSDOF 4
ENDMDL
MODEL        4
REMARK 921   NORMALIZED FREE ENERGY PREDICTED BY IDOCK:   -5.49 KCAL/MOL
REMARK 922        TOTAL FREE ENERGY PREDICTED BY IDOCK:   -7.27 KCAL/MOL
REMARK 923 INTER-LIGAND FREE ENERGY PREDICTED BY IDOCK:   -6.75 KCAL/MOL
REMARK 924 INTRA-LIGAND FREE ENERGY PREDICTED BY IDOCK:   -0.52 KCAL/MOL
REMARK 927      BINDING AFFINITY PREDICTED BY RF-SCORE:    0.00 PKD
ROOT
HETATM    1  C   UNL     1     -12.367  13.928  69.969  1.00  0.00    -0.378 C  
HETATM    2  C   UNL     1     -11.617  12.615  69.794  1.00  0.00    -0.285 C  
ENDROOT
BRANCH   2   3
HETATM    3  C   UNL     1     -11.754  12.066  68.369  1.00  0.00    -0.390 C  
BRANCH   3   4
HETATM    4  C   UNL     1     -11.869  13.183  67.309  1.00  0.00    -0.367 C  
BRANCH   4   5
HETATM    5  N   UNL     1     -10.753  13.204  66.346  1.00  0.00    -0.282 NA 
HETATM    6  C   UNL     1     -11.184  12.998  64.953  1.00  0.00    -0.302 C  
HETATM    7  C   UNL     1     -11.927  14.200  64.342  1.00  0.00    -0.457 C  
HETATM    8  C   UNL     1     -10.993  15.415  64.365  1.00  0.00    -0.031 C  
HETATM    9  O   UNL     1     -12.341  13.935  62.998  1.00  0.00    -1.101 OA 
HETATM   10  H   UNL     1     -12.799  14.677  62.621  1.00  0.00     0.000 HD 
HETATM   11  C   UNL     1     -10.478  15.678  65.782  1.00  0.00    -0.366 C  
HETATM   12  O   UNL     1     -11.653  16.627  63.952  1.00  0.00    -1.582 OA 
HETATM   13  C   UNL     1      -9.873  14.408  66.433  1.00  0.00    -0.295 C  
HETATM   14  H   UNL     1     -11.074  17.380  63.966  1.00  0.00     0.000 HD 
HETATM   15  O   UNL     1      -9.498  16.734  65.715  1.00  0.00    -0.507 OA 
HETATM   16  H   UNL     1      -9.178  16.897  66.594  1.00  0.00     0.000 HD 
BRANCH  13  17
HETATM   17  C   UNL     1      -9.368  14.750  67.858  1.00  0.00    -0.193 C  
HETATM   18  O   UNL     1      -9.965  15.944  68.361  1.00  0.00    -0.217 OA 
HETATM   19  H   UNL     1      -9.655  16.153  69.234  1.00  0.00     0.000 HD 
ENDBRANCH  13  17
ENDBRANCH   4   5
ENDBRANCH   3   4
ENDBRANCH   2   3
TORSDOF 4
ENDMDL
MODEL        5
REMARK 921   NORMALIZED FREE ENERGY PREDICTED BY IDOCK:   -5.45 KCAL/MOL
REMARK 922        TOTAL FREE ENERGY PREDICTED BY IDOCK:   -7.22 KCAL/MOL
REMARK 923 INTER-LIGAND FREE ENERGY PREDICTED BY IDOCK:   -6.99 KCAL/MOL
REMARK 924 INTRA-LIGAND FREE ENERGY PREDICTED BY IDOCK:   -0.23 KCAL/MOL
REMARK 927      BINDING AFFINITY PREDICTED BY RF-SCORE:    0.00 PKD
ROOT
HETATM    1  C   UNL     1      -9.664  18.476  68.686  1.00  0.00    -0.398 C  
HETATM    2  C   UNL     1      -9.484  16.965  68.677  1.00  0.00    -0.268 C  
ENDROOT
BRANCH   2   3
HETATM    3  C   UNL     1     -10.762  16.235  69.106  1.00  0.00    -0.305 C  
BRANCH   3   4
HETATM    4  C   UNL     1     -11.521  15.613  67.914  1.00  0.00    -0.251 C  
BRANCH   4   5
HETATM    5  N   UNL     1     -10.650  14.904  66.960  1.00  0.00    -0.283 NA 
HETATM    6  C   UNL     1     -10.578  13.454  67.204  1.00  0.00    -0.259 C  
HETATM    7  C   UNL     1     -11.860  12.690  66.824  1.00  0.00    -0.370 C  
HETATM    8  C   UNL     1     -12.129  12.897  65.330  1.00  0.00    -0.453 C  
HETATM    9  O   UNL     1     -11.742  11.292  67.105  1.00  0.00    -0.533 OA 
HETATM   10  H   UNL     1     -12.533  10.821  66.870  1.00  0.00     0.000 HD 
HETATM   11  C   UNL     1     -12.189  14.388  64.990  1.00  0.00    -0.414 C  
HETATM   12  O   UNL     1     -13.392  12.345  64.914  1.00  0.00    -0.623 OA 
HETATM   13  C   UNL     1     -10.955  15.163  65.521  1.00  0.00    -0.365 C  
HETATM   14  H   UNL     1     -13.559  12.474  63.988  1.00  0.00     0.000 HD 
HETATM   15  O   UNL     1     -12.298  14.519  63.559  1.00  0.00    -1.081 OA 
HETATM   16  H   UNL     1     -12.335  15.444  63.347  1.00  0.00     0.000 HD 
BRANCH  13  17
HETATM   17  C   UNL     1     -11.081  16.659  65.135  1.00  0.00    -0.081 C  
HETATM   18  O   UNL     1     -11.305  16.830  63.737  1.00  0.00    -1.303 OA 
HETATM   19  H   UNL     1     -11.382  17.747  63.501  1.00  0.00     0.000 HD 
ENDBRANCH  13  17
ENDBRANCH   4   5
ENDBRANCH   3   4
ENDBRANCH   2   3
TORSDOF 4
ENDMDL
MODEL        6
REMARK 921   NORMALIZED FREE ENERGY PREDICTED BY IDOCK:   -5.40 KCAL/MOL
REMARK 922        TOTAL FREE ENERGY PREDICTED BY IDOCK:   -7.15 KCAL/MOL
REMARK 923 INTER-LIGAND FREE ENERGY PREDICTED BY IDOCK:   -6.80 KCAL/MOL
REMARK 924 INTRA-LIGAND FREE ENERGY PREDICTED BY IDOCK:   -0.36 KCAL/MOL
REMARK 927      BINDING AFFINITY PREDICTED BY RF-SCORE:    0.00 PKD
ROOT
HETATM    1  C   UNL     1     -12.363  10.993  70.427  1.00  0.00    -0.442 C  
HETATM    2  C   UNL     1     -11.730  11.747  69.267  1.00  0.00    -0.398 C  
ENDROOT
BRANCH   2   3
HETATM    3  C   UNL     1     -11.893  13.264  69.415  1.00  0.00    -0.386 C  
BRANCH   3   4
HETATM    4  C   UNL     1     -12.011  13.986  68.055  1.00  0.00    -0.350 C  
BRANCH   4   5
HETATM    5  N   UNL     1     -10.983  13.584  67.078  1.00  0.00    -0.285 NA 
HETATM    6  C   UNL     1     -11.540  13.219  65.765  1.00  0.00    -0.337 C  
HETATM    7  C   UNL     1     -12.056  14.418  64.947  1.00  0.00    -0.436 C  
HETATM    8  C   UNL     1     -10.890  15.384  64.706  1.00  0.00    -0.364 C  
HETATM    9  O   UNL     1     -12.606  14.003  63.694  1.00  0.00    -0.899 OA 
HETATM   10  H   UNL     1     -12.924  14.743  63.189  1.00  0.00     0.000 HD 
HETATM   11  C   UNL     1     -10.237  15.789  66.030  1.00  0.00    -0.333 C  
HETATM   12  O   UNL     1     -11.309  16.611  64.080  1.00  0.00    -1.419 OA 
HETATM   13  C   UNL     1      -9.868  14.562  66.903  1.00  0.00    -0.262 C  
HETATM   14  H   UNL     1     -10.587  17.210  63.931  1.00  0.00     0.000 HD 
HETATM   15  O   UNL     1      -9.067  16.575  65.732  1.00  0.00    -0.487 OA 
HETATM   16  H   UNL     1      -8.661  16.826  66.553  1.00  0.00     0.000 HD 
BRANCH  13  17
HETATM   17  C   UNL     1      -9.207  15.046  68.220  1.00  0.00    -0.184 C  
HETATM   18  O   UNL     1      -9.581  16.386  68.540  1.00  0.00    -0.215 OA 
HETATM   19  H   UNL     1      -9.176  16.682  69.346  1.00  0.00     0.000 HD 
ENDBRANCH  13  17
ENDBRANCH   4   5
ENDBRANCH   3   4
ENDBRANCH   2   3
TORSDOF 4
ENDMDL
MODEL        7
REMARK 921   NORMALIZED FREE ENERGY PREDICTED BY IDOCK:   -5.37 KCAL/MOL
REMARK 922        TOTAL FREE ENERGY PREDICTED BY IDOCK:   -7.12 KCAL/MOL
REMARK 923 INTER-LIGAND FREE ENERGY PREDICTED BY IDOCK:   -6.73 KCAL/MOL
REMARK 924 INTRA-LIGAND FREE ENERGY PREDICTED BY IDOCK:   -0.38 KCAL/MOL
REMARK 927      BINDING AFFINITY PREDICTED BY RF-SCORE:    0.00 PKD
ROOT
HETATM    1  C   UNL     1     -12.323  11.902  70.693  1.00  0.00    -0.405 C  
HETATM    2  C   UNL     1     -11.829  12.083  69.265  1.00  0.00    -0.377 C  
ENDROOT
BRANCH   2   3
HETATM    3  C   UNL     1     -11.197  13.462  69.049  1.00  0.00    -0.323 C  
BRANCH   3   4
HETATM    4  C   UNL     1     -11.615  14.105  67.709  1.00  0.00    -0.347 C  
BRANCH   4   5
HETATM    5  N   UNL     1     -10.533  14.152  66.710  1.00  0.00    -0.275 NA 
HETATM    6  C   UNL     1     -10.416  12.914  65.921  1.00  0.00    -0.279 C  
HETATM    7  C   UNL     1     -11.549  12.714  64.897  1.00  0.00    -0.334 C  
HETATM    8  C   UNL     1     -11.539  13.892  63.918  1.00  0.00    -0.127 C  
HETATM    9  O   UNL     1     -11.398  11.486  64.178  1.00  0.00    -0.342 OA 
HETATM   10  H   UNL     1     -12.097  11.363  63.547  1.00  0.00     0.000 HD 
HETATM   11  C   UNL     1     -11.628  15.224  64.668  1.00  0.00    -0.333 C  
HETATM   12  O   UNL     1     -12.660  13.871  63.015  1.00  0.00    -1.030 OA 
HETATM   13  C   UNL     1     -10.572  15.335  65.798  1.00  0.00    -0.347 C  
HETATM   14  H   UNL     1     -12.653  14.601  62.408  1.00  0.00     0.000 HD 
HETATM   15  O   UNL     1     -11.468  16.290  63.712  1.00  0.00    -1.475 OA 
HETATM   16  H   UNL     1     -11.523  17.116  64.177  1.00  0.00     0.000 HD 
BRANCH  13  17
HETATM   17  C   UNL     1     -10.717  16.706  66.507  1.00  0.00    -0.127 C  
HETATM   18  O   UNL     1     -10.318  17.785  65.663  1.00  0.00    -0.612 OA 
HETATM   19  H   UNL     1     -10.407  18.624  66.098  1.00  0.00     0.000 HD 
ENDBRANCH  13  17
ENDBRANCH   4   5
ENDBRANCH   3   4
ENDBRANCH   2   3
TORSDOF 4
ENDMDL
MODEL        8
REMARK 921   NORMALIZED FREE ENERGY PREDICTED BY IDOCK:   -5.36 KCAL/MOL
REMARK 922        TOTAL FREE ENERGY PREDICTED BY IDOCK:   -7.10 KCAL/MOL
REMARK 923 INTER-LIGAND FREE ENERGY PREDICTED BY IDOCK:   -6.69 KCAL/MOL
REMARK 924 INTRA-LIGAND FREE ENERGY PREDICTED BY IDOCK:   -0.41 KCAL/MOL
REMARK 927      BINDING AFFINITY PREDICTED BY RF-SCORE:    0.00 PKD
ROOT
HETATM    1  C   UNL     1      -8.050  17.458  67.480  1.00  0.00    -0.205 C  
HETATM    2  C   UNL     1      -7.672  16.085  66.944  1.00  0.00    -0.279 C  
ENDROOT
BRANCH   2   3
HETATM    3  C   UNL     1      -8.374  14.960  67.712  1.00  0.00    -0.163 C  
BRANCH   3   4
HETATM    4  C   UNL     1      -9.387  14.186  66.839  1.00  0.00    -0.264 C  
BRANCH   4   5
HETATM    5  N   UNL     1     -10.774  14.665  66.972  1.00  0.00    -0.285 NA 
HETATM    6  C   UNL     1     -11.068  15.834  66.125  1.00  0.00    -0.078 C  
HETATM    7  C   UNL     1     -11.170  15.510  64.623  1.00  0.00    -0.371 C  
HETATM    8  C   UNL     1     -12.296  14.490  64.418  1.00  0.00    -0.413 C  
HETATM    9  O   UNL     1     -11.433  16.683  63.849  1.00  0.00    -1.604 OA 
HETATM   10  H   UNL     1     -11.496  16.483  62.922  1.00  0.00     0.000 HD 
HETATM   11  C   UNL     1     -12.075  13.253  65.291  1.00  0.00    -0.418 C  
HETATM   12  O   UNL     1     -12.366  14.011  63.062  1.00  0.00    -1.101 OA 
HETATM   13  C   UNL     1     -11.821  13.618  66.776  1.00  0.00    -0.413 C  
HETATM   14  H   UNL     1     -13.064  13.379  62.934  1.00  0.00     0.000 HD 
HETATM   15  O   UNL     1     -13.232  12.402  65.165  1.00  0.00    -0.458 OA 
HETATM   16  H   UNL     1     -13.095  11.634  65.706  1.00  0.00     0.000 HD 
BRANCH  13  17
HETATM   17  C   UNL     1     -11.613  12.320  67.598  1.00  0.00    -0.354 C  
HETATM   18  O   UNL     1     -11.226  11.224  66.771  1.00  0.00    -0.286 OA 
HETATM   19  H   UNL     1     -11.099  10.429  67.275  1.00  0.00     0.000 HD 
ENDBRANCH  13  17
ENDBRANCH   4   5
ENDBRANCH   3   4
ENDBRANCH   2   3
TORSDOF 4
ENDMDL
MODEL        9
REMARK 921   NORMALIZED FREE ENERGY PREDICTED BY IDOCK:   -5.31 KCAL/MOL
REMARK 922        TOTAL FREE ENERGY PREDICTED BY IDOCK:   -7.04 KCAL/MOL
REMARK 923 INTER-LIGAND FREE ENERGY PREDICTED BY IDOCK:   -6.73 KCAL/MOL
REMARK 924 INTRA-LIGAND FREE ENERGY PREDICTED BY IDOCK:   -0.31 KCAL/MOL
REMARK 927      BINDING AFFINITY PREDICTED BY RF-SCORE:    0.00 PKD
ROOT
HETATM    1  C   UNL     1      -9.487  10.047  64.763  1.00  0.00    -0.366 C  
HETATM    2  C   UNL     1      -9.477  10.879  63.488  1.00  0.00    -0.322 C  
ENDROOT
BRANCH   2   3
HETATM    3  C   UNL     1     -10.665  11.844  63.427  1.00  0.00    -0.476 C  
BRANCH   3   4
HETATM    4  C   UNL     1     -10.444  13.114  64.278  1.00  0.00    -0.389 C  
BRANCH   4   5
HETATM    5  N   UNL     1     -11.663  13.597  64.952  1.00  0.00    -0.345 NA 
HETATM    6  C   UNL     1     -12.286  12.583  65.820  1.00  0.00    -0.292 C  
HETATM    7  C   UNL     1     -11.504  12.302  67.117  1.00  0.00    -0.352 C  
HETATM    8  C   UNL     1     -11.403  13.604  67.919  1.00  0.00    -0.295 C  
HETATM    9  O   UNL     1     -12.142  11.295  67.908  1.00  0.00    -0.634 OA 
HETATM   10  H   UNL     1     -11.659  11.123  68.709  1.00  0.00     0.000 HD 
HETATM   11  C   UNL     1     -10.788  14.720  67.071  1.00  0.00    -0.315 C  
HETATM   12  O   UNL     1     -10.556  13.475  69.078  1.00  0.00    -0.362 OA 
HETATM   13  C   UNL     1     -11.499  14.878  65.702  1.00  0.00    -0.290 C  
HETATM   14  H   UNL     1     -10.494  14.282  69.575  1.00  0.00     0.000 HD 
HETATM   15  O   UNL     1     -10.853  15.946  67.825  1.00  0.00    -0.311 OA 
HETATM   16  H   UNL     1     -10.471  16.638  67.299  1.00  0.00     0.000 HD 
BRANCH  13  17
HETATM   17  C   UNL     1     -10.830  16.025  64.903  1.00  0.00    -0.372 C  
HETATM   18  O   UNL     1     -11.624  16.428  63.788  1.00  0.00    -1.605 OA 
HETATM   19  H   UNL     1     -11.213  17.131  63.298  1.00  0.00     0.000 HD 
ENDBRANCH  13  17
ENDBRANCH   4   5
ENDBRANCH   3   4
ENDBRANCH   2   3
TORSDOF 4
ENDMDL
MODEL       10
REMARK 921   NORMALIZED FREE ENERGY PREDICTED BY IDOCK:   -5.30 KCAL/MOL
REMARK 922        TOTAL FREE ENERGY PREDICTED BY IDOCK:   -7.03 KCAL/MOL
REMARK 923 INTER-LIGAND FREE ENERGY PREDICTED BY IDOCK:   -6.71 KCAL/MOL
REMARK 924 INTRA-LIGAND FREE ENERGY PREDICTED BY IDOCK:   -0.32 KCAL/MOL
REMARK 927      BINDING AFFINITY PREDICTED BY RF-SCORE:    0.00 PKD
ROOT
HETATM    1  C   UNL     1      -9.773  10.233  65.742  1.00  0.00    -0.297 C  
HETATM    2  C   UNL     1     -10.391  10.206  67.133  1.00  0.00    -0.295 C  
ENDROOT
BRANCH   2   3
HETATM    3  C   UNL     1     -11.357  11.374  67.352  1.00  0.00    -0.359 C  
BRANCH   3   4
HETATM    4  C   UNL     1     -10.811  12.710  66.801  1.00  0.00    -0.250 C  
BRANCH   4   5
HETATM    5  N   UNL     1     -11.822  13.780  66.727  1.00  0.00    -0.395 NA 
HETATM    6  C   UNL     1     -11.689  14.779  67.800  1.00  0.00    -0.343 C  
HETATM    7  C   UNL     1     -10.476  15.715  67.640  1.00  0.00    -0.283 C  
HETATM    8  C   UNL     1     -10.613  16.471  66.314  1.00  0.00    -0.223 C  
HETATM    9  O   UNL     1     -10.385  16.647  68.720  1.00  0.00    -0.261 OA 
HETATM   10  H   UNL     1      -9.636  17.224  68.621  1.00  0.00     0.000 HD 
HETATM   11  C   UNL     1     -10.785  15.495  65.147  1.00  0.00    -0.440 C  
HETATM   12  O   UNL     1      -9.448  17.258  66.003  1.00  0.00    -0.462 OA 
HETATM   13  C   UNL     1     -11.914  14.465  65.403  1.00  0.00    -0.369 C  
HETATM   14  H   UNL     1      -9.533  17.727  65.182  1.00  0.00     0.000 HD 
HETATM   15  O   UNL     1     -11.053  16.262  63.956  1.00  0.00    -1.204 OA 
HETATM   16  H   UNL     1     -11.159  15.657  63.231  1.00  0.00     0.000 HD 
BRANCH  13  17
HETATM   17  C   UNL     1     -12.035  13.517  64.181  1.00  0.00    -0.448 C  
HETATM   18  O   UNL     1     -12.457  14.213  63.009  1.00  0.00    -1.077 OA 
HETATM   19  H   UNL     1     -12.531  13.632  62.261  1.00  0.00     0.000 HD 
ENDBRANCH  13  17
ENDBRANCH   4   5
ENDBRANCH   3   4
ENDBRANCH   2   3
TORSDOF 4
ENDMDL
MODEL       11
REMARK 921   NORMALIZED FREE ENERGY PREDICTED BY IDOCK:   -5.28 KCAL/MOL
REMARK 922        TOTAL FREE ENERGY PREDICTED BY IDOCK:   -7.00 KCAL/MOL
REMARK 923 INTER-LIGAND FREE ENERGY PREDICTED BY IDOCK:   -6.57 KCAL/MOL
REMARK 924 INTRA-LIGAND FREE ENERGY PREDICTED BY IDOCK:   -0.43 KCAL/MOL
REMARK 927      BINDING AFFINITY PREDICTED BY RF-SCORE:    0.00 PKD
ROOT
HETATM    1  C   UNL     1     -12.522  15.069  72.353  1.00  0.00    -0.429 C  
HETATM    2  C   UNL     1     -12.315  15.621  70.950  1.00  0.00    -0.479 C  
ENDROOT
BRANCH   2   3
HETATM    3  C   UNL     1     -12.214  14.503  69.907  1.00  0.00    -0.379 C  
BRANCH   3   4
HETATM    4  C   UNL     1     -12.130  15.044  68.462  1.00  0.00    -0.142 C  
BRANCH   4   5
HETATM    5  N   UNL     1     -11.077  14.408  67.650  1.00  0.00    -0.290 NA 
HETATM    6  C   UNL     1     -11.607  13.643  66.509  1.00  0.00    -0.366 C  
HETATM    7  C   UNL     1     -12.160  14.519  65.369  1.00  0.00    -0.317 C  
HETATM    8  C   UNL     1     -11.030  15.412  64.846  1.00  0.00    -0.437 C  
HETATM    9  O   UNL     1     -12.681  13.724  64.300  1.00  0.00    -0.659 OA 
HETATM   10  H   UNL     1     -13.022  14.264  63.597  1.00  0.00     0.000 HD 
HETATM   11  C   UNL     1     -10.406  16.223  65.985  1.00  0.00    -0.349 C  
HETATM   12  O   UNL     1     -11.490  16.376  63.880  1.00  0.00    -1.569 OA 
HETATM   13  C   UNL     1      -9.999  15.332  67.187  1.00  0.00    -0.233 C  
HETATM   14  H   UNL     1     -10.790  16.930  63.556  1.00  0.00     0.000 HD 
HETATM   15  O   UNL     1      -9.264  16.928  65.462  1.00  0.00    -0.443 OA 
HETATM   16  H   UNL     1      -8.876  17.431  66.168  1.00  0.00     0.000 HD 
BRANCH  13  17
HETATM   17  C   UNL     1      -9.371  16.216  68.295  1.00  0.00    -0.205 C  
HETATM   18  O   UNL     1      -9.739  17.587  68.152  1.00  0.00    -0.278 OA 
HETATM   19  H   UNL     1      -9.354  18.128  68.831  1.00  0.00     0.000 HD 
ENDBRANCH  13  17
ENDBRANCH   4   5
ENDBRANCH   3   4
ENDBRANCH   2   3
TORSDOF 4
ENDMDL
MODEL       12
REMARK 921   NORMALIZED FREE ENERGY PREDICTED BY IDOCK:   -5.20 KCAL/MOL
REMARK 922        TOTAL FREE ENERGY PREDICTED BY IDOCK:   -6.90 KCAL/MOL
REMARK 923 INTER-LIGAND FREE ENERGY PREDICTED BY IDOCK:   -6.54 KCAL/MOL
REMARK 924 INTRA-LIGAND FREE ENERGY PREDICTED BY IDOCK:   -0.36 KCAL/MOL
REMARK 927      BINDING AFFINITY PREDICTED BY RF-SCORE:    0.00 PKD
ROOT
HETATM    1  C   UNL     1     -10.218  19.845  66.545  1.00  0.00    -0.611 C  
HETATM    2  C   UNL     1     -10.403  18.490  67.214  1.00  0.00    -0.430 C  
ENDROOT
BRANCH   2   3
HETATM    3  C   UNL     1     -10.037  17.336  66.275  1.00  0.00    -0.323 C  
BRANCH   3   4
HETATM    4  C   UNL     1     -10.657  15.991  66.714  1.00  0.00    -0.297 C  
BRANCH   4   5
HETATM    5  N   UNL     1     -10.099  14.822  66.012  1.00  0.00    -0.291 NA 
HETATM    6  C   UNL     1      -9.343  13.920  66.898  1.00  0.00    -0.258 C  
HETATM    7  C   UNL     1     -10.223  13.103  67.862  1.00  0.00    -0.233 C  
HETATM    8  C   UNL     1     -11.188  12.245  67.036  1.00  0.00    -0.310 C  
HETATM    9  O   UNL     1      -9.435  12.264  68.711  1.00  0.00    -0.390 OA 
HETATM   10  H   UNL     1      -9.979  11.760  69.306  1.00  0.00     0.000 HD 
HETATM   11  C   UNL     1     -11.994  13.112  66.066  1.00  0.00    -0.433 C  
HETATM   12  O   UNL     1     -12.156  11.560  67.853  1.00  0.00    -0.630 OA 
HETATM   13  C   UNL     1     -11.089  14.039  65.214  1.00  0.00    -0.325 C  
HETATM   14  H   UNL     1     -12.753  11.028  67.341  1.00  0.00     0.000 HD 
HETATM   15  O   UNL     1     -12.771  12.240  65.222  1.00  0.00    -0.543 OA 
HETATM   16  H   UNL     1     -13.271  12.777  64.621  1.00  0.00     0.000 HD 
BRANCH  13  17
HETATM   17  C   UNL     1     -11.970  14.879  64.254  1.00  0.00    -0.338 C  
HETATM   18  O   UNL     1     -12.481  14.094  63.178  1.00  0.00    -1.126 OA 
HETATM   19  H   UNL     1     -13.020  14.610  62.590  1.00  0.00     0.000 HD 
ENDBRANCH  13  17
ENDBRANCH   4   5
ENDBRANCH   3   4
ENDBRANCH   2   3
TORSDOF 4
ENDMDL
MODEL       13
REMARK 921   NORMALIZED FREE ENERGY PREDICTED BY IDOCK:   -5.18 KCAL/MOL
REMARK 922        TOTAL FREE ENERGY PREDICTED BY IDOCK:   -6.89 KCAL/MOL
REMARK 923 INTER-LIGAND FREE ENERGY PREDICTED BY IDOCK:   -6.50 KCAL/MOL
REMARK 924 INTRA-LIGAND FREE ENERGY PREDICTED BY IDOCK:   -0.39 KCAL/MOL
REMARK 927      BINDING AFFINITY PREDICTED BY RF-SCORE:    0.00 PKD
ROOT
HETATM    1  C   UNL     1      -7.013  12.077  67.594  1.00  0.00    -0.118 C  
HETATM    2  C   UNL     1      -8.185  12.402  68.509  1.00  0.00    -0.086 C  
ENDROOT
BRANCH   2   3
HETATM    3  C   UNL     1      -8.738  13.808  68.252  1.00  0.00    -0.179 C  
BRANCH   3   4
HETATM    4  C   UNL     1      -9.461  13.923  66.892  1.00  0.00    -0.258 C  
BRANCH   4   5
HETATM    5  N   UNL     1     -10.809  14.513  66.985  1.00  0.00    -0.292 NA 
HETATM    6  C   UNL     1     -10.975  15.715  66.150  1.00  0.00    -0.206 C  
HETATM    7  C   UNL     1     -11.048  15.425  64.640  1.00  0.00    -0.347 C  
HETATM    8  C   UNL     1     -12.244  14.505  64.375  1.00  0.00    -0.458 C  
HETATM    9  O   UNL     1     -11.185  16.628  63.879  1.00  0.00    -1.440 OA 
HETATM   10  H   UNL     1     -11.230  16.449  62.947  1.00  0.00     0.000 HD 
HETATM   11  C   UNL     1     -12.158  13.239  65.232  1.00  0.00    -0.418 C  
HETATM   12  O   UNL     1     -12.304  14.054  63.008  1.00  0.00    -1.101 OA 
HETATM   13  C   UNL     1     -11.930  13.559  66.732  1.00  0.00    -0.404 C  
HETATM   14  H   UNL     1     -13.045  13.484  62.844  1.00  0.00     0.000 HD 
HETATM   15  O   UNL     1     -13.374  12.489  65.049  1.00  0.00    -0.591 OA 
HETATM   16  H   UNL     1     -13.321  11.703  65.580  1.00  0.00     0.000 HD 
BRANCH  13  17
HETATM   17  C   UNL     1     -11.859  12.235  67.536  1.00  0.00    -0.261 C  
HETATM   18  O   UNL     1     -11.309  11.172  66.760  1.00  0.00    -0.341 OA 
HETATM   19  H   UNL     1     -11.266  10.361  67.254  1.00  0.00     0.000 HD 
ENDBRANCH  13  17
ENDBRANCH   4   5
ENDBRANCH   3   4
ENDBRANCH   2   3
TORSDOF 4
ENDMDL
MODEL       14
REMARK 921   NORMALIZED FREE ENERGY PREDICTED BY IDOCK:   -5.13 KCAL/MOL
REMARK 922        TOTAL FREE ENERGY PREDICTED BY IDOCK:   -6.82 KCAL/MOL
REMARK 923 INTER-LIGAND FREE ENERGY PREDICTED BY IDOCK:   -6.35 KCAL/MOL
REMARK 924 INTRA-LIGAND FREE ENERGY PREDICTED BY IDOCK:   -0.46 KCAL/MOL
REMARK 927      BINDING AFFINITY PREDICTED BY RF-SCORE:    0.00 PKD
ROOT
HETATM    1  C   UNL     1      -9.819  10.793  69.313  1.00  0.00    -0.160 C  
HETATM    2  C   UNL     1     -10.952  10.241  68.460  1.00  0.00    -0.294 C  
ENDROOT
BRANCH   2   3
HETATM    3  C   UNL     1     -10.583  10.205  66.974  1.00  0.00    -0.290 C  
BRANCH   3   4
HETATM    4  C   UNL     1     -10.521  11.612  66.341  1.00  0.00    -0.244 C  
BRANCH   4   5
HETATM    5  N   UNL     1     -11.813  12.322  66.346  1.00  0.00    -0.589 NA 
HETATM    6  C   UNL     1     -11.811  13.524  67.198  1.00  0.00    -0.387 C  
HETATM    7  C   UNL     1     -11.001  14.700  66.622  1.00  0.00    -0.323 C  
HETATM    8  C   UNL     1     -11.601  15.091  65.267  1.00  0.00    -0.258 C  
HETATM    9  O   UNL     1     -11.015  15.829  67.500  1.00  0.00    -0.318 OA 
HETATM   10  H   UNL     1     -10.516  16.555  67.144  1.00  0.00     0.000 HD 
HETATM   11  C   UNL     1     -11.663  13.881  64.330  1.00  0.00    -0.404 C  
HETATM   12  O   UNL     1     -10.816  16.083  64.580  1.00  0.00    -0.843 OA 
HETATM   13  C   UNL     1     -12.349  12.659  64.993  1.00  0.00    -0.497 C  
HETATM   14  H   UNL     1     -11.188  16.325  63.740  1.00  0.00     0.000 HD 
HETATM   15  O   UNL     1     -12.365  14.274  63.134  1.00  0.00    -1.096 OA 
HETATM   16  H   UNL     1     -12.404  13.524  62.553  1.00  0.00     0.000 HD 
BRANCH  13  17
HETATM   17  C   UNL     1     -12.381  11.478  63.989  1.00  0.00     0.110 C  
HETATM   18  O   UNL     1     -11.395  11.622  62.968  1.00  0.00    -0.759 OA 
HETATM   19  H   UNL     1     -11.415  10.899  62.353  1.00  0.00     0.000 HD 
ENDBRANCH  13  17
ENDBRANCH   4   5
ENDBRANCH   3   4
ENDBRANCH   2   3
TORSDOF 4
ENDMDL
MODEL       15
REMARK 921   NORMALIZED FREE ENERGY PREDICTED BY IDOCK:   -5.07 KCAL/MOL
REMARK 922        TOTAL FREE ENERGY PREDICTED BY IDOCK:   -6.75 KCAL/MOL
REMARK 923 INTER-LIGAND FREE ENERGY PREDICTED BY IDOCK:   -6.28 KCAL/MOL
REMARK 924 INTRA-LIGAND FREE ENERGY PREDICTED BY IDOCK:   -0.47 KCAL/MOL
REMARK 927      BINDING AFFINITY PREDICTED BY RF-SCORE:    0.00 PKD
ROOT
HETATM    1  C   UNL     1     -12.326  12.066  63.513  1.00  0.00    -0.661 C  
HETATM    2  C   UNL     1     -11.065  11.658  64.261  1.00  0.00    -0.406 C  
ENDROOT
BRANCH   2   3
HETATM    3  C   UNL     1     -11.220  11.823  65.776  1.00  0.00    -0.337 C  
BRANCH   3   4
HETATM    4  C   UNL     1     -10.433  13.032  66.327  1.00  0.00    -0.276 C  
BRANCH   4   5
HETATM    5  N   UNL     1     -11.289  14.154  66.753  1.00  0.00    -0.330 NA 
HETATM    6  C   UNL     1     -11.278  14.372  68.209  1.00  0.00    -0.275 C  
HETATM    7  C   UNL     1      -9.967  14.979  68.743  1.00  0.00    -0.228 C  
HETATM    8  C   UNL     1      -9.745  16.336  68.067  1.00  0.00    -0.230 C  
HETATM    9  O   UNL     1     -10.004  15.147  70.163  1.00  0.00    -0.492 OA 
HETATM   10  H   UNL     1      -9.196  15.521  70.492  1.00  0.00     0.000 HD 
HETATM   11  C   UNL     1      -9.771  16.196  66.543  1.00  0.00    -0.263 C  
HETATM   12  O   UNL     1      -8.465  16.912  68.389  1.00  0.00    -0.220 OA 
HETATM   13  C   UNL     1     -11.031  15.443  66.044  1.00  0.00    -0.286 C  
HETATM   14  H   UNL     1      -8.327  17.753  67.971  1.00  0.00     0.000 HD 
HETATM   15  O   UNL     1      -9.704  17.517  65.969  1.00  0.00    -0.473 OA 
HETATM   16  H   UNL     1      -9.721  17.430  65.023  1.00  0.00     0.000 HD 
BRANCH  13  17
HETATM   17  C   UNL     1     -10.994  15.345  64.497  1.00  0.00    -0.203 C  
HETATM   18  O   UNL     1     -11.575  16.492  63.878  1.00  0.00    -1.598 OA 
HETATM   19  H   UNL     1     -11.552  16.431  62.930  1.00  0.00     0.000 HD 
ENDBRANCH  13  17
ENDBRANCH   4   5
ENDBRANCH   3   4
ENDBRANCH   2   3
TORSDOF 4
ENDMDL
MODEL       16
REMARK 921   NORMALIZED FREE ENERGY PREDICTED BY IDOCK:   -5.00 KCAL/MOL
REMARK 922        TOTAL FREE ENERGY PREDICTED BY IDOCK:   -6.67 KCAL/MOL
REMARK 923 INTER-LIGAND FREE ENERGY PREDICTED BY IDOCK:   -6.16 KCAL/MOL
REMARK 924 INTRA-LIGAND FREE ENERGY PREDICTED BY IDOCK:   -0.51 KCAL/MOL
REMARK 927      BINDING AFFINITY PREDICTED BY RF-SCORE:    0.00 PKD
ROOT
HETATM    1  C   UNL     1     -10.872  16.094  68.334  1.00  0.00    -0.318 C  
HETATM    2  C   UNL     1      -9.635  15.480  67.695  1.00  0.00    -0.210 C  
ENDROOT
BRANCH   2   3
HETATM    3  C   UNL     1      -9.542  13.974  67.960  1.00  0.00    -0.217 C  
BRANCH   3   4
HETATM    4  C   UNL     1      -9.461  13.145  66.660  1.00  0.00    -0.260 C  
BRANCH   4   5
HETATM    5  N   UNL     1     -10.577  12.197  66.490  1.00  0.00    -0.231 NA 
HETATM    6  C   UNL     1     -11.901  12.833  66.595  1.00  0.00    -0.393 C  
HETATM    7  C   UNL     1     -12.272  13.712  65.385  1.00  0.00    -0.444 C  
HETATM    8  C   UNL     1     -12.274  12.837  64.127  1.00  0.00    -0.429 C  
HETATM    9  O   UNL     1     -13.555  14.322  65.552  1.00  0.00    -0.650 OA 
HETATM   10  H   UNL     1     -13.784  14.864  64.806  1.00  0.00     0.000 HD 
HETATM   11  C   UNL     1     -10.934  12.116  63.964  1.00  0.00    -0.380 C  
HETATM   12  O   UNL     1     -12.461  13.603  62.922  1.00  0.00    -0.960 OA 
HETATM   13  C   UNL     1     -10.509  11.364  65.251  1.00  0.00    -0.283 C  
HETATM   14  H   UNL     1     -12.462  13.061  62.142  1.00  0.00     0.000 HD 
HETATM   15  O   UNL     1     -11.047  11.204  62.853  1.00  0.00    -0.812 OA 
HETATM   16  H   UNL     1     -10.216  10.756  62.752  1.00  0.00     0.000 HD 
BRANCH  13  17
HETATM   17  C   UNL     1      -9.152  10.655  65.011  1.00  0.00    -0.202 C  
HETATM   18  O   UNL     1      -8.496  11.146  63.843  1.00  0.00    -0.370 OA 
HETATM   19  H   UNL     1      -7.664  10.711  63.696  1.00  0.00     0.000 HD 
ENDBRANCH  13  17
ENDBRANCH   4   5
ENDBRANCH   3   4
ENDBRANCH   2   3
TORSDOF 4
ENDMDL
MODEL       17
REMARK 921   NORMALIZED FREE ENERGY PREDICTED BY IDOCK:   -4.99 KCAL/MOL
REMARK 922        TOTAL FREE ENERGY PREDICTED BY IDOCK:   -6.65 KCAL/MOL
REMARK 923 INTER-LIGAND FREE ENERGY PREDICTED BY IDOCK:   -6.44 KCAL/MOL
REMARK 924 INTRA-LIGAND FREE ENERGY PREDICTED BY IDOCK:   -0.21 KCAL/MOL
REMARK 927      BINDING AFFINITY PREDICTED BY RF-SCORE:    0.00 PKD
ROOT
HETATM    1  C   UNL     1     -13.028  15.346  70.991  1.00  0.00    -0.556 C  
HETATM    2  C   UNL     1     -11.730  15.307  70.198  1.00  0.00    -0.342 C  
ENDROOT
BRANCH   2   3
HETATM    3  C   UNL     1     -11.983  15.335  68.687  1.00  0.00    -0.263 C  
BRANCH   3   4
HETATM    4  C   UNL     1     -11.257  14.194  67.940  1.00  0.00    -0.279 C  
BRANCH   4   5
HETATM    5  N   UNL     1     -12.151  13.363  67.113  1.00  0.00    -0.352 NA 
HETATM    6  C   UNL     1     -12.643  14.058  65.912  1.00  0.00    -0.449 C  
HETATM    7  C   UNL     1     -11.575  14.254  64.819  1.00  0.00    -0.401 C  
HETATM    8  C   UNL     1     -11.062  12.878  64.384  1.00  0.00    -0.361 C  
HETATM    9  O   UNL     1     -12.102  14.954  63.688  1.00  0.00    -0.892 OA 
HETATM   10  H   UNL     1     -11.443  15.075  63.014  1.00  0.00     0.000 HD 
HETATM   11  C   UNL     1     -10.557  12.079  65.588  1.00  0.00    -0.265 C  
HETATM   12  O   UNL     1      -9.950  12.965  63.472  1.00  0.00    -0.681 OA 
HETATM   13  C   UNL     1     -11.596  12.028  66.737  1.00  0.00    -0.321 C  
HETATM   14  H   UNL     1      -9.632  12.112  63.202  1.00  0.00     0.000 HD 
HETATM   15  O   UNL     1     -10.226  10.750  65.139  1.00  0.00    -0.280 OA 
HETATM   16  H   UNL     1      -9.913  10.254  65.886  1.00  0.00     0.000 HD 
BRANCH  13  17
HETATM   17  C   UNL     1     -11.021  11.201  67.916  1.00  0.00    -0.253 C  
HETATM   18  O   UNL     1     -12.024  10.403  68.543  1.00  0.00    -0.747 OA 
HETATM   19  H   UNL     1     -11.671   9.896  69.265  1.00  0.00     0.000 HD 
ENDBRANCH  13  17
ENDBRANCH   4   5
ENDBRANCH   3   4
ENDBRANCH   2   3
TORSDOF 4
ENDMDL
MODEL       18
REMARK 921   NORMALIZED FREE ENERGY PREDICTED BY IDOCK:   -4.95 KCAL/MOL
REMARK 922        TOTAL FREE ENERGY PREDICTED BY IDOCK:   -6.59 KCAL/MOL
REMARK 923 INTER-LIGAND FREE ENERGY PREDICTED BY IDOCK:   -6.16 KCAL/MOL
REMARK 924 INTRA-LIGAND FREE ENERGY PREDICTED BY IDOCK:   -0.43 KCAL/MOL
REMARK 927      BINDING AFFINITY PREDICTED BY RF-SCORE:    0.00 PKD
ROOT
HETATM    1  C   UNL     1      -9.117   7.104  67.092  1.00  0.00    -0.141 C  
HETATM    2  C   UNL     1     -10.215   8.136  66.881  1.00  0.00    -0.387 C  
ENDROOT
BRANCH   2   3
HETATM    3  C   UNL     1      -9.821   9.509  67.437  1.00  0.00    -0.218 C  
BRANCH   3   4
HETATM    4  C   UNL     1     -10.880  10.595  67.145  1.00  0.00    -0.270 C  
BRANCH   4   5
HETATM    5  N   UNL     1     -10.342  11.776  66.446  1.00  0.00    -0.216 NA 
HETATM    6  C   UNL     1      -9.799  11.464  65.112  1.00  0.00    -0.260 C  
HETATM    7  C   UNL     1     -10.875  11.148  64.056  1.00  0.00    -0.281 C  
HETATM    8  C   UNL     1     -11.793  12.366  63.912  1.00  0.00    -0.466 C  
HETATM    9  O   UNL     1     -10.291  10.831  62.789  1.00  0.00    -0.752 OA 
HETATM   10  H   UNL     1     -10.954  10.636  62.138  1.00  0.00     0.000 HD 
HETATM   11  C   UNL     1     -12.376  12.771  65.268  1.00  0.00    -0.488 C  
HETATM   12  O   UNL     1     -12.922  12.110  63.056  1.00  0.00    -0.703 OA 
HETATM   13  C   UNL     1     -11.282  12.933  66.354  1.00  0.00    -0.300 C  
HETATM   14  H   UNL     1     -13.491  12.865  62.967  1.00  0.00     0.000 HD 
HETATM   15  O   UNL     1     -13.108  14.001  65.093  1.00  0.00    -0.776 OA 
HETATM   16  H   UNL     1     -13.470  14.252  65.935  1.00  0.00     0.000 HD 
BRANCH  13  17
HETATM   17  C   UNL     1     -11.942  13.349  67.694  1.00  0.00    -0.322 C  
HETATM   18  O   UNL     1     -12.249  14.742  67.725  1.00  0.00    -0.582 OA 
HETATM   19  H   UNL     1     -12.653  14.996  68.546  1.00  0.00     0.000 HD 
ENDBRANCH  13  17
ENDBRANCH   4   5
ENDBRANCH   3   4
ENDBRANCH   2   3
TORSDOF 4
ENDMDL
MODEL       19
REMARK 921   NORMALIZED FREE ENERGY PREDICTED BY IDOCK:   -4.88 KCAL/MOL
REMARK 922        TOTAL FREE ENERGY PREDICTED BY IDOCK:   -6.51 KCAL/MOL
REMARK 923 INTER-LIGAND FREE ENERGY PREDICTED BY IDOCK:   -6.18 KCAL/MOL
REMARK 924 INTRA-LIGAND FREE ENERGY PREDICTED BY IDOCK:   -0.33 KCAL/MOL
REMARK 927      BINDING AFFINITY PREDICTED BY RF-SCORE:    0.00 PKD
ROOT
HETATM    1  C   UNL     1     -12.772  11.750  63.367  1.00  0.00    -0.395 C  
HETATM    2  C   UNL     1     -11.723  12.849  63.465  1.00  0.00    -0.576 C  
ENDROOT
BRANCH   2   3
HETATM    3  C   UNL     1     -10.465  12.374  64.199  1.00  0.00    -0.415 C  
BRANCH   3   4
HETATM    4  C   UNL     1     -10.203  13.160  65.502  1.00  0.00    -0.287 C  
BRANCH   4   5
HETATM    5  N   UNL     1     -11.398  13.836  66.038  1.00  0.00    -0.309 NA 
HETATM    6  C   UNL     1     -11.889  13.241  67.293  1.00  0.00    -0.372 C  
HETATM    7  C   UNL     1     -10.998  13.531  68.515  1.00  0.00    -0.267 C  
HETATM    8  C   UNL     1     -10.923  15.049  68.717  1.00  0.00    -0.255 C  
HETATM    9  O   UNL     1     -11.509  12.911  69.698  1.00  0.00    -0.405 OA 
HETATM   10  H   UNL     1     -10.960  13.090  70.452  1.00  0.00     0.000 HD 
HETATM   11  C   UNL     1     -10.446  15.745  67.440  1.00  0.00    -0.297 C  
HETATM   12  O   UNL     1      -9.988  15.424  69.745  1.00  0.00    -0.280 OA 
HETATM   13  C   UNL     1     -11.264  15.315  66.195  1.00  0.00    -0.225 C  
HETATM   14  H   UNL     1      -9.942  16.364  69.871  1.00  0.00     0.000 HD 
HETATM   15  O   UNL     1     -10.536  17.169  67.644  1.00  0.00    -0.335 OA 
HETATM   16  H   UNL     1     -10.240  17.601  66.852  1.00  0.00     0.000 HD 
BRANCH  13  17
HETATM   17  C   UNL     1     -10.731  16.062  64.945  1.00  0.00    -0.316 C  
HETATM   18  O   UNL     1     -11.743  16.224  63.952  1.00  0.00    -1.441 OA 
HETATM   19  H   UNL     1     -11.416  16.681  63.186  1.00  0.00     0.000 HD 
ENDBRANCH  13  17
ENDBRANCH   4   5
ENDBRANCH   3   4
ENDBRANCH   2   3
TORSDOF 4
ENDMDL
MODEL       20
REMARK 921   NORMALIZED FREE ENERGY PREDICTED BY IDOCK:   -4.86 KCAL/MOL
REMARK 922        TOTAL FREE ENERGY PREDICTED BY IDOCK:   -6.49 KCAL/MOL
REMARK 923 INTER-LIGAND FREE ENERGY PREDICTED BY IDOCK:   -6.04 KCAL/MOL
REMARK 924 INTRA-LIGAND FREE ENERGY PREDICTED BY IDOCK:   -0.45 KCAL/MOL
REMARK 927      BINDING AFFINITY PREDICTED BY RF-SCORE:    0.00 PKD
ROOT
HETATM    1  C   UNL     1      -9.636   9.921  68.622  1.00  0.00    -0.159 C  
HETATM    2  C   UNL     1     -10.156  11.338  68.811  1.00  0.00    -0.204 C  
ENDROOT
BRANCH   2   3
HETATM    3  C   UNL     1     -11.634  11.461  68.425  1.00  0.00    -0.385 C  
BRANCH   3   4
HETATM    4  C   UNL     1     -11.887  12.571  67.382  1.00  0.00    -0.312 C  
BRANCH   4   5
HETATM    5  N   UNL     1     -10.735  12.833  66.501  1.00  0.00    -0.256 NA 
HETATM    6  C   UNL     1     -10.660  11.912  65.354  1.00  0.00    -0.271 C  
HETATM    7  C   UNL     1     -11.728  12.166  64.275  1.00  0.00    -0.373 C  
HETATM    8  C   UNL     1     -11.553  13.592  63.740  1.00  0.00    -0.243 C  
HETATM    9  O   UNL     1     -11.622  11.230  63.199  1.00  0.00    -0.847 OA 
HETATM   10  H   UNL     1     -12.281  11.387  62.532  1.00  0.00     0.000 HD 
HETATM   11  C   UNL     1     -11.591  14.610  64.882  1.00  0.00    -0.405 C  
HETATM   12  O   UNL     1     -12.604  13.975  62.833  1.00  0.00    -0.958 OA 
HETATM   13  C   UNL     1     -10.614  14.244  66.029  1.00  0.00    -0.300 C  
HETATM   14  H   UNL     1     -12.496  14.858  62.501  1.00  0.00     0.000 HD 
HETATM   15  O   UNL     1     -11.278  15.907  64.338  1.00  0.00    -0.763 OA 
HETATM   16  H   UNL     1     -11.301  16.539  65.046  1.00  0.00     0.000 HD 
BRANCH  13  17
HETATM   17  C   UNL     1     -10.702  15.319  67.143  1.00  0.00    -0.316 C  
HETATM   18  O   UNL     1      -9.883  16.451  66.854  1.00  0.00    -0.246 OA 
HETATM   19  H   UNL     1      -9.937  17.109  67.537  1.00  0.00     0.000 HD 
ENDBRANCH  13  17
ENDBRANCH   4   5
ENDBRANCH   3   4
ENDBRANCH   2   3
TORSDOF 4
ENDMDL
MODEL       21
REMARK 921   NORMALIZED FREE ENERGY PREDICTED BY IDOCK:   -4.85 KCAL/MOL
REMARK 922        TOTAL FREE ENERGY PREDICTED BY IDOCK:   -6.48 KCAL/MOL
REMARK 923 INTER-LIGAND FREE ENERGY PREDICTED BY IDOCK:   -6.17 KCAL/MOL
REMARK 924 INTRA-LIGAND FREE ENERGY PREDICTED BY IDOCK:   -0.30 KCAL/MOL
REMARK 927      BINDING AFFINITY PREDICTED BY RF-SCORE:    0.00 PKD
ROOT
HETATM    1  C   UNL     1      -7.051  17.725  68.952  1.00  0.00    -0.262 C  
HETATM    2  C   UNL     1      -8.109  17.434  67.898  1.00  0.00    -0.220 C  
ENDROOT
BRANCH   2   3
HETATM    3  C   UNL     1      -7.596  16.466  66.826  1.00  0.00    -0.290 C  
BRANCH   3   4
HETATM    4  C   UNL     1      -8.558  15.283  66.582  1.00  0.00    -0.270 C  
BRANCH   4   5
HETATM    5  N   UNL     1      -9.956  15.568  66.954  1.00  0.00    -0.242 NA 
HETATM    6  C   UNL     1     -10.680  16.351  65.938  1.00  0.00    -0.214 C  
HETATM    7  C   UNL     1     -11.028  15.556  64.665  1.00  0.00    -0.322 C  
HETATM    8  C   UNL     1     -11.913  14.368  65.056  1.00  0.00    -0.412 C  
HETATM    9  O   UNL     1     -11.708  16.371  63.706  1.00  0.00    -1.553 OA 
HETATM   10  H   UNL     1     -11.923  15.881  62.921  1.00  0.00     0.000 HD 
HETATM   11  C   UNL     1     -11.238  13.518  66.135  1.00  0.00    -0.295 C  
HETATM   12  O   UNL     1     -12.165  13.479  63.952  1.00  0.00    -0.566 OA 
HETATM   13  C   UNL     1     -10.759  14.369  67.340  1.00  0.00    -0.280 C  
HETATM   14  H   UNL     1     -12.714  12.743  64.194  1.00  0.00     0.000 HD 
HETATM   15  O   UNL     1     -12.174  12.509  66.563  1.00  0.00    -0.569 OA 
HETATM   16  H   UNL     1     -11.755  11.981  67.233  1.00  0.00     0.000 HD 
BRANCH  13  17
HETATM   17  C   UNL     1     -10.093  13.445  68.391  1.00  0.00    -0.244 C  
HETATM   18  O   UNL     1     -11.035  12.971  69.353  1.00  0.00    -0.432 OA 
HETATM   19  H   UNL     1     -10.627  12.405  69.998  1.00  0.00     0.000 HD 
ENDBRANCH  13  17
ENDBRANCH   4   5
ENDBRANCH   3   4
ENDBRANCH   2   3
TORSDOF 4
ENDMDL
MODEL       22
REMARK 921   NORMALIZED FREE ENERGY PREDICTED BY IDOCK:   -4.82 KCAL/MOL
REMARK 922        TOTAL FREE ENERGY PREDICTED BY IDOCK:   -6.44 KCAL/MOL
REMARK 923 INTER-LIGAND FREE ENERGY PREDICTED BY IDOCK:   -5.96 KCAL/MOL
REMARK 924 INTRA-LIGAND FREE ENERGY PREDICTED BY IDOCK:   -0.47 KCAL/MOL
REMARK 927      BINDING AFFINITY PREDICTED BY RF-SCORE:    0.00 PKD
ROOT
HETATM    1  C   UNL     1     -10.420   8.517  67.029  1.00  0.00    -0.362 C  
HETATM    2  C   UNL     1      -9.092   8.728  66.317  1.00  0.00    -0.240 C  
ENDROOT
BRANCH   2   3
HETATM    3  C   UNL     1      -9.227   9.687  65.130  1.00  0.00    -0.305 C  
BRANCH   3   4
HETATM    4  C   UNL     1     -10.403  10.675  65.293  1.00  0.00    -0.251 C  
BRANCH   4   5
HETATM    5  N   UNL     1      -9.994  12.091  65.286  1.00  0.00    -0.254 NA 
HETATM    6  C   UNL     1     -10.493  12.833  64.116  1.00  0.00    -0.413 C  
HETATM    7  C   UNL     1     -12.006  13.119  64.153  1.00  0.00    -0.436 C  
HETATM    8  C   UNL     1     -12.317  13.953  65.400  1.00  0.00    -0.470 C  
HETATM    9  O   UNL     1     -12.438  13.820  62.983  1.00  0.00    -1.068 OA 
HETATM   10  H   UNL     1     -13.371  13.997  63.006  1.00  0.00     0.000 HD 
HETATM   11  C   UNL     1     -11.801  13.256  66.662  1.00  0.00    -0.395 C  
HETATM   12  O   UNL     1     -13.730  14.140  65.602  1.00  0.00    -0.540 OA 
HETATM   13  C   UNL     1     -10.312  12.841  66.538  1.00  0.00    -0.251 C  
HETATM   14  H   UNL     1     -13.923  14.657  66.375  1.00  0.00     0.000 HD 
HETATM   15  O   UNL     1     -11.991  14.149  67.778  1.00  0.00    -0.386 OA 
HETATM   16  H   UNL     1     -11.670  13.718  68.561  1.00  0.00     0.000 HD 
BRANCH  13  17
HETATM   17  C   UNL     1      -9.858  12.151  67.850  1.00  0.00    -0.199 C  
HETATM   18  O   UNL     1      -9.284  13.080  68.768  1.00  0.00    -0.392 OA 
HETATM   19  H   UNL     1      -9.006  12.657  69.571  1.00  0.00     0.000 HD 
ENDBRANCH  13  17
ENDBRANCH   4   5
ENDBRANCH   3   4
ENDBRANCH   2   3
TORSDOF 4
ENDMDL
MODEL       23
REMARK 921   NORMALIZED FREE ENERGY PREDICTED BY IDOCK:   -4.81 KCAL/MOL
REMARK 922        TOTAL FREE ENERGY PREDICTED BY IDOCK:   -6.43 KCAL/MOL
REMARK 923 INTER-LIGAND FREE ENERGY PREDICTED BY IDOCK:   -6.03 KCAL/MOL
REMARK 924 INTRA-LIGAND FREE ENERGY PREDICTED BY IDOCK:   -0.40 KCAL/MOL
REMARK 927      BINDING AFFINITY PREDICTED BY RF-SCORE:    0.00 PKD
ROOT
HETATM    1  C   UNL     1     -12.665  11.848  63.513  1.00  0.00    -0.530 C  
HETATM    2  C   UNL     1     -11.993  13.213  63.477  1.00  0.00    -0.580 C  
ENDROOT
BRANCH   2   3
HETATM    3  C   UNL     1     -10.903  13.342  64.546  1.00  0.00    -0.419 C  
BRANCH   3   4
HETATM    4  C   UNL     1     -11.460  13.217  65.981  1.00  0.00    -0.335 C  
BRANCH   4   5
HETATM    5  N   UNL     1     -10.471  13.523  67.030  1.00  0.00    -0.264 NA 
HETATM    6  C   UNL     1     -10.290  14.967  67.255  1.00  0.00    -0.249 C  
HETATM    7  C   UNL     1     -11.474  15.644  67.970  1.00  0.00    -0.291 C  
HETATM    8  C   UNL     1     -11.663  14.980  69.339  1.00  0.00    -0.326 C  
HETATM    9  O   UNL     1     -11.254  17.047  68.140  1.00  0.00    -0.272 OA 
HETATM   10  H   UNL     1     -11.984  17.464  68.582  1.00  0.00     0.000 HD 
HETATM   11  C   UNL     1     -11.830  13.466  69.190  1.00  0.00    -0.336 C  
HETATM   12  O   UNL     1     -12.845  15.443  70.019  1.00  0.00    -0.629 OA 
HETATM   13  C   UNL     1     -10.704  12.831  68.333  1.00  0.00    -0.250 C  
HETATM   14  H   UNL     1     -12.962  15.032  70.867  1.00  0.00     0.000 HD 
HETATM   15  O   UNL     1     -11.857  12.885  70.509  1.00  0.00    -0.521 OA 
HETATM   16  H   UNL     1     -11.960  11.945  70.417  1.00  0.00     0.000 HD 
BRANCH  13  17
HETATM   17  C   UNL     1     -10.934  11.301  68.232  1.00  0.00    -0.224 C  
HETATM   18  O   UNL     1     -12.301  10.954  68.445  1.00  0.00    -0.803 OA 
HETATM   19  H   UNL     1     -12.441  10.017  68.383  1.00  0.00     0.000 HD 
ENDBRANCH  13  17
ENDBRANCH   4   5
ENDBRANCH   3   4
ENDBRANCH   2   3
TORSDOF 4
ENDMDL
MODEL       24
REMARK 921   NORMALIZED FREE ENERGY PREDICTED BY IDOCK:   -4.81 KCAL/MOL
REMARK 922        TOTAL FREE ENERGY PREDICTED BY IDOCK:   -6.43 KCAL/MOL
REMARK 923 INTER-LIGAND FREE ENERGY PREDICTED BY IDOCK:   -5.97 KCAL/MOL
REMARK 924 INTRA-LIGAND FREE ENERGY PREDICTED BY IDOCK:   -0.46 KCAL/MOL
REMARK 927      BINDING AFFINITY PREDICTED BY RF-SCORE:    0.00 PKD
ROOT
HETATM    1  C   UNL     1     -10.473  19.126  67.717  1.00  0.00    -0.512 C  
HETATM    2  C   UNL     1     -10.614  17.611  67.753  1.00  0.00    -0.380 C  
ENDROOT
BRANCH   2   3
HETATM    3  C   UNL     1     -10.111  16.960  66.459  1.00  0.00    -0.320 C  
BRANCH   3   4
HETATM    4  C   UNL     1     -10.198  15.419  66.496  1.00  0.00    -0.280 C  
BRANCH   4   5
HETATM    5  N   UNL     1     -11.546  14.894  66.217  1.00  0.00    -0.289 NA 
HETATM    6  C   UNL     1     -11.728  14.476  64.816  1.00  0.00    -0.422 C  
HETATM    7  C   UNL     1     -10.987  13.178  64.447  1.00  0.00    -0.390 C  
HETATM    8  C   UNL     1     -11.507  12.047  65.341  1.00  0.00    -0.305 C  
HETATM    9  O   UNL     1     -11.180  12.834  63.072  1.00  0.00    -0.707 OA 
HETATM   10  H   UNL     1     -10.723  12.033  62.844  1.00  0.00     0.000 HD 
HETATM   11  C   UNL     1     -11.377  12.419  66.820  1.00  0.00    -0.335 C  
HETATM   12  O   UNL     1     -10.764  10.824  65.174  1.00  0.00    -0.215 OA 
HETATM   13  C   UNL     1     -11.998  13.805  67.134  1.00  0.00    -0.405 C  
HETATM   14  H   UNL     1     -11.086  10.123  65.728  1.00  0.00     0.000 HD 
HETATM   15  O   UNL     1     -12.011  11.387  67.600  1.00  0.00    -0.630 OA 
HETATM   16  H   UNL     1     -11.931  11.617  68.518  1.00  0.00     0.000 HD 
BRANCH  13  17
HETATM   17  C   UNL     1     -11.836  14.111  68.645  1.00  0.00    -0.348 C  
HETATM   18  O   UNL     1     -10.779  13.352  69.231  1.00  0.00    -0.428 OA 
HETATM   19  H   UNL     1     -10.680  13.540  70.157  1.00  0.00     0.000 HD 
ENDBRANCH  13  17
ENDBRANCH   4   5
ENDBRANCH   3   4
ENDBRANCH   2   3
TORSDOF 4
ENDMDL
MODEL       25
REMARK 921   NORMALIZED FREE ENERGY PREDICTED BY IDOCK:   -4.73 KCAL/MOL
REMARK 922        TOTAL FREE ENERGY PREDICTED BY IDOCK:   -6.32 KCAL/MOL
REMARK 923 INTER-LIGAND FREE ENERGY PREDICTED BY IDOCK:   -5.92 KCAL/MOL
REMARK 924 INTRA-LIGAND FREE ENERGY PREDICTED BY IDOCK:   -0.40 KCAL/MOL
REMARK 927      BINDING AFFINITY PREDICTED BY RF-SCORE:    0.00 PKD
ROOT
HETATM    1  C   UNL     1     -12.592  11.952  63.338  1.00  0.00    -0.555 C  
HETATM    2  C   UNL     1     -12.081  13.087  64.212  1.00  0.00    -0.480 C  
ENDROOT
BRANCH   2   3
HETATM    3  C   UNL     1     -12.213  12.763  65.704  1.00  0.00    -0.503 C  
BRANCH   3   4
HETATM    4  C   UNL     1     -12.143  14.022  66.595  1.00  0.00    -0.456 C  
BRANCH   4   5
HETATM    5  N   UNL     1     -10.889  14.139  67.362  1.00  0.00    -0.284 NA 
HETATM    6  C   UNL     1      -9.850  14.912  66.660  1.00  0.00    -0.260 C  
HETATM    7  C   UNL     1     -10.127  16.426  66.603  1.00  0.00    -0.284 C  
HETATM    8  C   UNL     1     -10.218  16.962  68.036  1.00  0.00    -0.310 C  
HETATM    9  O   UNL     1      -9.099  17.122  65.892  1.00  0.00    -0.513 OA 
HETATM   10  H   UNL     1      -9.269  18.056  65.857  1.00  0.00     0.000 HD 
HETATM   11  C   UNL     1     -11.263  16.185  68.841  1.00  0.00    -0.351 C  
HETATM   12  O   UNL     1     -10.626  18.342  68.086  1.00  0.00    -0.361 OA 
HETATM   13  C   UNL     1     -11.051  14.651  68.755  1.00  0.00    -0.260 C  
HETATM   14  H   UNL     1     -10.683  18.674  68.973  1.00  0.00     0.000 HD 
HETATM   15  O   UNL     1     -11.200  16.633  70.210  1.00  0.00    -0.479 OA 
HETATM   16  H   UNL     1     -11.848  16.152  70.710  1.00  0.00     0.000 HD 
BRANCH  13  17
HETATM   17  C   UNL     1     -12.138  13.933  69.596  1.00  0.00    -0.349 C  
HETATM   18  O   UNL     1     -11.891  14.054  70.996  1.00  0.00    -0.477 OA 
HETATM   19  H   UNL     1     -12.557  13.614  71.511  1.00  0.00     0.000 HD 
ENDBRANCH  13  17
ENDBRANCH   4   5
ENDBRANCH   3   4
ENDBRANCH   2   3
TORSDOF 4
ENDMDL
MODEL       26
REMARK 921   NORMALIZED FREE ENERGY PREDICTED BY IDOCK:   -4.68 KCAL/MOL
REMARK 922        TOTAL FREE ENERGY PREDICTED BY IDOCK:   -6.27 KCAL/MOL
REMARK 923 INTER-LIGAND FREE ENERGY PREDICTED BY IDOCK:   -5.85 KCAL/MOL
REMARK 924 INTRA-LIGAND FREE ENERGY PREDICTED BY IDOCK:   -0.42 KCAL/MOL
REMARK 927      BINDING AFFINITY PREDICTED BY RF-SCORE:    0.00 PKD
ROOT
HETATM    1  C   UNL     1     -12.266  11.190  70.543  1.00  0.00    -0.475 C  
HETATM    2  C   UNL     1     -11.232  11.222  69.427  1.00  0.00    -0.345 C  
ENDROOT
BRANCH   2   3
HETATM    3  C   UNL     1     -11.308  12.518  68.614  1.00  0.00    -0.329 C  
BRANCH   3   4
HETATM    4  C   UNL     1     -11.656  12.271  67.130  1.00  0.00    -0.353 C  
BRANCH   4   5
HETATM    5  N   UNL     1     -10.656  12.807  66.189  1.00  0.00    -0.263 NA 
HETATM    6  C   UNL     1      -9.287  12.342  66.468  1.00  0.00    -0.233 C  
HETATM    7  C   UNL     1      -9.042  10.864  66.113  1.00  0.00    -0.183 C  
HETATM    8  C   UNL     1      -9.302  10.671  64.615  1.00  0.00    -0.238 C  
HETATM    9  O   UNL     1      -7.705  10.463  66.427  1.00  0.00    -0.114 OA 
HETATM   10  H   UNL     1      -7.554   9.551  66.207  1.00  0.00     0.000 HD 
HETATM   11  C   UNL     1     -10.703  11.160  64.240  1.00  0.00    -0.333 C  
HETATM   12  O   UNL     1      -9.246   9.287  64.219  1.00  0.00    -0.435 OA 
HETATM   13  C   UNL     1     -10.979  12.599  64.745  1.00  0.00    -0.302 C  
HETATM   14  H   UNL     1      -9.408   9.167  63.291  1.00  0.00     0.000 HD 
HETATM   15  O   UNL     1     -10.835  11.088  62.806  1.00  0.00    -0.780 OA 
HETATM   16  H   UNL     1     -11.704  11.391  62.572  1.00  0.00     0.000 HD 
BRANCH  13  17
HETATM   17  C   UNL     1     -12.408  13.029  64.324  1.00  0.00    -0.366 C  
HETATM   18  O   UNL     1     -12.406  13.736  63.085  1.00  0.00    -1.099 OA 
HETATM   19  H   UNL     1     -13.282  13.999  62.828  1.00  0.00     0.000 HD 
ENDBRANCH  13  17
ENDBRANCH   4   5
ENDBRANCH   3   4
ENDBRANCH   2   3
TORSDOF 4
ENDMDL
MODEL       27
REMARK 921   NORMALIZED FREE ENERGY PREDICTED BY IDOCK:   -4.67 KCAL/MOL
REMARK 922        TOTAL FREE ENERGY PREDICTED BY IDOCK:   -6.25 KCAL/MOL
REMARK 923 INTER-LIGAND FREE ENERGY PREDICTED BY IDOCK:   -5.86 KCAL/MOL
REMARK 924 INTRA-LIGAND FREE ENERGY PREDICTED BY IDOCK:   -0.39 KCAL/MOL
REMARK 927      BINDING AFFINITY PREDICTED BY RF-SCORE:    0.00 PKD
ROOT
HETATM    1  C   UNL     1     -12.640  10.694  71.225  1.00  0.00    -0.533 C  
HETATM    2  C   UNL     1     -11.621  11.377  70.326  1.00  0.00    -0.334 C  
ENDROOT
BRANCH   2   3
HETATM    3  C   UNL     1     -11.986  12.841  70.058  1.00  0.00    -0.371 C  
BRANCH   3   4
HETATM    4  C   UNL     1     -11.211  13.440  68.864  1.00  0.00    -0.276 C  
BRANCH   4   5
HETATM    5  N   UNL     1     -11.976  14.442  68.101  1.00  0.00    -0.316 NA 
HETATM    6  C   UNL     1     -11.620  15.829  68.446  1.00  0.00    -0.338 C  
HETATM    7  C   UNL     1     -10.241  16.271  67.922  1.00  0.00    -0.261 C  
HETATM    8  C   UNL     1     -10.236  16.155  66.394  1.00  0.00    -0.306 C  
HETATM    9  O   UNL     1      -9.939  17.616  68.306  1.00  0.00    -0.300 OA 
HETATM   10  H   UNL     1      -9.088  17.889  67.983  1.00  0.00     0.000 HD 
HETATM   11  C   UNL     1     -10.626  14.741  65.956  1.00  0.00    -0.312 C  
HETATM   12  O   UNL     1      -8.937  16.402  65.825  1.00  0.00    -0.455 OA 
HETATM   13  C   UNL     1     -11.943  14.261  66.619  1.00  0.00    -0.430 C  
HETATM   14  H   UNL     1      -8.934  16.330  64.878  1.00  0.00     0.000 HD 
HETATM   15  O   UNL     1     -10.746  14.734  64.519  1.00  0.00    -0.605 OA 
HETATM   16  H   UNL     1     -10.988  13.857  64.246  1.00  0.00     0.000 HD 
BRANCH  13  17
HETATM   17  C   UNL     1     -12.277  12.830  66.125  1.00  0.00    -0.271 C  
HETATM   18  O   UNL     1     -13.011  12.849  64.901  1.00  0.00    -0.754 OA 
HETATM   19  H   UNL     1     -13.216  11.972  64.599  1.00  0.00     0.000 HD 
ENDBRANCH  13  17
ENDBRANCH   4   5
ENDBRANCH   3   4
ENDBRANCH   2   3
TORSDOF 4
ENDMDL
MODEL       28
REMARK 921   NORMALIZED FREE ENERGY PREDICTED BY IDOCK:   -4.64 KCAL/MOL
REMARK 922        TOTAL FREE ENERGY PREDICTED BY IDOCK:   -6.22 KCAL/MOL
REMARK 923 INTER-LIGAND FREE ENERGY PREDICTED BY IDOCK:   -5.75 KCAL/MOL
REMARK 924 INTRA-LIGAND FREE ENERGY PREDICTED BY IDOCK:   -0.47 KCAL/MOL
REMARK 927      BINDING AFFINITY PREDICTED BY RF-SCORE:    0.00 PKD
ROOT
HETATM    1  C   UNL     1      -7.310  12.552  68.223  1.00  0.00    -0.115 C  
HETATM    2  C   UNL     1      -8.521  11.653  68.426  1.00  0.00    -0.157 C  
ENDROOT
BRANCH   2   3
HETATM    3  C   UNL     1      -9.091  11.153  67.094  1.00  0.00    -0.151 C  
BRANCH   3   4
HETATM    4  C   UNL     1      -9.540  12.305  66.169  1.00  0.00    -0.240 C  
BRANCH   4   5
HETATM    5  N   UNL     1     -10.907  12.786  66.439  1.00  0.00    -0.267 NA 
HETATM    6  C   UNL     1     -10.940  14.114  67.076  1.00  0.00    -0.300 C  
HETATM    7  C   UNL     1     -10.562  15.272  66.133  1.00  0.00    -0.313 C  
HETATM    8  C   UNL     1     -11.551  15.292  64.963  1.00  0.00    -0.239 C  
HETATM    9  O   UNL     1     -10.589  16.531  66.811  1.00  0.00    -0.295 OA 
HETATM   10  H   UNL     1     -10.356  17.246  66.229  1.00  0.00     0.000 HD 
HETATM   11  C   UNL     1     -11.595  13.931  64.264  1.00  0.00    -0.355 C  
HETATM   12  O   UNL     1     -11.187  16.247  63.948  1.00  0.00    -1.264 OA 
HETATM   13  C   UNL     1     -11.823  12.765  65.260  1.00  0.00    -0.403 C  
HETATM   14  H   UNL     1     -11.800  16.260  63.223  1.00  0.00     0.000 HD 
HETATM   15  O   UNL     1     -12.640  13.969  63.272  1.00  0.00    -1.073 OA 
HETATM   16  H   UNL     1     -12.668  13.124  62.838  1.00  0.00     0.000 HD 
BRANCH  13  17
HETATM   17  C   UNL     1     -11.862  11.424  64.483  1.00  0.00     0.209 C  
HETATM   18  O   UNL     1     -11.342  11.560  63.161  1.00  0.00    -0.790 OA 
HETATM   19  H   UNL     1     -11.366  10.738  62.686  1.00  0.00     0.000 HD 
ENDBRANCH  13  17
ENDBRANCH   4   5
ENDBRANCH   3   4
ENDBRANCH   2   3
TORSDOF 4
ENDMDL
MODEL       29
REMARK 921   NORMALIZED FREE ENERGY PREDICTED BY IDOCK:   -4.62 KCAL/MOL
REMARK 922        TOTAL FREE ENERGY PREDICTED BY IDOCK:   -6.20 KCAL/MOL
REMARK 923 INTER-LIGAND FREE ENERGY PREDICTED BY IDOCK:   -5.69 KCAL/MOL
REMARK 924 INTRA-LIGAND FREE ENERGY PREDICTED BY IDOCK:   -0.50 KCAL/MOL
REMARK 927      BINDING AFFINITY PREDICTED BY RF-SCORE:    0.00 PKD
ROOT
HETATM    1  C   UNL     1     -10.320   9.914  67.668  1.00  0.00    -0.275 C  
HETATM    2  C   UNL     1     -10.606  11.096  66.753  1.00  0.00    -0.311 C  
ENDROOT
BRANCH   2   3
HETATM    3  C   UNL     1     -11.785  11.935  67.256  1.00  0.00    -0.319 C  
BRANCH   3   4
HETATM    4  C   UNL     1     -11.554  13.452  67.081  1.00  0.00    -0.358 C  
BRANCH   4   5
HETATM    5  N   UNL     1     -10.337  13.783  66.318  1.00  0.00    -0.287 NA 
HETATM    6  C   UNL     1     -10.622  14.413  65.017  1.00  0.00    -0.432 C  
HETATM    7  C   UNL     1     -11.128  15.864  65.120  1.00  0.00    -0.311 C  
HETATM    8  C   UNL     1     -10.057  16.707  65.822  1.00  0.00    -0.277 C  
HETATM    9  O   UNL     1     -11.410  16.416  63.831  1.00  0.00    -1.510 OA 
HETATM   10  H   UNL     1     -11.721  17.311  63.895  1.00  0.00     0.000 HD 
HETATM   11  C   UNL     1      -9.686  16.097  67.176  1.00  0.00    -0.233 C  
HETATM   12  O   UNL     1     -10.504  18.048  66.101  1.00  0.00    -0.386 OA 
HETATM   13  C   UNL     1      -9.329  14.593  67.065  1.00  0.00    -0.232 C  
HETATM   14  H   UNL     1      -9.841  18.570  66.535  1.00  0.00     0.000 HD 
HETATM   15  O   UNL     1      -8.580  16.846  67.717  1.00  0.00    -0.202 OA 
HETATM   16  H   UNL     1      -8.348  16.468  68.557  1.00  0.00     0.000 HD 
BRANCH  13  17
HETATM   17  C   UNL     1      -8.958  14.046  68.467  1.00  0.00    -0.160 C  
HETATM   18  O   UNL     1      -9.365  14.934  69.508  1.00  0.00    -0.399 OA 
HETATM   19  H   UNL     1      -9.137  14.599  70.367  1.00  0.00     0.000 HD 
ENDBRANCH  13  17
ENDBRANCH   4   5
ENDBRANCH   3   4
ENDBRANCH   2   3
TORSDOF 4
ENDMDL
MODEL       30
REMARK 921   NORMALIZED FREE ENERGY PREDICTED BY IDOCK:   -4.55 KCAL/MOL
REMARK 922        TOTAL FREE ENERGY PREDICTED BY IDOCK:   -6.11 KCAL/MOL
REMARK 923 INTER-LIGAND FREE ENERGY PREDICTED BY IDOCK:   -5.66 KCAL/MOL
REMARK 924 INTRA-LIGAND FREE ENERGY PREDICTED BY IDOCK:   -0.45 KCAL/MOL
REMARK 927      BINDING AFFINITY PREDICTED BY RF-SCORE:    0.00 PKD
ROOT
HETATM    1  C   UNL     1     -12.191   9.758  70.978  1.00  0.00    -0.436 C  
HETATM    2  C   UNL     1     -11.682  11.007  70.272  1.00  0.00    -0.445 C  
ENDROOT
BRANCH   2   3
HETATM    3  C   UNL     1     -11.674  10.837  68.749  1.00  0.00    -0.315 C  
BRANCH   3   4
HETATM    4  C   UNL     1     -11.747  12.185  67.999  1.00  0.00    -0.344 C  
BRANCH   4   5
HETATM    5  N   UNL     1     -10.435  12.823  67.794  1.00  0.00    -0.219 NA 
HETATM    6  C   UNL     1      -9.799  12.446  66.520  1.00  0.00    -0.235 C  
HETATM    7  C   UNL     1     -10.460  13.074  65.279  1.00  0.00    -0.304 C  
HETATM    8  C   UNL     1     -10.386  14.599  65.403  1.00  0.00    -0.383 C  
HETATM    9  O   UNL     1      -9.817  12.655  64.072  1.00  0.00    -0.606 OA 
HETATM   10  H   UNL     1     -10.225  13.043  63.306  1.00  0.00     0.000 HD 
HETATM   11  C   UNL     1     -11.004  15.069  66.722  1.00  0.00    -0.323 C  
HETATM   12  O   UNL     1     -11.115  15.275  64.362  1.00  0.00    -0.660 OA 
HETATM   13  C   UNL     1     -10.429  14.309  67.945  1.00  0.00    -0.240 C  
HETATM   14  H   UNL     1     -11.068  16.221  64.438  1.00  0.00     0.000 HD 
HETATM   15  O   UNL     1     -10.775  16.486  66.847  1.00  0.00    -0.279 OA 
HETATM   16  H   UNL     1     -11.158  16.778  67.666  1.00  0.00     0.000 HD 
BRANCH  13  17
HETATM   17  C   UNL     1     -11.094  14.839  69.242  1.00  0.00    -0.266 C  
HETATM   18  O   UNL     1     -12.328  15.503  68.972  1.00  0.00    -0.607 OA 
HETATM   19  H   UNL     1     -12.735  15.828  69.766  1.00  0.00     0.000 HD 
ENDBRANCH  13  17
ENDBRANCH   4   5
ENDBRANCH   3   4
ENDBRANCH   2   3
TORSDOF 4
ENDMDL
MODEL       31
REMARK 921   NORMALIZED FREE ENERGY PREDICTED BY IDOCK:   -4.54 KCAL/MOL
REMARK 922        TOTAL FREE ENERGY PREDICTED BY IDOCK:   -6.09 KCAL/MOL
REMARK 923 INTER-LIGAND FREE ENERGY PREDICTED BY IDOCK:   -5.70 KCAL/MOL
REMARK 924 INTRA-LIGAND FREE ENERGY PREDICTED BY IDOCK:   -0.39 KCAL/MOL
REMARK 927      BINDING AFFINITY PREDICTED BY RF-SCORE:    0.00 PKD
ROOT
HETATM    1  C   UNL     1     -11.890  15.685  68.749  1.00  0.00    -0.336 C  
HETATM    2  C   UNL     1     -10.911  14.546  68.997  1.00  0.00    -0.272 C  
ENDROOT
BRANCH   2   3
HETATM    3  C   UNL     1     -11.585  13.176  68.867  1.00  0.00    -0.354 C  
BRANCH   3   4
HETATM    4  C   UNL     1     -11.696  12.704  67.401  1.00  0.00    -0.369 C  
BRANCH   4   5
HETATM    5  N   UNL     1     -10.660  13.267  66.516  1.00  0.00    -0.283 NA 
HETATM    6  C   UNL     1      -9.404  12.498  66.528  1.00  0.00    -0.233 C  
HETATM    7  C   UNL     1      -9.492  11.142  65.803  1.00  0.00    -0.221 C  
HETATM    8  C   UNL     1      -9.870  11.393  64.339  1.00  0.00    -0.261 C  
HETATM    9  O   UNL     1      -8.253  10.430  65.867  1.00  0.00    -0.139 OA 
HETATM   10  H   UNL     1      -8.307   9.594  65.420  1.00  0.00     0.000 HD 
HETATM   11  C   UNL     1     -11.157  12.216  64.243  1.00  0.00    -0.346 C  
HETATM   12  O   UNL     1     -10.125  10.173  63.618  1.00  0.00    -0.483 OA 
HETATM   13  C   UNL     1     -11.099  13.502  65.107  1.00  0.00    -0.316 C  
HETATM   14  H   UNL     1     -10.359  10.329  62.710  1.00  0.00     0.000 HD 
HETATM   15  O   UNL     1     -11.380  12.541  62.857  1.00  0.00    -0.677 OA 
HETATM   16  H   UNL     1     -12.179  13.052  62.797  1.00  0.00     0.000 HD 
BRANCH  13  17
HETATM   17  C   UNL     1     -12.429  14.285  64.956  1.00  0.00    -0.400 C  
HETATM   18  O   UNL     1     -12.573  14.839  63.650  1.00  0.00    -1.014 OA 
HETATM   19  H   UNL     1     -13.387  15.319  63.558  1.00  0.00     0.000 HD 
ENDBRANCH  13  17
ENDBRANCH   4   5
ENDBRANCH   3   4
ENDBRANCH   2   3
TORSDOF 4
ENDMDL
MODEL       32
REMARK 921   NORMALIZED FREE ENERGY PREDICTED BY IDOCK:   -4.51 KCAL/MOL
REMARK 922        TOTAL FREE ENERGY PREDICTED BY IDOCK:   -6.05 KCAL/MOL
REMARK 923 INTER-LIGAND FREE ENERGY PREDICTED BY IDOCK:   -5.60 KCAL/MOL
REMARK 924 INTRA-LIGAND FREE ENERGY PREDICTED BY IDOCK:   -0.45 KCAL/MOL
REMARK 927      BINDING AFFINITY PREDICTED BY RF-SCORE:    0.00 PKD
ROOT
HETATM    1  C   UNL     1      -8.424  19.473  66.480  1.00  0.00    -0.365 C  
HETATM    2  C   UNL     1      -8.595  18.243  67.359  1.00  0.00    -0.250 C  
ENDROOT
BRANCH   2   3
HETATM    3  C   UNL     1      -7.962  16.998  66.728  1.00  0.00    -0.274 C  
BRANCH   3   4
HETATM    4  C   UNL     1      -8.994  15.885  66.444  1.00  0.00    -0.326 C  
BRANCH   4   5
HETATM    5  N   UNL     1     -10.395  16.327  66.568  1.00  0.00    -0.300 NA 
HETATM    6  C   UNL     1     -11.149  16.227  65.307  1.00  0.00    -0.151 C  
HETATM    7  C   UNL     1     -11.490  14.783  64.894  1.00  0.00    -0.412 C  
HETATM    8  C   UNL     1     -12.340  14.145  65.997  1.00  0.00    -0.445 C  
HETATM    9  O   UNL     1     -12.201  14.745  63.653  1.00  0.00    -0.969 OA 
HETATM   10  H   UNL     1     -12.411  13.855  63.398  1.00  0.00     0.000 HD 
HETATM   11  C   UNL     1     -11.632  14.236  67.351  1.00  0.00    -0.369 C  
HETATM   12  O   UNL     1     -12.580  12.744  65.770  1.00  0.00    -0.562 OA 
HETATM   13  C   UNL     1     -11.162  15.678  67.673  1.00  0.00    -0.274 C  
HETATM   14  H   UNL     1     -13.107  12.348  66.454  1.00  0.00     0.000 HD 
HETATM   15  O   UNL     1     -12.536  13.755  68.365  1.00  0.00    -0.255 OA 
HETATM   16  H   UNL     1     -12.097  13.812  69.205  1.00  0.00     0.000 HD 
BRANCH  13  17
HETATM   17  C   UNL     1     -10.462  15.696  69.056  1.00  0.00    -0.229 C  
HETATM   18  O   UNL     1     -10.105  14.383  69.487  1.00  0.00    -0.422 OA 
HETATM   19  H   UNL     1      -9.676  14.394  70.334  1.00  0.00     0.000 HD 
ENDBRANCH  13  17
ENDBRANCH   4   5
ENDBRANCH   3   4
ENDBRANCH   2   3
TORSDOF 4
ENDMDL
MODEL       33
REMARK 921   NORMALIZED FREE ENERGY PREDICTED BY IDOCK:   -4.43 KCAL/MOL
REMARK 922        TOTAL FREE ENERGY PREDICTED BY IDOCK:   -5.96 KCAL/MOL
REMARK 923 INTER-LIGAND FREE ENERGY PREDICTED BY IDOCK:   -5.78 KCAL/MOL
REMARK 924 INTRA-LIGAND FREE ENERGY PREDICTED BY IDOCK:   -0.18 KCAL/MOL
REMARK 927      BINDING AFFINITY PREDICTED BY RF-SCORE:    0.00 PKD
ROOT
HETATM    1  C   UNL     1     -10.145   7.905  67.022  1.00  0.00    -0.347 C  
HETATM    2  C   UNL     1     -10.734   9.287  66.784  1.00  0.00    -0.120 C  
ENDROOT
BRANCH   2   3
HETATM    3  C   UNL     1     -10.161   9.943  65.523  1.00  0.00    -0.297 C  
BRANCH   3   4
HETATM    4  C   UNL     1     -10.169  11.486  65.598  1.00  0.00    -0.248 C  
BRANCH   4   5
HETATM    5  N   UNL     1     -11.508  12.063  65.813  1.00  0.00    -0.341 NA 
HETATM    6  C   UNL     1     -11.677  12.653  67.151  1.00  0.00    -0.371 C  
HETATM    7  C   UNL     1     -10.915  13.976  67.355  1.00  0.00    -0.293 C  
HETATM    8  C   UNL     1     -11.420  14.996  66.329  1.00  0.00    -0.214 C  
HETATM    9  O   UNL     1     -11.098  14.490  68.678  1.00  0.00    -0.237 OA 
HETATM   10  H   UNL     1     -10.627  15.306  68.803  1.00  0.00     0.000 HD 
HETATM   11  C   UNL     1     -11.302  14.441  64.907  1.00  0.00    -0.380 C  
HETATM   12  O   UNL     1     -10.658  16.217  66.342  1.00  0.00    -0.306 OA 
HETATM   13  C   UNL     1     -11.945  13.037  64.768  1.00  0.00    -0.395 C  
HETATM   14  H   UNL     1     -10.971  16.849  65.706  1.00  0.00     0.000 HD 
HETATM   15  O   UNL     1     -11.923  15.379  64.006  1.00  0.00    -0.904 OA 
HETATM   16  H   UNL     1     -11.850  15.035  63.124  1.00  0.00     0.000 HD 
BRANCH  13  17
HETATM   17  C   UNL     1     -11.794  12.543  63.306  1.00  0.00    -0.413 C  
HETATM   18  O   UNL     1     -12.777  11.564  62.973  1.00  0.00    -0.915 OA 
HETATM   19  H   UNL     1     -12.684  11.262  62.077  1.00  0.00     0.000 HD 
ENDBRANCH  13  17
ENDBRANCH   4   5
ENDBRANCH   3   4
ENDBRANCH   2   3
TORSDOF 4
ENDMDL
MODEL       34
REMARK 921   NORMALIZED FREE ENERGY PREDICTED BY IDOCK:   -4.43 KCAL/MOL
REMARK 922        TOTAL FREE ENERGY PREDICTED BY IDOCK:   -5.95 KCAL/MOL
REMARK 923 INTER-LIGAND FREE ENERGY PREDICTED BY IDOCK:   -5.44 KCAL/MOL
REMARK 924 INTRA-LIGAND FREE ENERGY PREDICTED BY IDOCK:   -0.51 KCAL/MOL
REMARK 927      BINDING AFFINITY PREDICTED BY RF-SCORE:    0.00 PKD
ROOT
HETATM    1  C   UNL     1     -10.512  11.291  63.811  1.00  0.00    -0.459 C  
HETATM    2  C   UNL     1     -11.748  12.043  63.338  1.00  0.00    -0.519 C  
ENDROOT
BRANCH   2   3
HETATM    3  C   UNL     1     -11.870  13.417  64.005  1.00  0.00    -0.498 C  
BRANCH   3   4
HETATM    4  C   UNL     1     -10.774  13.664  65.064  1.00  0.00    -0.367 C  
BRANCH   4   5
HETATM    5  N   UNL     1     -11.296  14.114  66.367  1.00  0.00    -0.328 NA 
HETATM    6  C   UNL     1     -12.134  13.104  67.036  1.00  0.00    -0.307 C  
HETATM    7  C   UNL     1     -11.344  11.909  67.602  1.00  0.00    -0.304 C  
HETATM    8  C   UNL     1     -10.335  12.432  68.630  1.00  0.00    -0.182 C  
HETATM    9  O   UNL     1     -12.209  10.952  68.219  1.00  0.00    -0.804 OA 
HETATM   10  H   UNL     1     -11.722  10.215  68.569  1.00  0.00     0.000 HD 
HETATM   11  C   UNL     1      -9.441  13.512  68.013  1.00  0.00    -0.220 C  
HETATM   12  O   UNL     1      -9.444  11.404  69.103  1.00  0.00    -0.408 OA 
HETATM   13  C   UNL     1     -10.262  14.626  67.315  1.00  0.00    -0.241 C  
HETATM   14  H   UNL     1      -8.818  11.728  69.739  1.00  0.00     0.000 HD 
HETATM   15  O   UNL     1      -8.617  14.064  69.059  1.00  0.00    -0.358 OA 
HETATM   16  H   UNL     1      -8.063  14.734  68.677  1.00  0.00     0.000 HD 
BRANCH  13  17
HETATM   17  C   UNL     1      -9.296  15.684  66.722  1.00  0.00    -0.246 C  
HETATM   18  O   UNL     1      -8.970  16.697  67.673  1.00  0.00    -0.203 OA 
HETATM   19  H   UNL     1      -8.378  17.344  67.309  1.00  0.00     0.000 HD 
ENDBRANCH  13  17
ENDBRANCH   4   5
ENDBRANCH   3   4
ENDBRANCH   2   3
TORSDOF 4
ENDMDL
MODEL       35
REMARK 921   NORMALIZED FREE ENERGY PREDICTED BY IDOCK:   -4.40 KCAL/MOL
REMARK 922        TOTAL FREE ENERGY PREDICTED BY IDOCK:   -5.92 KCAL/MOL
REMARK 923 INTER-LIGAND FREE ENERGY PREDICTED BY IDOCK:   -5.56 KCAL/MOL
REMARK 924 INTRA-LIGAND FREE ENERGY PREDICTED BY IDOCK:   -0.36 KCAL/MOL
REMARK 927      BINDING AFFINITY PREDICTED BY RF-SCORE:    0.00 PKD
ROOT
HETATM    1  C   UNL     1     -12.018  13.093  63.646  1.00  0.00    -0.580 C  
HETATM    2  C   UNL     1     -12.656  12.446  64.867  1.00  0.00    -0.372 C  
ENDROOT
BRANCH   2   3
HETATM    3  C   UNL     1     -11.664  12.319  66.029  1.00  0.00    -0.451 C  
BRANCH   3   4
HETATM    4  C   UNL     1     -10.530  13.364  65.961  1.00  0.00    -0.294 C  
BRANCH   4   5
HETATM    5  N   UNL     1     -10.767  14.553  66.798  1.00  0.00    -0.287 NA 
HETATM    6  C   UNL     1     -10.204  14.430  68.154  1.00  0.00    -0.232 C  
HETATM    7  C   UNL     1      -8.668  14.520  68.206  1.00  0.00    -0.173 C  
HETATM    8  C   UNL     1      -8.237  15.880  67.645  1.00  0.00    -0.150 C  
HETATM    9  O   UNL     1      -8.177  14.371  69.542  1.00  0.00    -0.373 OA 
HETATM   10  H   UNL     1      -7.229  14.427  69.574  1.00  0.00     0.000 HD 
HETATM   11  C   UNL     1      -8.809  16.095  66.242  1.00  0.00    -0.336 C  
HETATM   12  O   UNL     1      -6.808  15.995  67.512  1.00  0.00    -0.143 OA 
HETATM   13  C   UNL     1     -10.339  15.847  66.186  1.00  0.00    -0.328 C  
HETATM   14  H   UNL     1      -6.541  16.838  67.165  1.00  0.00     0.000 HD 
HETATM   15  O   UNL     1      -8.494  17.439  65.829  1.00  0.00    -0.532 OA 
HETATM   16  H   UNL     1      -8.849  17.573  64.959  1.00  0.00     0.000 HD 
BRANCH  13  17
HETATM   17  C   UNL     1     -10.848  16.088  64.741  1.00  0.00    -0.294 C  
HETATM   18  O   UNL     1     -11.210  17.452  64.527  1.00  0.00    -1.018 OA 
HETATM   19  H   UNL     1     -11.522  17.599  63.642  1.00  0.00     0.000 HD 
ENDBRANCH  13  17
ENDBRANCH   4   5
ENDBRANCH   3   4
ENDBRANCH   2   3
TORSDOF 4
ENDMDL
MODEL       36
REMARK 921   NORMALIZED FREE ENERGY PREDICTED BY IDOCK:   -4.38 KCAL/MOL
REMARK 922        TOTAL FREE ENERGY PREDICTED BY IDOCK:   -5.89 KCAL/MOL
REMARK 923 INTER-LIGAND FREE ENERGY PREDICTED BY IDOCK:   -5.49 KCAL/MOL
REMARK 924 INTRA-LIGAND FREE ENERGY PREDICTED BY IDOCK:   -0.40 KCAL/MOL
REMARK 927      BINDING AFFINITY PREDICTED BY RF-SCORE:    0.00 PKD
ROOT
HETATM    1  C   UNL     1      -9.672   6.777  66.792  1.00  0.00    -0.222 C  
HETATM    2  C   UNL     1     -10.606   7.977  66.834  1.00  0.00    -0.324 C  
ENDROOT
BRANCH   2   3
HETATM    3  C   UNL     1      -9.945   9.236  66.261  1.00  0.00    -0.357 C  
BRANCH   3   4
HETATM    4  C   UNL     1     -10.707  10.528  66.627  1.00  0.00    -0.155 C  
BRANCH   4   5
HETATM    5  N   UNL     1     -10.178  11.736  65.969  1.00  0.00    -0.222 NA 
HETATM    6  C   UNL     1     -10.754  11.969  64.633  1.00  0.00    -0.309 C  
HETATM    7  C   UNL     1     -12.218  12.445  64.656  1.00  0.00    -0.425 C  
HETATM    8  C   UNL     1     -12.292  13.765  65.431  1.00  0.00    -0.475 C  
HETATM    9  O   UNL     1     -12.730  12.632  63.333  1.00  0.00    -0.705 OA 
HETATM   10  H   UNL     1     -13.634  12.927  63.347  1.00  0.00     0.000 HD 
HETATM   11  C   UNL     1     -11.684  13.610  66.827  1.00  0.00    -0.392 C  
HETATM   12  O   UNL     1     -13.646  14.211  65.636  1.00  0.00    -0.671 OA 
HETATM   13  C   UNL     1     -10.266  12.984  66.785  1.00  0.00    -0.246 C  
HETATM   14  H   UNL     1     -13.691  15.029  66.117  1.00  0.00     0.000 HD 
HETATM   15  O   UNL     1     -11.649  14.910  67.449  1.00  0.00    -0.355 OA 
HETATM   16  H   UNL     1     -11.272  14.815  68.315  1.00  0.00     0.000 HD 
BRANCH  13  17
HETATM   17  C   UNL     1      -9.712  12.864  68.228  1.00  0.00    -0.217 C  
HETATM   18  O   UNL     1     -10.751  12.937  69.204  1.00  0.00    -0.415 OA 
HETATM   19  H   UNL     1     -10.412  12.864  70.088  1.00  0.00     0.000 HD 
ENDBRANCH  13  17
ENDBRANCH   4   5
ENDBRANCH   3   4
ENDBRANCH   2   3
TORSDOF 4
ENDMDL
MODEL       37
REMARK 921   NORMALIZED FREE ENERGY PREDICTED BY IDOCK:   -4.37 KCAL/MOL
REMARK 922        TOTAL FREE ENERGY PREDICTED BY IDOCK:   -5.88 KCAL/MOL
REMARK 923 INTER-LIGAND FREE ENERGY PREDICTED BY IDOCK:   -5.45 KCAL/MOL
REMARK 924 INTRA-LIGAND FREE ENERGY PREDICTED BY IDOCK:   -0.44 KCAL/MOL
REMARK 927      BINDING AFFINITY PREDICTED BY RF-SCORE:    0.00 PKD
ROOT
HETATM    1  C   UNL     1     -12.062  14.012  66.293  1.00  0.00    -0.482 C  
HETATM    2  C   UNL     1     -11.244  14.432  65.080  1.00  0.00    -0.359 C  
ENDROOT
BRANCH   2   3
HETATM    3  C   UNL     1      -9.944  15.136  65.484  1.00  0.00    -0.384 C  
BRANCH   3   4
HETATM    4  C   UNL     1     -10.190  16.531  66.099  1.00  0.00    -0.346 C  
BRANCH   4   5
HETATM    5  N   UNL     1      -9.178  16.927  67.096  1.00  0.00    -0.225 NA 
HETATM    6  C   UNL     1      -8.139  17.815  66.548  1.00  0.00    -0.272 C  
HETATM    7  C   UNL     1      -8.627  19.247  66.259  1.00  0.00    -0.325 C  
HETATM    8  C   UNL     1      -9.126  19.868  67.569  1.00  0.00    -0.340 C  
HETATM    9  O   UNL     1      -7.584  20.057  65.708  1.00  0.00    -0.358 OA 
HETATM   10  H   UNL     1      -7.885  20.941  65.530  1.00  0.00     0.000 HD 
HETATM   11  C   UNL     1     -10.194  18.983  68.217  1.00  0.00    -0.386 C  
HETATM   12  O   UNL     1      -9.744  21.154  67.371  1.00  0.00    -0.567 OA 
HETATM   13  C   UNL     1      -9.733  17.509  68.355  1.00  0.00    -0.316 C  
HETATM   14  H   UNL     1     -10.053  21.538  68.183  1.00  0.00     0.000 HD 
HETATM   15  O   UNL     1     -10.517  19.540  69.507  1.00  0.00    -0.503 OA 
HETATM   16  H   UNL     1     -11.179  18.991  69.909  1.00  0.00     0.000 HD 
BRANCH  13  17
HETATM   17  C   UNL     1     -10.858  16.677  69.022  1.00  0.00    -0.314 C  
HETATM   18  O   UNL     1     -10.843  16.808  70.443  1.00  0.00    -0.270 OA 
HETATM   19  H   UNL     1     -11.532  16.298  70.852  1.00  0.00     0.000 HD 
ENDBRANCH  13  17
ENDBRANCH   4   5
ENDBRANCH   3   4
ENDBRANCH   2   3
TORSDOF 4
ENDMDL
MODEL       38
REMARK 921   NORMALIZED FREE ENERGY PREDICTED BY IDOCK:   -4.31 KCAL/MOL
REMARK 922        TOTAL FREE ENERGY PREDICTED BY IDOCK:   -5.81 KCAL/MOL
REMARK 923 INTER-LIGAND FREE ENERGY PREDICTED BY IDOCK:   -5.39 KCAL/MOL
REMARK 924 INTRA-LIGAND FREE ENERGY PREDICTED BY IDOCK:   -0.42 KCAL/MOL
REMARK 927      BINDING AFFINITY PREDICTED BY RF-SCORE:    0.00 PKD
ROOT
HETATM    1  C   UNL     1     -14.135  14.949  71.331  1.00  0.00    -0.552 C  
HETATM    2  C   UNL     1     -12.704  14.526  71.629  1.00  0.00    -0.414 C  
ENDROOT
BRANCH   2   3
HETATM    3  C   UNL     1     -11.687  15.351  70.833  1.00  0.00    -0.395 C  
BRANCH   3   4
HETATM    4  C   UNL     1     -11.235  14.647  69.535  1.00  0.00    -0.269 C  
BRANCH   4   5
HETATM    5  N   UNL     1     -11.641  15.351  68.305  1.00  0.00    -0.361 NA 
HETATM    6  C   UNL     1     -11.039  16.689  68.177  1.00  0.00    -0.285 C  
HETATM    7  C   UNL     1      -9.535  16.671  67.844  1.00  0.00    -0.225 C  
HETATM    8  C   UNL     1      -9.337  15.941  66.511  1.00  0.00    -0.277 C  
HETATM    9  O   UNL     1      -9.001  17.995  67.755  1.00  0.00    -0.250 OA 
HETATM   10  H   UNL     1      -8.073  17.983  67.549  1.00  0.00     0.000 HD 
HETATM   11  C   UNL     1      -9.965  14.546  66.557  1.00  0.00    -0.280 C  
HETATM   12  O   UNL     1      -7.948  15.741  66.192  1.00  0.00    -0.211 OA 
HETATM   13  C   UNL     1     -11.436  14.578  67.044  1.00  0.00    -0.370 C  
HETATM   14  H   UNL     1      -7.825  15.289  65.366  1.00  0.00     0.000 HD 
HETATM   15  O   UNL     1      -9.875  13.970  65.238  1.00  0.00    -0.540 OA 
HETATM   16  H   UNL     1     -10.265  13.104  65.266  1.00  0.00     0.000 HD 
BRANCH  13  17
HETATM   17  C   UNL     1     -12.006  13.136  67.058  1.00  0.00    -0.355 C  
HETATM   18  O   UNL     1     -12.419  12.716  65.758  1.00  0.00    -0.607 OA 
HETATM   19  H   UNL     1     -12.768  11.832  65.768  1.00  0.00     0.000 HD 
ENDBRANCH  13  17
ENDBRANCH   4   5
ENDBRANCH   3   4
ENDBRANCH   2   3
TORSDOF 4
ENDMDL
MODEL       39
REMARK 921   NORMALIZED FREE ENERGY PREDICTED BY IDOCK:   -4.31 KCAL/MOL
REMARK 922        TOTAL FREE ENERGY PREDICTED BY IDOCK:   -5.81 KCAL/MOL
REMARK 923 INTER-LIGAND FREE ENERGY PREDICTED BY IDOCK:   -5.43 KCAL/MOL
REMARK 924 INTRA-LIGAND FREE ENERGY PREDICTED BY IDOCK:   -0.38 KCAL/MOL
REMARK 927      BINDING AFFINITY PREDICTED BY RF-SCORE:    0.00 PKD
ROOT
HETATM    1  C   UNL     1      -7.630  20.466  67.044  1.00  0.00    -0.360 C  
HETATM    2  C   UNL     1      -8.508  19.478  67.798  1.00  0.00    -0.352 C  
ENDROOT
BRANCH   2   3
HETATM    3  C   UNL     1      -9.859  19.271  67.106  1.00  0.00    -0.425 C  
BRANCH   3   4
HETATM    4  C   UNL     1     -10.645  18.072  67.681  1.00  0.00    -0.399 C  
BRANCH   4   5
HETATM    5  N   UNL     1      -9.870  16.819  67.722  1.00  0.00    -0.252 NA 
HETATM    6  C   UNL     1      -9.622  16.335  69.091  1.00  0.00    -0.251 C  
HETATM    7  C   UNL     1     -10.868  15.757  69.787  1.00  0.00    -0.314 C  
HETATM    8  C   UNL     1     -11.387  14.575  68.961  1.00  0.00    -0.272 C  
HETATM    9  O   UNL     1     -10.574  15.325  71.118  1.00  0.00    -0.462 OA 
HETATM   10  H   UNL     1     -11.343  14.968  71.548  1.00  0.00     0.000 HD 
HETATM   11  C   UNL     1     -11.642  14.995  67.512  1.00  0.00    -0.301 C  
HETATM   12  O   UNL     1     -12.641  14.065  69.453  1.00  0.00    -0.449 OA 
HETATM   13  C   UNL     1     -10.421  15.713  66.883  1.00  0.00    -0.307 C  
HETATM   14  H   UNL     1     -12.962  13.332  68.941  1.00  0.00     0.000 HD 
HETATM   15  O   UNL     1     -11.986  13.816  66.757  1.00  0.00    -0.388 OA 
HETATM   16  H   UNL     1     -12.144  14.076  65.857  1.00  0.00     0.000 HD 
BRANCH  13  17
HETATM   17  C   UNL     1     -10.748  16.102  65.418  1.00  0.00    -0.358 C  
HETATM   18  O   UNL     1     -10.462  15.039  64.511  1.00  0.00    -0.540 OA 
HETATM   19  H   UNL     1     -10.663  15.277  63.613  1.00  0.00     0.000 HD 
ENDBRANCH  13  17
ENDBRANCH   4   5
ENDBRANCH   3   4
ENDBRANCH   2   3
TORSDOF 4
ENDMDL
MODEL       40
REMARK 921   NORMALIZED FREE ENERGY PREDICTED BY IDOCK:   -4.30 KCAL/MOL
REMARK 922        TOTAL FREE ENERGY PREDICTED BY IDOCK:   -5.79 KCAL/MOL
REMARK 923 INTER-LIGAND FREE ENERGY PREDICTED BY IDOCK:   -5.57 KCAL/MOL
REMARK 924 INTRA-LIGAND FREE ENERGY PREDICTED BY IDOCK:   -0.22 KCAL/MOL
REMARK 927      BINDING AFFINITY PREDICTED BY RF-SCORE:    0.00 PKD
ROOT
HETATM    1  C   UNL     1      -8.013   9.153  66.535  1.00  0.00    -0.100 C  
HETATM    2  C   UNL     1      -8.676   9.162  65.165  1.00  0.00    -0.228 C  
ENDROOT
BRANCH   2   3
HETATM    3  C   UNL     1      -8.764  10.577  64.583  1.00  0.00    -0.193 C  
BRANCH   3   4
HETATM    4  C   UNL     1      -9.412  11.583  65.558  1.00  0.00    -0.212 C  
BRANCH   4   5
HETATM    5  N   UNL     1     -10.816  11.274  65.884  1.00  0.00    -0.241 NA 
HETATM    6  C   UNL     1     -11.068  11.180  67.332  1.00  0.00    -0.307 C  
HETATM    7  C   UNL     1     -11.044  12.536  68.063  1.00  0.00    -0.245 C  
HETATM    8  C   UNL     1     -12.127  13.436  67.459  1.00  0.00    -0.279 C  
HETATM    9  O   UNL     1     -11.272  12.381  69.466  1.00  0.00    -0.420 OA 
HETATM   10  H   UNL     1     -11.257  13.218  69.917  1.00  0.00     0.000 HD 
HETATM   11  C   UNL     1     -11.949  13.561  65.944  1.00  0.00    -0.406 C  
HETATM   12  O   UNL     1     -12.081  14.780  67.975  1.00  0.00    -0.550 OA 
HETATM   13  C   UNL     1     -11.820  12.180  65.251  1.00  0.00    -0.295 C  
HETATM   14  H   UNL     1     -12.752  15.338  67.601  1.00  0.00     0.000 HD 
HETATM   15  O   UNL     1     -13.073  14.294  65.417  1.00  0.00    -0.685 OA 
HETATM   16  H   UNL     1     -12.962  14.371  64.477  1.00  0.00     0.000 HD 
BRANCH  13  17
HETATM   17  C   UNL     1     -11.649  12.383  63.723  1.00  0.00    -0.473 C  
HETATM   18  O   UNL     1     -12.433  11.455  62.974  1.00  0.00    -0.935 OA 
HETATM   19  H   UNL     1     -12.328  11.580  62.038  1.00  0.00     0.000 HD 
ENDBRANCH  13  17
ENDBRANCH   4   5
ENDBRANCH   3   4
ENDBRANCH   2   3
TORSDOF 4
ENDMDL
MODEL       41
REMARK 921   NORMALIZED FREE ENERGY PREDICTED BY IDOCK:   -4.27 KCAL/MOL
REMARK 922        TOTAL FREE ENERGY PREDICTED BY IDOCK:   -5.76 KCAL/MOL
REMARK 923 INTER-LIGAND FREE ENERGY PREDICTED BY IDOCK:   -5.35 KCAL/MOL
REMARK 924 INTRA-LIGAND FREE ENERGY PREDICTED BY IDOCK:   -0.41 KCAL/MOL
REMARK 927      BINDING AFFINITY PREDICTED BY RF-SCORE:    0.00 PKD
ROOT
HETATM    1  C   UNL     1      -5.574  13.157  68.253  1.00  0.00    -0.085 C  
HETATM    2  C   UNL     1      -6.427  14.408  68.103  1.00  0.00    -0.139 C  
ENDROOT
BRANCH   2   3
HETATM    3  C   UNL     1      -7.925  14.080  68.099  1.00  0.00    -0.149 C  
BRANCH   3   4
HETATM    4  C   UNL     1      -8.632  14.547  66.808  1.00  0.00    -0.131 C  
BRANCH   4   5
HETATM    5  N   UNL     1     -10.062  14.854  66.993  1.00  0.00    -0.242 NA 
HETATM    6  C   UNL     1     -10.301  15.963  67.932  1.00  0.00    -0.269 C  
HETATM    7  C   UNL     1      -9.926  17.349  67.376  1.00  0.00    -0.305 C  
HETATM    8  C   UNL     1     -10.762  17.614  66.119  1.00  0.00    -0.105 C  
HETATM    9  O   UNL     1     -10.156  18.382  68.337  1.00  0.00    -0.357 OA 
HETATM   10  H   UNL     1      -9.925  19.237  67.994  1.00  0.00     0.000 HD 
HETATM   11  C   UNL     1     -10.588  16.485  65.101  1.00  0.00    -0.215 C  
HETATM   12  O   UNL     1     -10.371  18.823  65.440  1.00  0.00    -0.433 OA 
HETATM   13  C   UNL     1     -10.822  15.086  65.728  1.00  0.00    -0.350 C  
HETATM   14  H   UNL     1     -10.889  18.988  64.662  1.00  0.00     0.000 HD 
HETATM   15  O   UNL     1     -11.504  16.716  64.012  1.00  0.00    -1.523 OA 
HETATM   16  H   UNL     1     -11.396  16.016  63.380  1.00  0.00     0.000 HD 
BRANCH  13  17
HETATM   17  C   UNL     1     -10.636  13.996  64.641  1.00  0.00    -0.395 C  
HETATM   18  O   UNL     1     -11.785  13.880  63.804  1.00  0.00    -0.650 OA 
HETATM   19  H   UNL     1     -11.671  13.212  63.138  1.00  0.00     0.000 HD 
ENDBRANCH  13  17
ENDBRANCH   4   5
ENDBRANCH   3   4
ENDBRANCH   2   3
TORSDOF 4
ENDMDL
MODEL       42
REMARK 921   NORMALIZED FREE ENERGY PREDICTED BY IDOCK:   -4.26 KCAL/MOL
REMARK 922        TOTAL FREE ENERGY PREDICTED BY IDOCK:   -5.74 KCAL/MOL
REMARK 923 INTER-LIGAND FREE ENERGY PREDICTED BY IDOCK:   -5.30 KCAL/MOL
REMARK 924 INTRA-LIGAND FREE ENERGY PREDICTED BY IDOCK:   -0.44 KCAL/MOL
REMARK 927      BINDING AFFINITY PREDICTED BY RF-SCORE:    0.00 PKD
ROOT
HETATM    1  C   UNL     1     -10.221  19.279  68.301  1.00  0.00    -0.513 C  
HETATM    2  C   UNL     1      -9.531  17.935  68.113  1.00  0.00    -0.288 C  
ENDROOT
BRANCH   2   3
HETATM    3  C   UNL     1     -10.200  17.098  67.018  1.00  0.00    -0.313 C  
BRANCH   3   4
HETATM    4  C   UNL     1     -10.329  15.608  67.403  1.00  0.00    -0.275 C  
BRANCH   4   5
HETATM    5  N   UNL     1     -11.716  15.178  67.659  1.00  0.00    -0.290 NA 
HETATM    6  C   UNL     1     -12.233  14.251  66.638  1.00  0.00    -0.381 C  
HETATM    7  C   UNL     1     -11.628  12.837  66.710  1.00  0.00    -0.370 C  
HETATM    8  C   UNL     1     -11.943  12.239  68.085  1.00  0.00    -0.195 C  
HETATM    9  O   UNL     1     -12.149  11.989  65.683  1.00  0.00    -0.508 OA 
HETATM   10  H   UNL     1     -11.776  11.116  65.728  1.00  0.00     0.000 HD 
HETATM   11  C   UNL     1     -11.459  13.163  69.205  1.00  0.00    -0.305 C  
HETATM   12  O   UNL     1     -11.287  10.976  68.302  1.00  0.00    -0.254 OA 
HETATM   13  C   UNL     1     -11.958  14.620  69.022  1.00  0.00    -0.283 C  
HETATM   14  H   UNL     1     -11.482  10.605  69.155  1.00  0.00     0.000 HD 
HETATM   15  O   UNL     1     -11.910  12.622  70.462  1.00  0.00    -0.525 OA 
HETATM   16  H   UNL     1     -11.610  13.195  71.157  1.00  0.00     0.000 HD 
BRANCH  13  17
HETATM   17  C   UNL     1     -11.436  15.494  70.192  1.00  0.00    -0.327 C  
HETATM   18  O   UNL     1     -10.190  15.016  70.697  1.00  0.00    -0.479 OA 
HETATM   19  H   UNL     1      -9.871  15.552  71.413  1.00  0.00     0.000 HD 
ENDBRANCH  13  17
ENDBRANCH   4   5
ENDBRANCH   3   4
ENDBRANCH   2   3
TORSDOF 4
ENDMDL
MODEL       43
REMARK 921   NORMALIZED FREE ENERGY PREDICTED BY IDOCK:   -4.25 KCAL/MOL
REMARK 922        TOTAL FREE ENERGY PREDICTED BY IDOCK:   -5.74 KCAL/MOL
REMARK 923 INTER-LIGAND FREE ENERGY PREDICTED BY IDOCK:   -5.26 KCAL/MOL
REMARK 924 INTRA-LIGAND FREE ENERGY PREDICTED BY IDOCK:   -0.48 KCAL/MOL
REMARK 927      BINDING AFFINITY PREDICTED BY RF-SCORE:    0.00 PKD
ROOT
HETATM    1  C   UNL     1     -12.143  13.058  63.210  1.00  0.00    -0.499 C  
HETATM    2  C   UNL     1     -11.562  12.456  64.481  1.00  0.00    -0.409 C  
ENDROOT
BRANCH   2   3
HETATM    3  C   UNL     1     -12.390  12.825  65.717  1.00  0.00    -0.388 C  
BRANCH   3   4
HETATM    4  C   UNL     1     -11.902  14.124  66.395  1.00  0.00    -0.423 C  
BRANCH   4   5
HETATM    5  N   UNL     1     -10.449  14.344  66.281  1.00  0.00    -0.284 NA 
HETATM    6  C   UNL     1     -10.104  15.632  65.655  1.00  0.00    -0.365 C  
HETATM    7  C   UNL     1     -10.366  16.855  66.553  1.00  0.00    -0.299 C  
HETATM    8  C   UNL     1      -9.526  16.716  67.827  1.00  0.00    -0.227 C  
HETATM    9  O   UNL     1     -10.036  18.077  65.887  1.00  0.00    -0.541 OA 
HETATM   10  H   UNL     1     -10.197  18.832  66.442  1.00  0.00     0.000 HD 
HETATM   11  C   UNL     1      -9.809  15.382  68.523  1.00  0.00    -0.207 C  
HETATM   12  O   UNL     1      -9.820  17.739  68.798  1.00  0.00    -0.332 OA 
HETATM   13  C   UNL     1      -9.688  14.177  67.555  1.00  0.00    -0.234 C  
HETATM   14  H   UNL     1      -9.299  17.653  69.587  1.00  0.00     0.000 HD 
HETATM   15  O   UNL     1      -8.890  15.247  69.625  1.00  0.00    -0.379 OA 
HETATM   16  H   UNL     1      -9.065  14.419  70.057  1.00  0.00     0.000 HD 
BRANCH  13  17
HETATM   17  C   UNL     1      -9.980  12.865  68.327  1.00  0.00    -0.234 C  
HETATM   18  O   UNL     1     -10.736  13.104  69.514  1.00  0.00    -0.443 OA 
HETATM   19  H   UNL     1     -10.914  12.299  69.986  1.00  0.00     0.000 HD 
ENDBRANCH  13  17
ENDBRANCH   4   5
ENDBRANCH   3   4
ENDBRANCH   2   3
TORSDOF 4
ENDMDL
MODEL       44
REMARK 921   NORMALIZED FREE ENERGY PREDICTED BY IDOCK:   -4.25 KCAL/MOL
REMARK 922        TOTAL FREE ENERGY PREDICTED BY IDOCK:   -5.74 KCAL/MOL
REMARK 923 INTER-LIGAND FREE ENERGY PREDICTED BY IDOCK:   -5.39 KCAL/MOL
REMARK 924 INTRA-LIGAND FREE ENERGY PREDICTED BY IDOCK:   -0.35 KCAL/MOL
REMARK 927      BINDING AFFINITY PREDICTED BY RF-SCORE:    0.00 PKD
ROOT
HETATM    1  C   UNL     1     -10.057  19.453  68.255  1.00  0.00    -0.531 C  
HETATM    2  C   UNL     1     -10.792  19.714  66.949  1.00  0.00    -0.505 C  
ENDROOT
BRANCH   2   3
HETATM    3  C   UNL     1     -10.456  18.665  65.884  1.00  0.00    -0.395 C  
BRANCH   3   4
HETATM    4  C   UNL     1     -10.507  17.222  66.433  1.00  0.00    -0.263 C  
BRANCH   4   5
HETATM    5  N   UNL     1      -9.736  16.254  65.633  1.00  0.00    -0.500 NA 
HETATM    6  C   UNL     1      -8.422  15.935  66.217  1.00  0.00    -0.267 C  
HETATM    7  C   UNL     1      -8.493  15.056  67.479  1.00  0.00    -0.174 C  
HETATM    8  C   UNL     1      -9.175  13.732  67.117  1.00  0.00    -0.243 C  
HETATM    9  O   UNL     1      -7.192  14.798  68.015  1.00  0.00    -0.111 OA 
HETATM   10  H   UNL     1      -7.236  14.255  68.793  1.00  0.00     0.000 HD 
HETATM   11  C   UNL     1     -10.542  13.983  66.475  1.00  0.00    -0.279 C  
HETATM   12  O   UNL     1      -9.424  12.905  68.269  1.00  0.00    -0.217 OA 
HETATM   13  C   UNL     1     -10.465  14.993  65.302  1.00  0.00    -0.403 C  
HETATM   14  H   UNL     1      -9.847  12.085  68.044  1.00  0.00     0.000 HD 
HETATM   15  O   UNL     1     -11.067  12.718  66.026  1.00  0.00    -0.274 OA 
HETATM   16  H   UNL     1     -11.915  12.873  65.628  1.00  0.00     0.000 HD 
BRANCH  13  17
HETATM   17  C   UNL     1     -11.879  15.192  64.699  1.00  0.00    -0.332 C  
HETATM   18  O   UNL     1     -12.048  14.457  63.487  1.00  0.00    -0.897 OA 
HETATM   19  H   UNL     1     -12.915  14.580  63.118  1.00  0.00     0.000 HD 
ENDBRANCH  13  17
ENDBRANCH   4   5
ENDBRANCH   3   4
ENDBRANCH   2   3
TORSDOF 4
ENDMDL
MODEL       45
REMARK 921   NORMALIZED FREE ENERGY PREDICTED BY IDOCK:   -4.23 KCAL/MOL
REMARK 922        TOTAL FREE ENERGY PREDICTED BY IDOCK:   -5.72 KCAL/MOL
REMARK 923 INTER-LIGAND FREE ENERGY PREDICTED BY IDOCK:   -5.27 KCAL/MOL
REMARK 924 INTRA-LIGAND FREE ENERGY PREDICTED BY IDOCK:   -0.45 KCAL/MOL
REMARK 927      BINDING AFFINITY PREDICTED BY RF-SCORE:    0.00 PKD
ROOT
HETATM    1  C   UNL     1     -12.232  13.485  70.512  1.00  0.00    -0.433 C  
HETATM    2  C   UNL     1     -12.274  11.964  70.557  1.00  0.00    -0.426 C  
ENDROOT
BRANCH   2   3
HETATM    3  C   UNL     1     -11.530  11.338  69.373  1.00  0.00    -0.370 C  
BRANCH   3   4
HETATM    4  C   UNL     1     -11.389  12.307  68.179  1.00  0.00    -0.295 C  
BRANCH   4   5
HETATM    5  N   UNL     1     -10.049  12.302  67.565  1.00  0.00    -0.199 NA 
HETATM    6  C   UNL     1      -9.602  10.959  67.157  1.00  0.00    -0.165 C  
HETATM    7  C   UNL     1     -10.331  10.405  65.919  1.00  0.00    -0.190 C  
HETATM    8  C   UNL     1     -10.086  11.354  64.741  1.00  0.00    -0.277 C  
HETATM    9  O   UNL     1      -9.874   9.091  65.584  1.00  0.00    -0.461 OA 
HETATM   10  H   UNL     1     -10.323   8.749  64.820  1.00  0.00     0.000 HD 
HETATM   11  C   UNL     1     -10.502  12.783  65.099  1.00  0.00    -0.300 C  
HETATM   12  O   UNL     1     -10.855  10.999  63.576  1.00  0.00    -0.573 OA 
HETATM   13  C   UNL     1      -9.873  13.261  66.434  1.00  0.00    -0.281 C  
HETATM   14  H   UNL     1     -10.703  11.587  62.846  1.00  0.00     0.000 HD 
HETATM   15  O   UNL     1     -10.115  13.649  64.014  1.00  0.00    -0.710 OA 
HETATM   16  H   UNL     1     -10.373  14.536  64.236  1.00  0.00     0.000 HD 
BRANCH  13  17
HETATM   17  C   UNL     1     -10.331  14.713  66.728  1.00  0.00    -0.268 C  
HETATM   18  O   UNL     1     -11.486  15.070  65.970  1.00  0.00    -0.321 OA 
HETATM   19  H   UNL     1     -11.766  15.959  66.150  1.00  0.00     0.000 HD 
ENDBRANCH  13  17
ENDBRANCH   4   5
ENDBRANCH   3   4
ENDBRANCH   2   3
TORSDOF 4
ENDMDL
MODEL       46
REMARK 921   NORMALIZED FREE ENERGY PREDICTED BY IDOCK:   -4.19 KCAL/MOL
REMARK 922        TOTAL FREE ENERGY PREDICTED BY IDOCK:   -5.66 KCAL/MOL
REMARK 923 INTER-LIGAND FREE ENERGY PREDICTED BY IDOCK:   -5.24 KCAL/MOL
REMARK 924 INTRA-LIGAND FREE ENERGY PREDICTED BY IDOCK:   -0.42 KCAL/MOL
REMARK 927      BINDING AFFINITY PREDICTED BY RF-SCORE:    0.00 PKD
ROOT
HETATM    1  C   UNL     1     -12.795  11.693  71.250  1.00  0.00    -0.430 C  
HETATM    2  C   UNL     1     -11.769  11.465  70.150  1.00  0.00    -0.414 C  
ENDROOT
BRANCH   2   3
HETATM    3  C   UNL     1     -11.386  12.772  69.447  1.00  0.00    -0.267 C  
BRANCH   3   4
HETATM    4  C   UNL     1     -10.748  12.538  68.061  1.00  0.00    -0.221 C  
BRANCH   4   5
HETATM    5  N   UNL     1     -11.665  11.930  67.080  1.00  0.00    -0.589 NA 
HETATM    6  C   UNL     1     -12.157  12.888  66.074  1.00  0.00    -0.422 C  
HETATM    7  C   UNL     1     -11.097  13.310  65.040  1.00  0.00    -0.309 C  
HETATM    8  C   UNL     1     -10.614  12.061  64.296  1.00  0.00    -0.334 C  
HETATM    9  O   UNL     1     -11.623  14.256  64.104  1.00  0.00    -0.600 OA 
HETATM   10  H   UNL     1     -10.970  14.517  63.466  1.00  0.00     0.000 HD 
HETATM   11  C   UNL     1     -10.111  11.002  65.280  1.00  0.00    -0.275 C  
HETATM   12  O   UNL     1      -9.510  12.336  63.412  1.00  0.00    -0.673 OA 
HETATM   13  C   UNL     1     -11.139  10.707  66.403  1.00  0.00     0.110 C  
HETATM   14  H   UNL     1      -9.211  11.561  62.951  1.00  0.00     0.000 HD 
HETATM   15  O   UNL     1      -9.809   9.805  64.537  1.00  0.00    -0.413 OA 
HETATM   16  H   UNL     1      -9.497   9.147  65.147  1.00  0.00     0.000 HD 
BRANCH  13  17
HETATM   17  C   UNL     1     -10.566   9.625  67.355  1.00  0.00    -0.268 C  
HETATM   18  O   UNL     1      -9.157   9.468  67.194  1.00  0.00    -0.133 OA 
HETATM   19  H   UNL     1      -8.807   8.805  67.777  1.00  0.00     0.000 HD 
ENDBRANCH  13  17
ENDBRANCH   4   5
ENDBRANCH   3   4
ENDBRANCH   2   3
TORSDOF 4
ENDMDL
MODEL       47
REMARK 921   NORMALIZED FREE ENERGY PREDICTED BY IDOCK:   -4.17 KCAL/MOL
REMARK 922        TOTAL FREE ENERGY PREDICTED BY IDOCK:   -5.64 KCAL/MOL
REMARK 923 INTER-LIGAND FREE ENERGY PREDICTED BY IDOCK:   -5.29 KCAL/MOL
REMARK 924 INTRA-LIGAND FREE ENERGY PREDICTED BY IDOCK:   -0.35 KCAL/MOL
REMARK 927      BINDING AFFINITY PREDICTED BY RF-SCORE:    0.00 PKD
ROOT
HETATM    1  C   UNL     1     -14.248  15.337  71.311  1.00  0.00    -0.506 C  
HETATM    2  C   UNL     1     -13.128  14.309  71.230  1.00  0.00    -0.425 C  
ENDROOT
BRANCH   2   3
HETATM    3  C   UNL     1     -11.956  14.808  70.379  1.00  0.00    -0.368 C  
BRANCH   3   4
HETATM    4  C   UNL     1     -11.969  14.225  68.949  1.00  0.00    -0.320 C  
BRANCH   4   5
HETATM    5  N   UNL     1     -11.487  15.164  67.920  1.00  0.00    -0.334 NA 
HETATM    6  C   UNL     1     -10.309  15.938  68.347  1.00  0.00    -0.240 C  
HETATM    7  C   UNL     1      -9.008  15.116  68.412  1.00  0.00    -0.183 C  
HETATM    8  C   UNL     1      -8.715  14.552  67.017  1.00  0.00    -0.234 C  
HETATM    9  O   UNL     1      -7.905  15.912  68.853  1.00  0.00    -0.169 OA 
HETATM   10  H   UNL     1      -7.102  15.405  68.893  1.00  0.00     0.000 HD 
HETATM   11  C   UNL     1      -9.911  13.754  66.491  1.00  0.00    -0.290 C  
HETATM   12  O   UNL     1      -7.599  13.643  67.012  1.00  0.00    -0.364 OA 
HETATM   13  C   UNL     1     -11.237  14.553  66.581  1.00  0.00    -0.346 C  
HETATM   14  H   UNL     1      -7.417  13.293  66.148  1.00  0.00     0.000 HD 
HETATM   15  O   UNL     1      -9.634  13.376  65.128  1.00  0.00    -0.520 OA 
HETATM   16  H   UNL     1     -10.375  12.881  64.801  1.00  0.00     0.000 HD 
BRANCH  13  17
HETATM   17  C   UNL     1     -12.398  13.689  66.026  1.00  0.00    -0.445 C  
HETATM   18  O   UNL     1     -12.507  13.793  64.608  1.00  0.00    -0.548 OA 
HETATM   19  H   UNL     1     -13.219  13.263  64.268  1.00  0.00     0.000 HD 
ENDBRANCH  13  17
ENDBRANCH   4   5
ENDBRANCH   3   4
ENDBRANCH   2   3
TORSDOF 4
ENDMDL
MODEL       48
REMARK 921   NORMALIZED FREE ENERGY PREDICTED BY IDOCK:   -4.15 KCAL/MOL
REMARK 922        TOTAL FREE ENERGY PREDICTED BY IDOCK:   -5.61 KCAL/MOL
REMARK 923 INTER-LIGAND FREE ENERGY PREDICTED BY IDOCK:   -5.16 KCAL/MOL
REMARK 924 INTRA-LIGAND FREE ENERGY PREDICTED BY IDOCK:   -0.45 KCAL/MOL
REMARK 927      BINDING AFFINITY PREDICTED BY RF-SCORE:    0.00 PKD
ROOT
HETATM    1  C   UNL     1      -8.249   4.403  71.231  1.00  0.00    -0.084 C  
HETATM    2  C   UNL     1      -8.798   5.806  71.014  1.00  0.00    -0.143 C  
ENDROOT
BRANCH   2   3
HETATM    3  C   UNL     1      -9.834   6.184  72.078  1.00  0.00    -0.174 C  
BRANCH   3   4
HETATM    4  C   UNL     1     -10.320   7.644  71.943  1.00  0.00    -0.199 C  
BRANCH   4   5
HETATM    5  N   UNL     1     -11.405   7.821  70.961  1.00  0.00    -0.268 NA 
HETATM    6  C   UNL     1     -12.747   7.781  71.566  1.00  0.00    -0.332 C  
HETATM    7  C   UNL     1     -13.098   9.031  72.395  1.00  0.00    -0.423 C  
HETATM    8  C   UNL     1     -13.035  10.259  71.481  1.00  0.00    -0.453 C  
HETATM    9  O   UNL     1     -14.401   8.927  72.977  1.00  0.00    -1.115 OA 
HETATM   10  H   UNL     1     -14.617   9.698  73.488  1.00  0.00     0.000 HD 
HETATM   11  C   UNL     1     -11.672  10.353  70.791  1.00  0.00    -0.368 C  
HETATM   12  O   UNL     1     -13.199  11.494  72.203  1.00  0.00    -0.576 OA 
HETATM   13  C   UNL     1     -11.274   9.028  70.092  1.00  0.00    -0.171 C  
HETATM   14  H   UNL     1     -13.160  12.256  71.637  1.00  0.00     0.000 HD 
HETATM   15  O   UNL     1     -11.724  11.436  69.841  1.00  0.00    -0.294 OA 
HETATM   16  H   UNL     1     -10.879  11.495  69.412  1.00  0.00     0.000 HD 
BRANCH  13  17
HETATM   17  C   UNL     1      -9.892   9.199  69.411  1.00  0.00    -0.172 C  
HETATM   18  O   UNL     1      -9.194  10.342  69.905  1.00  0.00    -0.389 OA 
HETATM   19  H   UNL     1      -8.348  10.446  69.487  1.00  0.00     0.000 HD 
ENDBRANCH  13  17
ENDBRANCH   4   5
ENDBRANCH   3   4
ENDBRANCH   2   3
TORSDOF 4
ENDMDL
MODEL       49
REMARK 921   NORMALIZED FREE ENERGY PREDICTED BY IDOCK:   -4.13 KCAL/MOL
REMARK 922        TOTAL FREE ENERGY PREDICTED BY IDOCK:   -5.59 KCAL/MOL
REMARK 923 INTER-LIGAND FREE ENERGY PREDICTED BY IDOCK:   -5.19 KCAL/MOL
REMARK 924 INTRA-LIGAND FREE ENERGY PREDICTED BY IDOCK:   -0.41 KCAL/MOL
REMARK 927      BINDING AFFINITY PREDICTED BY RF-SCORE:    0.00 PKD
ROOT
HETATM    1  C   UNL     1     -12.187  15.882  72.689  1.00  0.00    -0.603 C  
HETATM    2  C   UNL     1     -13.150  15.446  71.594  1.00  0.00    -0.540 C  
ENDROOT
BRANCH   2   3
HETATM    3  C   UNL     1     -12.469  15.396  70.222  1.00  0.00    -0.413 C  
BRANCH   3   4
HETATM    4  C   UNL     1     -11.836  14.019  69.922  1.00  0.00    -0.329 C  
BRANCH   4   5
HETATM    5  N   UNL     1     -12.207  13.469  68.606  1.00  0.00    -0.254 NA 
HETATM    6  C   UNL     1     -11.938  14.394  67.493  1.00  0.00    -0.354 C  
HETATM    7  C   UNL     1     -10.443  14.561  67.163  1.00  0.00    -0.267 C  
HETATM    8  C   UNL     1      -9.870  13.193  66.780  1.00  0.00    -0.251 C  
HETATM    9  O   UNL     1     -10.241  15.487  66.092  1.00  0.00    -0.271 OA 
HETATM   10  H   UNL     1      -9.318  15.590  65.888  1.00  0.00     0.000 HD 
HETATM   11  C   UNL     1     -10.137  12.164  67.881  1.00  0.00    -0.197 C  
HETATM   12  O   UNL     1      -8.441  13.221  66.602  1.00  0.00    -0.421 OA 
HETATM   13  C   UNL     1     -11.628  12.126  68.302  1.00  0.00    -0.325 C  
HETATM   14  H   UNL     1      -8.087  12.373  66.364  1.00  0.00     0.000 HD 
HETATM   15  O   UNL     1      -9.708  10.873  67.404  1.00  0.00    -0.166 OA 
HETATM   16  H   UNL     1      -9.873  10.234  68.087  1.00  0.00     0.000 HD 
BRANCH  13  17
HETATM   17  C   UNL     1     -11.824  11.061  69.412  1.00  0.00    -0.335 C  
HETATM   18  O   UNL     1     -10.618  10.820  70.135  1.00  0.00    -0.458 OA 
HETATM   19  H   UNL     1     -10.738  10.168  70.815  1.00  0.00     0.000 HD 
ENDBRANCH  13  17
ENDBRANCH   4   5
ENDBRANCH   3   4
ENDBRANCH   2   3
TORSDOF 4
ENDMDL
MODEL       50
REMARK 921   NORMALIZED FREE ENERGY PREDICTED BY IDOCK:   -4.09 KCAL/MOL
REMARK 922        TOTAL FREE ENERGY PREDICTED BY IDOCK:   -5.54 KCAL/MOL
REMARK 923 INTER-LIGAND FREE ENERGY PREDICTED BY IDOCK:   -5.22 KCAL/MOL
REMARK 924 INTRA-LIGAND FREE ENERGY PREDICTED BY IDOCK:   -0.32 KCAL/MOL
REMARK 927      BINDING AFFINITY PREDICTED BY RF-SCORE:    0.00 PKD
ROOT
HETATM    1  C   UNL     1     -13.695   7.246  71.901  1.00  0.00    -0.317 C  
HETATM    2  C   UNL     1     -14.155   8.696  71.895  1.00  0.00    -0.512 C  
ENDROOT
BRANCH   2   3
HETATM    3  C   UNL     1     -12.972   9.671  71.914  1.00  0.00    -0.527 C  
BRANCH   3   4
HETATM    4  C   UNL     1     -12.979  10.639  70.712  1.00  0.00    -0.311 C  
BRANCH   4   5
HETATM    5  N   UNL     1     -11.662  11.232  70.418  1.00  0.00    -0.329 NA 
HETATM    6  C   UNL     1     -10.906  10.489  69.395  1.00  0.00    -0.249 C  
HETATM    7  C   UNL     1     -11.459  10.651  67.967  1.00  0.00    -0.212 C  
HETATM    8  C   UNL     1     -11.417  12.136  67.590  1.00  0.00    -0.331 C  
HETATM    9  O   UNL     1     -10.702   9.890  67.021  1.00  0.00    -0.231 OA 
HETATM   10  H   UNL     1     -11.043   9.990  66.139  1.00  0.00     0.000 HD 
HETATM   11  C   UNL     1     -12.161  12.981  68.627  1.00  0.00    -0.154 C  
HETATM   12  O   UNL     1     -12.056  12.404  66.328  1.00  0.00    -0.612 OA 
HETATM   13  C   UNL     1     -11.690  12.685  70.075  1.00  0.00    -0.215 C  
HETATM   14  H   UNL     1     -12.030  13.324  66.095  1.00  0.00     0.000 HD 
HETATM   15  O   UNL     1     -11.963  14.370  68.300  1.00  0.00    -0.432 OA 
HETATM   16  H   UNL     1     -12.425  14.895  68.943  1.00  0.00     0.000 HD 
BRANCH  13  17
HETATM   17  C   UNL     1     -12.479  13.578  71.066  1.00  0.00    -0.369 C  
HETATM   18  O   UNL     1     -11.704  14.690  71.511  1.00  0.00    -0.417 OA 
HETATM   19  H   UNL     1     -12.188  15.237  72.119  1.00  0.00     0.000 HD 
ENDBRANCH  13  17
ENDBRANCH   4   5
ENDBRANCH   3   4
ENDBRANCH   2   3
TORSDOF 4
ENDMDL
MODEL       51
REMARK 921   NORMALIZED FREE ENERGY PREDICTED BY IDOCK:   -4.08 KCAL/MOL
REMARK 922        TOTAL FREE ENERGY PREDICTED BY IDOCK:   -5.52 KCAL/MOL
REMARK 923 INTER-LIGAND FREE ENERGY PREDICTED BY IDOCK:   -5.23 KCAL/MOL
REMARK 924 INTRA-LIGAND FREE ENERGY PREDICTED BY IDOCK:   -0.30 KCAL/MOL
REMARK 927      BINDING AFFINITY PREDICTED BY RF-SCORE:    0.00 PKD
ROOT
HETATM    1  C   UNL     1     -12.162  12.977  63.498  1.00  0.00    -0.580 C  
HETATM    2  C   UNL     1     -12.349  14.311  64.206  1.00  0.00    -0.407 C  
ENDROOT
BRANCH   2   3
HETATM    3  C   UNL     1     -12.027  14.214  65.701  1.00  0.00    -0.401 C  
BRANCH   3   4
HETATM    4  C   UNL     1     -11.879  12.755  66.185  1.00  0.00    -0.425 C  
BRANCH   4   5
HETATM    5  N   UNL     1     -10.678  12.520  67.006  1.00  0.00    -0.239 NA 
HETATM    6  C   UNL     1     -10.847  12.926  68.412  1.00  0.00    -0.254 C  
HETATM    7  C   UNL     1     -11.764  11.996  69.227  1.00  0.00    -0.330 C  
HETATM    8  C   UNL     1     -11.164  10.586  69.219  1.00  0.00    -0.262 C  
HETATM    9  O   UNL     1     -11.910  12.451  70.576  1.00  0.00    -0.520 OA 
HETATM   10  H   UNL     1     -12.476  11.876  71.079  1.00  0.00     0.000 HD 
HETATM   11  C   UNL     1     -10.931  10.103  67.785  1.00  0.00    -0.277 C  
HETATM   12  O   UNL     1     -12.031   9.612  69.829  1.00  0.00    -0.450 OA 
HETATM   13  C   UNL     1     -10.135  11.130  66.940  1.00  0.00    -0.214 C  
HETATM   14  H   UNL     1     -11.659   8.738  69.824  1.00  0.00     0.000 HD 
HETATM   15  O   UNL     1     -10.235   8.842  67.844  1.00  0.00    -0.196 OA 
HETATM   16  H   UNL     1     -10.090   8.541  66.954  1.00  0.00     0.000 HD 
BRANCH  13  17
HETATM   17  C   UNL     1      -9.932  10.573  65.508  1.00  0.00    -0.279 C  
HETATM   18  O   UNL     1      -9.014  11.365  64.755  1.00  0.00    -0.393 OA 
HETATM   19  H   UNL     1      -8.890  11.024  63.878  1.00  0.00     0.000 HD 
ENDBRANCH  13  17
ENDBRANCH   4   5
ENDBRANCH   3   4
ENDBRANCH   2   3
TORSDOF 4
ENDMDL
MODEL       52
REMARK 921   NORMALIZED FREE ENERGY PREDICTED BY IDOCK:   -4.08 KCAL/MOL
REMARK 922        TOTAL FREE ENERGY PREDICTED BY IDOCK:   -5.52 KCAL/MOL
REMARK 923 INTER-LIGAND FREE ENERGY PREDICTED BY IDOCK:   -5.07 KCAL/MOL
REMARK 924 INTRA-LIGAND FREE ENERGY PREDICTED BY IDOCK:   -0.46 KCAL/MOL
REMARK 927      BINDING AFFINITY PREDICTED BY RF-SCORE:    0.00 PKD
ROOT
HETATM    1  C   UNL     1     -12.067  12.417  63.356  1.00  0.00    -0.620 C  
HETATM    2  C   UNL     1     -12.525  12.426  64.807  1.00  0.00    -0.480 C  
ENDROOT
BRANCH   2   3
HETATM    3  C   UNL     1     -12.777  13.849  65.317  1.00  0.00    -0.485 C  
BRANCH   3   4
HETATM    4  C   UNL     1     -11.474  14.581  65.705  1.00  0.00    -0.341 C  
BRANCH   4   5
HETATM    5  N   UNL     1     -11.476  15.109  67.081  1.00  0.00    -0.299 NA 
HETATM    6  C   UNL     1     -11.589  14.057  68.106  1.00  0.00    -0.334 C  
HETATM    7  C   UNL     1     -10.315  13.209  68.277  1.00  0.00    -0.252 C  
HETATM    8  C   UNL     1      -9.162  14.133  68.684  1.00  0.00    -0.146 C  
HETATM    9  O   UNL     1     -10.490  12.190  69.266  1.00  0.00    -0.432 OA 
HETATM   10  H   UNL     1      -9.704  11.667  69.372  1.00  0.00     0.000 HD 
HETATM   11  C   UNL     1      -8.999  15.274  67.678  1.00  0.00    -0.179 C  
HETATM   12  O   UNL     1      -7.894  13.452  68.720  1.00  0.00    -0.262 OA 
HETATM   13  C   UNL     1     -10.334  16.015  67.407  1.00  0.00    -0.294 C  
HETATM   14  H   UNL     1      -7.180  14.025  68.972  1.00  0.00     0.000 HD 
HETATM   15  O   UNL     1      -8.004  16.184  68.187  1.00  0.00    -0.143 OA 
HETATM   16  H   UNL     1      -7.903  16.893  67.563  1.00  0.00     0.000 HD 
BRANCH  13  17
HETATM   17  C   UNL     1     -10.092  17.158  66.387  1.00  0.00    -0.320 C  
HETATM   18  O   UNL     1      -8.865  16.986  65.679  1.00  0.00    -0.480 OA 
HETATM   19  H   UNL     1      -8.717  17.686  65.054  1.00  0.00     0.000 HD 
ENDBRANCH  13  17
ENDBRANCH   4   5
ENDBRANCH   3   4
ENDBRANCH   2   3
TORSDOF 4
ENDMDL
MODEL       53
REMARK 921   NORMALIZED FREE ENERGY PREDICTED BY IDOCK:   -4.07 KCAL/MOL
REMARK 922        TOTAL FREE ENERGY PREDICTED BY IDOCK:   -5.52 KCAL/MOL
REMARK 923 INTER-LIGAND FREE ENERGY PREDICTED BY IDOCK:   -5.11 KCAL/MOL
REMARK 924 INTRA-LIGAND FREE ENERGY PREDICTED BY IDOCK:   -0.41 KCAL/MOL
REMARK 927      BINDING AFFINITY PREDICTED BY RF-SCORE:    0.00 PKD
ROOT
HETATM    1  C   UNL     1     -12.063  12.067  70.465  1.00  0.00    -0.402 C  
HETATM    2  C   UNL     1     -11.499  10.672  70.239  1.00  0.00    -0.422 C  
ENDROOT
BRANCH   2   3
HETATM    3  C   UNL     1     -10.916  10.513  68.831  1.00  0.00    -0.291 C  
BRANCH   3   4
HETATM    4  C   UNL     1     -11.172  11.747  67.938  1.00  0.00    -0.267 C  
BRANCH   4   5
HETATM    5  N   UNL     1     -10.396  11.745  66.685  1.00  0.00    -0.213 NA 
HETATM    6  C   UNL     1     -11.214  11.447  65.497  1.00  0.00    -0.071 C  
HETATM    7  C   UNL     1     -12.157  12.592  65.081  1.00  0.00    -0.455 C  
HETATM    8  C   UNL     1     -11.312  13.832  64.767  1.00  0.00    -0.360 C  
HETATM    9  O   UNL     1     -12.941  12.239  63.938  1.00  0.00    -0.753 OA 
HETATM   10  H   UNL     1     -13.522  12.946  63.682  1.00  0.00     0.000 HD 
HETATM   11  C   UNL     1     -10.410  14.189  65.951  1.00  0.00    -0.316 C  
HETATM   12  O   UNL     1     -12.117  15.000  64.516  1.00  0.00    -0.443 OA 
HETATM   13  C   UNL     1      -9.584  12.975  66.448  1.00  0.00    -0.257 C  
HETATM   14  H   UNL     1     -11.594  15.768  64.322  1.00  0.00     0.000 HD 
HETATM   15  O   UNL     1      -9.542  15.266  65.545  1.00  0.00    -0.323 OA 
HETATM   16  H   UNL     1      -8.982  15.488  66.279  1.00  0.00     0.000 HD 
BRANCH  13  17
HETATM   17  C   UNL     1      -8.692  13.412  67.639  1.00  0.00    -0.198 C  
HETATM   18  O   UNL     1      -7.458  13.977  67.199  1.00  0.00    -0.338 OA 
HETATM   19  H   UNL     1      -6.912  14.244  67.929  1.00  0.00     0.000 HD 
ENDBRANCH  13  17
ENDBRANCH   4   5
ENDBRANCH   3   4
ENDBRANCH   2   3
TORSDOF 4
ENDMDL
MODEL       54
REMARK 921   NORMALIZED FREE ENERGY PREDICTED BY IDOCK:   -4.07 KCAL/MOL
REMARK 922        TOTAL FREE ENERGY PREDICTED BY IDOCK:   -5.52 KCAL/MOL
REMARK 923 INTER-LIGAND FREE ENERGY PREDICTED BY IDOCK:   -5.16 KCAL/MOL
REMARK 924 INTRA-LIGAND FREE ENERGY PREDICTED BY IDOCK:   -0.35 KCAL/MOL
REMARK 927      BINDING AFFINITY PREDICTED BY RF-SCORE:    0.00 PKD
ROOT
HETATM    1  C   UNL     1     -10.587  18.243  67.711  1.00  0.00    -0.415 C  
HETATM    2  C   UNL     1     -10.065  17.951  66.312  1.00  0.00    -0.351 C  
ENDROOT
BRANCH   2   3
HETATM    3  C   UNL     1     -10.601  16.622  65.768  1.00  0.00    -0.278 C  
BRANCH   3   4
HETATM    4  C   UNL     1     -10.493  15.473  66.794  1.00  0.00    -0.295 C  
BRANCH   4   5
HETATM    5  N   UNL     1     -10.028  14.200  66.214  1.00  0.00    -0.293 NA 
HETATM    6  C   UNL     1      -8.752  13.734  66.785  1.00  0.00    -0.087 C  
HETATM    7  C   UNL     1      -8.868  13.203  68.226  1.00  0.00    -0.175 C  
HETATM    8  C   UNL     1      -9.842  12.020  68.235  1.00  0.00    -0.204 C  
HETATM    9  O   UNL     1      -7.598  12.786  68.736  1.00  0.00    -0.225 OA 
HETATM   10  H   UNL     1      -7.669  12.458  69.625  1.00  0.00     0.000 HD 
HETATM   11  C   UNL     1     -11.189  12.420  67.627  1.00  0.00    -0.288 C  
HETATM   12  O   UNL     1     -10.132  11.552  69.566  1.00  0.00    -0.406 OA 
HETATM   13  C   UNL     1     -11.031  13.094  66.240  1.00  0.00    -0.280 C  
HETATM   14  H   UNL     1     -10.735  10.820  69.572  1.00  0.00     0.000 HD 
HETATM   15  O   UNL     1     -12.007  11.238  67.530  1.00  0.00    -0.612 OA 
HETATM   16  H   UNL     1     -12.843  11.485  67.153  1.00  0.00     0.000 HD 
BRANCH  13  17
HETATM   17  C   UNL     1     -12.430  13.465  65.685  1.00  0.00    -0.464 C  
HETATM   18  O   UNL     1     -12.943  12.453  64.819  1.00  0.00    -0.786 OA 
HETATM   19  H   UNL     1     -13.800  12.681  64.479  1.00  0.00     0.000 HD 
ENDBRANCH  13  17
ENDBRANCH   4   5
ENDBRANCH   3   4
ENDBRANCH   2   3
TORSDOF 4
ENDMDL
MODEL       55
REMARK 921   NORMALIZED FREE ENERGY PREDICTED BY IDOCK:   -4.07 KCAL/MOL
REMARK 922        TOTAL FREE ENERGY PREDICTED BY IDOCK:   -5.51 KCAL/MOL
REMARK 923 INTER-LIGAND FREE ENERGY PREDICTED BY IDOCK:   -5.09 KCAL/MOL
REMARK 924 INTRA-LIGAND FREE ENERGY PREDICTED BY IDOCK:   -0.42 KCAL/MOL
REMARK 927      BINDING AFFINITY PREDICTED BY RF-SCORE:    0.00 PKD
ROOT
HETATM    1  C   UNL     1     -12.054  12.396  63.593  1.00  0.00    -0.648 C  
HETATM    2  C   UNL     1     -11.128  13.391  64.277  1.00  0.00    -0.396 C  
ENDROOT
BRANCH   2   3
HETATM    3  C   UNL     1     -11.446  13.536  65.769  1.00  0.00    -0.331 C  
BRANCH   3   4
HETATM    4  C   UNL     1     -11.227  14.974  66.288  1.00  0.00    -0.309 C  
BRANCH   4   5
HETATM    5  N   UNL     1     -10.134  15.092  67.269  1.00  0.00    -0.235 NA 
HETATM    6  C   UNL     1      -8.854  15.498  66.666  1.00  0.00    -0.290 C  
HETATM    7  C   UNL     1      -8.809  16.972  66.222  1.00  0.00    -0.254 C  
HETATM    8  C   UNL     1      -9.049  17.860  67.447  1.00  0.00    -0.245 C  
HETATM    9  O   UNL     1      -7.552  17.303  65.623  1.00  0.00    -0.366 OA 
HETATM   10  H   UNL     1      -7.525  18.212  65.350  1.00  0.00     0.000 HD 
HETATM   11  C   UNL     1     -10.355  17.478  68.149  1.00  0.00    -0.375 C  
HETATM   12  O   UNL     1      -9.177  19.253  67.104  1.00  0.00    -0.291 OA 
HETATM   13  C   UNL     1     -10.440  15.959  68.446  1.00  0.00    -0.254 C  
HETATM   14  H   UNL     1      -9.325  19.803  67.863  1.00  0.00     0.000 HD 
HETATM   15  O   UNL     1     -10.451  18.244  69.366  1.00  0.00    -0.389 OA 
HETATM   16  H   UNL     1     -11.261  18.007  69.802  1.00  0.00     0.000 HD 
BRANCH  13  17
HETATM   17  C   UNL     1     -11.780  15.648  69.160  1.00  0.00    -0.390 C  
HETATM   18  O   UNL     1     -11.680  15.812  70.574  1.00  0.00    -0.320 OA 
HETATM   19  H   UNL     1     -12.501  15.621  71.011  1.00  0.00     0.000 HD 
ENDBRANCH  13  17
ENDBRANCH   4   5
ENDBRANCH   3   4
ENDBRANCH   2   3
TORSDOF 4
ENDMDL
MODEL       56
REMARK 921   NORMALIZED FREE ENERGY PREDICTED BY IDOCK:   -4.05 KCAL/MOL
REMARK 922        TOTAL FREE ENERGY PREDICTED BY IDOCK:   -5.49 KCAL/MOL
REMARK 923 INTER-LIGAND FREE ENERGY PREDICTED BY IDOCK:   -5.05 KCAL/MOL
REMARK 924 INTRA-LIGAND FREE ENERGY PREDICTED BY IDOCK:   -0.44 KCAL/MOL
REMARK 927      BINDING AFFINITY PREDICTED BY RF-SCORE:    0.00 PKD
ROOT
HETATM    1  C   UNL     1      -9.367  15.868  65.997  1.00  0.00    -0.385 C  
HETATM    2  C   UNL     1     -10.873  15.941  66.201  1.00  0.00    -0.208 C  
ENDROOT
BRANCH   2   3
HETATM    3  C   UNL     1     -11.526  14.556  66.131  1.00  0.00    -0.357 C  
BRANCH   3   4
HETATM    4  C   UNL     1     -12.145  14.122  67.478  1.00  0.00    -0.328 C  
BRANCH   4   5
HETATM    5  N   UNL     1     -11.158  13.958  68.560  1.00  0.00    -0.253 NA 
HETATM    6  C   UNL     1     -11.280  14.978  69.616  1.00  0.00    -0.275 C  
HETATM    7  C   UNL     1     -12.515  14.802  70.518  1.00  0.00    -0.352 C  
HETATM    8  C   UNL     1     -12.432  13.433  71.201  1.00  0.00    -0.327 C  
HETATM    9  O   UNL     1     -12.594  15.832  71.508  1.00  0.00    -0.420 OA 
HETATM   10  H   UNL     1     -13.356  15.723  72.065  1.00  0.00     0.000 HD 
HETATM   11  C   UNL     1     -12.275  12.317  70.165  1.00  0.00    -0.226 C  
HETATM   12  O   UNL     1     -13.622  13.115  71.949  1.00  0.00    -0.432 OA 
HETATM   13  C   UNL     1     -11.118  12.596  69.171  1.00  0.00    -0.195 C  
HETATM   14  H   UNL     1     -13.570  12.266  72.372  1.00  0.00     0.000 HD 
HETATM   15  O   UNL     1     -12.057  11.078  70.869  1.00  0.00    -0.342 OA 
HETATM   16  H   UNL     1     -11.960  10.386  70.226  1.00  0.00     0.000 HD 
BRANCH  13  17
HETATM   17  C   UNL     1     -11.015  11.426  68.159  1.00  0.00    -0.232 C  
HETATM   18  O   UNL     1     -12.195  10.624  68.152  1.00  0.00    -0.719 OA 
HETATM   19  H   UNL     1     -12.131   9.907  67.532  1.00  0.00     0.000 HD 
ENDBRANCH  13  17
ENDBRANCH   4   5
ENDBRANCH   3   4
ENDBRANCH   2   3
TORSDOF 4
ENDMDL
MODEL       57
REMARK 921   NORMALIZED FREE ENERGY PREDICTED BY IDOCK:   -4.03 KCAL/MOL
REMARK 922        TOTAL FREE ENERGY PREDICTED BY IDOCK:   -5.47 KCAL/MOL
REMARK 923 INTER-LIGAND FREE ENERGY PREDICTED BY IDOCK:   -5.08 KCAL/MOL
REMARK 924 INTRA-LIGAND FREE ENERGY PREDICTED BY IDOCK:   -0.39 KCAL/MOL
REMARK 927      BINDING AFFINITY PREDICTED BY RF-SCORE:    0.00 PKD
ROOT
HETATM    1  C   UNL     1     -13.096  15.442  70.989  1.00  0.00    -0.565 C  
HETATM    2  C   UNL     1     -11.704  16.049  70.891  1.00  0.00    -0.438 C  
ENDROOT
BRANCH   2   3
HETATM    3  C   UNL     1     -11.146  15.970  69.466  1.00  0.00    -0.333 C  
BRANCH   3   4
HETATM    4  C   UNL     1     -10.356  17.235  69.065  1.00  0.00    -0.330 C  
BRANCH   4   5
HETATM    5  N   UNL     1      -9.601  17.090  67.807  1.00  0.00    -0.241 NA 
HETATM    6  C   UNL     1     -10.226  17.789  66.671  1.00  0.00    -0.361 C  
HETATM    7  C   UNL     1     -10.107  19.323  66.736  1.00  0.00    -0.389 C  
HETATM    8  C   UNL     1      -8.621  19.698  66.753  1.00  0.00    -0.320 C  
HETATM    9  O   UNL     1     -10.750  19.949  65.622  1.00  0.00    -0.478 OA 
HETATM   10  H   UNL     1     -10.676  20.895  65.662  1.00  0.00     0.000 HD 
HETATM   11  C   UNL     1      -7.893  18.985  67.896  1.00  0.00    -0.271 C  
HETATM   12  O   UNL     1      -8.409  21.107  66.967  1.00  0.00    -0.557 OA 
HETATM   13  C   UNL     1      -8.156  17.457  67.897  1.00  0.00    -0.220 C  
HETATM   14  H   UNL     1      -7.488  21.339  66.978  1.00  0.00     0.000 HD 
HETATM   15  O   UNL     1      -6.484  19.261  67.772  1.00  0.00    -0.216 OA 
HETATM   16  H   UNL     1      -6.032  18.818  68.480  1.00  0.00     0.000 HD 
BRANCH  13  17
HETATM   17  C   UNL     1      -7.386  16.803  69.073  1.00  0.00    -0.231 C  
HETATM   18  O   UNL     1      -6.017  16.568  68.745  1.00  0.00    -0.127 OA 
HETATM   19  H   UNL     1      -5.545  16.167  69.465  1.00  0.00     0.000 HD 
ENDBRANCH  13  17
ENDBRANCH   4   5
ENDBRANCH   3   4
ENDBRANCH   2   3
TORSDOF 4
ENDMDL
MODEL       58
REMARK 921   NORMALIZED FREE ENERGY PREDICTED BY IDOCK:   -4.03 KCAL/MOL
REMARK 922        TOTAL FREE ENERGY PREDICTED BY IDOCK:   -5.47 KCAL/MOL
REMARK 923 INTER-LIGAND FREE ENERGY PREDICTED BY IDOCK:   -5.05 KCAL/MOL
REMARK 924 INTRA-LIGAND FREE ENERGY PREDICTED BY IDOCK:   -0.42 KCAL/MOL
REMARK 927      BINDING AFFINITY PREDICTED BY RF-SCORE:    0.00 PKD
ROOT
HETATM    1  C   UNL     1      -7.618  17.216  68.755  1.00  0.00    -0.259 C  
HETATM    2  C   UNL     1      -7.930  15.932  67.999  1.00  0.00    -0.141 C  
ENDROOT
BRANCH   2   3
HETATM    3  C   UNL     1      -9.265  16.020  67.252  1.00  0.00    -0.215 C  
BRANCH   3   4
HETATM    4  C   UNL     1      -9.441  14.890  66.214  1.00  0.00    -0.309 C  
BRANCH   4   5
HETATM    5  N   UNL     1     -10.615  14.034  66.462  1.00  0.00    -0.277 NA 
HETATM    6  C   UNL     1     -11.697  14.235  65.482  1.00  0.00    -0.353 C  
HETATM    7  C   UNL     1     -11.393  13.663  64.085  1.00  0.00    -0.304 C  
HETATM    8  C   UNL     1     -11.156  12.155  64.214  1.00  0.00    -0.346 C  
HETATM    9  O   UNL     1     -12.466  13.908  63.172  1.00  0.00    -1.121 OA 
HETATM   10  H   UNL     1     -12.278  13.554  62.310  1.00  0.00     0.000 HD 
HETATM   11  C   UNL     1     -10.059  11.862  65.241  1.00  0.00    -0.257 C  
HETATM   12  O   UNL     1     -10.714  11.557  62.981  1.00  0.00    -0.633 OA 
HETATM   13  C   UNL     1     -10.313  12.577  66.593  1.00  0.00    -0.227 C  
HETATM   14  H   UNL     1     -10.567  10.622  63.061  1.00  0.00     0.000 HD 
HETATM   15  O   UNL     1      -9.984  10.434  65.424  1.00  0.00    -0.261 OA 
HETATM   16  H   UNL     1      -9.304  10.252  66.061  1.00  0.00     0.000 HD 
BRANCH  13  17
HETATM   17  C   UNL     1      -9.170  12.231  67.582  1.00  0.00    -0.183 C  
HETATM   18  O   UNL     1      -9.451  11.046  68.325  1.00  0.00    -0.159 OA 
HETATM   19  H   UNL     1      -8.751  10.835  68.931  1.00  0.00     0.000 HD 
ENDBRANCH  13  17
ENDBRANCH   4   5
ENDBRANCH   3   4
ENDBRANCH   2   3
TORSDOF 4
ENDMDL
MODEL       59
REMARK 921   NORMALIZED FREE ENERGY PREDICTED BY IDOCK:   -4.03 KCAL/MOL
REMARK 922        TOTAL FREE ENERGY PREDICTED BY IDOCK:   -5.46 KCAL/MOL
REMARK 923 INTER-LIGAND FREE ENERGY PREDICTED BY IDOCK:   -5.02 KCAL/MOL
REMARK 924 INTRA-LIGAND FREE ENERGY PREDICTED BY IDOCK:   -0.44 KCAL/MOL
REMARK 927      BINDING AFFINITY PREDICTED BY RF-SCORE:    0.00 PKD
ROOT
HETATM    1  C   UNL     1     -10.040   8.679  66.500  1.00  0.00    -0.339 C  
HETATM    2  C   UNL     1      -9.426   9.600  65.455  1.00  0.00    -0.330 C  
ENDROOT
BRANCH   2   3
HETATM    3  C   UNL     1     -10.360  10.761  65.098  1.00  0.00    -0.341 C  
BRANCH   3   4
HETATM    4  C   UNL     1     -11.069  11.357  66.333  1.00  0.00    -0.240 C  
BRANCH   4   5
HETATM    5  N   UNL     1     -10.154  12.012  67.285  1.00  0.00    -0.194 NA 
HETATM    6  C   UNL     1      -9.718  13.348  66.845  1.00  0.00    -0.253 C  
HETATM    7  C   UNL     1     -10.814  14.426  66.933  1.00  0.00    -0.301 C  
HETATM    8  C   UNL     1     -11.271  14.542  68.391  1.00  0.00    -0.271 C  
HETATM    9  O   UNL     1     -10.342  15.695  66.472  1.00  0.00    -0.275 OA 
HETATM   10  H   UNL     1     -11.018  16.360  66.527  1.00  0.00     0.000 HD 
HETATM   11  C   UNL     1     -11.715  13.181  68.932  1.00  0.00    -0.326 C  
HETATM   12  O   UNL     1     -12.403  15.419  68.548  1.00  0.00    -0.534 OA 
HETATM   13  C   UNL     1     -10.653  12.077  68.691  1.00  0.00    -0.229 C  
HETATM   14  H   UNL     1     -12.686  15.491  69.451  1.00  0.00     0.000 HD 
HETATM   15  O   UNL     1     -11.992  13.325  70.339  1.00  0.00    -0.435 OA 
HETATM   16  H   UNL     1     -12.268  12.480  70.675  1.00  0.00     0.000 HD 
BRANCH  13  17
HETATM   17  C   UNL     1     -11.166  10.733  69.268  1.00  0.00    -0.272 C  
HETATM   18  O   UNL     1     -12.589  10.706  69.367  1.00  0.00    -0.683 OA 
HETATM   19  H   UNL     1     -12.903   9.883  69.720  1.00  0.00     0.000 HD 
ENDBRANCH  13  17
ENDBRANCH   4   5
ENDBRANCH   3   4
ENDBRANCH   2   3
TORSDOF 4
ENDMDL
MODEL       60
REMARK 921   NORMALIZED FREE ENERGY PREDICTED BY IDOCK:   -4.02 KCAL/MOL
REMARK 922        TOTAL FREE ENERGY PREDICTED BY IDOCK:   -5.46 KCAL/MOL
REMARK 923 INTER-LIGAND FREE ENERGY PREDICTED BY IDOCK:   -5.11 KCAL/MOL
REMARK 924 INTRA-LIGAND FREE ENERGY PREDICTED BY IDOCK:   -0.35 KCAL/MOL
REMARK 927      BINDING AFFINITY PREDICTED BY RF-SCORE:    0.00 PKD
ROOT
HETATM    1  C   UNL     1     -11.865  15.879  71.536  1.00  0.00    -0.536 C  
HETATM    2  C   UNL     1     -12.815  15.054  70.678  1.00  0.00    -0.413 C  
ENDROOT
BRANCH   2   3
HETATM    3  C   UNL     1     -12.083  14.357  69.527  1.00  0.00    -0.366 C  
BRANCH   3   4
HETATM    4  C   UNL     1     -11.374  15.351  68.582  1.00  0.00    -0.330 C  
BRANCH   4   5
HETATM    5  N   UNL     1     -10.705  14.709  67.437  1.00  0.00    -0.276 NA 
HETATM    6  C   UNL     1     -11.130  15.253  66.136  1.00  0.00    -0.280 C  
HETATM    7  C   UNL     1     -10.595  16.667  65.842  1.00  0.00    -0.249 C  
HETATM    8  C   UNL     1      -9.063  16.622  65.850  1.00  0.00    -0.120 C  
HETATM    9  O   UNL     1     -11.058  17.152  64.579  1.00  0.00    -1.105 OA 
HETATM   10  H   UNL     1     -10.728  18.025  64.397  1.00  0.00     0.000 HD 
HETATM   11  C   UNL     1      -8.543  16.039  67.166  1.00  0.00    -0.194 C  
HETATM   12  O   UNL     1      -8.472  17.930  65.735  1.00  0.00    -0.513 OA 
HETATM   13  C   UNL     1      -9.213  14.686  67.515  1.00  0.00    -0.192 C  
HETATM   14  H   UNL     1      -7.522  17.903  65.740  1.00  0.00     0.000 HD 
HETATM   15  O   UNL     1      -7.114  15.888  67.056  1.00  0.00    -0.211 OA 
HETATM   16  H   UNL     1      -6.790  15.526  67.872  1.00  0.00     0.000 HD 
BRANCH  13  17
HETATM   17  C   UNL     1      -8.635  14.153  68.852  1.00  0.00     0.011 C  
HETATM   18  O   UNL     1      -8.125  15.208  69.666  1.00  0.00    -0.334 OA 
HETATM   19  H   UNL     1      -7.770  14.881  70.485  1.00  0.00     0.000 HD 
ENDBRANCH  13  17
ENDBRANCH   4   5
ENDBRANCH   3   4
ENDBRANCH   2   3
TORSDOF 4
ENDMDL
MODEL       61
REMARK 921   NORMALIZED FREE ENERGY PREDICTED BY IDOCK:   -4.00 KCAL/MOL
REMARK 922        TOTAL FREE ENERGY PREDICTED BY IDOCK:   -5.43 KCAL/MOL
REMARK 923 INTER-LIGAND FREE ENERGY PREDICTED BY IDOCK:   -4.94 KCAL/MOL
REMARK 924 INTRA-LIGAND FREE ENERGY PREDICTED BY IDOCK:   -0.49 KCAL/MOL
REMARK 927      BINDING AFFINITY PREDICTED BY RF-SCORE:    0.00 PKD
ROOT
HETATM    1  C   UNL     1     -10.813   7.643  67.492  1.00  0.00    -0.205 C  
HETATM    2  C   UNL     1      -9.687   8.252  66.670  1.00  0.00    -0.321 C  
ENDROOT
BRANCH   2   3
HETATM    3  C   UNL     1     -10.149   9.493  65.899  1.00  0.00    -0.284 C  
BRANCH   3   4
HETATM    4  C   UNL     1     -10.177  10.763  66.777  1.00  0.00    -0.230 C  
BRANCH   4   5
HETATM    5  N   UNL     1     -11.525  11.331  66.957  1.00  0.00    -0.470 NA 
HETATM    6  C   UNL     1     -12.032  11.196  68.334  1.00  0.00    -0.141 C  
HETATM    7  C   UNL     1     -11.345  12.127  69.350  1.00  0.00    -0.245 C  
HETATM    8  C   UNL     1     -11.568  13.579  68.912  1.00  0.00    -0.323 C  
HETATM    9  O   UNL     1     -11.860  11.936  70.670  1.00  0.00    -0.479 OA 
HETATM   10  H   UNL     1     -11.437  12.510  71.297  1.00  0.00     0.000 HD 
HETATM   11  C   UNL     1     -11.089  13.793  67.474  1.00  0.00    -0.278 C  
HETATM   12  O   UNL     1     -10.832  14.518  69.718  1.00  0.00    -0.386 OA 
HETATM   13  C   UNL     1     -11.677  12.744  66.496  1.00  0.00    -0.400 C  
HETATM   14  H   UNL     1     -10.970  15.418  69.447  1.00  0.00     0.000 HD 
HETATM   15  O   UNL     1     -11.455  15.128  67.073  1.00  0.00    -0.319 OA 
HETATM   16  H   UNL     1     -11.158  15.261  66.180  1.00  0.00     0.000 HD 
BRANCH  13  17
HETATM   17  C   UNL     1     -11.156  13.025  65.063  1.00  0.00    -0.294 C  
HETATM   18  O   UNL     1     -10.018  13.886  65.072  1.00  0.00    -0.563 OA 
HETATM   19  H   UNL     1      -9.700  14.059  64.194  1.00  0.00     0.000 HD 
ENDBRANCH  13  17
ENDBRANCH   4   5
ENDBRANCH   3   4
ENDBRANCH   2   3
TORSDOF 4
ENDMDL
MODEL       62
REMARK 921   NORMALIZED FREE ENERGY PREDICTED BY IDOCK:   -3.96 KCAL/MOL
REMARK 922        TOTAL FREE ENERGY PREDICTED BY IDOCK:   -5.38 KCAL/MOL
REMARK 923 INTER-LIGAND FREE ENERGY PREDICTED BY IDOCK:   -5.47 KCAL/MOL
REMARK 924 INTRA-LIGAND FREE ENERGY PREDICTED BY IDOCK:    0.09 KCAL/MOL
REMARK 927      BINDING AFFINITY PREDICTED BY RF-SCORE:    0.00 PKD
ROOT
HETATM    1  C   UNL     1     -12.354  14.360  71.642  1.00  0.00    -0.415 C  
HETATM    2  C   UNL     1     -12.317  15.115  70.322  1.00  0.00    -0.398 C  
ENDROOT
BRANCH   2   3
HETATM    3  C   UNL     1     -11.482  14.381  69.268  1.00  0.00    -0.323 C  
BRANCH   3   4
HETATM    4  C   UNL     1     -11.740  14.900  67.836  1.00  0.00    -0.321 C  
BRANCH   4   5
HETATM    5  N   UNL     1     -10.514  15.280  67.112  1.00  0.00    -0.274 NA 
HETATM    6  C   UNL     1      -9.289  14.727  67.714  1.00  0.00    -0.199 C  
HETATM    7  C   UNL     1      -9.116  13.211  67.505  1.00  0.00    -0.205 C  
HETATM    8  C   UNL     1      -9.064  12.927  66.001  1.00  0.00     0.167 C  
HETATM    9  O   UNL     1      -7.924  12.726  68.130  1.00  0.00    -0.137 OA 
HETATM   10  H   UNL     1      -7.818  11.791  68.001  1.00  0.00     0.000 HD 
HETATM   11  C   UNL     1     -10.297  13.499  65.296  1.00  0.00    -0.331 C  
HETATM   12  O   UNL     1      -9.057  11.518  65.704  1.00  0.00    -0.298 OA 
HETATM   13  C   UNL     1     -10.535  14.990  65.647  1.00  0.00    -0.350 C  
HETATM   14  H   UNL     1      -9.025  11.342  64.771  1.00  0.00     0.000 HD 
HETATM   15  O   UNL     1     -10.122  13.330  63.876  1.00  0.00    -0.754 OA 
HETATM   16  H   UNL     1     -10.886  13.685  63.438  1.00  0.00     0.000 HD 
BRANCH  13  17
HETATM   17  C   UNL     1     -11.791  15.503  64.896  1.00  0.00    -0.028 C  
HETATM   18  O   UNL     1     -11.460  16.485  63.915  1.00  0.00    -1.608 OA 
HETATM   19  H   UNL     1     -12.229  16.798  63.456  1.00  0.00     0.000 HD 
ENDBRANCH  13  17
ENDBRANCH   4   5
ENDBRANCH   3   4
ENDBRANCH   2   3
TORSDOF 4
ENDMDL
MODEL       63
REMARK 921   NORMALIZED FREE ENERGY PREDICTED BY IDOCK:   -3.95 KCAL/MOL
REMARK 922        TOTAL FREE ENERGY PREDICTED BY IDOCK:   -5.37 KCAL/MOL
REMARK 923 INTER-LIGAND FREE ENERGY PREDICTED BY IDOCK:   -4.96 KCAL/MOL
REMARK 924 INTRA-LIGAND FREE ENERGY PREDICTED BY IDOCK:   -0.41 KCAL/MOL
REMARK 927      BINDING AFFINITY PREDICTED BY RF-SCORE:    0.00 PKD
ROOT
HETATM    1  C   UNL     1      -9.833   9.974  69.935  1.00  0.00    -0.266 C  
HETATM    2  C   UNL     1     -11.349   9.861  69.857  1.00  0.00    -0.273 C  
ENDROOT
BRANCH   2   3
HETATM    3  C   UNL     1     -11.982  11.103  69.221  1.00  0.00    -0.421 C  
BRANCH   3   4
HETATM    4  C   UNL     1     -11.446  11.383  67.800  1.00  0.00    -0.281 C  
BRANCH   4   5
HETATM    5  N   UNL     1     -12.108  12.515  67.128  1.00  0.00    -0.495 NA 
HETATM    6  C   UNL     1     -12.010  13.777  67.881  1.00  0.00    -0.356 C  
HETATM    7  C   UNL     1     -10.604  14.405  67.871  1.00  0.00    -0.240 C  
HETATM    8  C   UNL     1     -10.209  14.698  66.420  1.00  0.00    -0.289 C  
HETATM    9  O   UNL     1     -10.563  15.613  68.636  1.00  0.00    -0.229 OA 
HETATM   10  H   UNL     1      -9.695  16.001  68.630  1.00  0.00     0.000 HD 
HETATM   11  C   UNL     1     -10.314  13.434  65.562  1.00  0.00    -0.295 C  
HETATM   12  O   UNL     1      -8.846  15.147  66.298  1.00  0.00    -0.407 OA 
HETATM   13  C   UNL     1     -11.690  12.735  65.711  1.00  0.00    -0.402 C  
HETATM   14  H   UNL     1      -8.601  15.329  65.398  1.00  0.00     0.000 HD 
HETATM   15  O   UNL     1     -10.073  13.802  64.189  1.00  0.00    -0.729 OA 
HETATM   16  H   UNL     1     -10.139  13.018  63.657  1.00  0.00     0.000 HD 
BRANCH  13  17
HETATM   17  C   UNL     1     -11.726  11.472  64.813  1.00  0.00     0.057 C  
HETATM   18  O   UNL     1     -10.415  10.991  64.520  1.00  0.00    -0.330 OA 
HETATM   19  H   UNL     1     -10.438  10.217  63.970  1.00  0.00     0.000 HD 
ENDBRANCH  13  17
ENDBRANCH   4   5
ENDBRANCH   3   4
ENDBRANCH   2   3
TORSDOF 4
ENDMDL
MODEL       64
REMARK 921   NORMALIZED FREE ENERGY PREDICTED BY IDOCK:   -3.94 KCAL/MOL
REMARK 922        TOTAL FREE ENERGY PREDICTED BY IDOCK:   -5.35 KCAL/MOL
REMARK 923 INTER-LIGAND FREE ENERGY PREDICTED BY IDOCK:   -5.02 KCAL/MOL
REMARK 924 INTRA-LIGAND FREE ENERGY PREDICTED BY IDOCK:   -0.33 KCAL/MOL
REMARK 927      BINDING AFFINITY PREDICTED BY RF-SCORE:    0.00 PKD
ROOT
HETATM    1  C   UNL     1      -7.804  16.396  67.631  1.00  0.00    -0.160 C  
HETATM    2  C   UNL     1      -8.969  16.573  68.594  1.00  0.00    -0.236 C  
ENDROOT
BRANCH   2   3
HETATM    3  C   UNL     1      -9.603  15.231  68.975  1.00  0.00    -0.237 C  
BRANCH   3   4
HETATM    4  C   UNL     1     -10.532  15.339  70.204  1.00  0.00    -0.230 C  
BRANCH   4   5
HETATM    5  N   UNL     1     -11.948  15.060  69.904  1.00  0.00    -0.314 NA 
HETATM    6  C   UNL     1     -12.132  13.949  68.955  1.00  0.00    -0.319 C  
HETATM    7  C   UNL     1     -11.833  12.560  69.548  1.00  0.00    -0.310 C  
HETATM    8  C   UNL     1     -12.775  12.321  70.733  1.00  0.00    -0.126 C  
HETATM    9  O   UNL     1     -12.006  11.525  68.576  1.00  0.00    -0.472 OA 
HETATM   10  H   UNL     1     -11.822  10.667  68.943  1.00  0.00     0.000 HD 
HETATM   11  C   UNL     1     -12.661  13.454  71.756  1.00  0.00    -0.223 C  
HETATM   12  O   UNL     1     -12.467  11.109  71.448  1.00  0.00    -0.353 OA 
HETATM   13  C   UNL     1     -12.814  14.852  71.104  1.00  0.00    -0.359 C  
HETATM   14  H   UNL     1     -13.051  10.961  72.182  1.00  0.00     0.000 HD 
HETATM   15  O   UNL     1     -13.668  13.249  72.767  1.00  0.00    -0.669 OA 
HETATM   16  H   UNL     1     -13.598  13.952  73.401  1.00  0.00     0.000 HD 
BRANCH  13  17
HETATM   17  C   UNL     1     -12.694  15.946  72.196  1.00  0.00    -0.436 C  
HETATM   18  O   UNL     1     -13.905  16.091  72.937  1.00  0.00    -0.572 OA 
HETATM   19  H   UNL     1     -13.832  16.761  73.606  1.00  0.00     0.000 HD 
ENDBRANCH  13  17
ENDBRANCH   4   5
ENDBRANCH   3   4
ENDBRANCH   2   3
TORSDOF 4
ENDMDL
MODEL       65
REMARK 921   NORMALIZED FREE ENERGY PREDICTED BY IDOCK:   -3.93 KCAL/MOL
REMARK 922        TOTAL FREE ENERGY PREDICTED BY IDOCK:   -5.34 KCAL/MOL
REMARK 923 INTER-LIGAND FREE ENERGY PREDICTED BY IDOCK:   -4.97 KCAL/MOL
REMARK 924 INTRA-LIGAND FREE ENERGY PREDICTED BY IDOCK:   -0.37 KCAL/MOL
REMARK 927      BINDING AFFINITY PREDICTED BY RF-SCORE:    0.00 PKD
ROOT
HETATM    1  C   UNL     1     -10.905   6.022  66.941  1.00  0.00    -0.396 C  
HETATM    2  C   UNL     1     -10.066   7.291  66.913  1.00  0.00    -0.317 C  
ENDROOT
BRANCH   2   3
HETATM    3  C   UNL     1      -9.410   7.573  68.268  1.00  0.00    -0.141 C  
BRANCH   3   4
HETATM    4  C   UNL     1     -10.337   7.241  69.458  1.00  0.00    -0.225 C  
BRANCH   4   5
HETATM    5  N   UNL     1     -10.001   7.971  70.694  1.00  0.00    -0.189 NA 
HETATM    6  C   UNL     1      -9.820   9.418  70.483  1.00  0.00    -0.270 C  
HETATM    7  C   UNL     1     -11.130  10.181  70.215  1.00  0.00    -0.317 C  
HETATM    8  C   UNL     1     -12.058   9.999  71.420  1.00  0.00    -0.407 C  
HETATM    9  O   UNL     1     -10.891  11.574  69.994  1.00  0.00    -0.431 OA 
HETATM   10  H   UNL     1     -11.700  12.046  69.829  1.00  0.00     0.000 HD 
HETATM   11  C   UNL     1     -12.274   8.514  71.722  1.00  0.00    -0.334 C  
HETATM   12  O   UNL     1     -13.369  10.552  71.197  1.00  0.00    -0.317 OA 
HETATM   13  C   UNL     1     -10.937   7.737  71.834  1.00  0.00    -0.249 C  
HETATM   14  H   UNL     1     -13.945  10.440  71.944  1.00  0.00     0.000 HD 
HETATM   15  O   UNL     1     -13.030   8.409  72.944  1.00  0.00    -0.655 OA 
HETATM   16  H   UNL     1     -13.164   7.488  73.132  1.00  0.00     0.000 HD 
BRANCH  13  17
HETATM   17  C   UNL     1     -11.231   6.247  72.146  1.00  0.00    -0.282 C  
HETATM   18  O   UNL     1     -11.134   5.968  73.542  1.00  0.00    -0.440 OA 
HETATM   19  H   UNL     1     -11.315   5.055  73.732  1.00  0.00     0.000 HD 
ENDBRANCH  13  17
ENDBRANCH   4   5
ENDBRANCH   3   4
ENDBRANCH   2   3
TORSDOF 4
ENDMDL
MODEL       66
REMARK 921   NORMALIZED FREE ENERGY PREDICTED BY IDOCK:   -3.92 KCAL/MOL
REMARK 922        TOTAL FREE ENERGY PREDICTED BY IDOCK:   -5.33 KCAL/MOL
REMARK 923 INTER-LIGAND FREE ENERGY PREDICTED BY IDOCK:   -5.02 KCAL/MOL
REMARK 924 INTRA-LIGAND FREE ENERGY PREDICTED BY IDOCK:   -0.30 KCAL/MOL
REMARK 927      BINDING AFFINITY PREDICTED BY RF-SCORE:    0.00 PKD
ROOT
HETATM    1  C   UNL     1     -10.173   5.620  74.391  1.00  0.00    -0.295 C  
HETATM    2  C   UNL     1     -11.273   5.338  73.377  1.00  0.00    -0.314 C  
ENDROOT
BRANCH   2   3
HETATM    3  C   UNL     1     -10.903   5.842  71.978  1.00  0.00    -0.303 C  
BRANCH   3   4
HETATM    4  C   UNL     1     -11.752   7.056  71.540  1.00  0.00    -0.300 C  
BRANCH   4   5
HETATM    5  N   UNL     1     -11.380   8.314  72.211  1.00  0.00    -0.351 NA 
HETATM    6  C   UNL     1      -9.985   8.714  71.962  1.00  0.00    -0.329 C  
HETATM    7  C   UNL     1      -9.725   9.230  70.534  1.00  0.00    -0.260 C  
HETATM    8  C   UNL     1     -10.612  10.455  70.287  1.00  0.00    -0.123 C  
HETATM    9  O   UNL     1      -8.352   9.581  70.344  1.00  0.00    -0.179 OA 
HETATM   10  H   UNL     1      -8.192   9.900  69.463  1.00  0.00     0.000 HD 
HETATM   11  C   UNL     1     -12.083  10.124  70.554  1.00  0.00    -0.291 C  
HETATM   12  O   UNL     1     -10.551  10.915  68.924  1.00  0.00    -0.188 OA 
HETATM   13  C   UNL     1     -12.295   9.463  71.940  1.00  0.00    -0.375 C  
HETATM   14  H   UNL     1     -11.101  11.674  68.771  1.00  0.00     0.000 HD 
HETATM   15  O   UNL     1     -12.844  11.343  70.447  1.00  0.00    -0.132 OA 
HETATM   16  H   UNL     1     -13.756  11.138  70.612  1.00  0.00     0.000 HD 
BRANCH  13  17
HETATM   17  C   UNL     1     -13.802   9.163  72.143  1.00  0.00    -0.446 C  
HETATM   18  O   UNL     1     -14.143   9.066  73.526  1.00  0.00    -1.136 OA 
HETATM   19  H   UNL     1     -15.066   8.882  73.650  1.00  0.00     0.000 HD 
ENDBRANCH  13  17
ENDBRANCH   4   5
ENDBRANCH   3   4
ENDBRANCH   2   3
TORSDOF 4
ENDMDL
MODEL       67
REMARK 921   NORMALIZED FREE ENERGY PREDICTED BY IDOCK:   -3.91 KCAL/MOL
REMARK 922        TOTAL FREE ENERGY PREDICTED BY IDOCK:   -5.31 KCAL/MOL
REMARK 923 INTER-LIGAND FREE ENERGY PREDICTED BY IDOCK:   -4.95 KCAL/MOL
REMARK 924 INTRA-LIGAND FREE ENERGY PREDICTED BY IDOCK:   -0.37 KCAL/MOL
REMARK 927      BINDING AFFINITY PREDICTED BY RF-SCORE:    0.00 PKD
ROOT
HETATM    1  C   UNL     1      -9.676   4.119  70.391  1.00  0.00    -0.271 C  
HETATM    2  C   UNL     1     -10.317   5.079  69.400  1.00  0.00    -0.215 C  
ENDROOT
BRANCH   2   3
HETATM    3  C   UNL     1      -9.954   6.538  69.700  1.00  0.00    -0.186 C  
BRANCH   3   4
HETATM    4  C   UNL     1     -11.147   7.346  70.256  1.00  0.00    -0.258 C  
BRANCH   4   5
HETATM    5  N   UNL     1     -10.756   8.406  71.202  1.00  0.00    -0.223 NA 
HETATM    6  C   UNL     1      -9.719   9.306  70.670  1.00  0.00    -0.272 C  
HETATM    7  C   UNL     1     -10.224  10.266  69.576  1.00  0.00    -0.236 C  
HETATM    8  C   UNL     1     -11.339  11.137  70.166  1.00  0.00    -0.209 C  
HETATM    9  O   UNL     1      -9.171  11.099  69.081  1.00  0.00    -0.378 OA 
HETATM   10  H   UNL     1      -9.483  11.692  68.406  1.00  0.00     0.000 HD 
HETATM   11  C   UNL     1     -12.446  10.269  70.768  1.00  0.00    -0.346 C  
HETATM   12  O   UNL     1     -11.978  11.963  69.174  1.00  0.00    -0.306 OA 
HETATM   13  C   UNL     1     -11.892   9.206  71.751  1.00  0.00    -0.383 C  
HETATM   14  H   UNL     1     -12.669  12.503  69.539  1.00  0.00     0.000 HD 
HETATM   15  O   UNL     1     -13.387  11.137  71.430  1.00  0.00    -0.261 OA 
HETATM   16  H   UNL     1     -14.074  10.598  71.804  1.00  0.00     0.000 HD 
BRANCH  13  17
HETATM   17  C   UNL     1     -13.066   8.372  72.324  1.00  0.00    -0.284 C  
HETATM   18  O   UNL     1     -13.846   9.122  73.254  1.00  0.00    -1.118 OA 
HETATM   19  H   UNL     1     -14.565   8.610  73.605  1.00  0.00     0.000 HD 
ENDBRANCH  13  17
ENDBRANCH   4   5
ENDBRANCH   3   4
ENDBRANCH   2   3
TORSDOF 4
ENDMDL
MODEL       68
REMARK 921   NORMALIZED FREE ENERGY PREDICTED BY IDOCK:   -3.88 KCAL/MOL
REMARK 922        TOTAL FREE ENERGY PREDICTED BY IDOCK:   -5.28 KCAL/MOL
REMARK 923 INTER-LIGAND FREE ENERGY PREDICTED BY IDOCK:   -5.04 KCAL/MOL
REMARK 924 INTRA-LIGAND FREE ENERGY PREDICTED BY IDOCK:   -0.24 KCAL/MOL
REMARK 927      BINDING AFFINITY PREDICTED BY RF-SCORE:    0.00 PKD
ROOT
HETATM    1  C   UNL     1     -12.694  13.768  65.182  1.00  0.00    -0.439 C  
HETATM    2  C   UNL     1     -11.538  14.692  64.828  1.00  0.00    -0.418 C  
ENDROOT
BRANCH   2   3
HETATM    3  C   UNL     1     -10.758  15.133  66.072  1.00  0.00    -0.333 C  
BRANCH   3   4
HETATM    4  C   UNL     1     -10.418  16.639  66.058  1.00  0.00    -0.298 C  
BRANCH   4   5
HETATM    5  N   UNL     1     -10.546  17.290  67.374  1.00  0.00    -0.332 NA 
HETATM    6  C   UNL     1     -10.211  16.397  68.498  1.00  0.00    -0.257 C  
HETATM    7  C   UNL     1      -8.707  16.094  68.631  1.00  0.00    -0.214 C  
HETATM    8  C   UNL     1      -7.959  17.414  68.847  1.00  0.00    -0.187 C  
HETATM    9  O   UNL     1      -8.445  15.206  69.722  1.00  0.00    -0.415 OA 
HETATM   10  H   UNL     1      -7.517  15.020  69.805  1.00  0.00     0.000 HD 
HETATM   11  C   UNL     1      -8.280  18.409  67.729  1.00  0.00    -0.254 C  
HETATM   12  O   UNL     1      -6.529  17.248  68.831  1.00  0.00    -0.180 OA 
HETATM   13  C   UNL     1      -9.805  18.579  67.512  1.00  0.00    -0.310 C  
HETATM   14  H   UNL     1      -6.065  18.066  68.964  1.00  0.00     0.000 HD 
HETATM   15  O   UNL     1      -7.667  19.671  68.061  1.00  0.00    -0.283 OA 
HETATM   16  H   UNL     1      -7.866  20.289  67.368  1.00  0.00     0.000 HD 
BRANCH  13  17
HETATM   17  C   UNL     1     -10.054  19.603  66.374  1.00  0.00    -0.470 C  
HETATM   18  O   UNL     1      -9.698  20.928  66.765  1.00  0.00    -0.646 OA 
HETATM   19  H   UNL     1      -9.850  21.555  66.067  1.00  0.00     0.000 HD 
ENDBRANCH  13  17
ENDBRANCH   4   5
ENDBRANCH   3   4
ENDBRANCH   2   3
TORSDOF 4
ENDMDL
MODEL       69
REMARK 921   NORMALIZED FREE ENERGY PREDICTED BY IDOCK:   -3.85 KCAL/MOL
REMARK 922        TOTAL FREE ENERGY PREDICTED BY IDOCK:   -5.24 KCAL/MOL
REMARK 923 INTER-LIGAND FREE ENERGY PREDICTED BY IDOCK:   -4.91 KCAL/MOL
REMARK 924 INTRA-LIGAND FREE ENERGY PREDICTED BY IDOCK:   -0.33 KCAL/MOL
REMARK 927      BINDING AFFINITY PREDICTED BY RF-SCORE:    0.00 PKD
ROOT
HETATM    1  C   UNL     1     -12.513  12.728  65.178  1.00  0.00    -0.565 C  
HETATM    2  C   UNL     1     -12.180  13.007  66.636  1.00  0.00    -0.285 C  
ENDROOT
BRANCH   2   3
HETATM    3  C   UNL     1     -11.392  11.857  67.272  1.00  0.00    -0.393 C  
BRANCH   3   4
HETATM    4  C   UNL     1     -12.094  11.271  68.517  1.00  0.00    -0.091 C  
BRANCH   4   5
HETATM    5  N   UNL     1     -11.298  11.376  69.752  1.00  0.00    -0.273 NA 
HETATM    6  C   UNL     1     -11.956  12.174  70.801  1.00  0.00    -0.023 C  
HETATM    7  C   UNL     1     -13.157  11.472  71.462  1.00  0.00    -0.326 C  
HETATM    8  C   UNL     1     -12.671  10.169  72.105  1.00  0.00    -0.225 C  
HETATM    9  O   UNL     1     -13.770  12.301  72.453  1.00  0.00    -0.552 OA 
HETATM   10  H   UNL     1     -14.511  11.868  72.861  1.00  0.00     0.000 HD 
HETATM   11  C   UNL     1     -11.947   9.294  71.079  1.00  0.00    -0.300 C  
HETATM   12  O   UNL     1     -13.752   9.368  72.617  1.00  0.00    -0.697 OA 
HETATM   13  C   UNL     1     -10.842  10.071  70.318  1.00  0.00    -0.313 C  
HETATM   14  H   UNL     1     -13.450   8.560  73.015  1.00  0.00     0.000 HD 
HETATM   15  O   UNL     1     -11.389   8.159  71.770  1.00  0.00    -0.253 OA 
HETATM   16  H   UNL     1     -10.940   7.615  71.134  1.00  0.00     0.000 HD 
BRANCH  13  17
HETATM   17  C   UNL     1     -10.150   9.123  69.304  1.00  0.00    -0.194 C  
HETATM   18  O   UNL     1     -11.056   8.152  68.782  1.00  0.00    -0.417 OA 
HETATM   19  H   UNL     1     -10.632   7.572  68.161  1.00  0.00     0.000 HD 
ENDBRANCH  13  17
ENDBRANCH   4   5
ENDBRANCH   3   4
ENDBRANCH   2   3
TORSDOF 4
ENDMDL
MODEL       70
REMARK 921   NORMALIZED FREE ENERGY PREDICTED BY IDOCK:   -3.84 KCAL/MOL
REMARK 922        TOTAL FREE ENERGY PREDICTED BY IDOCK:   -5.23 KCAL/MOL
REMARK 923 INTER-LIGAND FREE ENERGY PREDICTED BY IDOCK:   -4.81 KCAL/MOL
REMARK 924 INTRA-LIGAND FREE ENERGY PREDICTED BY IDOCK:   -0.42 KCAL/MOL
REMARK 927      BINDING AFFINITY PREDICTED BY RF-SCORE:    0.00 PKD
ROOT
HETATM    1  C   UNL     1     -11.409  15.737  64.508  1.00  0.00    -0.324 C  
HETATM    2  C   UNL     1     -12.234  14.473  64.314  1.00  0.00    -0.441 C  
ENDROOT
BRANCH   2   3
HETATM    3  C   UNL     1     -12.212  13.581  65.559  1.00  0.00    -0.490 C  
BRANCH   3   4
HETATM    4  C   UNL     1     -10.791  13.395  66.134  1.00  0.00    -0.281 C  
BRANCH   4   5
HETATM    5  N   UNL     1     -10.716  13.558  67.597  1.00  0.00    -0.246 NA 
HETATM    6  C   UNL     1     -11.770  12.823  68.317  1.00  0.00    -0.344 C  
HETATM    7  C   UNL     1     -11.573  11.296  68.331  1.00  0.00    -0.308 C  
HETATM    8  C   UNL     1     -10.237  10.980  69.012  1.00  0.00    -0.200 C  
HETATM    9  O   UNL     1     -12.636  10.634  69.023  1.00  0.00    -0.746 OA 
HETATM   10  H   UNL     1     -12.514   9.692  69.031  1.00  0.00     0.000 HD 
HETATM   11  C   UNL     1      -9.090  11.733  68.334  1.00  0.00    -0.176 C  
HETATM   12  O   UNL     1      -9.894   9.584  68.936  1.00  0.00    -0.165 OA 
HETATM   13  C   UNL     1      -9.382  13.249  68.194  1.00  0.00    -0.220 C  
HETATM   14  H   UNL     1      -9.066   9.388  69.358  1.00  0.00     0.000 HD 
HETATM   15  O   UNL     1      -7.891  11.513  69.103  1.00  0.00    -0.319 OA 
HETATM   16  H   UNL     1      -7.179  11.980  68.682  1.00  0.00     0.000 HD 
BRANCH  13  17
HETATM   17  C   UNL     1      -8.179  13.946  67.508  1.00  0.00    -0.188 C  
HETATM   18  O   UNL     1      -7.334  13.009  66.841  1.00  0.00    -0.360 OA 
HETATM   19  H   UNL     1      -6.597  13.436  66.421  1.00  0.00     0.000 HD 
ENDBRANCH  13  17
ENDBRANCH   4   5
ENDBRANCH   3   4
ENDBRANCH   2   3
TORSDOF 4
ENDMDL
MODEL       71
REMARK 921   NORMALIZED FREE ENERGY PREDICTED BY IDOCK:   -3.84 KCAL/MOL
REMARK 922        TOTAL FREE ENERGY PREDICTED BY IDOCK:   -5.22 KCAL/MOL
REMARK 923 INTER-LIGAND FREE ENERGY PREDICTED BY IDOCK:   -5.00 KCAL/MOL
REMARK 924 INTRA-LIGAND FREE ENERGY PREDICTED BY IDOCK:   -0.23 KCAL/MOL
REMARK 927      BINDING AFFINITY PREDICTED BY RF-SCORE:    0.00 PKD
ROOT
HETATM    1  C   UNL     1      -8.298  19.331  67.911  1.00  0.00    -0.338 C  
HETATM    2  C   UNL     1      -9.292  19.472  66.767  1.00  0.00    -0.431 C  
ENDROOT
BRANCH   2   3
HETATM    3  C   UNL     1      -9.935  18.131  66.400  1.00  0.00    -0.376 C  
BRANCH   3   4
HETATM    4  C   UNL     1      -9.586  17.009  67.403  1.00  0.00    -0.246 C  
BRANCH   4   5
HETATM    5  N   UNL     1     -10.612  15.956  67.496  1.00  0.00    -0.309 NA 
HETATM    6  C   UNL     1     -10.923  15.332  66.199  1.00  0.00    -0.307 C  
HETATM    7  C   UNL     1      -9.814  14.407  65.666  1.00  0.00    -0.291 C  
HETATM    8  C   UNL     1      -9.585  13.281  66.680  1.00  0.00    -0.262 C  
HETATM    9  O   UNL     1     -10.160  13.848  64.395  1.00  0.00    -0.711 OA 
HETATM   10  H   UNL     1      -9.475  13.277  64.066  1.00  0.00     0.000 HD 
HETATM   11  C   UNL     1      -9.282  13.853  68.068  1.00  0.00    -0.193 C  
HETATM   12  O   UNL     1      -8.458  12.451  66.340  1.00  0.00    -0.403 OA 
HETATM   13  C   UNL     1     -10.336  14.899  68.515  1.00  0.00    -0.237 C  
HETATM   14  H   UNL     1      -8.317  11.754  66.969  1.00  0.00     0.000 HD 
HETATM   15  O   UNL     1      -9.221  12.757  69.002  1.00  0.00    -0.347 OA 
HETATM   16  H   UNL     1      -9.034  13.112  69.863  1.00  0.00     0.000 HD 
BRANCH  13  17
HETATM   17  C   UNL     1      -9.970  15.428  69.926  1.00  0.00    -0.216 C  
HETATM   18  O   UNL     1     -11.125  15.843  70.653  1.00  0.00    -0.332 OA 
HETATM   19  H   UNL     1     -10.901  16.167  71.517  1.00  0.00     0.000 HD 
ENDBRANCH  13  17
ENDBRANCH   4   5
ENDBRANCH   3   4
ENDBRANCH   2   3
TORSDOF 4
ENDMDL
MODEL       72
REMARK 921   NORMALIZED FREE ENERGY PREDICTED BY IDOCK:   -3.82 KCAL/MOL
REMARK 922        TOTAL FREE ENERGY PREDICTED BY IDOCK:   -5.20 KCAL/MOL
REMARK 923 INTER-LIGAND FREE ENERGY PREDICTED BY IDOCK:   -4.84 KCAL/MOL
REMARK 924 INTRA-LIGAND FREE ENERGY PREDICTED BY IDOCK:   -0.36 KCAL/MOL
REMARK 927      BINDING AFFINITY PREDICTED BY RF-SCORE:    0.00 PKD
ROOT
HETATM    1  C   UNL     1      -8.052   7.764  66.388  1.00  0.00    -0.109 C  
HETATM    2  C   UNL     1      -9.417   8.417  66.553  1.00  0.00    -0.284 C  
ENDROOT
BRANCH   2   3
HETATM    3  C   UNL     1      -9.634   9.549  65.543  1.00  0.00    -0.349 C  
BRANCH   3   4
HETATM    4  C   UNL     1     -10.509  10.690  66.106  1.00  0.00    -0.194 C  
BRANCH   4   5
HETATM    5  N   UNL     1     -10.027  12.037  65.754  1.00  0.00    -0.237 NA 
HETATM    6  C   UNL     1     -11.052  12.867  65.097  1.00  0.00    -0.292 C  
HETATM    7  C   UNL     1     -12.165  13.354  66.043  1.00  0.00    -0.437 C  
HETATM    8  C   UNL     1     -11.529  14.194  67.156  1.00  0.00    -0.353 C  
HETATM    9  O   UNL     1     -13.142  14.134  65.348  1.00  0.00    -0.743 OA 
HETATM   10  H   UNL     1     -13.829  14.434  65.931  1.00  0.00     0.000 HD 
HETATM   11  C   UNL     1     -10.429  13.405  67.871  1.00  0.00    -0.240 C  
HETATM   12  O   UNL     1     -12.475  14.567  68.176  1.00  0.00    -0.589 OA 
HETATM   13  C   UNL     1      -9.404  12.795  66.880  1.00  0.00    -0.234 C  
HETATM   14  H   UNL     1     -12.081  15.087  68.866  1.00  0.00     0.000 HD 
HETATM   15  O   UNL     1      -9.775  14.290  68.802  1.00  0.00    -0.251 OA 
HETATM   16  H   UNL     1      -9.092  13.802  69.246  1.00  0.00     0.000 HD 
BRANCH  13  17
HETATM   17  C   UNL     1      -8.320  12.020  67.672  1.00  0.00    -0.160 C  
HETATM   18  O   UNL     1      -8.706  11.804  69.029  1.00  0.00    -0.373 OA 
HETATM   19  H   UNL     1      -8.042  11.329  69.513  1.00  0.00     0.000 HD 
ENDBRANCH  13  17
ENDBRANCH   4   5
ENDBRANCH   3   4
ENDBRANCH   2   3
TORSDOF 4
ENDMDL
MODEL       73
REMARK 921   NORMALIZED FREE ENERGY PREDICTED BY IDOCK:   -3.81 KCAL/MOL
REMARK 922        TOTAL FREE ENERGY PREDICTED BY IDOCK:   -5.19 KCAL/MOL
REMARK 923 INTER-LIGAND FREE ENERGY PREDICTED BY IDOCK:   -4.97 KCAL/MOL
REMARK 924 INTRA-LIGAND FREE ENERGY PREDICTED BY IDOCK:   -0.22 KCAL/MOL
REMARK 927      BINDING AFFINITY PREDICTED BY RF-SCORE:    0.00 PKD
ROOT
HETATM    1  C   UNL     1      -7.595   8.021  74.258  1.00  0.00    -0.246 C  
HETATM    2  C   UNL     1      -7.690   7.699  72.774  1.00  0.00    -0.118 C  
ENDROOT
BRANCH   2   3
HETATM    3  C   UNL     1      -9.133   7.420  72.341  1.00  0.00    -0.164 C  
BRANCH   3   4
HETATM    4  C   UNL     1      -9.951   8.713  72.129  1.00  0.00    -0.316 C  
BRANCH   4   5
HETATM    5  N   UNL     1     -11.058   8.564  71.168  1.00  0.00    -0.249 NA 
HETATM    6  C   UNL     1     -12.347   8.253  71.810  1.00  0.00    -0.328 C  
HETATM    7  C   UNL     1     -12.972   9.439  72.569  1.00  0.00    -0.271 C  
HETATM    8  C   UNL     1     -13.210  10.584  71.578  1.00  0.00    -0.371 C  
HETATM    9  O   UNL     1     -14.207   9.073  73.190  1.00  0.00    -1.142 OA 
HETATM   10  H   UNL     1     -14.593   9.805  73.658  1.00  0.00     0.000 HD 
HETATM   11  C   UNL     1     -11.915  10.947  70.846  1.00  0.00    -0.311 C  
HETATM   12  O   UNL     1     -13.651  11.792  72.225  1.00  0.00    -0.543 OA 
HETATM   13  C   UNL     1     -11.225   9.707  70.221  1.00  0.00    -0.271 C  
HETATM   14  H   UNL     1     -13.799  12.501  71.611  1.00  0.00     0.000 HD 
HETATM   15  O   UNL     1     -12.231  11.921  69.832  1.00  0.00    -0.265 OA 
HETATM   16  H   UNL     1     -11.428  12.147  69.378  1.00  0.00     0.000 HD 
BRANCH  13  17
HETATM   17  C   UNL     1      -9.929  10.151  69.494  1.00  0.00    -0.235 C  
HETATM   18  O   UNL     1      -9.479   9.166  68.565  1.00  0.00    -0.145 OA 
HETATM   19  H   UNL     1      -8.685   9.438  68.119  1.00  0.00     0.000 HD 
ENDBRANCH  13  17
ENDBRANCH   4   5
ENDBRANCH   3   4
ENDBRANCH   2   3
TORSDOF 4
ENDMDL
MODEL       74
REMARK 921   NORMALIZED FREE ENERGY PREDICTED BY IDOCK:   -3.80 KCAL/MOL
REMARK 922        TOTAL FREE ENERGY PREDICTED BY IDOCK:   -5.19 KCAL/MOL
REMARK 923 INTER-LIGAND FREE ENERGY PREDICTED BY IDOCK:   -4.72 KCAL/MOL
REMARK 924 INTRA-LIGAND FREE ENERGY PREDICTED BY IDOCK:   -0.46 KCAL/MOL
REMARK 927      BINDING AFFINITY PREDICTED BY RF-SCORE:    0.00 PKD
ROOT
HETATM    1  C   UNL     1     -10.365  11.509  67.412  1.00  0.00    -0.235 C  
HETATM    2  C   UNL     1     -10.836  12.221  68.672  1.00  0.00    -0.268 C  
ENDROOT
BRANCH   2   3
HETATM    3  C   UNL     1     -12.033  11.513  69.315  1.00  0.00    -0.397 C  
BRANCH   3   4
HETATM    4  C   UNL     1     -11.636  10.672  70.547  1.00  0.00    -0.350 C  
BRANCH   4   5
HETATM    5  N   UNL     1     -11.362   9.257  70.238  1.00  0.00    -0.235 NA 
HETATM    6  C   UNL     1      -9.932   8.974  70.028  1.00  0.00    -0.188 C  
HETATM    7  C   UNL     1      -9.091   9.006  71.318  1.00  0.00    -0.232 C  
HETATM    8  C   UNL     1      -9.637   7.950  72.285  1.00  0.00    -0.195 C  
HETATM    9  O   UNL     1      -7.709   8.748  71.051  1.00  0.00    -0.095 OA 
HETATM   10  H   UNL     1      -7.190   8.767  71.846  1.00  0.00     0.000 HD 
HETATM   11  C   UNL     1     -11.133   8.161  72.532  1.00  0.00    -0.377 C  
HETATM   12  O   UNL     1      -9.010   8.009  73.580  1.00  0.00    -0.253 OA 
HETATM   13  C   UNL     1     -11.936   8.280  71.211  1.00  0.00    -0.287 C  
HETATM   14  H   UNL     1      -9.348   7.355  74.179  1.00  0.00     0.000 HD 
HETATM   15  O   UNL     1     -11.616   7.060  73.327  1.00  0.00    -0.492 OA 
HETATM   16  H   UNL     1     -12.545   7.190  73.480  1.00  0.00     0.000 HD 
BRANCH  13  17
HETATM   17  C   UNL     1     -13.438   8.485  71.538  1.00  0.00    -0.294 C  
HETATM   18  O   UNL     1     -13.632   8.959  72.870  1.00  0.00    -0.824 OA 
HETATM   19  H   UNL     1     -14.552   9.084  73.070  1.00  0.00     0.000 HD 
ENDBRANCH  13  17
ENDBRANCH   4   5
ENDBRANCH   3   4
ENDBRANCH   2   3
TORSDOF 4
ENDMDL
MODEL       75
REMARK 921   NORMALIZED FREE ENERGY PREDICTED BY IDOCK:   -3.79 KCAL/MOL
REMARK 922        TOTAL FREE ENERGY PREDICTED BY IDOCK:   -5.17 KCAL/MOL
REMARK 923 INTER-LIGAND FREE ENERGY PREDICTED BY IDOCK:   -4.88 KCAL/MOL
REMARK 924 INTRA-LIGAND FREE ENERGY PREDICTED BY IDOCK:   -0.30 KCAL/MOL
REMARK 927      BINDING AFFINITY PREDICTED BY RF-SCORE:    0.00 PKD
ROOT
HETATM    1  C   UNL     1     -12.559  13.775  65.622  1.00  0.00    -0.551 C  
HETATM    2  C   UNL     1     -11.722  14.313  64.470  1.00  0.00    -0.431 C  
ENDROOT
BRANCH   2   3
HETATM    3  C   UNL     1     -11.142  15.696  64.785  1.00  0.00    -0.426 C  
BRANCH   3   4
HETATM    4  C   UNL     1      -9.922  15.629  65.730  1.00  0.00    -0.359 C  
BRANCH   4   5
HETATM    5  N   UNL     1      -9.986  16.584  66.851  1.00  0.00    -0.262 NA 
HETATM    6  C   UNL     1     -10.730  16.067  68.012  1.00  0.00    -0.309 C  
HETATM    7  C   UNL     1      -9.984  14.972  68.797  1.00  0.00    -0.228 C  
HETATM    8  C   UNL     1      -8.662  15.552  69.311  1.00  0.00    -0.260 C  
HETATM    9  O   UNL     1     -10.761  14.492  69.898  1.00  0.00    -0.434 OA 
HETATM   10  H   UNL     1     -10.301  13.817  70.383  1.00  0.00     0.000 HD 
HETATM   11  C   UNL     1      -7.841  16.137  68.160  1.00  0.00    -0.146 C  
HETATM   12  O   UNL     1      -7.824  14.556  69.929  1.00  0.00    -0.389 OA 
HETATM   13  C   UNL     1      -8.665  17.123  67.291  1.00  0.00    -0.201 C  
HETATM   14  H   UNL     1      -7.005  14.916  70.247  1.00  0.00     0.000 HD 
HETATM   15  O   UNL     1      -6.685  16.793  68.719  1.00  0.00    -0.165 OA 
HETATM   16  H   UNL     1      -6.176  17.156  68.005  1.00  0.00     0.000 HD 
BRANCH  13  17
HETATM   17  C   UNL     1      -7.771  17.679  66.153  1.00  0.00    -0.258 C  
HETATM   18  O   UNL     1      -8.160  18.996  65.768  1.00  0.00    -0.459 OA 
HETATM   19  H   UNL     1      -7.612  19.337  65.071  1.00  0.00     0.000 HD 
ENDBRANCH  13  17
ENDBRANCH   4   5
ENDBRANCH   3   4
ENDBRANCH   2   3
TORSDOF 4
ENDMDL
MODEL       76
REMARK 921   NORMALIZED FREE ENERGY PREDICTED BY IDOCK:   -3.79 KCAL/MOL
REMARK 922        TOTAL FREE ENERGY PREDICTED BY IDOCK:   -5.17 KCAL/MOL
REMARK 923 INTER-LIGAND FREE ENERGY PREDICTED BY IDOCK:   -4.76 KCAL/MOL
REMARK 924 INTRA-LIGAND FREE ENERGY PREDICTED BY IDOCK:   -0.41 KCAL/MOL
REMARK 927      BINDING AFFINITY PREDICTED BY RF-SCORE:    0.00 PKD
ROOT
HETATM    1  C   UNL     1     -10.594   9.883  70.683  1.00  0.00    -0.341 C  
HETATM    2  C   UNL     1     -12.069  10.158  70.941  1.00  0.00    -0.453 C  
ENDROOT
BRANCH   2   3
HETATM    3  C   UNL     1     -12.360  11.658  71.051  1.00  0.00    -0.405 C  
BRANCH   3   4
HETATM    4  C   UNL     1     -11.592  12.492  70.002  1.00  0.00    -0.130 C  
BRANCH   4   5
HETATM    5  N   UNL     1     -12.392  13.574  69.401  1.00  0.00    -0.207 NA 
HETATM    6  C   UNL     1     -12.652  14.687  70.330  1.00  0.00    -0.318 C  
HETATM    7  C   UNL     1     -11.419  15.563  70.621  1.00  0.00    -0.358 C  
HETATM    8  C   UNL     1     -10.923  16.164  69.301  1.00  0.00    -0.315 C  
HETATM    9  O   UNL     1     -11.725  16.611  71.544  1.00  0.00    -0.641 OA 
HETATM   10  H   UNL     1     -10.964  17.152  71.723  1.00  0.00     0.000 HD 
HETATM   11  C   UNL     1     -10.656  15.065  68.269  1.00  0.00    -0.247 C  
HETATM   12  O   UNL     1      -9.681  16.876  69.450  1.00  0.00    -0.154 OA 
HETATM   13  C   UNL     1     -11.862  14.103  68.109  1.00  0.00    -0.352 C  
HETATM   14  H   UNL     1      -9.374  17.249  68.633  1.00  0.00     0.000 HD 
HETATM   15  O   UNL     1     -10.335  15.695  67.014  1.00  0.00    -0.276 OA 
HETATM   16  H   UNL     1     -10.170  15.014  66.373  1.00  0.00     0.000 HD 
BRANCH  13  17
HETATM   17  C   UNL     1     -11.524  13.024  67.048  1.00  0.00    -0.333 C  
HETATM   18  O   UNL     1     -10.121  12.947  66.798  1.00  0.00    -0.231 OA 
HETATM   19  H   UNL     1      -9.914  12.286  66.148  1.00  0.00     0.000 HD 
ENDBRANCH  13  17
ENDBRANCH   4   5
ENDBRANCH   3   4
ENDBRANCH   2   3
TORSDOF 4
ENDMDL
MODEL       77
REMARK 921   NORMALIZED FREE ENERGY PREDICTED BY IDOCK:   -3.77 KCAL/MOL
REMARK 922        TOTAL FREE ENERGY PREDICTED BY IDOCK:   -5.14 KCAL/MOL
REMARK 923 INTER-LIGAND FREE ENERGY PREDICTED BY IDOCK:   -4.72 KCAL/MOL
REMARK 924 INTRA-LIGAND FREE ENERGY PREDICTED BY IDOCK:   -0.42 KCAL/MOL
REMARK 927      BINDING AFFINITY PREDICTED BY RF-SCORE:    0.00 PKD
ROOT
HETATM    1  C   UNL     1     -12.449  12.519  64.580  1.00  0.00    -0.539 C  
HETATM    2  C   UNL     1     -12.170  13.373  65.808  1.00  0.00    -0.507 C  
ENDROOT
BRANCH   2   3
HETATM    3  C   UNL     1     -11.551  12.552  66.945  1.00  0.00    -0.436 C  
BRANCH   3   4
HETATM    4  C   UNL     1     -12.409  12.573  68.229  1.00  0.00     0.424 C  
BRANCH   4   5
HETATM    5  N   UNL     1     -11.627  12.772  69.463  1.00  0.00    -0.289 NA 
HETATM    6  C   UNL     1     -11.058  14.126  69.578  1.00  0.00    -0.178 C  
HETATM    7  C   UNL     1     -12.098  15.219  69.887  1.00  0.00    -0.343 C  
HETATM    8  C   UNL     1     -12.777  14.885  71.219  1.00  0.00    -0.340 C  
HETATM    9  O   UNL     1     -11.493  16.513  69.964  1.00  0.00    -0.387 OA 
HETATM   10  H   UNL     1     -12.134  17.188  70.155  1.00  0.00     0.000 HD 
HETATM   11  C   UNL     1     -13.372  13.475  71.188  1.00  0.00    -0.071 C  
HETATM   12  O   UNL     1     -13.873  15.771  71.518  1.00  0.00    -0.493 OA 
HETATM   13  C   UNL     1     -12.343  12.413  70.724  1.00  0.00    -0.286 C  
HETATM   14  H   UNL     1     -14.295  15.564  72.343  1.00  0.00     0.000 HD 
HETATM   15  O   UNL     1     -13.865  13.166  72.507  1.00  0.00    -0.654 OA 
HETATM   16  H   UNL     1     -14.234  12.291  72.488  1.00  0.00     0.000 HD 
BRANCH  13  17
HETATM   17  C   UNL     1     -13.011  11.014  70.723  1.00  0.00    -0.177 C  
HETATM   18  O   UNL     1     -12.923  10.383  72.000  1.00  0.00    -0.445 OA 
HETATM   19  H   UNL     1     -13.332   9.526  71.999  1.00  0.00     0.000 HD 
ENDBRANCH  13  17
ENDBRANCH   4   5
ENDBRANCH   3   4
ENDBRANCH   2   3
TORSDOF 4
ENDMDL
MODEL       78
REMARK 921   NORMALIZED FREE ENERGY PREDICTED BY IDOCK:   -3.76 KCAL/MOL
REMARK 922        TOTAL FREE ENERGY PREDICTED BY IDOCK:   -5.13 KCAL/MOL
REMARK 923 INTER-LIGAND FREE ENERGY PREDICTED BY IDOCK:   -5.17 KCAL/MOL
REMARK 924 INTRA-LIGAND FREE ENERGY PREDICTED BY IDOCK:    0.04 KCAL/MOL
REMARK 927      BINDING AFFINITY PREDICTED BY RF-SCORE:    0.00 PKD
ROOT
HETATM    1  C   UNL     1     -11.361  12.324  66.073  1.00  0.00    -0.398 C  
HETATM    2  C   UNL     1     -11.824  12.458  67.517  1.00  0.00    -0.354 C  
ENDROOT
BRANCH   2   3
HETATM    3  C   UNL     1     -10.982  11.600  68.468  1.00  0.00    -0.264 C  
BRANCH   3   4
HETATM    4  C   UNL     1     -11.843  10.673  69.353  1.00  0.00    -0.253 C  
BRANCH   4   5
HETATM    5  N   UNL     1     -11.366  10.568  70.743  1.00  0.00    -0.295 NA 
HETATM    6  C   UNL     1     -12.450  10.648  71.738  1.00  0.00    -0.219 C  
HETATM    7  C   UNL     1     -13.342   9.394  71.795  1.00  0.00    -0.415 C  
HETATM    8  C   UNL     1     -12.468   8.188  72.155  1.00  0.00    -0.322 C  
HETATM    9  O   UNL     1     -14.389   9.537  72.759  1.00  0.00    -0.769 OA 
HETATM   10  H   UNL     1     -14.939   8.763  72.795  1.00  0.00     0.000 HD 
HETATM   11  C   UNL     1     -11.297   8.053  71.179  1.00  0.00    -0.266 C  
HETATM   12  O   UNL     1     -13.188   6.942  72.084  1.00  0.00    -0.544 OA 
HETATM   13  C   UNL     1     -10.507   9.378  71.023  1.00  0.00    -0.322 C  
HETATM   14  H   UNL     1     -12.646   6.195  72.307  1.00  0.00     0.000 HD 
HETATM   15  O   UNL     1     -10.436   6.998  71.652  1.00  0.00    -0.201 OA 
HETATM   16  H   UNL     1      -9.709   6.915  71.046  1.00  0.00     0.000 HD 
BRANCH  13  17
HETATM   17  C   UNL     1      -9.336   9.166  70.028  1.00  0.00    -0.199 C  
HETATM   18  O   UNL     1      -8.398  10.240  70.076  1.00  0.00    -0.353 OA 
HETATM   19  H   UNL     1      -7.681  10.110  69.466  1.00  0.00     0.000 HD 
ENDBRANCH  13  17
ENDBRANCH   4   5
ENDBRANCH   3   4
ENDBRANCH   2   3
TORSDOF 4
ENDMDL
MODEL       79
REMARK 921   NORMALIZED FREE ENERGY PREDICTED BY IDOCK:   -3.76 KCAL/MOL
REMARK 922        TOTAL FREE ENERGY PREDICTED BY IDOCK:   -5.13 KCAL/MOL
REMARK 923 INTER-LIGAND FREE ENERGY PREDICTED BY IDOCK:   -4.90 KCAL/MOL
REMARK 924 INTRA-LIGAND FREE ENERGY PREDICTED BY IDOCK:   -0.23 KCAL/MOL
REMARK 927      BINDING AFFINITY PREDICTED BY RF-SCORE:    0.00 PKD
ROOT
HETATM    1  C   UNL     1     -13.062  15.584  71.176  1.00  0.00    -0.573 C  
HETATM    2  C   UNL     1     -12.133  14.569  70.528  1.00  0.00    -0.395 C  
ENDROOT
BRANCH   2   3
HETATM    3  C   UNL     1     -11.905  14.870  69.043  1.00  0.00    -0.333 C  
BRANCH   3   4
HETATM    4  C   UNL     1     -10.569  15.601  68.782  1.00  0.00    -0.238 C  
BRANCH   4   5
HETATM    5  N   UNL     1     -10.614  16.529  67.638  1.00  0.00    -0.320 NA 
HETATM    6  C   UNL     1     -11.026  17.892  68.012  1.00  0.00    -0.043 C  
HETATM    7  C   UNL     1      -9.957  18.678  68.794  1.00  0.00    -0.383 C  
HETATM    8  C   UNL     1      -8.700  18.793  67.925  1.00  0.00    -0.296 C  
HETATM    9  O   UNL     1     -10.420  19.984  69.150  1.00  0.00    -0.609 OA 
HETATM   10  H   UNL     1      -9.760  20.469  69.633  1.00  0.00     0.000 HD 
HETATM   11  C   UNL     1      -8.224  17.411  67.471  1.00  0.00    -0.201 C  
HETATM   12  O   UNL     1      -7.591  19.381  68.632  1.00  0.00    -0.337 OA 
HETATM   13  C   UNL     1      -9.362  16.581  66.824  1.00  0.00    -0.243 C  
HETATM   14  H   UNL     1      -6.812  19.452  68.094  1.00  0.00     0.000 HD 
HETATM   15  O   UNL     1      -7.134  17.593  66.545  1.00  0.00    -0.198 OA 
HETATM   16  H   UNL     1      -6.839  16.736  66.263  1.00  0.00     0.000 HD 
BRANCH  13  17
HETATM   17  C   UNL     1      -8.808  15.201  66.384  1.00  0.00    -0.242 C  
HETATM   18  O   UNL     1      -9.676  14.552  65.455  1.00  0.00    -0.486 OA 
HETATM   19  H   UNL     1      -9.336  13.707  65.186  1.00  0.00     0.000 HD 
ENDBRANCH  13  17
ENDBRANCH   4   5
ENDBRANCH   3   4
ENDBRANCH   2   3
TORSDOF 4
ENDMDL
MODEL       80
REMARK 921   NORMALIZED FREE ENERGY PREDICTED BY IDOCK:   -3.74 KCAL/MOL
REMARK 922        TOTAL FREE ENERGY PREDICTED BY IDOCK:   -5.11 KCAL/MOL
REMARK 923 INTER-LIGAND FREE ENERGY PREDICTED BY IDOCK:   -4.93 KCAL/MOL
REMARK 924 INTRA-LIGAND FREE ENERGY PREDICTED BY IDOCK:   -0.18 KCAL/MOL
REMARK 927      BINDING AFFINITY PREDICTED BY RF-SCORE:    0.00 PKD
ROOT
HETATM    1  C   UNL     1      -9.684  18.713  68.609  1.00  0.00    -0.418 C  
HETATM    2  C   UNL     1     -10.300  18.963  67.241  1.00  0.00    -0.486 C  
ENDROOT
BRANCH   2   3
HETATM    3  C   UNL     1     -10.336  17.689  66.389  1.00  0.00    -0.345 C  
BRANCH   3   4
HETATM    4  C   UNL     1      -9.847  16.444  67.160  1.00  0.00    -0.249 C  
BRANCH   4   5
HETATM    5  N   UNL     1     -10.848  15.365  67.241  1.00  0.00    -0.312 NA 
HETATM    6  C   UNL     1     -11.804  15.375  66.120  1.00  0.00     0.339 C  
HETATM    7  C   UNL     1     -11.204  14.915  64.779  1.00  0.00    -0.386 C  
HETATM    8  C   UNL     1     -10.689  13.481  64.939  1.00  0.00    -0.381 C  
HETATM    9  O   UNL     1     -12.169  14.967  63.725  1.00  0.00    -0.944 OA 
HETATM   10  H   UNL     1     -11.799  14.683  62.897  1.00  0.00     0.000 HD 
HETATM   11  C   UNL     1      -9.706  13.383  66.109  1.00  0.00    -0.250 C  
HETATM   12  O   UNL     1      -9.972  13.018  63.779  1.00  0.00    -0.744 OA 
HETATM   13  C   UNL     1     -10.280  13.994  67.412  1.00  0.00    -0.248 C  
HETATM   14  H   UNL     1      -9.653  12.129  63.879  1.00  0.00     0.000 HD 
HETATM   15  O   UNL     1      -9.372  11.994  66.300  1.00  0.00    -0.224 OA 
HETATM   16  H   UNL     1      -8.762  11.932  67.025  1.00  0.00     0.000 HD 
BRANCH  13  17
HETATM   17  C   UNL     1      -9.237  13.854  68.551  1.00  0.00    -0.154 C  
HETATM   18  O   UNL     1      -7.901  13.955  68.061  1.00  0.00    -0.126 OA 
HETATM   19  H   UNL     1      -7.262  13.869  68.759  1.00  0.00     0.000 HD 
ENDBRANCH  13  17
ENDBRANCH   4   5
ENDBRANCH   3   4
ENDBRANCH   2   3
TORSDOF 4
ENDMDL
MODEL       81
REMARK 921   NORMALIZED FREE ENERGY PREDICTED BY IDOCK:   -3.70 KCAL/MOL
REMARK 922        TOTAL FREE ENERGY PREDICTED BY IDOCK:   -5.06 KCAL/MOL
REMARK 923 INTER-LIGAND FREE ENERGY PREDICTED BY IDOCK:   -5.02 KCAL/MOL
REMARK 924 INTRA-LIGAND FREE ENERGY PREDICTED BY IDOCK:   -0.04 KCAL/MOL
REMARK 927      BINDING AFFINITY PREDICTED BY RF-SCORE:    0.00 PKD
ROOT
HETATM    1  C   UNL     1      -6.577  16.607  67.610  1.00  0.00    -0.171 C  
HETATM    2  C   UNL     1      -8.060  16.578  67.952  1.00  0.00    -0.168 C  
ENDROOT
BRANCH   2   3
HETATM    3  C   UNL     1      -8.739  15.303  67.441  1.00  0.00    -0.194 C  
BRANCH   3   4
HETATM    4  C   UNL     1      -9.910  14.850  68.340  1.00  0.00    -0.216 C  
BRANCH   4   5
HETATM    5  N   UNL     1     -11.140  14.525  67.596  1.00  0.00    -0.294 NA 
HETATM    6  C   UNL     1     -10.924  14.399  66.145  1.00  0.00    -0.320 C  
HETATM    7  C   UNL     1     -10.164  13.125  65.732  1.00  0.00    -0.289 C  
HETATM    8  C   UNL     1     -10.969  11.905  66.190  1.00  0.00    -0.308 C  
HETATM    9  O   UNL     1      -9.963  13.068  64.317  1.00  0.00    -0.616 OA 
HETATM   10  H   UNL     1      -9.495  12.281  64.062  1.00  0.00     0.000 HD 
HETATM   11  C   UNL     1     -11.260  11.977  67.692  1.00  0.00    -0.282 C  
HETATM   12  O   UNL     1     -10.263  10.667  65.983  1.00  0.00    -0.242 OA 
HETATM   13  C   UNL     1     -11.885  13.335  68.105  1.00  0.00    -0.353 C  
HETATM   14  H   UNL     1     -10.762   9.910  66.268  1.00  0.00     0.000 HD 
HETATM   15  O   UNL     1     -12.137  10.886  68.033  1.00  0.00    -0.780 OA 
HETATM   16  H   UNL     1     -12.318  10.931  68.964  1.00  0.00     0.000 HD 
BRANCH  13  17
HETATM   17  C   UNL     1     -12.157  13.334  69.631  1.00  0.00    -0.270 C  
HETATM   18  O   UNL     1     -11.470  12.272  70.292  1.00  0.00    -0.515 OA 
HETATM   19  H   UNL     1     -11.637  12.272  71.227  1.00  0.00     0.000 HD 
ENDBRANCH  13  17
ENDBRANCH   4   5
ENDBRANCH   3   4
ENDBRANCH   2   3
TORSDOF 4
ENDMDL
MODEL       82
REMARK 921   NORMALIZED FREE ENERGY PREDICTED BY IDOCK:   -3.70 KCAL/MOL
REMARK 922        TOTAL FREE ENERGY PREDICTED BY IDOCK:   -5.06 KCAL/MOL
REMARK 923 INTER-LIGAND FREE ENERGY PREDICTED BY IDOCK:   -4.73 KCAL/MOL
REMARK 924 INTRA-LIGAND FREE ENERGY PREDICTED BY IDOCK:   -0.33 KCAL/MOL
REMARK 927      BINDING AFFINITY PREDICTED BY RF-SCORE:    0.00 PKD
ROOT
HETATM    1  C   UNL     1     -11.649  15.664  64.453  1.00  0.00    -0.250 C  
HETATM    2  C   UNL     1     -11.877  14.162  64.362  1.00  0.00    -0.447 C  
ENDROOT
BRANCH   2   3
HETATM    3  C   UNL     1     -10.577  13.374  64.552  1.00  0.00    -0.441 C  
BRANCH   3   4
HETATM    4  C   UNL     1     -10.809  11.984  65.184  1.00  0.00    -0.300 C  
BRANCH   4   5
HETATM    5  N   UNL     1      -9.715  11.542  66.065  1.00  0.00    -0.219 NA 
HETATM    6  C   UNL     1     -10.126  11.391  67.471  1.00  0.00    -0.183 C  
HETATM    7  C   UNL     1     -11.027  10.170  67.734  1.00  0.00    -0.277 C  
HETATM    8  C   UNL     1     -10.263   8.903  67.335  1.00  0.00    -0.249 C  
HETATM    9  O   UNL     1     -11.414  10.088  69.109  1.00  0.00    -0.432 OA 
HETATM   10  H   UNL     1     -11.969   9.334  69.271  1.00  0.00     0.000 HD 
HETATM   11  C   UNL     1      -9.775   8.996  65.887  1.00  0.00    -0.236 C  
HETATM   12  O   UNL     1     -11.080   7.720  67.402  1.00  0.00    -0.525 OA 
HETATM   13  C   UNL     1      -9.001  10.311  65.610  1.00  0.00    -0.172 C  
HETATM   14  H   UNL     1     -10.607   6.935  67.154  1.00  0.00     0.000 HD 
HETATM   15  O   UNL     1      -8.945   7.849  65.618  1.00  0.00    -0.323 OA 
HETATM   16  H   UNL     1      -8.642   7.906  64.719  1.00  0.00     0.000 HD 
BRANCH  13  17
HETATM   17  C   UNL     1      -8.534  10.333  64.132  1.00  0.00    -0.179 C  
HETATM   18  O   UNL     1      -9.461   9.671  63.272  1.00  0.00    -0.496 OA 
HETATM   19  H   UNL     1      -9.175   9.685  62.367  1.00  0.00     0.000 HD 
ENDBRANCH  13  17
ENDBRANCH   4   5
ENDBRANCH   3   4
ENDBRANCH   2   3
TORSDOF 4
ENDMDL
MODEL       83
REMARK 921   NORMALIZED FREE ENERGY PREDICTED BY IDOCK:   -3.69 KCAL/MOL
REMARK 922        TOTAL FREE ENERGY PREDICTED BY IDOCK:   -5.04 KCAL/MOL
REMARK 923 INTER-LIGAND FREE ENERGY PREDICTED BY IDOCK:   -4.56 KCAL/MOL
REMARK 924 INTRA-LIGAND FREE ENERGY PREDICTED BY IDOCK:   -0.48 KCAL/MOL
REMARK 927      BINDING AFFINITY PREDICTED BY RF-SCORE:    0.00 PKD
ROOT
HETATM    1  C   UNL     1     -11.020  14.715  64.826  1.00  0.00    -0.399 C  
HETATM    2  C   UNL     1     -10.625  13.348  65.365  1.00  0.00    -0.310 C  
ENDROOT
BRANCH   2   3
HETATM    3  C   UNL     1      -9.537  13.451  66.439  1.00  0.00    -0.265 C  
BRANCH   3   4
HETATM    4  C   UNL     1      -9.840  12.583  67.680  1.00  0.00    -0.202 C  
BRANCH   4   5
HETATM    5  N   UNL     1     -11.217  12.057  67.714  1.00  0.00    -0.251 NA 
HETATM    6  C   UNL     1     -11.281  10.590  67.600  1.00  0.00    -0.265 C  
HETATM    7  C   UNL     1     -10.808   9.841  68.860  1.00  0.00    -0.192 C  
HETATM    8  C   UNL     1     -11.696  10.256  70.038  1.00  0.00    -0.254 C  
HETATM    9  O   UNL     1     -10.870   8.423  68.684  1.00  0.00    -0.418 OA 
HETATM   10  H   UNL     1     -10.578   7.961  69.462  1.00  0.00     0.000 HD 
HETATM   11  C   UNL     1     -11.704  11.777  70.204  1.00  0.00    -0.269 C  
HETATM   12  O   UNL     1     -11.234   9.723  71.293  1.00  0.00    -0.361 OA 
HETATM   13  C   UNL     1     -12.033  12.512  68.879  1.00  0.00    -0.236 C  
HETATM   14  H   UNL     1     -11.785   9.980  72.023  1.00  0.00     0.000 HD 
HETATM   15  O   UNL     1     -12.664  12.113  71.226  1.00  0.00    -0.366 OA 
HETATM   16  H   UNL     1     -12.669  13.057  71.329  1.00  0.00     0.000 HD 
BRANCH  13  17
HETATM   17  C   UNL     1     -12.030  14.043  69.124  1.00  0.00    -0.360 C  
HETATM   18  O   UNL     1     -11.342  14.387  70.326  1.00  0.00    -0.413 OA 
HETATM   19  H   UNL     1     -11.340  15.325  70.475  1.00  0.00     0.000 HD 
ENDBRANCH  13  17
ENDBRANCH   4   5
ENDBRANCH   3   4
ENDBRANCH   2   3
TORSDOF 4
ENDMDL
MODEL       84
REMARK 921   NORMALIZED FREE ENERGY PREDICTED BY IDOCK:   -3.69 KCAL/MOL
REMARK 922        TOTAL FREE ENERGY PREDICTED BY IDOCK:   -5.04 KCAL/MOL
REMARK 923 INTER-LIGAND FREE ENERGY PREDICTED BY IDOCK:   -4.59 KCAL/MOL
REMARK 924 INTRA-LIGAND FREE ENERGY PREDICTED BY IDOCK:   -0.46 KCAL/MOL
REMARK 927      BINDING AFFINITY PREDICTED BY RF-SCORE:    0.00 PKD
ROOT
HETATM    1  C   UNL     1      -6.763  15.005  69.347  1.00  0.00    -0.158 C  
HETATM    2  C   UNL     1      -6.737  15.502  67.909  1.00  0.00    -0.172 C  
ENDROOT
BRANCH   2   3
HETATM    3  C   UNL     1      -8.146  15.779  67.375  1.00  0.00    -0.193 C  
BRANCH   3   4
HETATM    4  C   UNL     1      -9.147  14.657  67.725  1.00  0.00    -0.191 C  
BRANCH   4   5
HETATM    5  N   UNL     1      -8.949  13.420  66.948  1.00  0.00    -0.228 NA 
HETATM    6  C   UNL     1      -8.666  12.245  67.790  1.00  0.00    -0.174 C  
HETATM    7  C   UNL     1      -9.885  11.728  68.576  1.00  0.00    -0.189 C  
HETATM    8  C   UNL     1     -10.980  11.334  67.579  1.00  0.00    -0.265 C  
HETATM    9  O   UNL     1      -9.546  10.603  69.392  1.00  0.00    -0.344 OA 
HETATM   10  H   UNL     1     -10.299  10.284  69.877  1.00  0.00     0.000 HD 
HETATM   11  C   UNL     1     -11.311  12.501  66.646  1.00  0.00    -0.334 C  
HETATM   12  O   UNL     1     -12.217  10.982  68.227  1.00  0.00    -0.769 OA 
HETATM   13  C   UNL     1     -10.045  13.103  65.984  1.00  0.00    -0.286 C  
HETATM   14  H   UNL     1     -12.895  10.737  67.609  1.00  0.00     0.000 HD 
HETATM   15  O   UNL     1     -12.234  12.028  65.645  1.00  0.00    -0.503 OA 
HETATM   16  H   UNL     1     -12.440  12.752  65.066  1.00  0.00     0.000 HD 
BRANCH  13  17
HETATM   17  C   UNL     1     -10.456  14.271  65.051  1.00  0.00    -0.435 C  
HETATM   18  O   UNL     1     -11.774  14.739  65.336  1.00  0.00    -0.344 OA 
HETATM   19  H   UNL     1     -12.025  15.454  64.764  1.00  0.00     0.000 HD 
ENDBRANCH  13  17
ENDBRANCH   4   5
ENDBRANCH   3   4
ENDBRANCH   2   3
TORSDOF 4
ENDMDL
MODEL       85
REMARK 921   NORMALIZED FREE ENERGY PREDICTED BY IDOCK:   -3.69 KCAL/MOL
REMARK 922        TOTAL FREE ENERGY PREDICTED BY IDOCK:   -5.04 KCAL/MOL
REMARK 923 INTER-LIGAND FREE ENERGY PREDICTED BY IDOCK:   -4.70 KCAL/MOL
REMARK 924 INTRA-LIGAND FREE ENERGY PREDICTED BY IDOCK:   -0.34 KCAL/MOL
REMARK 927      BINDING AFFINITY PREDICTED BY RF-SCORE:    0.00 PKD
ROOT
HETATM    1  C   UNL     1     -10.656   9.225  67.372  1.00  0.00    -0.324 C  
HETATM    2  C   UNL     1     -10.591  10.733  67.178  1.00  0.00    -0.306 C  
ENDROOT
BRANCH   2   3
HETATM    3  C   UNL     1     -11.828  11.436  67.748  1.00  0.00    -0.196 C  
BRANCH   3   4
HETATM    4  C   UNL     1     -11.720  12.975  67.685  1.00  0.00    -0.366 C  
BRANCH   4   5
HETATM    5  N   UNL     1     -10.551  13.519  68.398  1.00  0.00    -0.242 NA 
HETATM    6  C   UNL     1      -9.493  14.004  67.495  1.00  0.00    -0.221 C  
HETATM    7  C   UNL     1      -9.842  15.316  66.769  1.00  0.00    -0.236 C  
HETATM    8  C   UNL     1     -10.094  16.405  67.818  1.00  0.00    -0.262 C  
HETATM    9  O   UNL     1      -8.791  15.727  65.890  1.00  0.00    -0.320 OA 
HETATM   10  H   UNL     1      -9.006  16.537  65.442  1.00  0.00     0.000 HD 
HETATM   11  C   UNL     1     -11.167  15.960  68.816  1.00  0.00    -0.359 C  
HETATM   12  O   UNL     1     -10.576  17.631  67.238  1.00  0.00    -0.347 OA 
HETATM   13  C   UNL     1     -10.868  14.563  69.418  1.00  0.00    -0.226 C  
HETATM   14  H   UNL     1     -10.732  18.305  67.888  1.00  0.00     0.000 HD 
HETATM   15  O   UNL     1     -11.254  16.956  69.855  1.00  0.00    -0.361 OA 
HETATM   16  H   UNL     1     -11.920  16.681  70.474  1.00  0.00     0.000 HD 
BRANCH  13  17
HETATM   17  C   UNL     1     -11.988  14.183  70.420  1.00  0.00    -0.330 C  
HETATM   18  O   UNL     1     -13.195  14.900  70.164  1.00  0.00    -0.608 OA 
HETATM   19  H   UNL     1     -13.881  14.667  70.778  1.00  0.00     0.000 HD 
ENDBRANCH  13  17
ENDBRANCH   4   5
ENDBRANCH   3   4
ENDBRANCH   2   3
TORSDOF 4
ENDMDL
MODEL       86
REMARK 921   NORMALIZED FREE ENERGY PREDICTED BY IDOCK:   -3.68 KCAL/MOL
REMARK 922        TOTAL FREE ENERGY PREDICTED BY IDOCK:   -5.04 KCAL/MOL
REMARK 923 INTER-LIGAND FREE ENERGY PREDICTED BY IDOCK:   -4.53 KCAL/MOL
REMARK 924 INTRA-LIGAND FREE ENERGY PREDICTED BY IDOCK:   -0.50 KCAL/MOL
REMARK 927      BINDING AFFINITY PREDICTED BY RF-SCORE:    0.00 PKD
ROOT
HETATM    1  C   UNL     1      -6.867  19.955  68.040  1.00  0.00    -0.309 C  
HETATM    2  C   UNL     1      -7.928  19.068  68.675  1.00  0.00    -0.387 C  
ENDROOT
BRANCH   2   3
HETATM    3  C   UNL     1      -9.063  18.747  67.698  1.00  0.00    -0.304 C  
BRANCH   3   4
HETATM    4  C   UNL     1      -9.396  17.240  67.647  1.00  0.00    -0.237 C  
BRANCH   4   5
HETATM    5  N   UNL     1      -9.326  16.571  68.959  1.00  0.00    -0.256 NA 
HETATM    6  C   UNL     1     -10.637  16.449  69.619  1.00  0.00    -0.307 C  
HETATM    7  C   UNL     1     -11.568  15.405  68.975  1.00  0.00    -0.347 C  
HETATM    8  C   UNL     1     -10.885  14.035  69.037  1.00  0.00    -0.243 C  
HETATM    9  O   UNL     1     -12.832  15.346  69.641  1.00  0.00    -0.609 OA 
HETATM   10  H   UNL     1     -13.407  14.702  69.244  1.00  0.00     0.000 HD 
HETATM   11  C   UNL     1      -9.498  14.089  68.392  1.00  0.00    -0.213 C  
HETATM   12  O   UNL     1     -11.615  13.021  68.321  1.00  0.00    -0.295 OA 
HETATM   13  C   UNL     1      -8.634  15.248  68.952  1.00  0.00    -0.207 C  
HETATM   14  H   UNL     1     -11.193  12.171  68.360  1.00  0.00     0.000 HD 
HETATM   15  O   UNL     1      -8.852  12.819  68.610  1.00  0.00    -0.362 OA 
HETATM   16  H   UNL     1      -7.991  12.851  68.210  1.00  0.00     0.000 HD 
BRANCH  13  17
HETATM   17  C   UNL     1      -7.246  15.237  68.261  1.00  0.00    -0.117 C  
HETATM   18  O   UNL     1      -7.274  14.522  67.026  1.00  0.00    -0.340 OA 
HETATM   19  H   UNL     1      -6.423  14.516  66.603  1.00  0.00     0.000 HD 
ENDBRANCH  13  17
ENDBRANCH   4   5
ENDBRANCH   3   4
ENDBRANCH   2   3
TORSDOF 4
ENDMDL
MODEL       87
REMARK 921   NORMALIZED FREE ENERGY PREDICTED BY IDOCK:   -3.66 KCAL/MOL
REMARK 922        TOTAL FREE ENERGY PREDICTED BY IDOCK:   -5.01 KCAL/MOL
REMARK 923 INTER-LIGAND FREE ENERGY PREDICTED BY IDOCK:   -4.99 KCAL/MOL
REMARK 924 INTRA-LIGAND FREE ENERGY PREDICTED BY IDOCK:   -0.02 KCAL/MOL
REMARK 927      BINDING AFFINITY PREDICTED BY RF-SCORE:    0.00 PKD
ROOT
HETATM    1  C   UNL     1     -13.053  14.490  73.039  1.00  0.00    -0.611 C  
HETATM    2  C   UNL     1     -13.520  15.432  71.939  1.00  0.00    -0.571 C  
ENDROOT
BRANCH   2   3
HETATM    3  C   UNL     1     -12.469  15.585  70.834  1.00  0.00    -0.494 C  
BRANCH   3   4
HETATM    4  C   UNL     1     -12.046  14.231  70.224  1.00  0.00    -0.335 C  
BRANCH   4   5
HETATM    5  N   UNL     1     -11.864  14.269  68.762  1.00  0.00    -0.334 NA 
HETATM    6  C   UNL     1     -11.514  15.608  68.256  1.00  0.00    -0.350 C  
HETATM    7  C   UNL     1     -10.078  16.050  68.592  1.00  0.00    -0.220 C  
HETATM    8  C   UNL     1      -9.099  15.047  67.973  1.00  0.00    -0.178 C  
HETATM    9  O   UNL     1      -9.802  17.363  68.097  1.00  0.00    -0.275 OA 
HETATM   10  H   UNL     1      -8.916  17.636  68.305  1.00  0.00     0.000 HD 
HETATM   11  C   UNL     1      -9.417  13.622  68.431  1.00  0.00    -0.190 C  
HETATM   12  O   UNL     1      -7.734  15.293  68.363  1.00  0.00    -0.118 OA 
HETATM   13  C   UNL     1     -10.909  13.256  68.222  1.00  0.00    -0.256 C  
HETATM   14  H   UNL     1      -7.128  14.672  67.979  1.00  0.00     0.000 HD 
HETATM   15  O   UNL     1      -8.562  12.715  67.707  1.00  0.00    -0.157 OA 
HETATM   16  H   UNL     1      -8.759  11.831  67.991  1.00  0.00     0.000 HD 
BRANCH  13  17
HETATM   17  C   UNL     1     -11.155  11.802  68.700  1.00  0.00    -0.238 C  
HETATM   18  O   UNL     1     -11.951  11.065  67.773  1.00  0.00    -0.661 OA 
HETATM   19  H   UNL     1     -12.102  10.175  68.066  1.00  0.00     0.000 HD 
ENDBRANCH  13  17
ENDBRANCH   4   5
ENDBRANCH   3   4
ENDBRANCH   2   3
TORSDOF 4
ENDMDL
MODEL       88
REMARK 921   NORMALIZED FREE ENERGY PREDICTED BY IDOCK:   -3.65 KCAL/MOL
REMARK 922        TOTAL FREE ENERGY PREDICTED BY IDOCK:   -5.00 KCAL/MOL
REMARK 923 INTER-LIGAND FREE ENERGY PREDICTED BY IDOCK:   -4.68 KCAL/MOL
REMARK 924 INTRA-LIGAND FREE ENERGY PREDICTED BY IDOCK:   -0.32 KCAL/MOL
REMARK 927      BINDING AFFINITY PREDICTED BY RF-SCORE:    0.00 PKD
ROOT
HETATM    1  C   UNL     1      -9.170  19.414  68.717  1.00  0.00    -0.422 C  
HETATM    2  C   UNL     1     -10.190  19.807  67.658  1.00  0.00    -0.569 C  
ENDROOT
BRANCH   2   3
HETATM    3  C   UNL     1     -10.631  18.606  66.815  1.00  0.00    -0.422 C  
BRANCH   3   4
HETATM    4  C   UNL     1     -10.463  17.263  67.558  1.00  0.00    -0.356 C  
BRANCH   4   5
HETATM    5  N   UNL     1      -9.827  16.210  66.747  1.00  0.00    -0.237 NA 
HETATM    6  C   UNL     1      -8.364  16.355  66.653  1.00  0.00    -0.270 C  
HETATM    7  C   UNL     1      -7.614  16.010  67.953  1.00  0.00    -0.132 C  
HETATM    8  C   UNL     1      -7.915  14.553  68.319  1.00  0.00    -0.137 C  
HETATM    9  O   UNL     1      -6.202  16.191  67.810  1.00  0.00    -0.114 OA 
HETATM   10  H   UNL     1      -5.740  15.977  68.612  1.00  0.00     0.000 HD 
HETATM   11  C   UNL     1      -9.424  14.315  68.409  1.00  0.00    -0.213 C  
HETATM   12  O   UNL     1      -7.379  14.184  69.604  1.00  0.00    -0.342 OA 
HETATM   13  C   UNL     1     -10.174  14.814  67.147  1.00  0.00    -0.245 C  
HETATM   14  H   UNL     1      -7.566  13.281  69.831  1.00  0.00     0.000 HD 
HETATM   15  O   UNL     1      -9.646  12.905  68.610  1.00  0.00    -0.380 OA 
HETATM   16  H   UNL     1     -10.582  12.757  68.666  1.00  0.00     0.000 HD 
BRANCH  13  17
HETATM   17  C   UNL     1     -11.691  14.536  67.305  1.00  0.00    -0.406 C  
HETATM   18  O   UNL     1     -12.313  14.258  66.051  1.00  0.00    -0.432 OA 
HETATM   19  H   UNL     1     -13.243  14.087  66.148  1.00  0.00     0.000 HD 
ENDBRANCH  13  17
ENDBRANCH   4   5
ENDBRANCH   3   4
ENDBRANCH   2   3
TORSDOF 4
ENDMDL
MODEL       89
REMARK 921   NORMALIZED FREE ENERGY PREDICTED BY IDOCK:   -3.65 KCAL/MOL
REMARK 922        TOTAL FREE ENERGY PREDICTED BY IDOCK:   -5.00 KCAL/MOL
REMARK 923 INTER-LIGAND FREE ENERGY PREDICTED BY IDOCK:   -4.80 KCAL/MOL
REMARK 924 INTRA-LIGAND FREE ENERGY PREDICTED BY IDOCK:   -0.20 KCAL/MOL
REMARK 927      BINDING AFFINITY PREDICTED BY RF-SCORE:    0.00 PKD
ROOT
HETATM    1  C   UNL     1     -12.191  14.355  70.387  1.00  0.00    -0.404 C  
HETATM    2  C   UNL     1     -11.978  13.114  69.533  1.00  0.00    -0.354 C  
ENDROOT
BRANCH   2   3
HETATM    3  C   UNL     1     -11.953  13.448  68.037  1.00  0.00    -0.357 C  
BRANCH   3   4
HETATM    4  C   UNL     1     -11.636  12.218  67.158  1.00  0.00    -0.353 C  
BRANCH   4   5
HETATM    5  N   UNL     1     -10.201  12.051  66.867  1.00  0.00    -0.207 NA 
HETATM    6  C   UNL     1      -9.512  11.170  67.826  1.00  0.00    -0.168 C  
HETATM    7  C   UNL     1      -9.866   9.679  67.674  1.00  0.00    -0.164 C  
HETATM    8  C   UNL     1      -9.477   9.225  66.263  1.00  0.00    -0.224 C  
HETATM    9  O   UNL     1      -9.187   8.876  68.644  1.00  0.00    -0.137 OA 
HETATM   10  H   UNL     1      -9.405   7.956  68.550  1.00  0.00     0.000 HD 
HETATM   11  C   UNL     1     -10.134  10.115  65.205  1.00  0.00    -0.259 C  
HETATM   12  O   UNL     1      -9.910   7.882  65.975  1.00  0.00    -0.456 OA 
HETATM   13  C   UNL     1      -9.890  11.623  65.470  1.00  0.00    -0.234 C  
HETATM   14  H   UNL     1      -9.669   7.601  65.101  1.00  0.00     0.000 HD 
HETATM   15  O   UNL     1      -9.619   9.733  63.914  1.00  0.00    -0.404 OA 
HETATM   16  H   UNL     1     -10.027  10.285  63.257  1.00  0.00     0.000 HD 
BRANCH  13  17
HETATM   17  C   UNL     1     -10.577  12.459  64.360  1.00  0.00    -0.337 C  
HETATM   18  O   UNL     1     -10.039  13.779  64.280  1.00  0.00    -0.744 OA 
HETATM   19  H   UNL     1     -10.460  14.291  63.600  1.00  0.00     0.000 HD 
ENDBRANCH  13  17
ENDBRANCH   4   5
ENDBRANCH   3   4
ENDBRANCH   2   3
TORSDOF 4
ENDMDL
MODEL       90
REMARK 921   NORMALIZED FREE ENERGY PREDICTED BY IDOCK:   -3.64 KCAL/MOL
REMARK 922        TOTAL FREE ENERGY PREDICTED BY IDOCK:   -4.98 KCAL/MOL
REMARK 923 INTER-LIGAND FREE ENERGY PREDICTED BY IDOCK:   -4.67 KCAL/MOL
REMARK 924 INTRA-LIGAND FREE ENERGY PREDICTED BY IDOCK:   -0.31 KCAL/MOL
REMARK 927      BINDING AFFINITY PREDICTED BY RF-SCORE:    0.00 PKD
ROOT
HETATM    1  C   UNL     1     -12.428  12.178  63.544  1.00  0.00    -0.666 C  
HETATM    2  C   UNL     1     -11.341  12.744  64.446  1.00  0.00    -0.394 C  
ENDROOT
BRANCH   2   3
HETATM    3  C   UNL     1     -11.888  13.815  65.397  1.00  0.00    -0.371 C  
BRANCH   3   4
HETATM    4  C   UNL     1     -12.257  13.246  66.784  1.00  0.00    -0.280 C  
BRANCH   4   5
HETATM    5  N   UNL     1     -11.192  13.399  67.792  1.00  0.00    -0.267 NA 
HETATM    6  C   UNL     1     -11.448  14.493  68.745  1.00  0.00    -0.294 C  
HETATM    7  C   UNL     1     -12.566  14.190  69.760  1.00  0.00    -0.103 C  
HETATM    8  C   UNL     1     -12.171  12.950  70.569  1.00  0.00    -0.314 C  
HETATM    9  O   UNL     1     -12.787  15.294  70.644  1.00  0.00    -0.425 OA 
HETATM   10  H   UNL     1     -13.476  15.107  71.270  1.00  0.00     0.000 HD 
HETATM   11  C   UNL     1     -11.860  11.773  69.642  1.00  0.00    -0.339 C  
HETATM   12  O   UNL     1     -13.225  12.500  71.441  1.00  0.00    -0.282 OA 
HETATM   13  C   UNL     1     -10.845  12.150  68.532  1.00  0.00    -0.236 C  
HETATM   14  H   UNL     1     -12.979  11.732  71.943  1.00  0.00     0.000 HD 
HETATM   15  O   UNL     1     -11.357  10.688  70.447  1.00  0.00    -0.307 OA 
HETATM   16  H   UNL     1     -11.164   9.957  69.872  1.00  0.00     0.000 HD 
BRANCH  13  17
HETATM   17  C   UNL     1     -10.573  10.912  67.639  1.00  0.00    -0.224 C  
HETATM   18  O   UNL     1      -9.348  11.035  66.919  1.00  0.00    -0.170 OA 
HETATM   19  H   UNL     1      -9.182  10.277  66.372  1.00  0.00     0.000 HD 
ENDBRANCH  13  17
ENDBRANCH   4   5
ENDBRANCH   3   4
ENDBRANCH   2   3
TORSDOF 4
ENDMDL
MODEL       91
REMARK 921   NORMALIZED FREE ENERGY PREDICTED BY IDOCK:   -3.64 KCAL/MOL
REMARK 922        TOTAL FREE ENERGY PREDICTED BY IDOCK:   -4.98 KCAL/MOL
REMARK 923 INTER-LIGAND FREE ENERGY PREDICTED BY IDOCK:   -4.58 KCAL/MOL
REMARK 924 INTRA-LIGAND FREE ENERGY PREDICTED BY IDOCK:   -0.40 KCAL/MOL
REMARK 927      BINDING AFFINITY PREDICTED BY RF-SCORE:    0.00 PKD
ROOT
HETATM    1  C   UNL     1      -7.305  15.717  68.508  1.00  0.00    -0.124 C  
HETATM    2  C   UNL     1      -7.754  15.714  67.054  1.00  0.00    -0.257 C  
ENDROOT
BRANCH   2   3
HETATM    3  C   UNL     1      -9.276  15.591  66.927  1.00  0.00    -0.257 C  
BRANCH   3   4
HETATM    4  C   UNL     1      -9.924  14.918  68.156  1.00  0.00    -0.222 C  
BRANCH   4   5
HETATM    5  N   UNL     1     -11.297  14.438  67.916  1.00  0.00    -0.286 NA 
HETATM    6  C   UNL     1     -11.347  13.187  67.140  1.00  0.00    -0.316 C  
HETATM    7  C   UNL     1     -10.894  11.942  67.926  1.00  0.00    -0.213 C  
HETATM    8  C   UNL     1     -11.809  11.772  69.143  1.00  0.00    -0.326 C  
HETATM    9  O   UNL     1     -10.941  10.764  67.117  1.00  0.00    -0.280 OA 
HETATM   10  H   UNL     1     -10.662   9.996  67.602  1.00  0.00     0.000 HD 
HETATM   11  C   UNL     1     -11.832  13.048  69.989  1.00  0.00    -0.285 C  
HETATM   12  O   UNL     1     -11.368  10.721  70.023  1.00  0.00    -0.282 OA 
HETATM   13  C   UNL     1     -12.140  14.309  69.142  1.00  0.00    -0.302 C  
HETATM   14  H   UNL     1     -11.935  10.616  70.778  1.00  0.00     0.000 HD 
HETATM   15  O   UNL     1     -12.814  12.879  71.030  1.00  0.00    -0.282 OA 
HETATM   16  H   UNL     1     -12.829  13.670  71.554  1.00  0.00     0.000 HD 
BRANCH  13  17
HETATM   17  C   UNL     1     -12.153  15.557  70.062  1.00  0.00    -0.368 C  
HETATM   18  O   UNL     1     -13.447  15.796  70.614  1.00  0.00    -0.777 OA 
HETATM   19  H   UNL     1     -13.455  16.561  71.177  1.00  0.00     0.000 HD 
ENDBRANCH  13  17
ENDBRANCH   4   5
ENDBRANCH   3   4
ENDBRANCH   2   3
TORSDOF 4
ENDMDL
MODEL       92
REMARK 921   NORMALIZED FREE ENERGY PREDICTED BY IDOCK:   -3.62 KCAL/MOL
REMARK 922        TOTAL FREE ENERGY PREDICTED BY IDOCK:   -4.96 KCAL/MOL
REMARK 923 INTER-LIGAND FREE ENERGY PREDICTED BY IDOCK:   -4.52 KCAL/MOL
REMARK 924 INTRA-LIGAND FREE ENERGY PREDICTED BY IDOCK:   -0.44 KCAL/MOL
REMARK 927      BINDING AFFINITY PREDICTED BY RF-SCORE:    0.00 PKD
ROOT
HETATM    1  C   UNL     1     -12.193  15.017  71.618  1.00  0.00    -0.411 C  
HETATM    2  C   UNL     1     -11.494  15.624  70.411  1.00  0.00    -0.369 C  
ENDROOT
BRANCH   2   3
HETATM    3  C   UNL     1     -11.820  14.864  69.120  1.00  0.00    -0.340 C  
BRANCH   3   4
HETATM    4  C   UNL     1     -11.223  13.440  69.102  1.00  0.00    -0.248 C  
BRANCH   4   5
HETATM    5  N   UNL     1     -12.087  12.443  68.445  1.00  0.00    -0.262 NA 
HETATM    6  C   UNL     1     -11.775  12.255  67.018  1.00  0.00    -0.329 C  
HETATM    7  C   UNL     1     -10.458  11.501  66.757  1.00  0.00    -0.239 C  
HETATM    8  C   UNL     1     -10.554  10.112  67.399  1.00  0.00    -0.272 C  
HETATM    9  O   UNL     1     -10.196  11.369  65.357  1.00  0.00    -0.247 OA 
HETATM   10  H   UNL     1      -9.383  10.903  65.196  1.00  0.00     0.000 HD 
HETATM   11  C   UNL     1     -10.905  10.223  68.884  1.00  0.00    -0.228 C  
HETATM   12  O   UNL     1      -9.311   9.388  67.339  1.00  0.00    -0.126 OA 
HETATM   13  C   UNL     1     -12.148  11.117  69.130  1.00  0.00    -0.283 C  
HETATM   14  H   UNL     1      -9.370   8.528  67.736  1.00  0.00     0.000 HD 
HETATM   15  O   UNL     1     -11.124   8.893  69.395  1.00  0.00    -0.424 OA 
HETATM   16  H   UNL     1     -11.342   8.961  70.317  1.00  0.00     0.000 HD 
BRANCH  13  17
HETATM   17  C   UNL     1     -12.447  11.178  70.650  1.00  0.00    -0.356 C  
HETATM   18  O   UNL     1     -13.310  10.119  71.064  1.00  0.00    -0.387 OA 
HETATM   19  H   UNL     1     -13.493  10.156  71.995  1.00  0.00     0.000 HD 
ENDBRANCH  13  17
ENDBRANCH   4   5
ENDBRANCH   3   4
ENDBRANCH   2   3
TORSDOF 4
ENDMDL
MODEL       93
REMARK 921   NORMALIZED FREE ENERGY PREDICTED BY IDOCK:   -3.62 KCAL/MOL
REMARK 922        TOTAL FREE ENERGY PREDICTED BY IDOCK:   -4.95 KCAL/MOL
REMARK 923 INTER-LIGAND FREE ENERGY PREDICTED BY IDOCK:   -4.52 KCAL/MOL
REMARK 924 INTRA-LIGAND FREE ENERGY PREDICTED BY IDOCK:   -0.43 KCAL/MOL
REMARK 927      BINDING AFFINITY PREDICTED BY RF-SCORE:    0.00 PKD
ROOT
HETATM    1  C   UNL     1      -6.191  20.372  64.841  1.00  0.00    -0.320 C  
HETATM    2  C   UNL     1      -5.763  20.830  66.228  1.00  0.00    -0.242 C  
ENDROOT
BRANCH   2   3
HETATM    3  C   UNL     1      -6.938  20.843  67.212  1.00  0.00    -0.436 C  
BRANCH   3   4
HETATM    4  C   UNL     1      -7.458  19.426  67.539  1.00  0.00    -0.240 C  
BRANCH   4   5
HETATM    5  N   UNL     1      -8.845  19.402  68.036  1.00  0.00    -0.314 NA 
HETATM    6  C   UNL     1      -9.758  20.251  67.251  1.00  0.00    -0.450 C  
HETATM    7  C   UNL     1     -10.093  19.691  65.857  1.00  0.00    -0.397 C  
HETATM    8  C   UNL     1     -10.762  18.323  66.027  1.00  0.00    -0.168 C  
HETATM    9  O   UNL     1     -10.962  20.567  65.133  1.00  0.00     0.111 OA 
HETATM   10  H   UNL     1     -11.170  20.221  64.273  1.00  0.00     0.000 HD 
HETATM   11  C   UNL     1      -9.882  17.387  66.860  1.00  0.00    -0.289 C  
HETATM   12  O   UNL     1     -10.975  17.651  64.771  1.00  0.00    -0.917 OA 
HETATM   13  C   UNL     1      -9.431  18.037  68.194  1.00  0.00    -0.289 C  
HETATM   14  H   UNL     1     -11.389  16.803  64.876  1.00  0.00     0.000 HD 
HETATM   15  O   UNL     1     -10.623  16.176  67.107  1.00  0.00    -0.305 OA 
HETATM   16  H   UNL     1     -10.078  15.595  67.625  1.00  0.00     0.000 HD 
BRANCH  13  17
HETATM   17  C   UNL     1      -8.552  17.034  68.985  1.00  0.00    -0.126 C  
HETATM   18  O   UNL     1      -8.006  16.024  68.138  1.00  0.00    -0.138 OA 
HETATM   19  H   UNL     1      -7.468  15.410  68.623  1.00  0.00     0.000 HD 
ENDBRANCH  13  17
ENDBRANCH   4   5
ENDBRANCH   3   4
ENDBRANCH   2   3
TORSDOF 4
ENDMDL
MODEL       94
REMARK 921   NORMALIZED FREE ENERGY PREDICTED BY IDOCK:   -3.61 KCAL/MOL
REMARK 922        TOTAL FREE ENERGY PREDICTED BY IDOCK:   -4.95 KCAL/MOL
REMARK 923 INTER-LIGAND FREE ENERGY PREDICTED BY IDOCK:   -4.53 KCAL/MOL
REMARK 924 INTRA-LIGAND FREE ENERGY PREDICTED BY IDOCK:   -0.42 KCAL/MOL
REMARK 927      BINDING AFFINITY PREDICTED BY RF-SCORE:    0.00 PKD
ROOT
HETATM    1  C   UNL     1     -10.914   6.457  67.330  1.00  0.00    -0.474 C  
HETATM    2  C   UNL     1     -10.641   7.892  66.901  1.00  0.00    -0.333 C  
ENDROOT
BRANCH   2   3
HETATM    3  C   UNL     1      -9.974   8.703  68.017  1.00  0.00    -0.221 C  
BRANCH   3   4
HETATM    4  C   UNL     1     -10.106   8.033  69.402  1.00  0.00    -0.197 C  
BRANCH   4   5
HETATM    5  N   UNL     1      -9.969   8.970  70.531  1.00  0.00    -0.200 NA 
HETATM    6  C   UNL     1     -10.982  10.039  70.525  1.00  0.00    -0.326 C  
HETATM    7  C   UNL     1     -12.397   9.564  70.902  1.00  0.00    -0.228 C  
HETATM    8  C   UNL     1     -12.354   8.971  72.315  1.00  0.00    -0.332 C  
HETATM    9  O   UNL     1     -13.342  10.638  70.857  1.00  0.00    -0.243 OA 
HETATM   10  H   UNL     1     -14.215  10.345  71.090  1.00  0.00     0.000 HD 
HETATM   11  C   UNL     1     -11.299   7.866  72.409  1.00  0.00    -0.369 C  
HETATM   12  O   UNL     1     -13.602   8.361  72.696  1.00  0.00    -0.602 OA 
HETATM   13  C   UNL     1      -9.917   8.326  71.877  1.00  0.00    -0.231 C  
HETATM   14  H   UNL     1     -13.575   7.994  73.572  1.00  0.00     0.000 HD 
HETATM   15  O   UNL     1     -11.205   7.452  73.786  1.00  0.00    -0.530 OA 
HETATM   16  H   UNL     1     -10.550   6.766  73.845  1.00  0.00     0.000 HD 
BRANCH  13  17
HETATM   17  C   UNL     1      -8.901   7.162  72.010  1.00  0.00    -0.126 C  
HETATM   18  O   UNL     1      -8.378   7.062  73.333  1.00  0.00    -0.116 OA 
HETATM   19  H   UNL     1      -7.755   6.349  73.414  1.00  0.00     0.000 HD 
ENDBRANCH  13  17
ENDBRANCH   4   5
ENDBRANCH   3   4
ENDBRANCH   2   3
TORSDOF 4
ENDMDL
MODEL       95
REMARK 921   NORMALIZED FREE ENERGY PREDICTED BY IDOCK:   -3.59 KCAL/MOL
REMARK 922        TOTAL FREE ENERGY PREDICTED BY IDOCK:   -4.92 KCAL/MOL
REMARK 923 INTER-LIGAND FREE ENERGY PREDICTED BY IDOCK:   -4.54 KCAL/MOL
REMARK 924 INTRA-LIGAND FREE ENERGY PREDICTED BY IDOCK:   -0.38 KCAL/MOL
REMARK 927      BINDING AFFINITY PREDICTED BY RF-SCORE:    0.00 PKD
ROOT
HETATM    1  C   UNL     1      -6.538  13.149  68.451  1.00  0.00    -0.092 C  
HETATM    2  C   UNL     1      -7.396  12.332  67.495  1.00  0.00    -0.137 C  
ENDROOT
BRANCH   2   3
HETATM    3  C   UNL     1      -8.880  12.695  67.608  1.00  0.00    -0.184 C  
BRANCH   3   4
HETATM    4  C   UNL     1      -9.258  13.927  66.757  1.00  0.00    -0.254 C  
BRANCH   4   5
HETATM    5  N   UNL     1     -10.660  14.352  66.916  1.00  0.00    -0.276 NA 
HETATM    6  C   UNL     1     -11.089  14.422  68.324  1.00  0.00    -0.259 C  
HETATM    7  C   UNL     1     -10.488  15.605  69.105  1.00  0.00    -0.236 C  
HETATM    8  C   UNL     1     -10.916  16.909  68.423  1.00  0.00    -0.296 C  
HETATM    9  O   UNL     1     -10.920  15.608  70.469  1.00  0.00    -0.312 OA 
HETATM   10  H   UNL     1     -10.550  16.339  70.951  1.00  0.00     0.000 HD 
HETATM   11  C   UNL     1     -10.528  16.901  66.943  1.00  0.00    -0.271 C  
HETATM   12  O   UNL     1     -10.277  18.067  68.994  1.00  0.00    -0.386 OA 
HETATM   13  C   UNL     1     -11.014  15.622  66.214  1.00  0.00    -0.201 C  
HETATM   14  H   UNL     1     -10.542  18.875  68.571  1.00  0.00     0.000 HD 
HETATM   15  O   UNL     1     -11.082  18.081  66.327  1.00  0.00     0.154 OA 
HETATM   16  H   UNL     1     -10.842  18.077  65.408  1.00  0.00     0.000 HD 
BRANCH  13  17
HETATM   17  C   UNL     1     -10.593  15.686  64.723  1.00  0.00    -0.183 C  
HETATM   18  O   UNL     1     -11.483  16.494  63.955  1.00  0.00    -1.608 OA 
HETATM   19  H   UNL     1     -11.225  16.533  63.041  1.00  0.00     0.000 HD 
ENDBRANCH  13  17
ENDBRANCH   4   5
ENDBRANCH   3   4
ENDBRANCH   2   3
TORSDOF 4
ENDMDL
MODEL       96
REMARK 921   NORMALIZED FREE ENERGY PREDICTED BY IDOCK:   -3.57 KCAL/MOL
REMARK 922        TOTAL FREE ENERGY PREDICTED BY IDOCK:   -4.90 KCAL/MOL
REMARK 923 INTER-LIGAND FREE ENERGY PREDICTED BY IDOCK:   -4.49 KCAL/MOL
REMARK 924 INTRA-LIGAND FREE ENERGY PREDICTED BY IDOCK:   -0.41 KCAL/MOL
REMARK 927      BINDING AFFINITY PREDICTED BY RF-SCORE:    0.00 PKD
ROOT
HETATM    1  C   UNL     1      -7.202  10.001  65.935  1.00  0.00    -0.115 C  
HETATM    2  C   UNL     1      -8.404  10.221  66.843  1.00  0.00    -0.123 C  
ENDROOT
BRANCH   2   3
HETATM    3  C   UNL     1      -9.277  11.385  66.364  1.00  0.00    -0.209 C  
BRANCH   3   4
HETATM    4  C   UNL     1      -9.811  12.247  67.528  1.00  0.00    -0.193 C  
BRANCH   4   5
HETATM    5  N   UNL     1     -11.280  12.363  67.556  1.00  0.00    -0.275 NA 
HETATM    6  C   UNL     1     -11.907  11.543  68.606  1.00  0.00    -0.318 C  
HETATM    7  C   UNL     1     -11.693  12.079  70.033  1.00  0.00    -0.267 C  
HETATM    8  C   UNL     1     -12.292  13.487  70.122  1.00  0.00    -0.275 C  
HETATM    9  O   UNL     1     -12.303  11.232  71.011  1.00  0.00    -0.374 OA 
HETATM   10  H   UNL     1     -12.170  11.563  71.892  1.00  0.00     0.000 HD 
HETATM   11  C   UNL     1     -11.707  14.396  69.039  1.00  0.00    -0.310 C  
HETATM   12  O   UNL     1     -12.005  14.132  71.378  1.00  0.00    -0.411 OA 
HETATM   13  C   UNL     1     -11.798  13.762  67.627  1.00  0.00    -0.378 C  
HETATM   14  H   UNL     1     -12.376  15.004  71.433  1.00  0.00     0.000 HD 
HETATM   15  O   UNL     1     -12.410  15.654  69.080  1.00  0.00    -0.598 OA 
HETATM   16  H   UNL     1     -12.048  16.218  68.408  1.00  0.00     0.000 HD 
BRANCH  13  17
HETATM   17  C   UNL     1     -11.195  14.738  66.584  1.00  0.00    -0.346 C  
HETATM   18  O   UNL     1     -10.436  15.775  67.203  1.00  0.00    -0.296 OA 
HETATM   19  H   UNL     1     -10.067  16.373  66.564  1.00  0.00     0.000 HD 
ENDBRANCH  13  17
ENDBRANCH   4   5
ENDBRANCH   3   4
ENDBRANCH   2   3
TORSDOF 4
ENDMDL
MODEL       97
REMARK 921   NORMALIZED FREE ENERGY PREDICTED BY IDOCK:   -3.57 KCAL/MOL
REMARK 922        TOTAL FREE ENERGY PREDICTED BY IDOCK:   -4.89 KCAL/MOL
REMARK 923 INTER-LIGAND FREE ENERGY PREDICTED BY IDOCK:   -4.65 KCAL/MOL
REMARK 924 INTRA-LIGAND FREE ENERGY PREDICTED BY IDOCK:   -0.25 KCAL/MOL
REMARK 927      BINDING AFFINITY PREDICTED BY RF-SCORE:    0.00 PKD
ROOT
HETATM    1  C   UNL     1     -12.863  11.484  71.411  1.00  0.00    -0.489 C  
HETATM    2  C   UNL     1     -12.246  10.104  71.239  1.00  0.00    -0.496 C  
ENDROOT
BRANCH   2   3
HETATM    3  C   UNL     1     -11.824   9.843  69.789  1.00  0.00    -0.015 C  
BRANCH   3   4
HETATM    4  C   UNL     1     -11.303  11.113  69.083  1.00  0.00    -0.273 C  
BRANCH   4   5
HETATM    5  N   UNL     1     -11.635  11.174  67.648  1.00  0.00    -0.564 NA 
HETATM    6  C   UNL     1     -12.157  12.486  67.229  1.00  0.00    -0.062 C  
HETATM    7  C   UNL     1     -11.092  13.598  67.178  1.00  0.00    -0.297 C  
HETATM    8  C   UNL     1     -10.004  13.188  66.180  1.00  0.00    -0.291 C  
HETATM    9  O   UNL     1     -11.659  14.852  66.788  1.00  0.00    -0.344 OA 
HETATM   10  H   UNL     1     -11.002  15.537  66.756  1.00  0.00     0.000 HD 
HETATM   11  C   UNL     1      -9.430  11.814  66.534  1.00  0.00    -0.214 C  
HETATM   12  O   UNL     1      -8.886  14.096  66.177  1.00  0.00    -0.460 OA 
HETATM   13  C   UNL     1     -10.537  10.747  66.731  1.00  0.00    -0.250 C  
HETATM   14  H   UNL     1      -8.212  13.842  65.558  1.00  0.00     0.000 HD 
HETATM   15  O   UNL     1      -8.522  11.422  65.485  1.00  0.00    -0.383 OA 
HETATM   16  H   UNL     1      -8.166  10.570  65.705  1.00  0.00     0.000 HD 
BRANCH  13  17
HETATM   17  C   UNL     1      -9.884   9.385  67.080  1.00  0.00    -0.187 C  
HETATM   18  O   UNL     1      -9.434   8.697  65.914  1.00  0.00    -0.321 OA 
HETATM   19  H   UNL     1      -9.034   7.862  66.128  1.00  0.00     0.000 HD 
ENDBRANCH  13  17
ENDBRANCH   4   5
ENDBRANCH   3   4
ENDBRANCH   2   3
TORSDOF 4
ENDMDL
MODEL       98
REMARK 921   NORMALIZED FREE ENERGY PREDICTED BY IDOCK:   -3.53 KCAL/MOL
REMARK 922        TOTAL FREE ENERGY PREDICTED BY IDOCK:   -4.84 KCAL/MOL
REMARK 923 INTER-LIGAND FREE ENERGY PREDICTED BY IDOCK:   -4.36 KCAL/MOL
REMARK 924 INTRA-LIGAND FREE ENERGY PREDICTED BY IDOCK:   -0.48 KCAL/MOL
REMARK 927      BINDING AFFINITY PREDICTED BY RF-SCORE:    0.00 PKD
ROOT
HETATM    1  C   UNL     1     -11.241   9.448  69.489  1.00  0.00    -0.059 C  
HETATM    2  C   UNL     1     -10.636   8.265  68.748  1.00  0.00    -0.152 C  
ENDROOT
BRANCH   2   3
HETATM    3  C   UNL     1      -9.618   8.711  67.693  1.00  0.00    -0.190 C  
BRANCH   3   4
HETATM    4  C   UNL     1     -10.204   9.731  66.693  1.00  0.00    -0.226 C  
BRANCH   4   5
HETATM    5  N   UNL     1      -9.186  10.555  66.019  1.00  0.00    -0.170 NA 
HETATM    6  C   UNL     1      -9.027  10.230  64.592  1.00  0.00    -0.211 C  
HETATM    7  C   UNL     1     -10.199  10.698  63.708  1.00  0.00    -0.196 C  
HETATM    8  C   UNL     1     -10.326  12.220  63.828  1.00  0.00    -0.435 C  
HETATM    9  O   UNL     1     -10.002  10.335  62.339  1.00  0.00    -0.725 OA 
HETATM   10  H   UNL     1     -10.725  10.624  61.794  1.00  0.00     0.000 HD 
HETATM   11  C   UNL     1     -10.466  12.641  65.293  1.00  0.00    -0.289 C  
HETATM   12  O   UNL     1     -11.492  12.732  63.156  1.00  0.00    -0.776 OA 
HETATM   13  C   UNL     1      -9.359  12.029  66.189  1.00  0.00    -0.211 C  
HETATM   14  H   UNL     1     -11.570  13.676  63.230  1.00  0.00     0.000 HD 
HETATM   15  O   UNL     1     -10.435  14.080  65.352  1.00  0.00    -0.314 OA 
HETATM   16  H   UNL     1     -10.521  14.342  66.261  1.00  0.00     0.000 HD 
BRANCH  13  17
HETATM   17  C   UNL     1      -9.560  12.502  67.652  1.00  0.00    -0.190 C  
HETATM   18  O   UNL     1     -10.908  12.897  67.902  1.00  0.00    -0.217 OA 
HETATM   19  H   UNL     1     -11.031  13.186  68.798  1.00  0.00     0.000 HD 
ENDBRANCH  13  17
ENDBRANCH   4   5
ENDBRANCH   3   4
ENDBRANCH   2   3
TORSDOF 4
ENDMDL
MODEL       99
REMARK 921   NORMALIZED FREE ENERGY PREDICTED BY IDOCK:   -3.52 KCAL/MOL
REMARK 922        TOTAL FREE ENERGY PREDICTED BY IDOCK:   -4.84 KCAL/MOL
REMARK 923 INTER-LIGAND FREE ENERGY PREDICTED BY IDOCK:   -4.39 KCAL/MOL
REMARK 924 INTRA-LIGAND FREE ENERGY PREDICTED BY IDOCK:   -0.44 KCAL/MOL
REMARK 927      BINDING AFFINITY PREDICTED BY RF-SCORE:    0.00 PKD
ROOT
HETATM    1  C   UNL     1      -6.059  12.107  67.371  1.00  0.00    -0.143 C  
HETATM    2  C   UNL     1      -7.133  11.065  67.096  1.00  0.00    -0.104 C  
ENDROOT
BRANCH   2   3
HETATM    3  C   UNL     1      -8.489  11.473  67.683  1.00  0.00    -0.135 C  
BRANCH   3   4
HETATM    4  C   UNL     1      -9.411  12.143  66.641  1.00  0.00    -0.226 C  
BRANCH   4   5
HETATM    5  N   UNL     1     -10.363  13.106  67.223  1.00  0.00    -0.242 NA 
HETATM    6  C   UNL     1      -9.721  14.102  68.097  1.00  0.00    -0.225 C  
HETATM    7  C   UNL     1      -8.892  15.158  67.341  1.00  0.00    -0.186 C  
HETATM    8  C   UNL     1      -9.817  15.910  66.379  1.00  0.00    -0.282 C  
HETATM    9  O   UNL     1      -8.274  16.083  68.240  1.00  0.00    -0.152 OA 
HETATM   10  H   UNL     1      -7.762  16.734  67.774  1.00  0.00     0.000 HD 
HETATM   11  C   UNL     1     -10.546  14.935  65.452  1.00  0.00    -0.373 C  
HETATM   12  O   UNL     1      -9.101  16.815  65.518  1.00  0.00    -0.414 OA 
HETATM   13  C   UNL     1     -11.246  13.792  66.232  1.00  0.00    -0.306 C  
HETATM   14  H   UNL     1      -9.674  17.281  64.921  1.00  0.00     0.000 HD 
HETATM   15  O   UNL     1     -11.503  15.683  64.675  1.00  0.00    -0.486 OA 
HETATM   16  H   UNL     1     -11.956  15.078  64.100  1.00  0.00     0.000 HD 
BRANCH  13  17
HETATM   17  C   UNL     1     -11.966  12.851  65.233  1.00  0.00    -0.419 C  
HETATM   18  O   UNL     1     -13.281  13.311  64.924  1.00  0.00    -0.703 OA 
HETATM   19  H   UNL     1     -13.722  12.734  64.312  1.00  0.00     0.000 HD 
ENDBRANCH  13  17
ENDBRANCH   4   5
ENDBRANCH   3   4
ENDBRANCH   2   3
TORSDOF 4
ENDMDL
MODEL      100
REMARK 921   NORMALIZED FREE ENERGY PREDICTED BY IDOCK:   -3.51 KCAL/MOL
REMARK 922        TOTAL FREE ENERGY PREDICTED BY IDOCK:   -4.82 KCAL/MOL
REMARK 923 INTER-LIGAND FREE ENERGY PREDICTED BY IDOCK:   -4.44 KCAL/MOL
REMARK 924 INTRA-LIGAND FREE ENERGY PREDICTED BY IDOCK:   -0.37 KCAL/MOL
REMARK 927      BINDING AFFINITY PREDICTED BY RF-SCORE:    0.00 PKD
ROOT
HETATM    1  C   UNL     1      -6.270  12.382  67.380  1.00  0.00    -0.158 C  
HETATM    2  C   UNL     1      -7.619  11.898  67.894  1.00  0.00    -0.128 C  
ENDROOT
BRANCH   2   3
HETATM    3  C   UNL     1      -8.784  12.608  67.195  1.00  0.00    -0.201 C  
BRANCH   3   4
HETATM    4  C   UNL     1      -9.738  13.305  68.189  1.00  0.00    -0.227 C  
BRANCH   4   5
HETATM    5  N   UNL     1     -11.158  12.965  67.987  1.00  0.00    -0.241 NA 
HETATM    6  C   UNL     1     -11.383  11.528  67.753  1.00  0.00    -0.296 C  
HETATM    7  C   UNL     1     -11.202  10.653  69.007  1.00  0.00    -0.265 C  
HETATM    8  C   UNL     1     -12.201  11.113  70.074  1.00  0.00    -0.326 C  
HETATM    9  O   UNL     1     -11.410   9.268  68.716  1.00  0.00    -0.441 OA 
HETATM   10  H   UNL     1     -11.298   8.728  69.490  1.00  0.00     0.000 HD 
HETATM   11  C   UNL     1     -12.047  12.610  70.353  1.00  0.00    -0.300 C  
HETATM   12  O   UNL     1     -12.003  10.453  71.338  1.00  0.00    -0.354 OA 
HETATM   13  C   UNL     1     -12.079  13.457  69.055  1.00  0.00    -0.259 C  
HETATM   14  H   UNL     1     -12.622  10.738  72.000  1.00  0.00     0.000 HD 
HETATM   15  O   UNL     1     -13.102  13.011  71.250  1.00  0.00    -0.284 OA 
HETATM   16  H   UNL     1     -13.007  13.940  71.423  1.00  0.00     0.000 HD 
BRANCH  13  17
HETATM   17  C   UNL     1     -11.925  14.957  69.413  1.00  0.00    -0.301 C  
HETATM   18  O   UNL     1     -13.070  15.459  70.101  1.00  0.00    -0.659 OA 
HETATM   19  H   UNL     1     -12.976  16.378  70.321  1.00  0.00     0.000 HD 
ENDBRANCH  13  17
ENDBRANCH   4   5
ENDBRANCH   3   4
ENDBRANCH   2   3
TORSDOF 4
ENDMDL
MODEL      101
REMARK 921   NORMALIZED FREE ENERGY PREDICTED BY IDOCK:   -3.47 KCAL/MOL
REMARK 922        TOTAL FREE ENERGY PREDICTED BY IDOCK:   -4.78 KCAL/MOL
REMARK 923 INTER-LIGAND FREE ENERGY PREDICTED BY IDOCK:   -4.31 KCAL/MOL
REMARK 924 INTRA-LIGAND FREE ENERGY PREDICTED BY IDOCK:   -0.47 KCAL/MOL
REMARK 927      BINDING AFFINITY PREDICTED BY RF-SCORE:    0.00 PKD
ROOT
HETATM    1  C   UNL     1     -11.240  12.928  69.511  1.00  0.00    -0.143 C  
HETATM    2  C   UNL     1     -12.253  13.971  69.062  1.00  0.00    -0.280 C  
ENDROOT
BRANCH   2   3
HETATM    3  C   UNL     1     -12.070  15.301  69.801  1.00  0.00    -0.357 C  
BRANCH   3   4
HETATM    4  C   UNL     1     -10.608  15.797  69.780  1.00  0.00    -0.312 C  
BRANCH   4   5
HETATM    5  N   UNL     1     -10.119  16.149  68.435  1.00  0.00    -0.230 NA 
HETATM    6  C   UNL     1     -10.568  17.477  67.983  1.00  0.00    -0.384 C  
HETATM    7  C   UNL     1      -9.876  18.650  68.700  1.00  0.00    -0.385 C  
HETATM    8  C   UNL     1      -8.367  18.558  68.446  1.00  0.00    -0.332 C  
HETATM    9  O   UNL     1     -10.367  19.912  68.238  1.00  0.00    -0.441 OA 
HETATM   10  H   UNL     1      -9.940  20.636  68.681  1.00  0.00     0.000 HD 
HETATM   11  C   UNL     1      -7.828  17.188  68.866  1.00  0.00    -0.217 C  
HETATM   12  O   UNL     1      -7.619  19.527  69.204  1.00  0.00    -0.361 OA 
HETATM   13  C   UNL     1      -8.642  16.022  68.251  1.00  0.00    -0.179 C  
HETATM   14  H   UNL     1      -6.684  19.470  69.047  1.00  0.00     0.000 HD 
HETATM   15  O   UNL     1      -6.444  17.110  68.472  1.00  0.00    -0.154 OA 
HETATM   16  H   UNL     1      -6.109  16.260  68.732  1.00  0.00     0.000 HD 
BRANCH  13  17
HETATM   17  C   UNL     1      -8.038  14.671  68.712  1.00  0.00    -0.152 C  
HETATM   18  O   UNL     1      -7.443  14.770  70.006  1.00  0.00    -0.379 OA 
HETATM   19  H   UNL     1      -7.072  13.942  70.288  1.00  0.00     0.000 HD 
ENDBRANCH  13  17
ENDBRANCH   4   5
ENDBRANCH   3   4
ENDBRANCH   2   3
TORSDOF 4
ENDMDL
MODEL      102
REMARK 921   NORMALIZED FREE ENERGY PREDICTED BY IDOCK:   -3.47 KCAL/MOL
REMARK 922        TOTAL FREE ENERGY PREDICTED BY IDOCK:   -4.77 KCAL/MOL
REMARK 923 INTER-LIGAND FREE ENERGY PREDICTED BY IDOCK:   -4.32 KCAL/MOL
REMARK 924 INTRA-LIGAND FREE ENERGY PREDICTED BY IDOCK:   -0.45 KCAL/MOL
REMARK 927      BINDING AFFINITY PREDICTED BY RF-SCORE:    0.00 PKD
ROOT
HETATM    1  C   UNL     1      -8.070   6.824  73.370  1.00  0.00    -0.111 C  
HETATM    2  C   UNL     1      -9.145   7.788  73.849  1.00  0.00    -0.298 C  
ENDROOT
BRANCH   2   3
HETATM    3  C   UNL     1     -10.487   7.539  73.152  1.00  0.00    -0.419 C  
BRANCH   3   4
HETATM    4  C   UNL     1     -10.433   7.830  71.636  1.00  0.00    -0.202 C  
BRANCH   4   5
HETATM    5  N   UNL     1     -10.062   9.218  71.311  1.00  0.00    -0.307 NA 
HETATM    6  C   UNL     1      -8.887   9.313  70.427  1.00  0.00    -0.234 C  
HETATM    7  C   UNL     1      -9.162   8.892  68.972  1.00  0.00    -0.140 C  
HETATM    8  C   UNL     1     -10.252   9.801  68.396  1.00  0.00    -0.185 C  
HETATM    9  O   UNL     1      -7.982   8.981  68.167  1.00  0.00    -0.100 OA 
HETATM   10  H   UNL     1      -8.152   8.722  67.269  1.00  0.00     0.000 HD 
HETATM   11  C   UNL     1     -11.502   9.778  69.279  1.00  0.00     0.072 C  
HETATM   12  O   UNL     1     -10.685   9.385  67.087  1.00  0.00    -0.249 OA 
HETATM   13  C   UNL     1     -11.174  10.055  70.769  1.00  0.00    -0.352 C  
HETATM   14  H   UNL     1     -11.361   9.949  66.730  1.00  0.00     0.000 HD 
HETATM   15  O   UNL     1     -12.430  10.756  68.770  1.00  0.00    -0.793 OA 
HETATM   16  H   UNL     1     -13.206  10.743  69.318  1.00  0.00     0.000 HD 
BRANCH  13  17
HETATM   17  C   UNL     1     -12.483  10.022  71.600  1.00  0.00    -0.418 C  
HETATM   18  O   UNL     1     -13.553   9.409  70.881  1.00  0.00    -0.587 OA 
HETATM   19  H   UNL     1     -14.355   9.390  71.390  1.00  0.00     0.000 HD 
ENDBRANCH  13  17
ENDBRANCH   4   5
ENDBRANCH   3   4
ENDBRANCH   2   3
TORSDOF 4
ENDMDL
MODEL      103
REMARK 921   NORMALIZED FREE ENERGY PREDICTED BY IDOCK:   -3.47 KCAL/MOL
REMARK 922        TOTAL FREE ENERGY PREDICTED BY IDOCK:   -4.77 KCAL/MOL
REMARK 923 INTER-LIGAND FREE ENERGY PREDICTED BY IDOCK:   -4.43 KCAL/MOL
REMARK 924 INTRA-LIGAND FREE ENERGY PREDICTED BY IDOCK:   -0.33 KCAL/MOL
REMARK 927      BINDING AFFINITY PREDICTED BY RF-SCORE:    0.00 PKD
ROOT
HETATM    1  C   UNL     1     -11.469  10.059  70.234  1.00  0.00    -0.372 C  
HETATM    2  C   UNL     1     -12.166  10.106  71.586  1.00  0.00    -0.422 C  
ENDROOT
BRANCH   2   3
HETATM    3  C   UNL     1     -12.865  11.449  71.822  1.00  0.00    -0.449 C  
BRANCH   3   4
HETATM    4  C   UNL     1     -12.209  12.607  71.040  1.00  0.00    -0.097 C  
BRANCH   4   5
HETATM    5  N   UNL     1     -13.143  13.692  70.690  1.00  0.00    -0.060 NA 
HETATM    6  C   UNL     1     -13.899  14.203  71.847  1.00  0.00    -0.451 C  
HETATM    7  C   UNL     1     -13.058  15.045  72.824  1.00  0.00    -0.453 C  
HETATM    8  C   UNL     1     -12.492  16.252  72.068  1.00  0.00    -0.200 C  
HETATM    9  O   UNL     1     -13.837  15.493  73.937  1.00  0.00    -0.221 OA 
HETATM   10  H   UNL     1     -13.318  16.013  74.539  1.00  0.00     0.000 HD 
HETATM   11  C   UNL     1     -11.713  15.802  70.830  1.00  0.00    -0.399 C  
HETATM   12  O   UNL     1     -11.567  17.018  72.862  1.00  0.00    -0.139 OA 
HETATM   13  C   UNL     1     -12.531  14.830  69.941  1.00  0.00    -0.240 C  
HETATM   14  H   UNL     1     -11.216  17.766  72.394  1.00  0.00     0.000 HD 
HETATM   15  O   UNL     1     -11.333  16.977  70.086  1.00  0.00    -0.266 OA 
HETATM   16  H   UNL     1     -10.849  16.698  69.318  1.00  0.00     0.000 HD 
BRANCH  13  17
HETATM   17  C   UNL     1     -11.684  14.423  68.707  1.00  0.00    -0.337 C  
HETATM   18  O   UNL     1     -11.433  15.533  67.847  1.00  0.00    -0.330 OA 
HETATM   19  H   UNL     1     -10.914  15.283  67.091  1.00  0.00     0.000 HD 
ENDBRANCH  13  17
ENDBRANCH   4   5
ENDBRANCH   3   4
ENDBRANCH   2   3
TORSDOF 4
ENDMDL
MODEL      104
REMARK 921   NORMALIZED FREE ENERGY PREDICTED BY IDOCK:   -3.47 KCAL/MOL
REMARK 922        TOTAL FREE ENERGY PREDICTED BY IDOCK:   -4.77 KCAL/MOL
REMARK 923 INTER-LIGAND FREE ENERGY PREDICTED BY IDOCK:   -4.37 KCAL/MOL
REMARK 924 INTRA-LIGAND FREE ENERGY PREDICTED BY IDOCK:   -0.40 KCAL/MOL
REMARK 927      BINDING AFFINITY PREDICTED BY RF-SCORE:    0.00 PKD
ROOT
HETATM    1  C   UNL     1     -10.333   7.339  66.774  1.00  0.00    -0.311 C  
HETATM    2  C   UNL     1     -10.184   8.825  67.070  1.00  0.00    -0.351 C  
ENDROOT
BRANCH   2   3
HETATM    3  C   UNL     1      -9.770   9.078  68.524  1.00  0.00    -0.171 C  
BRANCH   3   4
HETATM    4  C   UNL     1     -10.074   7.879  69.447  1.00  0.00    -0.196 C  
BRANCH   4   5
HETATM    5  N   UNL     1     -10.015   8.205  70.883  1.00  0.00    -0.186 NA 
HETATM    6  C   UNL     1     -10.888   9.330  71.260  1.00  0.00    -0.347 C  
HETATM    7  C   UNL     1     -12.390   8.989  71.251  1.00  0.00    -0.302 C  
HETATM    8  C   UNL     1     -12.640   7.852  72.247  1.00  0.00    -0.194 C  
HETATM    9  O   UNL     1     -13.188  10.123  71.601  1.00  0.00    -0.393 OA 
HETATM   10  H   UNL     1     -14.115   9.912  71.595  1.00  0.00     0.000 HD 
HETATM   11  C   UNL     1     -11.744   6.650  71.937  1.00  0.00    -0.313 C  
HETATM   12  O   UNL     1     -13.992   7.360  72.197  1.00  0.00    -0.540 OA 
HETATM   13  C   UNL     1     -10.252   7.049  71.799  1.00  0.00    -0.192 C  
HETATM   14  H   UNL     1     -14.147   6.656  72.815  1.00  0.00     0.000 HD 
HETATM   15  O   UNL     1     -11.917   5.677  72.987  1.00  0.00    -0.538 OA 
HETATM   16  H   UNL     1     -11.361   4.932  72.795  1.00  0.00     0.000 HD 
BRANCH  13  17
HETATM   17  C   UNL     1      -9.406   5.786  71.493  1.00  0.00    -0.146 C  
HETATM   18  O   UNL     1     -10.226   4.669  71.151  1.00  0.00    -0.192 OA 
HETATM   19  H   UNL     1      -9.708   3.895  70.963  1.00  0.00     0.000 HD 
ENDBRANCH  13  17
ENDBRANCH   4   5
ENDBRANCH   3   4
ENDBRANCH   2   3
TORSDOF 4
ENDMDL
MODEL      105
REMARK 921   NORMALIZED FREE ENERGY PREDICTED BY IDOCK:   -3.47 KCAL/MOL
REMARK 922        TOTAL FREE ENERGY PREDICTED BY IDOCK:   -4.77 KCAL/MOL
REMARK 923 INTER-LIGAND FREE ENERGY PREDICTED BY IDOCK:   -4.52 KCAL/MOL
REMARK 924 INTRA-LIGAND FREE ENERGY PREDICTED BY IDOCK:   -0.25 KCAL/MOL
REMARK 927      BINDING AFFINITY PREDICTED BY RF-SCORE:    0.00 PKD
ROOT
HETATM    1  C   UNL     1     -12.261  12.277  63.660  1.00  0.00    -0.665 C  
HETATM    2  C   UNL     1     -10.955  11.814  64.287  1.00  0.00    -0.419 C  
ENDROOT
BRANCH   2   3
HETATM    3  C   UNL     1     -10.963  11.978  65.811  1.00  0.00    -0.351 C  
BRANCH   3   4
HETATM    4  C   UNL     1     -10.774  10.638  66.555  1.00  0.00    -0.151 C  
BRANCH   4   5
HETATM    5  N   UNL     1      -9.907  10.735  67.743  1.00  0.00    -0.164 NA 
HETATM    6  C   UNL     1     -10.086  11.991  68.491  1.00  0.00    -0.196 C  
HETATM    7  C   UNL     1     -11.411  12.073  69.271  1.00  0.00    -0.301 C  
HETATM    8  C   UNL     1     -11.458  10.920  70.279  1.00  0.00    -0.302 C  
HETATM    9  O   UNL     1     -11.541  13.321  69.958  1.00  0.00    -0.470 OA 
HETATM   10  H   UNL     1     -12.358  13.371  70.440  1.00  0.00     0.000 HD 
HETATM   11  C   UNL     1     -11.250   9.575  69.578  1.00  0.00    -0.074 C  
HETATM   12  O   UNL     1     -12.728  10.824  70.951  1.00  0.00    -0.347 OA 
HETATM   13  C   UNL     1      -9.990   9.571  68.675  1.00  0.00    -0.167 C  
HETATM   14  H   UNL     1     -12.757  10.109  71.576  1.00  0.00     0.000 HD 
HETATM   15  O   UNL     1     -11.159   8.551  70.588  1.00  0.00    -0.247 OA 
HETATM   16  H   UNL     1     -11.030   7.716  70.153  1.00  0.00     0.000 HD 
BRANCH  13  17
HETATM   17  C   UNL     1      -9.840   8.181  68.005  1.00  0.00    -0.168 C  
HETATM   18  O   UNL     1     -11.107   7.588  67.723  1.00  0.00    -0.493 OA 
HETATM   19  H   UNL     1     -11.015   6.737  67.313  1.00  0.00     0.000 HD 
ENDBRANCH  13  17
ENDBRANCH   4   5
ENDBRANCH   3   4
ENDBRANCH   2   3
TORSDOF 4
ENDMDL
MODEL      106
REMARK 921   NORMALIZED FREE ENERGY PREDICTED BY IDOCK:   -3.46 KCAL/MOL
REMARK 922        TOTAL FREE ENERGY PREDICTED BY IDOCK:   -4.76 KCAL/MOL
REMARK 923 INTER-LIGAND FREE ENERGY PREDICTED BY IDOCK:   -4.67 KCAL/MOL
REMARK 924 INTRA-LIGAND FREE ENERGY PREDICTED BY IDOCK:   -0.10 KCAL/MOL
REMARK 927      BINDING AFFINITY PREDICTED BY RF-SCORE:    0.00 PKD
ROOT
HETATM    1  C   UNL     1      -8.438   6.875  72.488  1.00  0.00    -0.124 C  
HETATM    2  C   UNL     1      -9.316   5.920  73.283  1.00  0.00    -0.135 C  
ENDROOT
BRANCH   2   3
HETATM    3  C   UNL     1     -10.805   6.134  72.989  1.00  0.00    -0.284 C  
BRANCH   3   4
HETATM    4  C   UNL     1     -11.159   7.621  72.766  1.00  0.00    -0.383 C  
BRANCH   4   5
HETATM    5  N   UNL     1     -12.276   7.830  71.827  1.00  0.00    -0.296 NA 
HETATM    6  C   UNL     1     -13.117   8.989  72.174  1.00  0.00    -0.435 C  
HETATM    7  C   UNL     1     -12.448  10.351  71.911  1.00  0.00    -0.195 C  
HETATM    8  C   UNL     1     -12.111  10.451  70.419  1.00  0.00    -0.315 C  
HETATM    9  O   UNL     1     -13.300  11.436  72.288  1.00  0.00    -0.629 OA 
HETATM   10  H   UNL     1     -12.887  12.277  72.125  1.00  0.00     0.000 HD 
HETATM   11  C   UNL     1     -11.258   9.261  69.973  1.00  0.00    -0.168 C  
HETATM   12  O   UNL     1     -11.345  11.628  70.103  1.00  0.00    -0.489 OA 
HETATM   13  C   UNL     1     -11.881   7.902  70.388  1.00  0.00     0.073 C  
HETATM   14  H   UNL     1     -11.136  11.690  69.179  1.00  0.00     0.000 HD 
HETATM   15  O   UNL     1     -11.098   9.333  68.543  1.00  0.00    -0.456 OA 
HETATM   16  H   UNL     1     -10.569   8.595  68.266  1.00  0.00     0.000 HD 
BRANCH  13  17
HETATM   17  C   UNL     1     -10.969   6.747  69.900  1.00  0.00    -0.291 C  
HETATM   18  O   UNL     1     -11.289   6.345  68.569  1.00  0.00    -0.540 OA 
HETATM   19  H   UNL     1     -10.731   5.637  68.270  1.00  0.00     0.000 HD 
ENDBRANCH  13  17
ENDBRANCH   4   5
ENDBRANCH   3   4
ENDBRANCH   2   3
TORSDOF 4
ENDMDL
MODEL      107
REMARK 921   NORMALIZED FREE ENERGY PREDICTED BY IDOCK:   -3.46 KCAL/MOL
REMARK 922        TOTAL FREE ENERGY PREDICTED BY IDOCK:   -4.76 KCAL/MOL
REMARK 923 INTER-LIGAND FREE ENERGY PREDICTED BY IDOCK:   -4.54 KCAL/MOL
REMARK 924 INTRA-LIGAND FREE ENERGY PREDICTED BY IDOCK:   -0.22 KCAL/MOL
REMARK 927      BINDING AFFINITY PREDICTED BY RF-SCORE:    0.00 PKD
ROOT
HETATM    1  C   UNL     1     -11.807  12.781  66.172  1.00  0.00    -0.484 C  
HETATM    2  C   UNL     1     -10.568  12.141  66.781  1.00  0.00    -0.256 C  
ENDROOT
BRANCH   2   3
HETATM    3  C   UNL     1      -9.787  13.128  67.655  1.00  0.00    -0.219 C  
BRANCH   3   4
HETATM    4  C   UNL     1      -9.873  14.580  67.136  1.00  0.00    -0.245 C  
BRANCH   4   5
HETATM    5  N   UNL     1      -9.186  15.560  67.995  1.00  0.00    -0.187 NA 
HETATM    6  C   UNL     1      -7.977  16.129  67.375  1.00  0.00    -0.160 C  
HETATM    7  C   UNL     1      -8.265  17.117  66.230  1.00  0.00    -0.271 C  
HETATM    8  C   UNL     1      -9.096  18.280  66.784  1.00  0.00    -0.284 C  
HETATM    9  O   UNL     1      -7.057  17.619  65.651  1.00  0.00    -0.424 OA 
HETATM   10  H   UNL     1      -7.235  18.229  64.945  1.00  0.00     0.000 HD 
HETATM   11  C   UNL     1     -10.362  17.765  67.473  1.00  0.00    -0.369 C  
HETATM   12  O   UNL     1      -9.544  19.180  65.753  1.00  0.00    -0.404 OA 
HETATM   13  C   UNL     1     -10.056  16.658  68.514  1.00  0.00    -0.266 C  
HETATM   14  H   UNL     1     -10.058  19.901  66.096  1.00  0.00     0.000 HD 
HETATM   15  O   UNL     1     -11.022  18.884  68.096  1.00  0.00    -0.282 OA 
HETATM   16  H   UNL     1     -11.807  18.565  68.524  1.00  0.00     0.000 HD 
BRANCH  13  17
HETATM   17  C   UNL     1     -11.379  16.190  69.174  1.00  0.00    -0.323 C  
HETATM   18  O   UNL     1     -11.275  16.142  70.596  1.00  0.00    -0.368 OA 
HETATM   19  H   UNL     1     -12.085  15.855  70.999  1.00  0.00     0.000 HD 
ENDBRANCH  13  17
ENDBRANCH   4   5
ENDBRANCH   3   4
ENDBRANCH   2   3
TORSDOF 4
ENDMDL
MODEL      108
REMARK 921   NORMALIZED FREE ENERGY PREDICTED BY IDOCK:   -3.46 KCAL/MOL
REMARK 922        TOTAL FREE ENERGY PREDICTED BY IDOCK:   -4.75 KCAL/MOL
REMARK 923 INTER-LIGAND FREE ENERGY PREDICTED BY IDOCK:   -4.36 KCAL/MOL
REMARK 924 INTRA-LIGAND FREE ENERGY PREDICTED BY IDOCK:   -0.39 KCAL/MOL
REMARK 927      BINDING AFFINITY PREDICTED BY RF-SCORE:    0.00 PKD
ROOT
HETATM    1  C   UNL     1      -6.056  12.102  67.370  1.00  0.00    -0.143 C  
HETATM    2  C   UNL     1      -7.107  11.036  67.096  1.00  0.00    -0.104 C  
ENDROOT
BRANCH   2   3
HETATM    3  C   UNL     1      -8.466  11.406  67.700  1.00  0.00    -0.130 C  
BRANCH   3   4
HETATM    4  C   UNL     1      -9.414  12.063  66.673  1.00  0.00    -0.217 C  
BRANCH   4   5
HETATM    5  N   UNL     1     -10.843  11.834  66.953  1.00  0.00    -0.257 NA 
HETATM    6  C   UNL     1     -11.221  12.154  68.340  1.00  0.00    -0.265 C  
HETATM    7  C   UNL     1     -11.253  13.662  68.649  1.00  0.00    -0.277 C  
HETATM    8  C   UNL     1     -12.274  14.331  67.722  1.00  0.00    -0.164 C  
HETATM    9  O   UNL     1     -11.603  13.912  70.014  1.00  0.00    -0.362 OA 
HETATM   10  H   UNL     1     -11.623  14.843  70.204  1.00  0.00     0.000 HD 
HETATM   11  C   UNL     1     -11.962  14.019  66.256  1.00  0.00    -0.432 C  
HETATM   12  O   UNL     1     -12.264  15.767  67.832  1.00  0.00    -0.124 OA 
HETATM   13  C   UNL     1     -11.783  12.500  66.003  1.00  0.00    -0.417 C  
HETATM   14  H   UNL     1     -12.896  16.181  67.258  1.00  0.00     0.000 HD 
HETATM   15  O   UNL     1     -13.031  14.549  65.447  1.00  0.00    -0.470 OA 
HETATM   16  H   UNL     1     -12.839  14.356  64.538  1.00  0.00     0.000 HD 
BRANCH  13  17
HETATM   17  C   UNL     1     -11.478  12.260  64.502  1.00  0.00    -0.341 C  
HETATM   18  O   UNL     1     -12.672  12.150  63.729  1.00  0.00    -0.661 OA 
HETATM   19  H   UNL     1     -12.484  12.003  62.809  1.00  0.00     0.000 HD 
ENDBRANCH  13  17
ENDBRANCH   4   5
ENDBRANCH   3   4
ENDBRANCH   2   3
TORSDOF 4
ENDMDL
MODEL      109
REMARK 921   NORMALIZED FREE ENERGY PREDICTED BY IDOCK:   -3.45 KCAL/MOL
REMARK 922        TOTAL FREE ENERGY PREDICTED BY IDOCK:   -4.75 KCAL/MOL
REMARK 923 INTER-LIGAND FREE ENERGY PREDICTED BY IDOCK:   -4.34 KCAL/MOL
REMARK 924 INTRA-LIGAND FREE ENERGY PREDICTED BY IDOCK:   -0.41 KCAL/MOL
REMARK 927      BINDING AFFINITY PREDICTED BY RF-SCORE:    0.00 PKD
ROOT
HETATM    1  C   UNL     1      -8.571   3.602  69.057  1.00  0.00    -0.120 C  
HETATM    2  C   UNL     1      -9.615   4.317  69.903  1.00  0.00    -0.279 C  
ENDROOT
BRANCH   2   3
HETATM    3  C   UNL     1     -10.220   5.517  69.168  1.00  0.00    -0.309 C  
BRANCH   3   4
HETATM    4  C   UNL     1     -10.908   6.516  70.124  1.00  0.00    -0.282 C  
BRANCH   4   5
HETATM    5  N   UNL     1     -10.105   7.720  70.403  1.00  0.00    -0.193 NA 
HETATM    6  C   UNL     1      -9.713   8.451  69.185  1.00  0.00    -0.171 C  
HETATM    7  C   UNL     1     -10.871   9.203  68.504  1.00  0.00    -0.043 C  
HETATM    8  C   UNL     1     -11.442  10.223  69.495  1.00  0.00    -0.210 C  
HETATM    9  O   UNL     1     -10.438   9.873  67.317  1.00  0.00    -0.231 OA 
HETATM   10  H   UNL     1     -11.153  10.338  66.897  1.00  0.00     0.000 HD 
HETATM   11  C   UNL     1     -11.849   9.541  70.804  1.00  0.00    -0.277 C  
HETATM   12  O   UNL     1     -12.630  10.869  69.001  1.00  0.00    -0.683 OA 
HETATM   13  C   UNL     1     -10.711   8.664  71.388  1.00  0.00    -0.268 C  
HETATM   14  H   UNL     1     -12.984  11.501  69.615  1.00  0.00     0.000 HD 
HETATM   15  O   UNL     1     -12.239  10.563  71.742  1.00  0.00    -0.280 OA 
HETATM   16  H   UNL     1     -12.491  10.141  72.554  1.00  0.00     0.000 HD 
BRANCH  13  17
HETATM   17  C   UNL     1     -11.190   8.013  72.711  1.00  0.00    -0.382 C  
HETATM   18  O   UNL     1     -12.606   8.106  72.867  1.00  0.00    -0.614 OA 
HETATM   19  H   UNL     1     -12.898   7.707  73.678  1.00  0.00     0.000 HD 
ENDBRANCH  13  17
ENDBRANCH   4   5
ENDBRANCH   3   4
ENDBRANCH   2   3
TORSDOF 4
ENDMDL
MODEL      110
REMARK 921   NORMALIZED FREE ENERGY PREDICTED BY IDOCK:   -3.45 KCAL/MOL
REMARK 922        TOTAL FREE ENERGY PREDICTED BY IDOCK:   -4.75 KCAL/MOL
REMARK 923 INTER-LIGAND FREE ENERGY PREDICTED BY IDOCK:   -4.35 KCAL/MOL
REMARK 924 INTRA-LIGAND FREE ENERGY PREDICTED BY IDOCK:   -0.40 KCAL/MOL
REMARK 927      BINDING AFFINITY PREDICTED BY RF-SCORE:    0.00 PKD
ROOT
HETATM    1  C   UNL     1      -8.090   2.592  72.854  1.00  0.00    -0.066 C  
HETATM    2  C   UNL     1      -9.400   3.204  72.380  1.00  0.00    -0.163 C  
ENDROOT
BRANCH   2   3
HETATM    3  C   UNL     1      -9.321   3.662  70.919  1.00  0.00    -0.218 C  
BRANCH   3   4
HETATM    4  C   UNL     1      -9.565   5.179  70.758  1.00  0.00    -0.179 C  
BRANCH   4   5
HETATM    5  N   UNL     1     -10.979   5.534  70.545  1.00  0.00    -0.199 NA 
HETATM    6  C   UNL     1     -11.654   5.990  71.772  1.00  0.00    -0.226 C  
HETATM    7  C   UNL     1     -11.222   7.392  72.240  1.00  0.00    -0.272 C  
HETATM    8  C   UNL     1     -11.541   8.400  71.131  1.00  0.00    -0.279 C  
HETATM    9  O   UNL     1     -11.890   7.773  73.446  1.00  0.00    -0.555 OA 
HETATM   10  H   UNL     1     -11.624   8.638  73.735  1.00  0.00     0.000 HD 
HETATM   11  C   UNL     1     -10.894   7.976  69.809  1.00  0.00    -0.194 C  
HETATM   12  O   UNL     1     -11.033   9.716  71.416  1.00  0.00    -0.360 OA 
HETATM   13  C   UNL     1     -11.222   6.507  69.438  1.00  0.00    -0.356 C  
HETATM   14  H   UNL     1     -11.231  10.341  70.729  1.00  0.00     0.000 HD 
HETATM   15  O   UNL     1     -11.348   8.877  68.779  1.00  0.00    -0.318 OA 
HETATM   16  H   UNL     1     -10.947   8.614  67.959  1.00  0.00     0.000 HD 
BRANCH  13  17
HETATM   17  C   UNL     1     -10.542   6.152  68.091  1.00  0.00    -0.264 C  
HETATM   18  O   UNL     1     -11.321   6.579  66.975  1.00  0.00    -0.703 OA 
HETATM   19  H   UNL     1     -10.904   6.361  66.149  1.00  0.00     0.000 HD 
ENDBRANCH  13  17
ENDBRANCH   4   5
ENDBRANCH   3   4
ENDBRANCH   2   3
TORSDOF 4
ENDMDL
MODEL      111
REMARK 921   NORMALIZED FREE ENERGY PREDICTED BY IDOCK:   -3.44 KCAL/MOL
REMARK 922        TOTAL FREE ENERGY PREDICTED BY IDOCK:   -4.74 KCAL/MOL
REMARK 923 INTER-LIGAND FREE ENERGY PREDICTED BY IDOCK:   -4.37 KCAL/MOL
REMARK 924 INTRA-LIGAND FREE ENERGY PREDICTED BY IDOCK:   -0.37 KCAL/MOL
REMARK 927      BINDING AFFINITY PREDICTED BY RF-SCORE:    0.00 PKD
ROOT
HETATM    1  C   UNL     1      -6.506  19.644  67.471  1.00  0.00    -0.231 C  
HETATM    2  C   UNL     1      -7.471  19.469  68.635  1.00  0.00    -0.380 C  
ENDROOT
BRANCH   2   3
HETATM    3  C   UNL     1      -8.727  18.694  68.224  1.00  0.00    -0.349 C  
BRANCH   3   4
HETATM    4  C   UNL     1      -8.654  17.198  68.601  1.00  0.00    -0.260 C  
BRANCH   4   5
HETATM    5  N   UNL     1      -9.281  16.304  67.612  1.00  0.00    -0.205 NA 
HETATM    6  C   UNL     1      -8.305  15.515  66.840  1.00  0.00    -0.255 C  
HETATM    7  C   UNL     1      -7.631  14.389  67.646  1.00  0.00    -0.179 C  
HETATM    8  C   UNL     1      -8.715  13.428  68.146  1.00  0.00    -0.179 C  
HETATM    9  O   UNL     1      -6.678  13.674  66.855  1.00  0.00    -0.324 OA 
HETATM   10  H   UNL     1      -6.263  12.979  67.352  1.00  0.00     0.000 HD 
HETATM   11  C   UNL     1      -9.788  14.182  68.937  1.00  0.00    -0.105 C  
HETATM   12  O   UNL     1      -8.196  12.425  69.039  1.00  0.00    -0.343 OA 
HETATM   13  C   UNL     1     -10.340  15.405  68.161  1.00  0.00    -0.239 C  
HETATM   14  H   UNL     1      -8.868  11.829  69.348  1.00  0.00     0.000 HD 
HETATM   15  O   UNL     1     -10.847  13.256  69.252  1.00  0.00    -0.415 OA 
HETATM   16  H   UNL     1     -11.512  13.723  69.743  1.00  0.00     0.000 HD 
BRANCH  13  17
HETATM   17  C   UNL     1     -11.422  16.113  69.017  1.00  0.00    -0.323 C  
HETATM   18  O   UNL     1     -12.597  15.316  69.153  1.00  0.00    -0.583 OA 
HETATM   19  H   UNL     1     -13.260  15.750  69.677  1.00  0.00     0.000 HD 
ENDBRANCH  13  17
ENDBRANCH   4   5
ENDBRANCH   3   4
ENDBRANCH   2   3
TORSDOF 4
ENDMDL
MODEL      112
REMARK 921   NORMALIZED FREE ENERGY PREDICTED BY IDOCK:   -3.44 KCAL/MOL
REMARK 922        TOTAL FREE ENERGY PREDICTED BY IDOCK:   -4.74 KCAL/MOL
REMARK 923 INTER-LIGAND FREE ENERGY PREDICTED BY IDOCK:   -4.37 KCAL/MOL
REMARK 924 INTRA-LIGAND FREE ENERGY PREDICTED BY IDOCK:   -0.36 KCAL/MOL
REMARK 927      BINDING AFFINITY PREDICTED BY RF-SCORE:    0.00 PKD
ROOT
HETATM    1  C   UNL     1     -12.900  11.244  71.313  1.00  0.00    -0.491 C  
HETATM    2  C   UNL     1     -11.711  10.813  70.466  1.00  0.00    -0.449 C  
ENDROOT
BRANCH   2   3
HETATM    3  C   UNL     1     -11.911  11.154  68.986  1.00  0.00    -0.418 C  
BRANCH   3   4
HETATM    4  C   UNL     1     -11.175  12.446  68.568  1.00  0.00    -0.279 C  
BRANCH   4   5
HETATM    5  N   UNL     1     -10.640  12.408  67.196  1.00  0.00    -0.223 NA 
HETATM    6  C   UNL     1     -11.070  13.551  66.372  1.00  0.00    -0.302 C  
HETATM    7  C   UNL     1     -10.400  14.884  66.752  1.00  0.00    -0.269 C  
HETATM    8  C   UNL     1      -8.884  14.735  66.586  1.00  0.00    -0.229 C  
HETATM    9  O   UNL     1     -10.872  15.961  65.937  1.00  0.00    -0.305 OA 
HETATM   10  H   UNL     1     -10.458  16.784  66.171  1.00  0.00     0.000 HD 
HETATM   11  C   UNL     1      -8.363  13.544  67.393  1.00  0.00    -0.194 C  
HETATM   12  O   UNL     1      -8.160  15.885  67.063  1.00  0.00    -0.185 OA 
HETATM   13  C   UNL     1      -9.158  12.245  67.104  1.00  0.00    -0.193 C  
HETATM   14  H   UNL     1      -7.220  15.792  66.960  1.00  0.00     0.000 HD 
HETATM   15  O   UNL     1      -6.966  13.368  67.083  1.00  0.00    -0.370 OA 
HETATM   16  H   UNL     1      -6.642  12.628  67.584  1.00  0.00     0.000 HD 
BRANCH  13  17
HETATM   17  C   UNL     1      -8.573  11.084  67.949  1.00  0.00    -0.133 C  
HETATM   18  O   UNL     1      -7.935  11.558  69.134  1.00  0.00    -0.335 OA 
HETATM   19  H   UNL     1      -7.577  10.846  69.651  1.00  0.00     0.000 HD 
ENDBRANCH  13  17
ENDBRANCH   4   5
ENDBRANCH   3   4
ENDBRANCH   2   3
TORSDOF 4
ENDMDL
MODEL      113
REMARK 921   NORMALIZED FREE ENERGY PREDICTED BY IDOCK:   -3.43 KCAL/MOL
REMARK 922        TOTAL FREE ENERGY PREDICTED BY IDOCK:   -4.73 KCAL/MOL
REMARK 923 INTER-LIGAND FREE ENERGY PREDICTED BY IDOCK:   -4.38 KCAL/MOL
REMARK 924 INTRA-LIGAND FREE ENERGY PREDICTED BY IDOCK:   -0.35 KCAL/MOL
REMARK 927      BINDING AFFINITY PREDICTED BY RF-SCORE:    0.00 PKD
ROOT
HETATM    1  C   UNL     1     -10.663  14.865  65.226  1.00  0.00    -0.409 C  
HETATM    2  C   UNL     1     -10.273  14.057  66.454  1.00  0.00    -0.293 C  
ENDROOT
BRANCH   2   3
HETATM    3  C   UNL     1     -11.287  14.221  67.591  1.00  0.00    -0.344 C  
BRANCH   3   4
HETATM    4  C   UNL     1     -11.075  13.200  68.730  1.00  0.00    -0.269 C  
BRANCH   4   5
HETATM    5  N   UNL     1     -12.008  12.059  68.686  1.00  0.00    -0.336 NA 
HETATM    6  C   UNL     1     -11.651  11.058  67.667  1.00  0.00    -0.143 C  
HETATM    7  C   UNL     1     -10.410  10.217  68.020  1.00  0.00    -0.181 C  
HETATM    8  C   UNL     1     -10.681   9.471  69.331  1.00  0.00    -0.225 C  
HETATM    9  O   UNL     1     -10.098   9.279  66.986  1.00  0.00    -0.209 OA 
HETATM   10  H   UNL     1      -9.333   8.760  67.204  1.00  0.00     0.000 HD 
HETATM   11  C   UNL     1     -11.087  10.447  70.438  1.00  0.00    -0.296 C  
HETATM   12  O   UNL     1      -9.519   8.776  69.822  1.00  0.00    -0.162 OA 
HETATM   13  C   UNL     1     -12.239  11.387  70.000  1.00  0.00    -0.301 C  
HETATM   14  H   UNL     1      -9.687   8.314  70.634  1.00  0.00     0.000 HD 
HETATM   15  O   UNL     1     -11.468   9.679  71.597  1.00  0.00    -0.380 OA 
HETATM   16  H   UNL     1     -11.720  10.284  72.284  1.00  0.00     0.000 HD 
BRANCH  13  17
HETATM   17  C   UNL     1     -12.601  12.340  71.169  1.00  0.00    -0.253 C  
HETATM   18  O   UNL     1     -13.396  11.688  72.158  1.00  0.00    -0.576 OA 
HETATM   19  H   UNL     1     -13.617  12.272  72.874  1.00  0.00     0.000 HD 
ENDBRANCH  13  17
ENDBRANCH   4   5
ENDBRANCH   3   4
ENDBRANCH   2   3
TORSDOF 4
ENDMDL
MODEL      114
REMARK 921   NORMALIZED FREE ENERGY PREDICTED BY IDOCK:   -3.43 KCAL/MOL
REMARK 922        TOTAL FREE ENERGY PREDICTED BY IDOCK:   -4.73 KCAL/MOL
REMARK 923 INTER-LIGAND FREE ENERGY PREDICTED BY IDOCK:   -4.24 KCAL/MOL
REMARK 924 INTRA-LIGAND FREE ENERGY PREDICTED BY IDOCK:   -0.48 KCAL/MOL
REMARK 927      BINDING AFFINITY PREDICTED BY RF-SCORE:    0.00 PKD
ROOT
HETATM    1  C   UNL     1      -8.665  10.046  67.000  1.00  0.00    -0.137 C  
HETATM    2  C   UNL     1     -10.018   9.351  66.967  1.00  0.00    -0.282 C  
ENDROOT
BRANCH   2   3
HETATM    3  C   UNL     1     -10.907   9.776  68.141  1.00  0.00    -0.264 C  
BRANCH   3   4
HETATM    4  C   UNL     1     -10.783   8.829  69.354  1.00  0.00    -0.169 C  
BRANCH   4   5
HETATM    5  N   UNL     1     -10.444   9.516  70.613  1.00  0.00    -0.286 NA 
HETATM    6  C   UNL     1     -11.600   9.692  71.509  1.00  0.00    -0.381 C  
HETATM    7  C   UNL     1     -12.077   8.390  72.179  1.00  0.00    -0.373 C  
HETATM    8  C   UNL     1     -10.926   7.817  73.012  1.00  0.00    -0.381 C  
HETATM    9  O   UNL     1     -13.214   8.616  73.017  1.00  0.00    -0.753 OA 
HETATM   10  H   UNL     1     -13.509   7.813  73.431  1.00  0.00     0.000 HD 
HETATM   11  C   UNL     1      -9.673   7.632  72.153  1.00  0.00    -0.173 C  
HETATM   12  O   UNL     1     -11.229   6.518  73.555  1.00  0.00    -0.461 OA 
HETATM   13  C   UNL     1      -9.303   8.917  71.367  1.00  0.00    -0.268 C  
HETATM   14  H   UNL     1     -10.515   6.164  74.071  1.00  0.00     0.000 HD 
HETATM   15  O   UNL     1      -8.590   7.233  73.017  1.00  0.00    -0.117 OA 
HETATM   16  H   UNL     1      -7.812   7.118  72.484  1.00  0.00     0.000 HD 
BRANCH  13  17
HETATM   17  C   UNL     1      -8.025   8.659  70.528  1.00  0.00    -0.106 C  
HETATM   18  O   UNL     1      -7.768   7.264  70.368  1.00  0.00    -0.090 OA 
HETATM   19  H   UNL     1      -6.985   7.106  69.854  1.00  0.00     0.000 HD 
ENDBRANCH  13  17
ENDBRANCH   4   5
ENDBRANCH   3   4
ENDBRANCH   2   3
TORSDOF 4
ENDMDL
MODEL      115
REMARK 921   NORMALIZED FREE ENERGY PREDICTED BY IDOCK:   -3.39 KCAL/MOL
REMARK 922        TOTAL FREE ENERGY PREDICTED BY IDOCK:   -4.68 KCAL/MOL
REMARK 923 INTER-LIGAND FREE ENERGY PREDICTED BY IDOCK:   -4.25 KCAL/MOL
REMARK 924 INTRA-LIGAND FREE ENERGY PREDICTED BY IDOCK:   -0.42 KCAL/MOL
REMARK 927      BINDING AFFINITY PREDICTED BY RF-SCORE:    0.00 PKD
ROOT
HETATM    1  C   UNL     1     -12.557  12.847  64.793  1.00  0.00    -0.493 C  
HETATM    2  C   UNL     1     -11.694  12.697  66.038  1.00  0.00    -0.470 C  
ENDROOT
BRANCH   2   3
HETATM    3  C   UNL     1     -11.934  13.831  67.039  1.00  0.00    -0.452 C  
BRANCH   3   4
HETATM    4  C   UNL     1     -10.939  14.999  66.866  1.00  0.00    -0.324 C  
BRANCH   4   5
HETATM    5  N   UNL     1     -10.181  15.320  68.089  1.00  0.00    -0.228 NA 
HETATM    6  C   UNL     1      -9.049  14.408  68.326  1.00  0.00    -0.193 C  
HETATM    7  C   UNL     1      -7.865  14.615  67.364  1.00  0.00    -0.202 C  
HETATM    8  C   UNL     1      -7.349  16.049  67.523  1.00  0.00    -0.163 C  
HETATM    9  O   UNL     1      -6.807  13.689  67.626  1.00  0.00    -0.158 OA 
HETATM   10  H   UNL     1      -6.076  13.816  67.032  1.00  0.00     0.000 HD 
HETATM   11  C   UNL     1      -8.480  17.060  67.318  1.00  0.00    -0.194 C  
HETATM   12  O   UNL     1      -6.338  16.384  66.553  1.00  0.00    -0.262 OA 
HETATM   13  C   UNL     1      -9.722  16.738  68.188  1.00  0.00    -0.247 C  
HETATM   14  H   UNL     1      -6.018  17.272  66.652  1.00  0.00     0.000 HD 
HETATM   15  O   UNL     1      -7.970  18.373  67.622  1.00  0.00    -0.237 OA 
HETATM   16  H   UNL     1      -8.671  19.000  67.494  1.00  0.00     0.000 HD 
BRANCH  13  17
HETATM   17  C   UNL     1     -10.820  17.802  67.934  1.00  0.00    -0.218 C  
HETATM   18  O   UNL     1     -10.572  19.005  68.661  1.00  0.00    -0.413 OA 
HETATM   19  H   UNL     1     -11.245  19.657  68.505  1.00  0.00     0.000 HD 
ENDBRANCH  13  17
ENDBRANCH   4   5
ENDBRANCH   3   4
ENDBRANCH   2   3
TORSDOF 4
ENDMDL
MODEL      116
REMARK 921   NORMALIZED FREE ENERGY PREDICTED BY IDOCK:   -3.39 KCAL/MOL
REMARK 922        TOTAL FREE ENERGY PREDICTED BY IDOCK:   -4.67 KCAL/MOL
REMARK 923 INTER-LIGAND FREE ENERGY PREDICTED BY IDOCK:   -4.29 KCAL/MOL
REMARK 924 INTRA-LIGAND FREE ENERGY PREDICTED BY IDOCK:   -0.38 KCAL/MOL
REMARK 927      BINDING AFFINITY PREDICTED BY RF-SCORE:    0.00 PKD
ROOT
HETATM    1  C   UNL     1     -10.298   9.153  71.425  1.00  0.00    -0.409 C  
HETATM    2  C   UNL     1      -9.396   9.489  70.246  1.00  0.00    -0.305 C  
ENDROOT
BRANCH   2   3
HETATM    3  C   UNL     1      -9.918  10.692  69.453  1.00  0.00    -0.183 C  
BRANCH   3   4
HETATM    4  C   UNL     1      -9.468  10.672  67.976  1.00  0.00    -0.158 C  
BRANCH   4   5
HETATM    5  N   UNL     1     -10.530  10.267  67.037  1.00  0.00    -0.242 NA 
HETATM    6  C   UNL     1     -11.360  11.394  66.580  1.00  0.00    -0.122 C  
HETATM    7  C   UNL     1     -10.648  12.339  65.595  1.00  0.00    -0.260 C  
HETATM    8  C   UNL     1     -10.233  11.535  64.358  1.00  0.00    -0.300 C  
HETATM    9  O   UNL     1     -11.493  13.426  65.204  1.00  0.00    -0.290 OA 
HETATM   10  H   UNL     1     -11.054  14.009  64.596  1.00  0.00     0.000 HD 
HETATM   11  C   UNL     1      -9.385  10.325  64.756  1.00  0.00    -0.260 C  
HETATM   12  O   UNL     1      -9.424  12.302  63.446  1.00  0.00    -0.673 OA 
HETATM   13  C   UNL     1     -10.059   9.473  65.863  1.00  0.00    -0.214 C  
HETATM   14  H   UNL     1      -9.167  11.804  62.679  1.00  0.00     0.000 HD 
HETATM   15  O   UNL     1      -9.150   9.533  63.574  1.00  0.00    -0.366 OA 
HETATM   16  H   UNL     1      -8.625   8.781  63.821  1.00  0.00     0.000 HD 
BRANCH  13  17
HETATM   17  C   UNL     1      -9.151   8.265  66.209  1.00  0.00    -0.188 C  
HETATM   18  O   UNL     1      -9.139   7.293  65.165  1.00  0.00    -0.320 OA 
HETATM   19  H   UNL     1      -8.583   6.553  65.377  1.00  0.00     0.000 HD 
ENDBRANCH  13  17
ENDBRANCH   4   5
ENDBRANCH   3   4
ENDBRANCH   2   3
TORSDOF 4
ENDMDL
MODEL      117
REMARK 921   NORMALIZED FREE ENERGY PREDICTED BY IDOCK:   -3.38 KCAL/MOL
REMARK 922        TOTAL FREE ENERGY PREDICTED BY IDOCK:   -4.66 KCAL/MOL
REMARK 923 INTER-LIGAND FREE ENERGY PREDICTED BY IDOCK:   -4.44 KCAL/MOL
REMARK 924 INTRA-LIGAND FREE ENERGY PREDICTED BY IDOCK:   -0.22 KCAL/MOL
REMARK 927      BINDING AFFINITY PREDICTED BY RF-SCORE:    0.00 PKD
ROOT
HETATM    1  C   UNL     1      -9.556  17.772  66.980  1.00  0.00    -0.284 C  
HETATM    2  C   UNL     1     -10.134  17.107  68.221  1.00  0.00    -0.314 C  
ENDROOT
BRANCH   2   3
HETATM    3  C   UNL     1     -11.491  16.454  67.939  1.00  0.00     0.010 C  
BRANCH   3   4
HETATM    4  C   UNL     1     -11.384  15.252  66.975  1.00  0.00    -0.230 C  
BRANCH   4   5
HETATM    5  N   UNL     1     -10.289  14.322  67.304  1.00  0.00    -0.259 NA 
HETATM    6  C   UNL     1     -10.319  13.862  68.703  1.00  0.00    -0.237 C  
HETATM    7  C   UNL     1     -11.452  12.867  69.013  1.00  0.00    -0.308 C  
HETATM    8  C   UNL     1     -11.278  11.633  68.121  1.00  0.00    -0.263 C  
HETATM    9  O   UNL     1     -11.447  12.474  70.388  1.00  0.00    -0.495 OA 
HETATM   10  H   UNL     1     -12.146  11.860  70.579  1.00  0.00     0.000 HD 
HETATM   11  C   UNL     1     -11.209  12.034  66.645  1.00  0.00    -0.327 C  
HETATM   12  O   UNL     1     -12.379  10.712  68.230  1.00  0.00    -0.663 OA 
HETATM   13  C   UNL     1     -10.164  13.150  66.387  1.00  0.00    -0.286 C  
HETATM   14  H   UNL     1     -12.271   9.947  67.677  1.00  0.00     0.000 HD 
HETATM   15  O   UNL     1     -10.900  10.856  65.874  1.00  0.00    -0.178 OA 
HETATM   16  H   UNL     1     -10.857  11.105  64.958  1.00  0.00     0.000 HD 
BRANCH  13  17
HETATM   17  C   UNL     1     -10.145  13.499  64.876  1.00  0.00    -0.254 C  
HETATM   18  O   UNL     1     -11.359  13.119  64.228  1.00  0.00    -0.355 OA 
HETATM   19  H   UNL     1     -11.347  13.333  63.303  1.00  0.00     0.000 HD 
ENDBRANCH  13  17
ENDBRANCH   4   5
ENDBRANCH   3   4
ENDBRANCH   2   3
TORSDOF 4
ENDMDL
MODEL      118
REMARK 921   NORMALIZED FREE ENERGY PREDICTED BY IDOCK:   -3.37 KCAL/MOL
REMARK 922        TOTAL FREE ENERGY PREDICTED BY IDOCK:   -4.66 KCAL/MOL
REMARK 923 INTER-LIGAND FREE ENERGY PREDICTED BY IDOCK:   -4.24 KCAL/MOL
REMARK 924 INTRA-LIGAND FREE ENERGY PREDICTED BY IDOCK:   -0.42 KCAL/MOL
REMARK 927      BINDING AFFINITY PREDICTED BY RF-SCORE:    0.00 PKD
ROOT
HETATM    1  C   UNL     1      -5.669  12.559  67.764  1.00  0.00    -0.116 C  
HETATM    2  C   UNL     1      -5.814  14.074  67.720  1.00  0.00    -0.091 C  
ENDROOT
BRANCH   2   3
HETATM    3  C   UNL     1      -7.284  14.505  67.666  1.00  0.00    -0.206 C  
BRANCH   3   4
HETATM    4  C   UNL     1      -7.469  15.912  67.057  1.00  0.00    -0.219 C  
BRANCH   4   5
HETATM    5  N   UNL     1      -8.311  16.806  67.873  1.00  0.00    -0.192 NA 
HETATM    6  C   UNL     1      -7.546  17.875  68.538  1.00  0.00    -0.289 C  
HETATM    7  C   UNL     1      -7.048  18.976  67.584  1.00  0.00    -0.218 C  
HETATM    8  C   UNL     1      -8.261  19.623  66.906  1.00  0.00    -0.294 C  
HETATM    9  O   UNL     1      -6.294  19.973  68.279  1.00  0.00    -0.249 OA 
HETATM   10  H   UNL     1      -5.987  20.653  67.690  1.00  0.00     0.000 HD 
HETATM   11  C   UNL     1      -9.125  18.566  66.214  1.00  0.00    -0.207 C  
HETATM   12  O   UNL     1      -7.887  20.562  65.881  1.00  0.00    -0.524 OA 
HETATM   13  C   UNL     1      -9.484  17.389  67.157  1.00  0.00    -0.257 C  
HETATM   14  H   UNL     1      -8.638  20.963  65.461  1.00  0.00     0.000 HD 
HETATM   15  O   UNL     1     -10.317  19.210  65.724  1.00  0.00    -0.498 OA 
HETATM   16  H   UNL     1     -10.854  18.555  65.294  1.00  0.00     0.000 HD 
BRANCH  13  17
HETATM   17  C   UNL     1     -10.362  16.365  66.393  1.00  0.00    -0.313 C  
HETATM   18  O   UNL     1     -10.253  16.523  64.979  1.00  0.00    -0.564 OA 
HETATM   19  H   UNL     1     -10.791  15.895  64.511  1.00  0.00     0.000 HD 
ENDBRANCH  13  17
ENDBRANCH   4   5
ENDBRANCH   3   4
ENDBRANCH   2   3
TORSDOF 4
ENDMDL
MODEL      119
REMARK 921   NORMALIZED FREE ENERGY PREDICTED BY IDOCK:   -3.34 KCAL/MOL
REMARK 922        TOTAL FREE ENERGY PREDICTED BY IDOCK:   -4.62 KCAL/MOL
REMARK 923 INTER-LIGAND FREE ENERGY PREDICTED BY IDOCK:   -4.46 KCAL/MOL
REMARK 924 INTRA-LIGAND FREE ENERGY PREDICTED BY IDOCK:   -0.16 KCAL/MOL
REMARK 927      BINDING AFFINITY PREDICTED BY RF-SCORE:    0.00 PKD
ROOT
HETATM    1  C   UNL     1     -13.932  13.886  72.248  1.00  0.00    -0.663 C  
HETATM    2  C   UNL     1     -13.104  14.469  71.112  1.00  0.00    -0.424 C  
ENDROOT
BRANCH   2   3
HETATM    3  C   UNL     1     -12.481  13.375  70.239  1.00  0.00    -0.285 C  
BRANCH   3   4
HETATM    4  C   UNL     1     -12.348  12.026  70.979  1.00  0.00    -0.238 C  
BRANCH   4   5
HETATM    5  N   UNL     1     -12.369  10.854  70.086  1.00  0.00    -0.324 NA 
HETATM    6  C   UNL     1     -11.642  11.072  68.824  1.00  0.00    -0.318 C  
HETATM    7  C   UNL     1     -10.110  11.107  68.981  1.00  0.00    -0.155 C  
HETATM    8  C   UNL     1      -9.647   9.766  69.560  1.00  0.00    -0.210 C  
HETATM    9  O   UNL     1      -9.459  11.345  67.730  1.00  0.00    -0.159 OA 
HETATM   10  H   UNL     1      -8.514  11.366  67.826  1.00  0.00     0.000 HD 
HETATM   11  C   UNL     1     -10.382   9.454  70.865  1.00  0.00    -0.310 C  
HETATM   12  O   UNL     1      -8.244   9.760  69.885  1.00  0.00    -0.152 OA 
HETATM   13  C   UNL     1     -11.921   9.577  70.717  1.00  0.00    -0.252 C  
HETATM   14  H   UNL     1      -7.956   8.929  70.243  1.00  0.00     0.000 HD 
HETATM   15  O   UNL     1     -10.014   8.124  71.281  1.00  0.00    -0.174 OA 
HETATM   16  H   UNL     1     -10.470   7.929  72.091  1.00  0.00     0.000 HD 
BRANCH  13  17
HETATM   17  C   UNL     1     -12.597   9.241  72.071  1.00  0.00    -0.390 C  
HETATM   18  O   UNL     1     -13.946   8.807  71.897  1.00  0.00    -0.403 OA 
HETATM   19  H   UNL     1     -14.360   8.601  72.727  1.00  0.00     0.000 HD 
ENDBRANCH  13  17
ENDBRANCH   4   5
ENDBRANCH   3   4
ENDBRANCH   2   3
TORSDOF 4
ENDMDL
MODEL      120
REMARK 921   NORMALIZED FREE ENERGY PREDICTED BY IDOCK:   -3.34 KCAL/MOL
REMARK 922        TOTAL FREE ENERGY PREDICTED BY IDOCK:   -4.61 KCAL/MOL
REMARK 923 INTER-LIGAND FREE ENERGY PREDICTED BY IDOCK:   -4.79 KCAL/MOL
REMARK 924 INTRA-LIGAND FREE ENERGY PREDICTED BY IDOCK:    0.19 KCAL/MOL
REMARK 927      BINDING AFFINITY PREDICTED BY RF-SCORE:    0.00 PKD
ROOT
HETATM    1  C   UNL     1      -6.509   7.019  72.214  1.00  0.00    -0.052 C  
HETATM    2  C   UNL     1      -7.195   7.991  73.163  1.00  0.00    -0.144 C  
ENDROOT
BRANCH   2   3
HETATM    3  C   UNL     1      -8.667   8.204  72.796  1.00  0.00    -0.281 C  
BRANCH   3   4
HETATM    4  C   UNL     1      -8.849   8.782  71.376  1.00  0.00    -0.225 C  
BRANCH   4   5
HETATM    5  N   UNL     1      -9.881   8.092  70.581  1.00  0.00    -0.181 NA 
HETATM    6  C   UNL     1     -10.445   6.913  71.261  1.00  0.00    -0.208 C  
HETATM    7  C   UNL     1     -11.373   7.254  72.441  1.00  0.00    -0.284 C  
HETATM    8  C   UNL     1     -12.544   8.093  71.917  1.00  0.00    -0.335 C  
HETATM    9  O   UNL     1     -11.872   6.073  73.076  1.00  0.00    -0.490 OA 
HETATM   10  H   UNL     1     -12.445   6.283  73.804  1.00  0.00     0.000 HD 
HETATM   11  C   UNL     1     -12.035   9.328  71.170  1.00  0.00    -0.322 C  
HETATM   12  O   UNL     1     -13.386   8.589  72.975  1.00  0.00    -0.725 OA 
HETATM   13  C   UNL     1     -10.984   8.970  70.088  1.00  0.00    -0.233 C  
HETATM   14  H   UNL     1     -14.111   9.108  72.650  1.00  0.00     0.000 HD 
HETATM   15  O   UNL     1     -13.169   9.994  70.580  1.00  0.00    -0.604 OA 
HETATM   16  H   UNL     1     -12.854  10.761  70.116  1.00  0.00     0.000 HD 
BRANCH  13  17
HETATM   17  C   UNL     1     -10.520  10.264  69.371  1.00  0.00    -0.236 C  
HETATM   18  O   UNL     1     -10.971  11.437  70.048  1.00  0.00    -0.474 OA 
HETATM   19  H   UNL     1     -10.687  12.229  69.608  1.00  0.00     0.000 HD 
ENDBRANCH  13  17
ENDBRANCH   4   5
ENDBRANCH   3   4
ENDBRANCH   2   3
TORSDOF 4
ENDMDL
MODEL      121
REMARK 921   NORMALIZED FREE ENERGY PREDICTED BY IDOCK:   -3.33 KCAL/MOL
REMARK 922        TOTAL FREE ENERGY PREDICTED BY IDOCK:   -4.61 KCAL/MOL
REMARK 923 INTER-LIGAND FREE ENERGY PREDICTED BY IDOCK:   -4.34 KCAL/MOL
REMARK 924 INTRA-LIGAND FREE ENERGY PREDICTED BY IDOCK:   -0.26 KCAL/MOL
REMARK 927      BINDING AFFINITY PREDICTED BY RF-SCORE:    0.00 PKD
ROOT
HETATM    1  C   UNL     1     -11.811  14.648  70.839  1.00  0.00    -0.372 C  
HETATM    2  C   UNL     1     -12.082  13.392  70.024  1.00  0.00    -0.404 C  
ENDROOT
BRANCH   2   3
HETATM    3  C   UNL     1     -12.118  13.683  68.520  1.00  0.00    -0.321 C  
BRANCH   3   4
HETATM    4  C   UNL     1     -11.641  12.486  67.670  1.00  0.00    -0.355 C  
BRANCH   4   5
HETATM    5  N   UNL     1     -10.453  11.805  68.216  1.00  0.00    -0.199 NA 
HETATM    6  C   UNL     1     -10.676  10.374  68.483  1.00  0.00    -0.221 C  
HETATM    7  C   UNL     1     -10.769   9.506  67.214  1.00  0.00    -0.199 C  
HETATM    8  C   UNL     1      -9.456   9.636  66.435  1.00  0.00    -0.189 C  
HETATM    9  O   UNL     1     -11.009   8.132  67.533  1.00  0.00    -0.509 OA 
HETATM   10  H   UNL     1     -11.066   7.597  66.750  1.00  0.00     0.000 HD 
HETATM   11  C   UNL     1      -9.140  11.104  66.142  1.00  0.00    -0.201 C  
HETATM   12  O   UNL     1      -9.507   8.979  65.154  1.00  0.00    -0.451 OA 
HETATM   13  C   UNL     1      -9.204  11.985  67.417  1.00  0.00    -0.180 C  
HETATM   14  H   UNL     1      -8.693   9.059  64.671  1.00  0.00     0.000 HD 
HETATM   15  O   UNL     1      -7.832  11.171  65.541  1.00  0.00    -0.368 OA 
HETATM   16  H   UNL     1      -7.635  12.082  65.359  1.00  0.00     0.000 HD 
BRANCH  13  17
HETATM   17  C   UNL     1      -8.868  13.453  67.047  1.00  0.00    -0.211 C  
HETATM   18  O   UNL     1      -8.619  14.248  68.205  1.00  0.00    -0.162 OA 
HETATM   19  H   UNL     1      -8.413  15.147  67.978  1.00  0.00     0.000 HD 
ENDBRANCH  13  17
ENDBRANCH   4   5
ENDBRANCH   3   4
ENDBRANCH   2   3
TORSDOF 4
ENDMDL
MODEL      122
REMARK 921   NORMALIZED FREE ENERGY PREDICTED BY IDOCK:   -3.32 KCAL/MOL
REMARK 922        TOTAL FREE ENERGY PREDICTED BY IDOCK:   -4.58 KCAL/MOL
REMARK 923 INTER-LIGAND FREE ENERGY PREDICTED BY IDOCK:   -4.32 KCAL/MOL
REMARK 924 INTRA-LIGAND FREE ENERGY PREDICTED BY IDOCK:   -0.26 KCAL/MOL
REMARK 927      BINDING AFFINITY PREDICTED BY RF-SCORE:    0.00 PKD
ROOT
HETATM    1  C   UNL     1     -14.237   7.362  71.601  1.00  0.00    -0.583 C  
HETATM    2  C   UNL     1     -14.253   8.883  71.654  1.00  0.00    -0.355 C  
ENDROOT
BRANCH   2   3
HETATM    3  C   UNL     1     -12.933   9.449  72.187  1.00  0.00    -0.503 C  
BRANCH   3   4
HETATM    4  C   UNL     1     -11.797   9.397  71.142  1.00  0.00    -0.338 C  
BRANCH   4   5
HETATM    5  N   UNL     1     -10.461   9.180  71.726  1.00  0.00    -0.350 NA 
HETATM    6  C   UNL     1     -10.449   8.154  72.782  1.00  0.00    -0.315 C  
HETATM    7  C   UNL     1     -10.614   6.715  72.260  1.00  0.00    -0.214 C  
HETATM    8  C   UNL     1      -9.460   6.408  71.299  1.00  0.00    -0.166 C  
HETATM    9  O   UNL     1     -10.618   5.764  73.329  1.00  0.00    -0.222 OA 
HETATM   10  H   UNL     1     -10.719   4.876  73.007  1.00  0.00     0.000 HD 
HETATM   11  C   UNL     1      -9.390   7.453  70.183  1.00  0.00    -0.158 C  
HETATM   12  O   UNL     1      -9.613   5.136  70.641  1.00  0.00    -0.160 OA 
HETATM   13  C   UNL     1      -9.381   8.902  70.734  1.00  0.00    -0.230 C  
HETATM   14  H   UNL     1      -8.898   4.945  70.045  1.00  0.00     0.000 HD 
HETATM   15  O   UNL     1      -8.206   7.196  69.401  1.00  0.00    -0.128 OA 
HETATM   16  H   UNL     1      -8.162   7.844  68.709  1.00  0.00     0.000 HD 
BRANCH  13  17
HETATM   17  C   UNL     1      -9.301   9.902  69.552  1.00  0.00    -0.220 C  
HETATM   18  O   UNL     1      -8.215  10.816  69.702  1.00  0.00    -0.380 OA 
HETATM   19  H   UNL     1      -8.167  11.429  68.978  1.00  0.00     0.000 HD 
ENDBRANCH  13  17
ENDBRANCH   4   5
ENDBRANCH   3   4
ENDBRANCH   2   3
TORSDOF 4
ENDMDL
MODEL      123
REMARK 921   NORMALIZED FREE ENERGY PREDICTED BY IDOCK:   -3.32 KCAL/MOL
REMARK 922        TOTAL FREE ENERGY PREDICTED BY IDOCK:   -4.58 KCAL/MOL
REMARK 923 INTER-LIGAND FREE ENERGY PREDICTED BY IDOCK:   -4.53 KCAL/MOL
REMARK 924 INTRA-LIGAND FREE ENERGY PREDICTED BY IDOCK:   -0.06 KCAL/MOL
REMARK 927      BINDING AFFINITY PREDICTED BY RF-SCORE:    0.00 PKD
ROOT
HETATM    1  C   UNL     1     -12.786  11.818  63.261  1.00  0.00    -0.314 C  
HETATM    2  C   UNL     1     -12.262  13.156  63.764  1.00  0.00    -0.528 C  
ENDROOT
BRANCH   2   3
HETATM    3  C   UNL     1     -12.565  13.365  65.251  1.00  0.00    -0.518 C  
BRANCH   3   4
HETATM    4  C   UNL     1     -11.346  13.892  66.039  1.00  0.00    -0.324 C  
BRANCH   4   5
HETATM    5  N   UNL     1     -10.894  12.986  67.110  1.00  0.00    -0.257 NA 
HETATM    6  C   UNL     1     -10.005  11.915  66.628  1.00  0.00    -0.199 C  
HETATM    7  C   UNL     1      -8.594  12.397  66.243  1.00  0.00     0.179 C  
HETATM    8  C   UNL     1      -7.938  13.028  67.476  1.00  0.00    -0.177 C  
HETATM    9  O   UNL     1      -7.784  11.322  65.761  1.00  0.00    -0.368 OA 
HETATM   10  H   UNL     1      -6.913  11.619  65.523  1.00  0.00     0.000 HD 
HETATM   11  C   UNL     1      -8.821  14.137  68.054  1.00  0.00    -0.182 C  
HETATM   12  O   UNL     1      -6.673  13.646  67.174  1.00  0.00    -0.437 OA 
HETATM   13  C   UNL     1     -10.279  13.666  68.289  1.00  0.00    -0.243 C  
HETATM   14  H   UNL     1      -6.266  14.037  67.938  1.00  0.00     0.000 HD 
HETATM   15  O   UNL     1      -8.225  14.588  69.286  1.00  0.00    -0.333 OA 
HETATM   16  H   UNL     1      -8.772  15.276  69.646  1.00  0.00     0.000 HD 
BRANCH  13  17
HETATM   17  C   UNL     1     -11.110  14.834  68.880  1.00  0.00    -0.252 C  
HETATM   18  O   UNL     1     -12.509  14.557  68.852  1.00  0.00    -0.573 OA 
HETATM   19  H   UNL     1     -13.018  15.273  69.213  1.00  0.00     0.000 HD 
ENDBRANCH  13  17
ENDBRANCH   4   5
ENDBRANCH   3   4
ENDBRANCH   2   3
TORSDOF 4
ENDMDL
MODEL      124
REMARK 921   NORMALIZED FREE ENERGY PREDICTED BY IDOCK:   -3.30 KCAL/MOL
REMARK 922        TOTAL FREE ENERGY PREDICTED BY IDOCK:   -4.56 KCAL/MOL
REMARK 923 INTER-LIGAND FREE ENERGY PREDICTED BY IDOCK:   -4.10 KCAL/MOL
REMARK 924 INTRA-LIGAND FREE ENERGY PREDICTED BY IDOCK:   -0.47 KCAL/MOL
REMARK 927      BINDING AFFINITY PREDICTED BY RF-SCORE:    0.00 PKD
ROOT
HETATM    1  C   UNL     1      -7.724   8.962  66.203  1.00  0.00    -0.098 C  
HETATM    2  C   UNL     1      -8.677   8.047  66.959  1.00  0.00    -0.132 C  
ENDROOT
BRANCH   2   3
HETATM    3  C   UNL     1     -10.113   8.581  66.944  1.00  0.00    -0.364 C  
BRANCH   3   4
HETATM    4  C   UNL     1     -10.884   8.252  68.241  1.00  0.00     0.085 C  
BRANCH   4   5
HETATM    5  N   UNL     1     -10.175   8.648  69.470  1.00  0.00    -0.204 NA 
HETATM    6  C   UNL     1     -10.263  10.091  69.752  1.00  0.00    -0.250 C  
HETATM    7  C   UNL     1     -11.652  10.552  70.231  1.00  0.00    -0.332 C  
HETATM    8  C   UNL     1     -11.998   9.804  71.523  1.00  0.00    -0.407 C  
HETATM    9  O   UNL     1     -11.685  11.963  70.467  1.00  0.00    -0.508 OA 
HETATM   10  H   UNL     1     -12.541  12.248  70.763  1.00  0.00     0.000 HD 
HETATM   11  C   UNL     1     -11.901   8.290  71.317  1.00  0.00    -0.288 C  
HETATM   12  O   UNL     1     -13.345  10.057  71.964  1.00  0.00    -0.429 OA 
HETATM   13  C   UNL     1     -10.548   7.868  70.688  1.00  0.00    -0.219 C  
HETATM   14  H   UNL     1     -13.560   9.593  72.765  1.00  0.00     0.000 HD 
HETATM   15  O   UNL     1     -12.093   7.649  72.593  1.00  0.00    -0.548 OA 
HETATM   16  H   UNL     1     -12.032   6.710  72.466  1.00  0.00     0.000 HD 
BRANCH  13  17
HETATM   17  C   UNL     1     -10.518   6.327  70.516  1.00  0.00    -0.221 C  
HETATM   18  O   UNL     1     -10.043   5.671  71.690  1.00  0.00    -0.183 OA 
HETATM   19  H   UNL     1     -10.024   4.727  71.584  1.00  0.00     0.000 HD 
ENDBRANCH  13  17
ENDBRANCH   4   5
ENDBRANCH   3   4
ENDBRANCH   2   3
TORSDOF 4
ENDMDL
MODEL      125
REMARK 921   NORMALIZED FREE ENERGY PREDICTED BY IDOCK:   -3.30 KCAL/MOL
REMARK 922        TOTAL FREE ENERGY PREDICTED BY IDOCK:   -4.56 KCAL/MOL
REMARK 923 INTER-LIGAND FREE ENERGY PREDICTED BY IDOCK:   -4.59 KCAL/MOL
REMARK 924 INTRA-LIGAND FREE ENERGY PREDICTED BY IDOCK:    0.03 KCAL/MOL
REMARK 927      BINDING AFFINITY PREDICTED BY RF-SCORE:    0.00 PKD
ROOT
HETATM    1  C   UNL     1      -8.467  19.122  68.513  1.00  0.00    -0.399 C  
HETATM    2  C   UNL     1      -9.621  18.334  69.115  1.00  0.00    -0.085 C  
ENDROOT
BRANCH   2   3
HETATM    3  C   UNL     1     -10.664  17.953  68.059  1.00  0.00    -0.307 C  
BRANCH   3   4
HETATM    4  C   UNL     1     -11.160  16.498  68.210  1.00  0.00    -0.321 C  
BRANCH   4   5
HETATM    5  N   UNL     1     -10.082  15.494  68.147  1.00  0.00    -0.217 NA 
HETATM    6  C   UNL     1     -10.342  14.311  68.985  1.00  0.00    -0.176 C  
HETATM    7  C   UNL     1     -11.438  13.381  68.434  1.00  0.00    -0.316 C  
HETATM    8  C   UNL     1     -11.010  12.885  67.049  1.00  0.00    -0.262 C  
HETATM    9  O   UNL     1     -11.663  12.263  69.299  1.00  0.00    -0.294 OA 
HETATM   10  H   UNL     1     -12.340  11.689  68.959  1.00  0.00     0.000 HD 
HETATM   11  C   UNL     1     -10.694  14.063  66.124  1.00  0.00    -0.289 C  
HETATM   12  O   UNL     1     -12.043  12.129  66.388  1.00  0.00    -0.630 OA 
HETATM   13  C   UNL     1      -9.703  15.067  66.767  1.00  0.00    -0.241 C  
HETATM   14  H   UNL     1     -11.778  11.822  65.530  1.00  0.00     0.000 HD 
HETATM   15  O   UNL     1     -10.161  13.537  64.892  1.00  0.00    -0.459 OA 
HETATM   16  H   UNL     1      -9.965  14.268  64.318  1.00  0.00     0.000 HD 
BRANCH  13  17
HETATM   17  C   UNL     1      -9.425  16.225  65.775  1.00  0.00    -0.194 C  
HETATM   18  O   UNL     1      -8.141  16.811  65.988  1.00  0.00    -0.402 OA 
HETATM   19  H   UNL     1      -7.972  17.520  65.380  1.00  0.00     0.000 HD 
ENDBRANCH  13  17
ENDBRANCH   4   5
ENDBRANCH   3   4
ENDBRANCH   2   3
TORSDOF 4
ENDMDL
MODEL      126
REMARK 921   NORMALIZED FREE ENERGY PREDICTED BY IDOCK:   -3.30 KCAL/MOL
REMARK 922        TOTAL FREE ENERGY PREDICTED BY IDOCK:   -4.56 KCAL/MOL
REMARK 923 INTER-LIGAND FREE ENERGY PREDICTED BY IDOCK:   -4.42 KCAL/MOL
REMARK 924 INTRA-LIGAND FREE ENERGY PREDICTED BY IDOCK:   -0.13 KCAL/MOL
REMARK 927      BINDING AFFINITY PREDICTED BY RF-SCORE:    0.00 PKD
ROOT
HETATM    1  C   UNL     1     -14.225   7.492  71.517  1.00  0.00    -0.580 C  
HETATM    2  C   UNL     1     -14.405   8.973  71.816  1.00  0.00    -0.272 C  
ENDROOT
BRANCH   2   3
HETATM    3  C   UNL     1     -13.072   9.658  72.134  1.00  0.00    -0.520 C  
BRANCH   3   4
HETATM    4  C   UNL     1     -12.463  10.373  70.908  1.00  0.00    -0.381 C  
BRANCH   4   5
HETATM    5  N   UNL     1     -11.003  10.205  70.786  1.00  0.00    -0.307 NA 
HETATM    6  C   UNL     1     -10.524   8.908  71.295  1.00  0.00    -0.287 C  
HETATM    7  C   UNL     1     -10.884   7.710  70.396  1.00  0.00    -0.244 C  
HETATM    8  C   UNL     1     -10.257   7.929  69.015  1.00  0.00    -0.209 C  
HETATM    9  O   UNL     1     -10.414   6.478  70.950  1.00  0.00    -0.214 OA 
HETATM   10  H   UNL     1     -10.636   5.739  70.395  1.00  0.00     0.000 HD 
HETATM   11  C   UNL     1     -10.687   9.277  68.430  1.00  0.00    -0.145 C  
HETATM   12  O   UNL     1     -10.665   6.934  68.058  1.00  0.00    -0.217 OA 
HETATM   13  C   UNL     1     -10.456  10.448  69.418  1.00  0.00    -0.238 C  
HETATM   14  H   UNL     1     -10.277   7.069  67.202  1.00  0.00     0.000 HD 
HETATM   15  O   UNL     1      -9.956   9.489  67.206  1.00  0.00    -0.167 OA 
HETATM   16  H   UNL     1     -10.223  10.325  66.842  1.00  0.00     0.000 HD 
BRANCH  13  17
HETATM   17  C   UNL     1     -10.907  11.777  68.758  1.00  0.00    -0.227 C  
HETATM   18  O   UNL     1      -9.975  12.831  68.998  1.00  0.00    -0.417 OA 
HETATM   19  H   UNL     1     -10.252  13.645  68.593  1.00  0.00     0.000 HD 
ENDBRANCH  13  17
ENDBRANCH   4   5
ENDBRANCH   3   4
ENDBRANCH   2   3
TORSDOF 4
ENDMDL
MODEL      127
REMARK 921   NORMALIZED FREE ENERGY PREDICTED BY IDOCK:   -3.29 KCAL/MOL
REMARK 922        TOTAL FREE ENERGY PREDICTED BY IDOCK:   -4.55 KCAL/MOL
REMARK 923 INTER-LIGAND FREE ENERGY PREDICTED BY IDOCK:   -4.19 KCAL/MOL
REMARK 924 INTRA-LIGAND FREE ENERGY PREDICTED BY IDOCK:   -0.36 KCAL/MOL
REMARK 927      BINDING AFFINITY PREDICTED BY RF-SCORE:    0.00 PKD
ROOT
HETATM    1  C   UNL     1     -11.554   9.634  70.810  1.00  0.00    -0.395 C  
HETATM    2  C   UNL     1     -12.045  11.073  70.753  1.00  0.00    -0.467 C  
ENDROOT
BRANCH   2   3
HETATM    3  C   UNL     1     -11.989  11.640  69.331  1.00  0.00    -0.381 C  
BRANCH   3   4
HETATM    4  C   UNL     1     -11.003  12.821  69.199  1.00  0.00    -0.133 C  
BRANCH   4   5
HETATM    5  N   UNL     1     -11.228  13.653  68.004  1.00  0.00    -0.255 NA 
HETATM    6  C   UNL     1     -11.743  14.997  68.320  1.00  0.00    -0.314 C  
HETATM    7  C   UNL     1     -10.699  15.935  68.954  1.00  0.00    -0.254 C  
HETATM    8  C   UNL     1      -9.531  16.101  67.976  1.00  0.00    -0.211 C  
HETATM    9  O   UNL     1     -11.259  17.215  69.261  1.00  0.00    -0.209 OA 
HETATM   10  H   UNL     1     -10.615  17.793  69.652  1.00  0.00     0.000 HD 
HETATM   11  C   UNL     1      -8.959  14.740  67.575  1.00  0.00    -0.187 C  
HETATM   12  O   UNL     1      -8.434  16.841  68.544  1.00  0.00    -0.223 OA 
HETATM   13  C   UNL     1     -10.056  13.761  67.084  1.00  0.00    -0.241 C  
HETATM   14  H   UNL     1      -7.711  16.944  67.938  1.00  0.00     0.000 HD 
HETATM   15  O   UNL     1      -7.968  14.953  66.550  1.00  0.00    -0.290 OA 
HETATM   16  H   UNL     1      -7.613  14.108  66.301  1.00  0.00     0.000 HD 
BRANCH  13  17
HETATM   17  C   UNL     1      -9.405  12.410  66.691  1.00  0.00    -0.227 C  
HETATM   18  O   UNL     1      -9.134  12.339  65.292  1.00  0.00    -0.400 OA 
HETATM   19  H   UNL     1      -8.735  11.511  65.052  1.00  0.00     0.000 HD 
ENDBRANCH  13  17
ENDBRANCH   4   5
ENDBRANCH   3   4
ENDBRANCH   2   3
TORSDOF 4
ENDMDL
MODEL      128
REMARK 921   NORMALIZED FREE ENERGY PREDICTED BY IDOCK:   -3.28 KCAL/MOL
REMARK 922        TOTAL FREE ENERGY PREDICTED BY IDOCK:   -4.54 KCAL/MOL
REMARK 923 INTER-LIGAND FREE ENERGY PREDICTED BY IDOCK:   -4.23 KCAL/MOL
REMARK 924 INTRA-LIGAND FREE ENERGY PREDICTED BY IDOCK:   -0.31 KCAL/MOL
REMARK 927      BINDING AFFINITY PREDICTED BY RF-SCORE:    0.00 PKD
ROOT
HETATM    1  C   UNL     1      -5.738  20.379  64.505  1.00  0.00    -0.274 C  
HETATM    2  C   UNL     1      -5.588  21.180  65.790  1.00  0.00    -0.266 C  
ENDROOT
BRANCH   2   3
HETATM    3  C   UNL     1      -6.597  20.743  66.857  1.00  0.00    -0.353 C  
BRANCH   3   4
HETATM    4  C   UNL     1      -6.558  19.223  67.126  1.00  0.00    -0.192 C  
BRANCH   4   5
HETATM    5  N   UNL     1      -6.979  18.849  68.488  1.00  0.00    -0.262 NA 
HETATM    6  C   UNL     1      -8.190  19.558  68.936  1.00  0.00    -0.274 C  
HETATM    7  C   UNL     1      -9.484  19.084  68.249  1.00  0.00    -0.348 C  
HETATM    8  C   UNL     1      -9.680  17.594  68.548  1.00  0.00    -0.328 C  
HETATM    9  O   UNL     1     -10.622  19.822  68.705  1.00  0.00    -0.523 OA 
HETATM   10  H   UNL     1     -11.421  19.529  68.282  1.00  0.00     0.000 HD 
HETATM   11  C   UNL     1      -8.445  16.790  68.134  1.00  0.00    -0.213 C  
HETATM   12  O   UNL     1     -10.785  17.025  67.821  1.00  0.00    -0.347 OA 
HETATM   13  C   UNL     1      -7.135  17.382  68.716  1.00  0.00    -0.246 C  
HETATM   14  H   UNL     1     -10.906  16.101  68.007  1.00  0.00     0.000 HD 
HETATM   15  O   UNL     1      -8.628  15.428  68.571  1.00  0.00    -0.158 OA 
HETATM   16  H   UNL     1      -7.862  14.929  68.314  1.00  0.00     0.000 HD 
BRANCH  13  17
HETATM   17  C   UNL     1      -5.932  16.516  68.263  1.00  0.00    -0.120 C  
HETATM   18  O   UNL     1      -6.138  15.958  66.966  1.00  0.00    -0.328 OA 
HETATM   19  H   UNL     1      -5.401  15.427  66.688  1.00  0.00     0.000 HD 
ENDBRANCH  13  17
ENDBRANCH   4   5
ENDBRANCH   3   4
ENDBRANCH   2   3
TORSDOF 4
ENDMDL
MODEL      129
REMARK 921   NORMALIZED FREE ENERGY PREDICTED BY IDOCK:   -3.28 KCAL/MOL
REMARK 922        TOTAL FREE ENERGY PREDICTED BY IDOCK:   -4.53 KCAL/MOL
REMARK 923 INTER-LIGAND FREE ENERGY PREDICTED BY IDOCK:   -4.45 KCAL/MOL
REMARK 924 INTRA-LIGAND FREE ENERGY PREDICTED BY IDOCK:   -0.08 KCAL/MOL
REMARK 927      BINDING AFFINITY PREDICTED BY RF-SCORE:    0.00 PKD
ROOT
HETATM    1  C   UNL     1     -10.963  14.569  70.267  1.00  0.00    -0.005 C  
HETATM    2  C   UNL     1     -12.102  14.633  69.260  1.00  0.00    -0.307 C  
ENDROOT
BRANCH   2   3
HETATM    3  C   UNL     1     -11.877  15.727  68.211  1.00  0.00    -0.116 C  
BRANCH   3   4
HETATM    4  C   UNL     1     -10.882  16.810  68.685  1.00  0.00    -0.336 C  
BRANCH   4   5
HETATM    5  N   UNL     1      -9.752  17.021  67.764  1.00  0.00    -0.253 NA 
HETATM    6  C   UNL     1     -10.010  16.519  66.403  1.00  0.00    -0.303 C  
HETATM    7  C   UNL     1     -11.012  17.369  65.600  1.00  0.00     0.143 C  
HETATM    8  C   UNL     1     -10.456  18.792  65.474  1.00  0.00     0.059 C  
HETATM    9  O   UNL     1     -11.241  16.822  64.298  1.00  0.00    -1.334 OA 
HETATM   10  H   UNL     1     -11.859  17.347  63.803  1.00  0.00     0.000 HD 
HETATM   11  C   UNL     1     -10.135  19.374  66.852  1.00  0.00    -0.388 C  
HETATM   12  O   UNL     1     -11.395  19.700  64.869  1.00  0.00     0.003 OA 
HETATM   13  C   UNL     1      -9.249  18.426  67.700  1.00  0.00    -0.266 C  
HETATM   14  H   UNL     1     -11.051  20.582  64.790  1.00  0.00     0.000 HD 
HETATM   15  O   UNL     1      -9.485  20.647  66.662  1.00  0.00    -0.629 OA 
HETATM   16  H   UNL     1      -9.285  21.009  67.517  1.00  0.00     0.000 HD 
BRANCH  13  17
HETATM   17  C   UNL     1      -8.960  19.082  69.075  1.00  0.00    -0.182 C  
HETATM   18  O   UNL     1     -10.063  19.863  69.533  1.00  0.00    -0.535 OA 
HETATM   19  H   UNL     1      -9.885  20.264  70.375  1.00  0.00     0.000 HD 
ENDBRANCH  13  17
ENDBRANCH   4   5
ENDBRANCH   3   4
ENDBRANCH   2   3
TORSDOF 4
ENDMDL
MODEL      130
REMARK 921   NORMALIZED FREE ENERGY PREDICTED BY IDOCK:   -3.27 KCAL/MOL
REMARK 922        TOTAL FREE ENERGY PREDICTED BY IDOCK:   -4.53 KCAL/MOL
REMARK 923 INTER-LIGAND FREE ENERGY PREDICTED BY IDOCK:   -4.10 KCAL/MOL
REMARK 924 INTRA-LIGAND FREE ENERGY PREDICTED BY IDOCK:   -0.43 KCAL/MOL
REMARK 927      BINDING AFFINITY PREDICTED BY RF-SCORE:    0.00 PKD
ROOT
HETATM    1  C   UNL     1     -11.339  15.680  64.499  1.00  0.00    -0.327 C  
HETATM    2  C   UNL     1     -12.075  14.353  64.617  1.00  0.00    -0.485 C  
ENDROOT
BRANCH   2   3
HETATM    3  C   UNL     1     -11.245  13.188  64.067  1.00  0.00    -0.418 C  
BRANCH   3   4
HETATM    4  C   UNL     1     -10.329  12.553  65.135  1.00  0.00    -0.289 C  
BRANCH   4   5
HETATM    5  N   UNL     1     -10.635  11.139  65.416  1.00  0.00    -0.252 NA 
HETATM    6  C   UNL     1      -9.684  10.204  64.792  1.00  0.00    -0.322 C  
HETATM    7  C   UNL     1      -8.295  10.185  65.456  1.00  0.00    -0.158 C  
HETATM    8  C   UNL     1      -8.459   9.773  66.923  1.00  0.00    -0.120 C  
HETATM    9  O   UNL     1      -7.408   9.278  64.795  1.00  0.00    -0.099 OA 
HETATM   10  H   UNL     1      -6.551   9.266  65.206  1.00  0.00     0.000 HD 
HETATM   11  C   UNL     1      -9.460  10.686  67.636  1.00  0.00    -0.153 C  
HETATM   12  O   UNL     1      -7.231   9.875  67.667  1.00  0.00    -0.087 OA 
HETATM   13  C   UNL     1     -10.799  10.808  66.863  1.00  0.00    -0.229 C  
HETATM   14  H   UNL     1      -7.332   9.619  68.576  1.00  0.00     0.000 HD 
HETATM   15  O   UNL     1      -9.681  10.162  68.961  1.00  0.00    -0.184 OA 
HETATM   16  H   UNL     1     -10.302  10.728  69.403  1.00  0.00     0.000 HD 
BRANCH  13  17
HETATM   17  C   UNL     1     -11.762  11.739  67.644  1.00  0.00    -0.250 C  
HETATM   18  O   UNL     1     -12.393  11.060  68.729  1.00  0.00    -0.730 OA 
HETATM   19  H   UNL     1     -12.983  11.630  69.207  1.00  0.00     0.000 HD 
ENDBRANCH  13  17
ENDBRANCH   4   5
ENDBRANCH   3   4
ENDBRANCH   2   3
TORSDOF 4
ENDMDL
MODEL      131
REMARK 921   NORMALIZED FREE ENERGY PREDICTED BY IDOCK:   -3.25 KCAL/MOL
REMARK 922        TOTAL FREE ENERGY PREDICTED BY IDOCK:   -4.51 KCAL/MOL
REMARK 923 INTER-LIGAND FREE ENERGY PREDICTED BY IDOCK:   -4.02 KCAL/MOL
REMARK 924 INTRA-LIGAND FREE ENERGY PREDICTED BY IDOCK:   -0.48 KCAL/MOL
REMARK 927      BINDING AFFINITY PREDICTED BY RF-SCORE:    0.00 PKD
ROOT
HETATM    1  C   UNL     1      -7.269   2.948  69.659  1.00  0.00    -0.044 C  
HETATM    2  C   UNL     1      -8.556   3.455  70.293  1.00  0.00    -0.105 C  
ENDROOT
BRANCH   2   3
HETATM    3  C   UNL     1      -9.463   4.146  69.268  1.00  0.00    -0.258 C  
BRANCH   3   4
HETATM    4  C   UNL     1     -10.404   5.187  69.913  1.00  0.00    -0.277 C  
BRANCH   4   5
HETATM    5  N   UNL     1      -9.699   6.235  70.673  1.00  0.00    -0.175 NA 
HETATM    6  C   UNL     1      -9.341   7.405  69.853  1.00  0.00    -0.154 C  
HETATM    7  C   UNL     1     -10.541   8.289  69.465  1.00  0.00    -0.213 C  
HETATM    8  C   UNL     1     -11.204   8.804  70.747  1.00  0.00    -0.266 C  
HETATM    9  O   UNL     1     -10.138   9.395  68.652  1.00  0.00    -0.177 OA 
HETATM   10  H   UNL     1     -10.878   9.941  68.413  1.00  0.00     0.000 HD 
HETATM   11  C   UNL     1     -11.582   7.642  71.668  1.00  0.00    -0.267 C  
HETATM   12  O   UNL     1     -12.428   9.517  70.488  1.00  0.00    -0.484 OA 
HETATM   13  C   UNL     1     -10.392   6.680  71.919  1.00  0.00    -0.198 C  
HETATM   14  H   UNL     1     -12.840   9.836  71.282  1.00  0.00     0.000 HD 
HETATM   15  O   UNL     1     -12.064   8.192  72.910  1.00  0.00    -0.603 OA 
HETATM   16  H   UNL     1     -12.298   7.471  73.483  1.00  0.00     0.000 HD 
BRANCH  13  17
HETATM   17  C   UNL     1     -10.844   5.535  72.862  1.00  0.00    -0.269 C  
HETATM   18  O   UNL     1     -12.265   5.460  72.962  1.00  0.00    -0.533 OA 
HETATM   19  H   UNL     1     -12.542   4.759  73.540  1.00  0.00     0.000 HD 
ENDBRANCH  13  17
ENDBRANCH   4   5
ENDBRANCH   3   4
ENDBRANCH   2   3
TORSDOF 4
ENDMDL
MODEL      132
REMARK 921   NORMALIZED FREE ENERGY PREDICTED BY IDOCK:   -3.25 KCAL/MOL
REMARK 922        TOTAL FREE ENERGY PREDICTED BY IDOCK:   -4.50 KCAL/MOL
REMARK 923 INTER-LIGAND FREE ENERGY PREDICTED BY IDOCK:   -4.08 KCAL/MOL
REMARK 924 INTRA-LIGAND FREE ENERGY PREDICTED BY IDOCK:   -0.42 KCAL/MOL
REMARK 927      BINDING AFFINITY PREDICTED BY RF-SCORE:    0.00 PKD
ROOT
HETATM    1  C   UNL     1     -12.430  11.991  63.536  1.00  0.00    -0.654 C  
HETATM    2  C   UNL     1     -10.910  12.061  63.571  1.00  0.00    -0.509 C  
ENDROOT
BRANCH   2   3
HETATM    3  C   UNL     1     -10.302  10.880  64.335  1.00  0.00    -0.430 C  
BRANCH   3   4
HETATM    4  C   UNL     1     -10.102  11.182  65.836  1.00  0.00    -0.247 C  
BRANCH   4   5
HETATM    5  N   UNL     1     -10.598  10.117  66.727  1.00  0.00    -0.202 NA 
HETATM    6  C   UNL     1     -10.026   8.794  66.424  1.00  0.00    -0.275 C  
HETATM    7  C   UNL     1      -8.548   8.642  66.826  1.00  0.00    -0.120 C  
HETATM    8  C   UNL     1      -8.425   8.867  68.337  1.00  0.00    -0.129 C  
HETATM    9  O   UNL     1      -8.041   7.348  66.487  1.00  0.00    -0.110 OA 
HETATM   10  H   UNL     1      -7.128   7.254  66.735  1.00  0.00     0.000 HD 
HETATM   11  C   UNL     1      -9.026  10.217  68.736  1.00  0.00    -0.147 C  
HETATM   12  O   UNL     1      -7.056   8.896  68.782  1.00  0.00    -0.065 OA 
HETATM   13  C   UNL     1     -10.463  10.407  68.186  1.00  0.00    -0.188 C  
HETATM   14  H   UNL     1      -6.980   9.035  69.718  1.00  0.00     0.000 HD 
HETATM   15  O   UNL     1      -9.013  10.307  70.174  1.00  0.00    -0.358 OA 
HETATM   16  H   UNL     1      -9.386  11.144  70.423  1.00  0.00     0.000 HD 
BRANCH  13  17
HETATM   17  C   UNL     1     -11.008  11.788  68.633  1.00  0.00    -0.224 C  
HETATM   18  O   UNL     1      -9.956  12.687  68.979  1.00  0.00    -0.421 OA 
HETATM   19  H   UNL     1     -10.290  13.533  69.253  1.00  0.00     0.000 HD 
ENDBRANCH  13  17
ENDBRANCH   4   5
ENDBRANCH   3   4
ENDBRANCH   2   3
TORSDOF 4
ENDMDL
MODEL      133
REMARK 921   NORMALIZED FREE ENERGY PREDICTED BY IDOCK:   -3.23 KCAL/MOL
REMARK 922        TOTAL FREE ENERGY PREDICTED BY IDOCK:   -4.48 KCAL/MOL
REMARK 923 INTER-LIGAND FREE ENERGY PREDICTED BY IDOCK:   -4.08 KCAL/MOL
REMARK 924 INTRA-LIGAND FREE ENERGY PREDICTED BY IDOCK:   -0.40 KCAL/MOL
REMARK 927      BINDING AFFINITY PREDICTED BY RF-SCORE:    0.00 PKD
ROOT
HETATM    1  C   UNL     1     -11.612  14.633  64.681  1.00  0.00    -0.406 C  
HETATM    2  C   UNL     1     -11.875  14.226  66.123  1.00  0.00    -0.413 C  
ENDROOT
BRANCH   2   3
HETATM    3  C   UNL     1     -10.574  13.958  66.887  1.00  0.00    -0.280 C  
BRANCH   3   4
HETATM    4  C   UNL     1     -10.041  15.211  67.614  1.00  0.00    -0.231 C  
BRANCH   4   5
HETATM    5  N   UNL     1      -9.062  15.982  66.827  1.00  0.00    -0.225 NA 
HETATM    6  C   UNL     1      -9.648  17.159  66.162  1.00  0.00    -0.218 C  
HETATM    7  C   UNL     1     -10.002  18.310  67.121  1.00  0.00    -0.337 C  
HETATM    8  C   UNL     1      -8.724  18.766  67.832  1.00  0.00    -0.296 C  
HETATM    9  O   UNL     1     -10.588  19.413  66.425  1.00  0.00    -0.438 OA 
HETATM   10  H   UNL     1     -10.807  20.124  67.017  1.00  0.00     0.000 HD 
HETATM   11  C   UNL     1      -8.038  17.588  68.527  1.00  0.00    -0.275 C  
HETATM   12  O   UNL     1      -8.981  19.739  68.862  1.00  0.00    -0.267 OA 
HETATM   13  C   UNL     1      -7.832  16.382  67.575  1.00  0.00    -0.146 C  
HETATM   14  H   UNL     1      -8.188  20.022  69.302  1.00  0.00     0.000 HD 
HETATM   15  O   UNL     1      -6.775  18.047  69.050  1.00  0.00    -0.239 OA 
HETATM   16  H   UNL     1      -6.349  17.316  69.481  1.00  0.00     0.000 HD 
BRANCH  13  17
HETATM   17  C   UNL     1      -7.129  15.233  68.342  1.00  0.00    -0.111 C  
HETATM   18  O   UNL     1      -7.362  15.313  69.748  1.00  0.00    -0.199 OA 
HETATM   19  H   UNL     1      -6.931  14.609  70.218  1.00  0.00     0.000 HD 
ENDBRANCH  13  17
ENDBRANCH   4   5
ENDBRANCH   3   4
ENDBRANCH   2   3
TORSDOF 4
ENDMDL
MODEL      134
REMARK 921   NORMALIZED FREE ENERGY PREDICTED BY IDOCK:   -3.22 KCAL/MOL
REMARK 922        TOTAL FREE ENERGY PREDICTED BY IDOCK:   -4.46 KCAL/MOL
REMARK 923 INTER-LIGAND FREE ENERGY PREDICTED BY IDOCK:   -4.09 KCAL/MOL
REMARK 924 INTRA-LIGAND FREE ENERGY PREDICTED BY IDOCK:   -0.37 KCAL/MOL
REMARK 927      BINDING AFFINITY PREDICTED BY RF-SCORE:    0.00 PKD
ROOT
HETATM    1  C   UNL     1      -8.774   7.893  70.562  1.00  0.00    -0.136 C  
HETATM    2  C   UNL     1      -8.335   8.741  69.377  1.00  0.00    -0.117 C  
ENDROOT
BRANCH   2   3
HETATM    3  C   UNL     1      -9.526   9.404  68.677  1.00  0.00    -0.147 C  
BRANCH   3   4
HETATM    4  C   UNL     1     -10.166  10.526  69.525  1.00  0.00    -0.200 C  
BRANCH   4   5
HETATM    5  N   UNL     1     -11.536  10.875  69.111  1.00  0.00    -0.296 NA 
HETATM    6  C   UNL     1     -12.526  10.719  70.190  1.00  0.00    -0.285 C  
HETATM    7  C   UNL     1     -12.430  11.791  71.291  1.00  0.00    -0.246 C  
HETATM    8  C   UNL     1     -12.649  13.168  70.654  1.00  0.00    -0.211 C  
HETATM    9  O   UNL     1     -13.398  11.576  72.322  1.00  0.00    -0.624 OA 
HETATM   10  H   UNL     1     -13.338  12.238  73.001  1.00  0.00     0.000 HD 
HETATM   11  C   UNL     1     -11.670  13.395  69.499  1.00  0.00    -0.324 C  
HETATM   12  O   UNL     1     -12.425  14.248  71.580  1.00  0.00    -0.338 OA 
HETATM   13  C   UNL     1     -11.677  12.223  68.483  1.00  0.00    -0.331 C  
HETATM   14  H   UNL     1     -12.561  15.100  71.186  1.00  0.00     0.000 HD 
HETATM   15  O   UNL     1     -12.019  14.634  68.852  1.00  0.00    -0.393 OA 
HETATM   16  H   UNL     1     -11.412  14.775  68.135  1.00  0.00     0.000 HD 
BRANCH  13  17
HETATM   17  C   UNL     1     -10.671  12.524  67.343  1.00  0.00    -0.229 C  
HETATM   18  O   UNL     1      -9.763  13.566  67.697  1.00  0.00    -0.218 OA 
HETATM   19  H   UNL     1      -9.147  13.750  66.997  1.00  0.00     0.000 HD 
ENDBRANCH  13  17
ENDBRANCH   4   5
ENDBRANCH   3   4
ENDBRANCH   2   3
TORSDOF 4
ENDMDL
MODEL      135
REMARK 921   NORMALIZED FREE ENERGY PREDICTED BY IDOCK:   -3.21 KCAL/MOL
REMARK 922        TOTAL FREE ENERGY PREDICTED BY IDOCK:   -4.45 KCAL/MOL
REMARK 923 INTER-LIGAND FREE ENERGY PREDICTED BY IDOCK:   -4.05 KCAL/MOL
REMARK 924 INTRA-LIGAND FREE ENERGY PREDICTED BY IDOCK:   -0.40 KCAL/MOL
REMARK 927      BINDING AFFINITY PREDICTED BY RF-SCORE:    0.00 PKD
ROOT
HETATM    1  C   UNL     1     -11.103  11.227  68.629  1.00  0.00    -0.286 C  
HETATM    2  C   UNL     1     -11.529  12.670  68.403  1.00  0.00    -0.350 C  
ENDROOT
BRANCH   2   3
HETATM    3  C   UNL     1     -10.840  13.284  67.179  1.00  0.00    -0.268 C  
BRANCH   3   4
HETATM    4  C   UNL     1      -9.856  14.413  67.553  1.00  0.00    -0.220 C  
BRANCH   4   5
HETATM    5  N   UNL     1      -9.093  14.941  66.407  1.00  0.00    -0.278 NA 
HETATM    6  C   UNL     1      -9.919  15.723  65.472  1.00  0.00    -0.306 C  
HETATM    7  C   UNL     1     -10.342  17.102  66.011  1.00  0.00    -0.309 C  
HETATM    8  C   UNL     1      -9.080  17.918  66.314  1.00  0.00    -0.176 C  
HETATM    9  O   UNL     1     -11.159  17.806  65.072  1.00  0.00    -0.717 OA 
HETATM   10  H   UNL     1     -11.420  18.658  65.405  1.00  0.00     0.000 HD 
HETATM   11  C   UNL     1      -8.154  17.154  67.263  1.00  0.00    -0.186 C  
HETATM   12  O   UNL     1      -9.373  19.168  66.967  1.00  0.00    -0.295 OA 
HETATM   13  C   UNL     1      -7.867  15.712  66.771  1.00  0.00    -0.176 C  
HETATM   14  H   UNL     1      -8.591  19.673  67.154  1.00  0.00     0.000 HD 
HETATM   15  O   UNL     1      -6.928  17.902  67.393  1.00  0.00    -0.181 OA 
HETATM   16  H   UNL     1      -6.353  17.429  67.981  1.00  0.00     0.000 HD 
BRANCH  13  17
HETATM   17  C   UNL     1      -6.921  15.004  67.775  1.00  0.00    -0.174 C  
HETATM   18  O   UNL     1      -6.873  15.682  69.029  1.00  0.00    -0.122 OA 
HETATM   19  H   UNL     1      -6.293  15.248  69.643  1.00  0.00     0.000 HD 
ENDBRANCH  13  17
ENDBRANCH   4   5
ENDBRANCH   3   4
ENDBRANCH   2   3
TORSDOF 4
ENDMDL
MODEL      136
REMARK 921   NORMALIZED FREE ENERGY PREDICTED BY IDOCK:   -3.21 KCAL/MOL
REMARK 922        TOTAL FREE ENERGY PREDICTED BY IDOCK:   -4.45 KCAL/MOL
REMARK 923 INTER-LIGAND FREE ENERGY PREDICTED BY IDOCK:   -4.03 KCAL/MOL
REMARK 924 INTRA-LIGAND FREE ENERGY PREDICTED BY IDOCK:   -0.41 KCAL/MOL
REMARK 927      BINDING AFFINITY PREDICTED BY RF-SCORE:    0.00 PKD
ROOT
HETATM    1  C   UNL     1     -11.702  11.952  69.491  1.00  0.00    -0.410 C  
HETATM    2  C   UNL     1     -12.649  10.883  70.015  1.00  0.00    -0.253 C  
ENDROOT
BRANCH   2   3
HETATM    3  C   UNL     1     -12.077  10.165  71.242  1.00  0.00    -0.489 C  
BRANCH   3   4
HETATM    4  C   UNL     1     -10.769   9.405  70.930  1.00  0.00    -0.323 C  
BRANCH   4   5
HETATM    5  N   UNL     1     -10.178   8.734  72.102  1.00  0.00    -0.326 NA 
HETATM    6  C   UNL     1     -11.120   7.834  72.791  1.00  0.00    -0.398 C  
HETATM    7  C   UNL     1     -11.427   6.537  72.020  1.00  0.00    -0.300 C  
HETATM    8  C   UNL     1     -10.117   5.769  71.812  1.00  0.00    -0.187 C  
HETATM    9  O   UNL     1     -12.362   5.716  72.724  1.00  0.00    -0.522 OA 
HETATM   10  H   UNL     1     -12.552   4.915  72.248  1.00  0.00     0.000 HD 
HETATM   11  C   UNL     1      -9.073   6.651  71.122  1.00  0.00    -0.152 C  
HETATM   12  O   UNL     1     -10.281   4.615  70.966  1.00  0.00    -0.202 OA 
HETATM   13  C   UNL     1      -8.895   8.018  71.834  1.00  0.00    -0.142 C  
HETATM   14  H   UNL     1      -9.470   4.140  70.837  1.00  0.00     0.000 HD 
HETATM   15  O   UNL     1      -7.827   5.928  71.087  1.00  0.00    -0.106 OA 
HETATM   16  H   UNL     1      -7.179   6.475  70.659  1.00  0.00     0.000 HD 
BRANCH  13  17
HETATM   17  C   UNL     1      -7.823   8.852  71.087  1.00  0.00    -0.140 C  
HETATM   18  O   UNL     1      -7.661   8.422  69.736  1.00  0.00    -0.083 OA 
HETATM   19  H   UNL     1      -7.004   8.933  69.279  1.00  0.00     0.000 HD 
ENDBRANCH  13  17
ENDBRANCH   4   5
ENDBRANCH   3   4
ENDBRANCH   2   3
TORSDOF 4
ENDMDL
MODEL      137
REMARK 921   NORMALIZED FREE ENERGY PREDICTED BY IDOCK:   -3.19 KCAL/MOL
REMARK 922        TOTAL FREE ENERGY PREDICTED BY IDOCK:   -4.43 KCAL/MOL
REMARK 923 INTER-LIGAND FREE ENERGY PREDICTED BY IDOCK:   -4.39 KCAL/MOL
REMARK 924 INTRA-LIGAND FREE ENERGY PREDICTED BY IDOCK:   -0.04 KCAL/MOL
REMARK 927      BINDING AFFINITY PREDICTED BY RF-SCORE:    0.00 PKD
ROOT
HETATM    1  C   UNL     1      -8.716  11.622  66.326  1.00  0.00    -0.136 C  
HETATM    2  C   UNL     1      -9.641  10.571  66.921  1.00  0.00    -0.206 C  
ENDROOT
BRANCH   2   3
HETATM    3  C   UNL     1     -10.938  11.188  67.454  1.00  0.00    -0.347 C  
BRANCH   3   4
HETATM    4  C   UNL     1     -10.699  12.504  68.226  1.00  0.00    -0.228 C  
BRANCH   4   5
HETATM    5  N   UNL     1     -11.893  13.361  68.323  1.00  0.00    -0.352 NA 
HETATM    6  C   UNL     1     -12.054  13.985  69.648  1.00  0.00    -0.355 C  
HETATM    7  C   UNL     1     -11.044  15.110  69.938  1.00  0.00    -0.284 C  
HETATM    8  C   UNL     1     -11.217  16.208  68.883  1.00  0.00    -0.351 C  
HETATM    9  O   UNL     1     -11.232  15.662  71.245  1.00  0.00    -0.350 OA 
HETATM   10  H   UNL     1     -10.608  16.356  71.423  1.00  0.00     0.000 HD 
HETATM   11  C   UNL     1     -11.092  15.630  67.471  1.00  0.00    -0.289 C  
HETATM   12  O   UNL     1     -10.212  17.234  68.982  1.00  0.00    -0.316 OA 
HETATM   13  C   UNL     1     -12.010  14.399  67.256  1.00  0.00    -0.377 C  
HETATM   14  H   UNL     1     -10.319  17.914  68.328  1.00  0.00     0.000 HD 
HETATM   15  O   UNL     1     -11.407  16.674  66.529  1.00  0.00     0.325 OA 
HETATM   16  H   UNL     1     -11.329  16.316  65.653  1.00  0.00     0.000 HD 
BRANCH  13  17
HETATM   17  C   UNL     1     -11.835  13.873  65.808  1.00  0.00    -0.378 C  
HETATM   18  O   UNL     1     -13.054  13.938  65.069  1.00  0.00    -0.749 OA 
HETATM   19  H   UNL     1     -12.947  13.615  64.182  1.00  0.00     0.000 HD 
ENDBRANCH  13  17
ENDBRANCH   4   5
ENDBRANCH   3   4
ENDBRANCH   2   3
TORSDOF 4
ENDMDL
MODEL      138
REMARK 921   NORMALIZED FREE ENERGY PREDICTED BY IDOCK:   -3.16 KCAL/MOL
REMARK 922        TOTAL FREE ENERGY PREDICTED BY IDOCK:   -4.39 KCAL/MOL
REMARK 923 INTER-LIGAND FREE ENERGY PREDICTED BY IDOCK:   -4.02 KCAL/MOL
REMARK 924 INTRA-LIGAND FREE ENERGY PREDICTED BY IDOCK:   -0.37 KCAL/MOL
REMARK 927      BINDING AFFINITY PREDICTED BY RF-SCORE:    0.00 PKD
ROOT
HETATM    1  C   UNL     1      -8.569  10.204  67.549  1.00  0.00    -0.118 C  
HETATM    2  C   UNL     1      -8.970  10.788  68.897  1.00  0.00    -0.158 C  
ENDROOT
BRANCH   2   3
HETATM    3  C   UNL     1      -8.463   9.932  70.063  1.00  0.00    -0.191 C  
BRANCH   3   4
HETATM    4  C   UNL     1      -9.611   9.343  70.911  1.00  0.00    -0.231 C  
BRANCH   4   5
HETATM    5  N   UNL     1     -10.732   8.818  70.110  1.00  0.00    -0.222 NA 
HETATM    6  C   UNL     1     -10.577   7.396  69.757  1.00  0.00    -0.236 C  
HETATM    7  C   UNL     1     -10.779   6.430  70.939  1.00  0.00    -0.250 C  
HETATM    8  C   UNL     1     -12.195   6.621  71.491  1.00  0.00    -0.340 C  
HETATM    9  O   UNL     1     -10.594   5.068  70.543  1.00  0.00    -0.209 OA 
HETATM   10  H   UNL     1     -10.718   4.472  71.273  1.00  0.00     0.000 HD 
HETATM   11  C   UNL     1     -12.444   8.087  71.857  1.00  0.00    -0.330 C  
HETATM   12  O   UNL     1     -12.425   5.868  72.697  1.00  0.00    -0.537 OA 
HETATM   13  C   UNL     1     -12.085   9.051  70.697  1.00  0.00    -0.036 C  
HETATM   14  H   UNL     1     -13.303   5.986  73.039  1.00  0.00     0.000 HD 
HETATM   15  O   UNL     1     -13.829   8.228  72.229  1.00  0.00    -0.511 OA 
HETATM   16  H   UNL     1     -13.984   9.137  72.456  1.00  0.00     0.000 HD 
BRANCH  13  17
HETATM   17  C   UNL     1     -12.367  10.511  71.135  1.00  0.00    -0.405 C  
HETATM   18  O   UNL     1     -12.790  10.585  72.496  1.00  0.00    -0.246 OA 
HETATM   19  H   UNL     1     -12.963  11.480  72.763  1.00  0.00     0.000 HD 
ENDBRANCH  13  17
ENDBRANCH   4   5
ENDBRANCH   3   4
ENDBRANCH   2   3
TORSDOF 4
ENDMDL
MODEL      139
REMARK 921   NORMALIZED FREE ENERGY PREDICTED BY IDOCK:   -3.16 KCAL/MOL
REMARK 922        TOTAL FREE ENERGY PREDICTED BY IDOCK:   -4.39 KCAL/MOL
REMARK 923 INTER-LIGAND FREE ENERGY PREDICTED BY IDOCK:   -3.94 KCAL/MOL
REMARK 924 INTRA-LIGAND FREE ENERGY PREDICTED BY IDOCK:   -0.44 KCAL/MOL
REMARK 927      BINDING AFFINITY PREDICTED BY RF-SCORE:    0.00 PKD
ROOT
HETATM    1  C   UNL     1      -6.919   2.714  71.123  1.00  0.00    -0.032 C  
HETATM    2  C   UNL     1      -7.519   4.109  71.015  1.00  0.00    -0.047 C  
ENDROOT
BRANCH   2   3
HETATM    3  C   UNL     1      -9.043   4.088  71.176  1.00  0.00    -0.180 C  
BRANCH   3   4
HETATM    4  C   UNL     1      -9.786   4.210  69.828  1.00  0.00    -0.208 C  
BRANCH   4   5
HETATM    5  N   UNL     1      -9.043   4.971  68.807  1.00  0.00    -0.106 NA 
HETATM    6  C   UNL     1      -8.617   4.146  67.664  1.00  0.00    -0.100 C  
HETATM    7  C   UNL     1      -9.767   3.731  66.727  1.00  0.00    -0.120 C  
HETATM    8  C   UNL     1     -10.425   4.997  66.168  1.00  0.00    -0.286 C  
HETATM    9  O   UNL     1      -9.299   2.914  65.650  1.00  0.00    -0.248 OA 
HETATM   10  H   UNL     1     -10.008   2.658  65.072  1.00  0.00     0.000 HD 
HETATM   11  C   UNL     1     -10.871   5.924  67.302  1.00  0.00    -0.260 C  
HETATM   12  O   UNL     1     -11.609   4.712  65.400  1.00  0.00    -1.015 OA 
HETATM   13  C   UNL     1      -9.733   6.202  68.317  1.00  0.00    -0.121 C  
HETATM   14  H   UNL     1     -12.017   5.497  65.054  1.00  0.00     0.000 HD 
HETATM   15  O   UNL     1     -11.346   7.153  66.717  1.00  0.00    -0.479 OA 
HETATM   16  H   UNL     1     -11.623   7.728  67.420  1.00  0.00     0.000 HD 
BRANCH  13  17
HETATM   17  C   UNL     1     -10.254   7.148  69.429  1.00  0.00    -0.189 C  
HETATM   18  O   UNL     1     -11.674   7.091  69.553  1.00  0.00    -0.552 OA 
HETATM   19  H   UNL     1     -11.993   7.671  70.234  1.00  0.00     0.000 HD 
ENDBRANCH  13  17
ENDBRANCH   4   5
ENDBRANCH   3   4
ENDBRANCH   2   3
TORSDOF 4
ENDMDL
MODEL      140
REMARK 921   NORMALIZED FREE ENERGY PREDICTED BY IDOCK:   -3.16 KCAL/MOL
REMARK 922        TOTAL FREE ENERGY PREDICTED BY IDOCK:   -4.39 KCAL/MOL
REMARK 923 INTER-LIGAND FREE ENERGY PREDICTED BY IDOCK:   -4.18 KCAL/MOL
REMARK 924 INTRA-LIGAND FREE ENERGY PREDICTED BY IDOCK:   -0.20 KCAL/MOL
REMARK 927      BINDING AFFINITY PREDICTED BY RF-SCORE:    0.00 PKD
ROOT
HETATM    1  C   UNL     1      -9.076   7.822  70.135  1.00  0.00    -0.153 C  
HETATM    2  C   UNL     1      -9.775   9.032  69.530  1.00  0.00    -0.171 C  
ENDROOT
BRANCH   2   3
HETATM    3  C   UNL     1      -9.176   9.417  68.173  1.00  0.00    -0.135 C  
BRANCH   3   4
HETATM    4  C   UNL     1     -10.115  10.319  67.342  1.00  0.00    -0.202 C  
BRANCH   4   5
HETATM    5  N   UNL     1      -9.407  11.318  66.523  1.00  0.00    -0.180 NA 
HETATM    6  C   UNL     1      -8.749  10.738  65.340  1.00  0.00    -0.181 C  
HETATM    7  C   UNL     1      -9.723  10.304  64.229  1.00  0.00    -0.308 C  
HETATM    8  C   UNL     1     -10.516  11.531  63.766  1.00  0.00    -0.405 C  
HETATM    9  O   UNL     1      -9.031   9.727  63.118  1.00  0.00    -0.231 OA 
HETATM   10  H   UNL     1      -9.632   9.460  62.433  1.00  0.00     0.000 HD 
HETATM   11  C   UNL     1     -11.210  12.209  64.950  1.00  0.00    -0.323 C  
HETATM   12  O   UNL     1     -11.561  11.194  62.834  1.00  0.00    -0.784 OA 
HETATM   13  C   UNL     1     -10.233  12.496  66.119  1.00  0.00    -0.252 C  
HETATM   14  H   UNL     1     -12.052  11.954  62.547  1.00  0.00     0.000 HD 
HETATM   15  O   UNL     1     -11.814  13.429  64.477  1.00  0.00    -0.365 OA 
HETATM   16  H   UNL     1     -12.244  13.850  65.211  1.00  0.00     0.000 HD 
BRANCH  13  17
HETATM   17  C   UNL     1     -11.001  13.186  67.275  1.00  0.00    -0.268 C  
HETATM   18  O   UNL     1     -10.113  13.749  68.240  1.00  0.00    -0.227 OA 
HETATM   19  H   UNL     1     -10.584  14.171  68.949  1.00  0.00     0.000 HD 
ENDBRANCH  13  17
ENDBRANCH   4   5
ENDBRANCH   3   4
ENDBRANCH   2   3
TORSDOF 4
ENDMDL
MODEL      141
REMARK 921   NORMALIZED FREE ENERGY PREDICTED BY IDOCK:   -3.15 KCAL/MOL
REMARK 922        TOTAL FREE ENERGY PREDICTED BY IDOCK:   -4.38 KCAL/MOL
REMARK 923 INTER-LIGAND FREE ENERGY PREDICTED BY IDOCK:   -4.18 KCAL/MOL
REMARK 924 INTRA-LIGAND FREE ENERGY PREDICTED BY IDOCK:   -0.20 KCAL/MOL
REMARK 927      BINDING AFFINITY PREDICTED BY RF-SCORE:    0.00 PKD
ROOT
HETATM    1  C   UNL     1      -9.727   5.784  68.148  1.00  0.00    -0.146 C  
HETATM    2  C   UNL     1     -10.871   6.717  68.520  1.00  0.00    -0.319 C  
ENDROOT
BRANCH   2   3
HETATM    3  C   UNL     1     -10.375   8.135  68.822  1.00  0.00    -0.220 C  
BRANCH   3   4
HETATM    4  C   UNL     1     -10.689   9.130  67.684  1.00  0.00    -0.189 C  
BRANCH   4   5
HETATM    5  N   UNL     1      -9.945  10.399  67.781  1.00  0.00    -0.171 NA 
HETATM    6  C   UNL     1      -8.968  10.584  66.695  1.00  0.00    -0.141 C  
HETATM    7  C   UNL     1      -9.604  10.894  65.326  1.00  0.00    -0.229 C  
HETATM    8  C   UNL     1     -10.418  12.187  65.446  1.00  0.00    -0.270 C  
HETATM    9  O   UNL     1      -8.611  11.040  64.307  1.00  0.00    -0.371 OA 
HETATM   10  H   UNL     1      -9.003  11.232  63.463  1.00  0.00     0.000 HD 
HETATM   11  C   UNL     1     -11.441  12.082  66.579  1.00  0.00    -0.349 C  
HETATM   12  O   UNL     1     -11.174  12.476  64.255  1.00  0.00    -0.313 OA 
HETATM   13  C   UNL     1     -10.798  11.618  67.912  1.00  0.00    -0.210 C  
HETATM   14  H   UNL     1     -11.679  13.277  64.329  1.00  0.00     0.000 HD 
HETATM   15  O   UNL     1     -12.071  13.369  66.737  1.00  0.00    -0.391 OA 
HETATM   16  H   UNL     1     -12.706  13.304  67.440  1.00  0.00     0.000 HD 
BRANCH  13  17
HETATM   17  C   UNL     1     -11.888  11.541  69.011  1.00  0.00    -0.343 C  
HETATM   18  O   UNL     1     -11.618  12.435  70.090  1.00  0.00    -0.514 OA 
HETATM   19  H   UNL     1     -12.286  12.387  70.764  1.00  0.00     0.000 HD 
ENDBRANCH  13  17
ENDBRANCH   4   5
ENDBRANCH   3   4
ENDBRANCH   2   3
TORSDOF 4
ENDMDL
MODEL      142
REMARK 921   NORMALIZED FREE ENERGY PREDICTED BY IDOCK:   -3.14 KCAL/MOL
REMARK 922        TOTAL FREE ENERGY PREDICTED BY IDOCK:   -4.37 KCAL/MOL
REMARK 923 INTER-LIGAND FREE ENERGY PREDICTED BY IDOCK:   -3.92 KCAL/MOL
REMARK 924 INTRA-LIGAND FREE ENERGY PREDICTED BY IDOCK:   -0.45 KCAL/MOL
REMARK 927      BINDING AFFINITY PREDICTED BY RF-SCORE:    0.00 PKD
ROOT
HETATM    1  C   UNL     1     -12.430   8.475  72.151  1.00  0.00    -0.437 C  
HETATM    2  C   UNL     1     -11.385   9.483  71.694  1.00  0.00    -0.411 C  
ENDROOT
BRANCH   2   3
HETATM    3  C   UNL     1     -11.815  10.210  70.415  1.00  0.00    -0.373 C  
BRANCH   3   4
HETATM    4  C   UNL     1     -10.768  10.095  69.285  1.00  0.00    -0.231 C  
BRANCH   4   5
HETATM    5  N   UNL     1      -9.965   8.861  69.343  1.00  0.00    -0.187 NA 
HETATM    6  C   UNL     1     -10.648   7.695  68.757  1.00  0.00    -0.145 C  
HETATM    7  C   UNL     1     -10.745   7.733  67.220  1.00  0.00    -0.255 C  
HETATM    8  C   UNL     1      -9.327   7.782  66.640  1.00  0.00    -0.188 C  
HETATM    9  O   UNL     1     -11.437   6.590  66.709  1.00  0.00    -0.774 OA 
HETATM   10  H   UNL     1     -11.497   6.613  65.761  1.00  0.00     0.000 HD 
HETATM   11  C   UNL     1      -8.541   8.957  67.226  1.00  0.00    -0.118 C  
HETATM   12  O   UNL     1      -9.320   7.973  65.213  1.00  0.00    -0.359 OA 
HETATM   13  C   UNL     1      -8.588   8.982  68.776  1.00  0.00    -0.132 C  
HETATM   14  H   UNL     1      -8.442   8.003  64.854  1.00  0.00     0.000 HD 
HETATM   15  O   UNL     1      -7.181   8.865  66.758  1.00  0.00    -0.080 OA 
HETATM   16  H   UNL     1      -6.692   9.594  67.122  1.00  0.00     0.000 HD 
BRANCH  13  17
HETATM   17  C   UNL     1      -7.768  10.191  69.297  1.00  0.00    -0.126 C  
HETATM   18  O   UNL     1      -7.598  11.190  68.293  1.00  0.00    -0.099 OA 
HETATM   19  H   UNL     1      -7.096  11.930  68.613  1.00  0.00     0.000 HD 
ENDBRANCH  13  17
ENDBRANCH   4   5
ENDBRANCH   3   4
ENDBRANCH   2   3
TORSDOF 4
ENDMDL
MODEL      143
REMARK 921   NORMALIZED FREE ENERGY PREDICTED BY IDOCK:   -3.14 KCAL/MOL
REMARK 922        TOTAL FREE ENERGY PREDICTED BY IDOCK:   -4.36 KCAL/MOL
REMARK 923 INTER-LIGAND FREE ENERGY PREDICTED BY IDOCK:   -4.11 KCAL/MOL
REMARK 924 INTRA-LIGAND FREE ENERGY PREDICTED BY IDOCK:   -0.26 KCAL/MOL
REMARK 927      BINDING AFFINITY PREDICTED BY RF-SCORE:    0.00 PKD
ROOT
HETATM    1  C   UNL     1      -8.789   9.340  68.812  1.00  0.00    -0.132 C  
HETATM    2  C   UNL     1     -10.122   9.390  68.080  1.00  0.00    -0.215 C  
ENDROOT
BRANCH   2   3
HETATM    3  C   UNL     1     -10.298  10.699  67.302  1.00  0.00    -0.265 C  
BRANCH   3   4
HETATM    4  C   UNL     1      -9.410  11.839  67.847  1.00  0.00    -0.184 C  
BRANCH   4   5
HETATM    5  N   UNL     1      -9.358  13.022  66.970  1.00  0.00    -0.229 NA 
HETATM    6  C   UNL     1     -10.603  13.240  66.215  1.00  0.00    -0.289 C  
HETATM    7  C   UNL     1     -11.776  13.749  67.073  1.00  0.00    -0.390 C  
HETATM    8  C   UNL     1     -11.376  15.085  67.707  1.00  0.00    -0.330 C  
HETATM    9  O   UNL     1     -12.963  13.920  66.293  1.00  0.00    -0.395 OA 
HETATM   10  H   UNL     1     -13.687  14.234  66.823  1.00  0.00     0.000 HD 
HETATM   11  C   UNL     1     -10.068  14.945  68.490  1.00  0.00    -0.232 C  
HETATM   12  O   UNL     1     -12.352  15.564  68.651  1.00  0.00    -0.552 OA 
HETATM   13  C   UNL     1      -8.945  14.287  67.647  1.00  0.00    -0.194 C  
HETATM   14  H   UNL     1     -12.104  16.392  69.044  1.00  0.00     0.000 HD 
HETATM   15  O   UNL     1      -9.669  16.256  68.937  1.00  0.00    -0.227 OA 
HETATM   16  H   UNL     1      -8.858  16.170  69.423  1.00  0.00     0.000 HD 
BRANCH  13  17
HETATM   17  C   UNL     1      -7.654  14.184  68.499  1.00  0.00    -0.129 C  
HETATM   18  O   UNL     1      -7.905  14.452  69.878  1.00  0.00    -0.344 OA 
HETATM   19  H   UNL     1      -7.113  14.389  70.399  1.00  0.00     0.000 HD 
ENDBRANCH  13  17
ENDBRANCH   4   5
ENDBRANCH   3   4
ENDBRANCH   2   3
TORSDOF 4
ENDMDL
MODEL      144
REMARK 921   NORMALIZED FREE ENERGY PREDICTED BY IDOCK:   -3.10 KCAL/MOL
REMARK 922        TOTAL FREE ENERGY PREDICTED BY IDOCK:   -4.32 KCAL/MOL
REMARK 923 INTER-LIGAND FREE ENERGY PREDICTED BY IDOCK:   -3.79 KCAL/MOL
REMARK 924 INTRA-LIGAND FREE ENERGY PREDICTED BY IDOCK:   -0.53 KCAL/MOL
REMARK 927      BINDING AFFINITY PREDICTED BY RF-SCORE:    0.00 PKD
ROOT
HETATM    1  C   UNL     1      -6.723  12.584  67.406  1.00  0.00    -0.147 C  
HETATM    2  C   UNL     1      -7.381  13.915  67.739  1.00  0.00    -0.170 C  
ENDROOT
BRANCH   2   3
HETATM    3  C   UNL     1      -8.856  13.743  68.118  1.00  0.00    -0.185 C  
BRANCH   3   4
HETATM    4  C   UNL     1      -9.256  12.262  68.299  1.00  0.00    -0.189 C  
BRANCH   4   5
HETATM    5  N   UNL     1     -10.498  11.893  67.598  1.00  0.00    -0.204 NA 
HETATM    6  C   UNL     1     -10.479  12.233  66.165  1.00  0.00    -0.240 C  
HETATM    7  C   UNL     1      -9.561  11.333  65.318  1.00  0.00    -0.232 C  
HETATM    8  C   UNL     1     -10.044   9.884  65.445  1.00  0.00    -0.200 C  
HETATM    9  O   UNL     1      -9.565  11.724  63.942  1.00  0.00    -0.439 OA 
HETATM   10  H   UNL     1      -8.999  11.168  63.419  1.00  0.00     0.000 HD 
HETATM   11  C   UNL     1     -10.117   9.463  66.915  1.00  0.00    -0.248 C  
HETATM   12  O   UNL     1      -9.154   8.947  64.809  1.00  0.00    -0.422 OA 
HETATM   13  C   UNL     1     -10.920  10.471  67.777  1.00  0.00    -0.313 C  
HETATM   14  H   UNL     1      -9.453   8.049  64.888  1.00  0.00     0.000 HD 
HETATM   15  O   UNL     1     -10.711   8.151  66.977  1.00  0.00    -0.390 OA 
HETATM   16  H   UNL     1     -10.757   7.889  67.889  1.00  0.00     0.000 HD 
BRANCH  13  17
HETATM   17  C   UNL     1     -10.958   9.978  69.246  1.00  0.00    -0.228 C  
HETATM   18  O   UNL     1      -9.951   9.000  69.504  1.00  0.00    -0.181 OA 
HETATM   19  H   UNL     1      -9.975   8.699  70.405  1.00  0.00     0.000 HD 
ENDBRANCH  13  17
ENDBRANCH   4   5
ENDBRANCH   3   4
ENDBRANCH   2   3
TORSDOF 4
ENDMDL
MODEL      145
REMARK 921   NORMALIZED FREE ENERGY PREDICTED BY IDOCK:   -3.10 KCAL/MOL
REMARK 922        TOTAL FREE ENERGY PREDICTED BY IDOCK:   -4.32 KCAL/MOL
REMARK 923 INTER-LIGAND FREE ENERGY PREDICTED BY IDOCK:   -3.87 KCAL/MOL
REMARK 924 INTRA-LIGAND FREE ENERGY PREDICTED BY IDOCK:   -0.45 KCAL/MOL
REMARK 927      BINDING AFFINITY PREDICTED BY RF-SCORE:    0.00 PKD
ROOT
HETATM    1  C   UNL     1      -6.706  15.267  69.530  1.00  0.00    -0.172 C  
HETATM    2  C   UNL     1      -6.456  14.539  68.217  1.00  0.00    -0.118 C  
ENDROOT
BRANCH   2   3
HETATM    3  C   UNL     1      -7.762  14.078  67.562  1.00  0.00    -0.197 C  
BRANCH   3   4
HETATM    4  C   UNL     1      -8.920  13.941  68.574  1.00  0.00    -0.141 C  
BRANCH   4   5
HETATM    5  N   UNL     1     -10.244  14.262  68.011  1.00  0.00    -0.223 NA 
HETATM    6  C   UNL     1     -11.097  13.076  67.822  1.00  0.00    -0.262 C  
HETATM    7  C   UNL     1     -11.639  12.478  69.133  1.00  0.00    -0.320 C  
HETATM    8  C   UNL     1     -12.475  13.544  69.849  1.00  0.00    -0.134 C  
HETATM    9  O   UNL     1     -12.440  11.318  68.890  1.00  0.00    -0.471 OA 
HETATM   10  H   UNL     1     -12.775  10.949  69.700  1.00  0.00     0.000 HD 
HETATM   11  C   UNL     1     -11.662  14.824  70.058  1.00  0.00    -0.295 C  
HETATM   12  O   UNL     1     -12.899  13.126  71.160  1.00  0.00    -0.330 OA 
HETATM   13  C   UNL     1     -10.999  15.320  68.747  1.00  0.00    -0.260 C  
HETATM   14  H   UNL     1     -13.417  13.787  71.604  1.00  0.00     0.000 HD 
HETATM   15  O   UNL     1     -12.539  15.831  70.599  1.00  0.00    -0.426 OA 
HETATM   16  H   UNL     1     -12.035  16.625  70.728  1.00  0.00     0.000 HD 
BRANCH  13  17
HETATM   17  C   UNL     1     -10.200  16.617  69.032  1.00  0.00    -0.301 C  
HETATM   18  O   UNL     1     -10.993  17.785  68.823  1.00  0.00    -0.217 OA 
HETATM   19  H   UNL     1     -10.503  18.580  68.998  1.00  0.00     0.000 HD 
ENDBRANCH  13  17
ENDBRANCH   4   5
ENDBRANCH   3   4
ENDBRANCH   2   3
TORSDOF 4
ENDMDL
MODEL      146
REMARK 921   NORMALIZED FREE ENERGY PREDICTED BY IDOCK:   -3.07 KCAL/MOL
REMARK 922        TOTAL FREE ENERGY PREDICTED BY IDOCK:   -4.28 KCAL/MOL
REMARK 923 INTER-LIGAND FREE ENERGY PREDICTED BY IDOCK:   -4.39 KCAL/MOL
REMARK 924 INTRA-LIGAND FREE ENERGY PREDICTED BY IDOCK:    0.11 KCAL/MOL
REMARK 927      BINDING AFFINITY PREDICTED BY RF-SCORE:    0.00 PKD
ROOT
HETATM    1  C   UNL     1     -10.319   7.819  66.877  1.00  0.00    -0.396 C  
HETATM    2  C   UNL     1     -10.660   9.102  67.620  1.00  0.00    -0.307 C  
ENDROOT
BRANCH   2   3
HETATM    3  C   UNL     1     -10.410  10.345  66.758  1.00  0.00    -0.294 C  
BRANCH   3   4
HETATM    4  C   UNL     1     -11.059  11.617  67.345  1.00  0.00    -0.281 C  
BRANCH   4   5
HETATM    5  N   UNL     1     -10.254  12.263  68.397  1.00  0.00    -0.216 NA 
HETATM    6  C   UNL     1      -8.804  12.167  68.160  1.00  0.00    -0.187 C  
HETATM    7  C   UNL     1      -8.295  13.063  67.016  1.00  0.00    -0.095 C  
HETATM    8  C   UNL     1      -8.614  14.522  67.358  1.00  0.00    -0.201 C  
HETATM    9  O   UNL     1      -6.886  12.911  66.816  1.00  0.00    -0.388 OA 
HETATM   10  H   UNL     1      -6.572  13.465  66.110  1.00  0.00     0.000 HD 
HETATM   11  C   UNL     1     -10.107  14.699  67.647  1.00  0.00    -0.228 C  
HETATM   12  O   UNL     1      -8.312  15.423  66.276  1.00  0.00    -0.387 OA 
HETATM   13  C   UNL     1     -10.628  13.679  68.692  1.00  0.00    -0.248 C  
HETATM   14  H   UNL     1      -8.510  16.327  66.488  1.00  0.00     0.000 HD 
HETATM   15  O   UNL     1     -10.320  16.050  68.102  1.00  0.00    -0.247 OA 
HETATM   16  H   UNL     1     -11.246  16.160  68.281  1.00  0.00     0.000 HD 
BRANCH  13  17
HETATM   17  C   UNL     1     -12.140  13.920  68.939  1.00  0.00    -0.319 C  
HETATM   18  O   UNL     1     -12.439  15.308  69.082  1.00  0.00    -0.593 OA 
HETATM   19  H   UNL     1     -13.365  15.455  69.233  1.00  0.00     0.000 HD 
ENDBRANCH  13  17
ENDBRANCH   4   5
ENDBRANCH   3   4
ENDBRANCH   2   3
TORSDOF 4
ENDMDL
MODEL      147
REMARK 921   NORMALIZED FREE ENERGY PREDICTED BY IDOCK:   -3.06 KCAL/MOL
REMARK 922        TOTAL FREE ENERGY PREDICTED BY IDOCK:   -4.27 KCAL/MOL
REMARK 923 INTER-LIGAND FREE ENERGY PREDICTED BY IDOCK:   -3.83 KCAL/MOL
REMARK 924 INTRA-LIGAND FREE ENERGY PREDICTED BY IDOCK:   -0.44 KCAL/MOL
REMARK 927      BINDING AFFINITY PREDICTED BY RF-SCORE:    0.00 PKD
ROOT
HETATM    1  C   UNL     1     -13.435   9.105  72.501  1.00  0.00    -0.490 C  
HETATM    2  C   UNL     1     -12.527   9.132  71.280  1.00  0.00    -0.366 C  
ENDROOT
BRANCH   2   3
HETATM    3  C   UNL     1     -11.048   9.028  71.666  1.00  0.00    -0.433 C  
BRANCH   3   4
HETATM    4  C   UNL     1     -10.329   7.858  70.960  1.00  0.00    -0.201 C  
BRANCH   4   5
HETATM    5  N   UNL     1     -11.213   6.723  70.641  1.00  0.00    -0.291 NA 
HETATM    6  C   UNL     1     -11.186   6.348  69.217  1.00  0.00    -0.375 C  
HETATM    7  C   UNL     1      -9.887   5.648  68.776  1.00  0.00    -0.146 C  
HETATM    8  C   UNL     1      -9.719   4.366  69.598  1.00  0.00    -0.219 C  
HETATM    9  O   UNL     1      -9.908   5.329  67.382  1.00  0.00    -0.140 OA 
HETATM   10  H   UNL     1      -9.107   4.897  67.110  1.00  0.00     0.000 HD 
HETATM   11  C   UNL     1      -9.765   4.670  71.097  1.00  0.00    -0.181 C  
HETATM   12  O   UNL     1      -8.453   3.720  69.364  1.00  0.00    -0.063 OA 
HETATM   13  C   UNL     1     -11.008   5.511  71.489  1.00  0.00    -0.150 C  
HETATM   14  H   UNL     1      -8.350   2.926  69.873  1.00  0.00     0.000 HD 
HETATM   15  O   UNL     1      -9.749   3.418  71.811  1.00  0.00    -0.148 OA 
HETATM   16  H   UNL     1      -9.777   3.607  72.742  1.00  0.00     0.000 HD 
BRANCH  13  17
HETATM   17  C   UNL     1     -10.991   5.774  73.017  1.00  0.00    -0.278 C  
HETATM   18  O   UNL     1     -11.680   4.755  73.739  1.00  0.00    -0.345 OA 
HETATM   19  H   UNL     1     -11.669   4.917  74.675  1.00  0.00     0.000 HD 
ENDBRANCH  13  17
ENDBRANCH   4   5
ENDBRANCH   3   4
ENDBRANCH   2   3
TORSDOF 4
ENDMDL
MODEL      148
REMARK 921   NORMALIZED FREE ENERGY PREDICTED BY IDOCK:   -3.06 KCAL/MOL
REMARK 922        TOTAL FREE ENERGY PREDICTED BY IDOCK:   -4.26 KCAL/MOL
REMARK 923 INTER-LIGAND FREE ENERGY PREDICTED BY IDOCK:   -4.07 KCAL/MOL
REMARK 924 INTRA-LIGAND FREE ENERGY PREDICTED BY IDOCK:   -0.19 KCAL/MOL
REMARK 927      BINDING AFFINITY PREDICTED BY RF-SCORE:    0.00 PKD
ROOT
HETATM    1  C   UNL     1      -7.173  10.336  66.271  1.00  0.00    -0.117 C  
HETATM    2  C   UNL     1      -7.686   9.633  67.520  1.00  0.00    -0.095 C  
ENDROOT
BRANCH   2   3
HETATM    3  C   UNL     1      -8.220  10.627  68.556  1.00  0.00    -0.128 C  
BRANCH   3   4
HETATM    4  C   UNL     1      -9.051   9.944  69.664  1.00  0.00    -0.227 C  
BRANCH   4   5
HETATM    5  N   UNL     1     -10.322   9.371  69.186  1.00  0.00    -0.205 NA 
HETATM    6  C   UNL     1     -10.454   7.932  69.472  1.00  0.00    -0.226 C  
HETATM    7  C   UNL     1     -10.699   7.608  70.957  1.00  0.00    -0.228 C  
HETATM    8  C   UNL     1     -11.997   8.293  71.401  1.00  0.00    -0.299 C  
HETATM    9  O   UNL     1     -10.796   6.198  71.179  1.00  0.00    -0.247 OA 
HETATM   10  H   UNL     1     -10.948   5.998  72.095  1.00  0.00     0.000 HD 
HETATM   11  C   UNL     1     -11.947   9.794  71.108  1.00  0.00    -0.376 C  
HETATM   12  O   UNL     1     -12.229   8.172  72.817  1.00  0.00    -0.603 OA 
HETATM   13  C   UNL     1     -11.546  10.095  69.641  1.00  0.00    -0.153 C  
HETATM   14  H   UNL     1     -13.033   8.596  73.091  1.00  0.00     0.000 HD 
HETATM   15  O   UNL     1     -13.240  10.354  71.410  1.00  0.00    -0.380 OA 
HETATM   16  H   UNL     1     -13.210  11.286  71.229  1.00  0.00     0.000 HD 
BRANCH  13  17
HETATM   17  C   UNL     1     -11.522  11.629  69.417  1.00  0.00    -0.307 C  
HETATM   18  O   UNL     1     -12.151  11.996  68.190  1.00  0.00    -0.480 OA 
HETATM   19  H   UNL     1     -12.136  12.936  68.053  1.00  0.00     0.000 HD 
ENDBRANCH  13  17
ENDBRANCH   4   5
ENDBRANCH   3   4
ENDBRANCH   2   3
TORSDOF 4
ENDMDL
MODEL      149
REMARK 921   NORMALIZED FREE ENERGY PREDICTED BY IDOCK:   -3.02 KCAL/MOL
REMARK 922        TOTAL FREE ENERGY PREDICTED BY IDOCK:   -4.21 KCAL/MOL
REMARK 923 INTER-LIGAND FREE ENERGY PREDICTED BY IDOCK:   -3.89 KCAL/MOL
REMARK 924 INTRA-LIGAND FREE ENERGY PREDICTED BY IDOCK:   -0.33 KCAL/MOL
REMARK 927      BINDING AFFINITY PREDICTED BY RF-SCORE:    0.00 PKD
ROOT
HETATM    1  C   UNL     1     -13.504   9.308  71.535  1.00  0.00    -0.437 C  
HETATM    2  C   UNL     1     -12.479   8.489  72.307  1.00  0.00    -0.448 C  
ENDROOT
BRANCH   2   3
HETATM    3  C   UNL     1     -12.525   7.007  71.923  1.00  0.00    -0.346 C  
BRANCH   3   4
HETATM    4  C   UNL     1     -11.949   6.739  70.515  1.00  0.00    -0.328 C  
BRANCH   4   5
HETATM    5  N   UNL     1     -10.476   6.762  70.462  1.00  0.00    -0.205 NA 
HETATM    6  C   UNL     1      -9.845   5.883  71.462  1.00  0.00    -0.166 C  
HETATM    7  C   UNL     1      -9.978   4.381  71.149  1.00  0.00    -0.173 C  
HETATM    8  C   UNL     1      -9.312   4.102  69.798  1.00  0.00    -0.167 C  
HETATM    9  O   UNL     1      -9.368   3.577  72.164  1.00  0.00    -0.107 OA 
HETATM   10  H   UNL     1      -9.450   2.651  71.970  1.00  0.00     0.000 HD 
HETATM   11  C   UNL     1      -9.898   5.002  68.707  1.00  0.00    -0.168 C  
HETATM   12  O   UNL     1      -9.519   2.749  69.349  1.00  0.00    -0.142 OA 
HETATM   13  C   UNL     1      -9.893   6.498  69.113  1.00  0.00    -0.144 C  
HETATM   14  H   UNL     1      -9.106   2.576  68.511  1.00  0.00     0.000 HD 
HETATM   15  O   UNL     1      -9.137   4.798  67.499  1.00  0.00    -0.111 OA 
HETATM   16  H   UNL     1      -9.500   5.356  66.822  1.00  0.00     0.000 HD 
BRANCH  13  17
HETATM   17  C   UNL     1     -10.492   7.347  67.962  1.00  0.00    -0.199 C  
HETATM   18  O   UNL     1     -11.565   6.671  67.307  1.00  0.00    -0.747 OA 
HETATM   19  H   UNL     1     -11.932   7.192  66.602  1.00  0.00     0.000 HD 
ENDBRANCH  13  17
ENDBRANCH   4   5
ENDBRANCH   3   4
ENDBRANCH   2   3
TORSDOF 4
ENDMDL
MODEL      150
REMARK 921   NORMALIZED FREE ENERGY PREDICTED BY IDOCK:   -3.00 KCAL/MOL
REMARK 922        TOTAL FREE ENERGY PREDICTED BY IDOCK:   -4.20 KCAL/MOL
REMARK 923 INTER-LIGAND FREE ENERGY PREDICTED BY IDOCK:   -3.92 KCAL/MOL
REMARK 924 INTRA-LIGAND FREE ENERGY PREDICTED BY IDOCK:   -0.28 KCAL/MOL
REMARK 927      BINDING AFFINITY PREDICTED BY RF-SCORE:    0.00 PKD
ROOT
HETATM    1  C   UNL     1     -12.393  14.179  65.614  1.00  0.00    -0.473 C  
HETATM    2  C   UNL     1     -12.227  13.869  67.094  1.00  0.00    -0.353 C  
ENDROOT
BRANCH   2   3
HETATM    3  C   UNL     1     -10.870  13.223  67.393  1.00  0.00    -0.279 C  
BRANCH   3   4
HETATM    4  C   UNL     1     -10.817  11.734  66.987  1.00  0.00    -0.263 C  
BRANCH   4   5
HETATM    5  N   UNL     1      -9.600  11.037  67.440  1.00  0.00    -0.163 NA 
HETATM    6  C   UNL     1      -9.465  11.000  68.907  1.00  0.00    -0.155 C  
HETATM    7  C   UNL     1     -10.449  10.042  69.603  1.00  0.00    -0.248 C  
HETATM    8  C   UNL     1     -10.206   8.623  69.077  1.00  0.00    -0.207 C  
HETATM    9  O   UNL     1     -10.288  10.064  71.024  1.00  0.00    -0.304 OA 
HETATM   10  H   UNL     1     -10.895   9.473  71.454  1.00  0.00     0.000 HD 
HETATM   11  C   UNL     1     -10.302   8.586  67.550  1.00  0.00    -0.267 C  
HETATM   12  O   UNL     1     -11.182   7.680  69.558  1.00  0.00    -0.447 OA 
HETATM   13  C   UNL     1      -9.416   9.666  66.878  1.00  0.00    -0.153 C  
HETATM   14  H   UNL     1     -11.032   6.801  69.232  1.00  0.00     0.000 HD 
HETATM   15  O   UNL     1      -9.923   7.267  67.108  1.00  0.00    -0.178 OA 
HETATM   16  H   UNL     1      -9.982   7.243  66.161  1.00  0.00     0.000 HD 
BRANCH  13  17
HETATM   17  C   UNL     1      -9.558   9.564  65.337  1.00  0.00    -0.272 C  
HETATM   18  O   UNL     1      -8.394   9.003  64.733  1.00  0.00    -0.154 OA 
HETATM   19  H   UNL     1      -8.481   8.941  63.789  1.00  0.00     0.000 HD 
ENDBRANCH  13  17
ENDBRANCH   4   5
ENDBRANCH   3   4
ENDBRANCH   2   3
TORSDOF 4
ENDMDL
MODEL      151
REMARK 921   NORMALIZED FREE ENERGY PREDICTED BY IDOCK:   -3.00 KCAL/MOL
REMARK 922        TOTAL FREE ENERGY PREDICTED BY IDOCK:   -4.20 KCAL/MOL
REMARK 923 INTER-LIGAND FREE ENERGY PREDICTED BY IDOCK:   -3.96 KCAL/MOL
REMARK 924 INTRA-LIGAND FREE ENERGY PREDICTED BY IDOCK:   -0.23 KCAL/MOL
REMARK 927      BINDING AFFINITY PREDICTED BY RF-SCORE:    0.00 PKD
ROOT
HETATM    1  C   UNL     1     -12.215  13.766  66.214  1.00  0.00    -0.489 C  
HETATM    2  C   UNL     1     -11.710  12.367  66.532  1.00  0.00    -0.443 C  
ENDROOT
BRANCH   2   3
HETATM    3  C   UNL     1     -10.376  12.070  65.838  1.00  0.00    -0.278 C  
BRANCH   3   4
HETATM    4  C   UNL     1     -10.153  10.561  65.596  1.00  0.00    -0.268 C  
BRANCH   4   5
HETATM    5  N   UNL     1      -9.238   9.932  66.565  1.00  0.00    -0.151 NA 
HETATM    6  C   UNL     1      -9.935   9.142  67.594  1.00  0.00    -0.195 C  
HETATM    7  C   UNL     1     -10.527   7.818  67.073  1.00  0.00    -0.349 C  
HETATM    8  C   UNL     1      -9.387   6.958  66.517  1.00  0.00    -0.158 C  
HETATM    9  O   UNL     1     -11.211   7.105  68.108  1.00  0.00    -0.485 OA 
HETATM   10  H   UNL     1     -11.575   6.288  67.787  1.00  0.00     0.000 HD 
HETATM   11  C   UNL     1      -8.594   7.725  65.457  1.00  0.00    -0.105 C  
HETATM   12  O   UNL     1      -9.863   5.763  65.869  1.00  0.00    -0.357 OA 
HETATM   13  C   UNL     1      -8.141   9.121  65.957  1.00  0.00    -0.110 C  
HETATM   14  H   UNL     1      -9.156   5.229  65.524  1.00  0.00     0.000 HD 
HETATM   15  O   UNL     1      -7.456   6.924  65.080  1.00  0.00    -0.083 OA 
HETATM   16  H   UNL     1      -6.964   7.400  64.422  1.00  0.00     0.000 HD 
BRANCH  13  17
HETATM   17  C   UNL     1      -7.341   9.835  64.837  1.00  0.00    -0.129 C  
HETATM   18  O   UNL     1      -6.785  11.069  65.287  1.00  0.00    -0.361 OA 
HETATM   19  H   UNL     1      -6.294  11.507  64.601  1.00  0.00     0.000 HD 
ENDBRANCH  13  17
ENDBRANCH   4   5
ENDBRANCH   3   4
ENDBRANCH   2   3
TORSDOF 4
ENDMDL
MODEL      152
REMARK 921   NORMALIZED FREE ENERGY PREDICTED BY IDOCK:   -3.00 KCAL/MOL
REMARK 922        TOTAL FREE ENERGY PREDICTED BY IDOCK:   -4.20 KCAL/MOL
REMARK 923 INTER-LIGAND FREE ENERGY PREDICTED BY IDOCK:   -3.85 KCAL/MOL
REMARK 924 INTRA-LIGAND FREE ENERGY PREDICTED BY IDOCK:   -0.35 KCAL/MOL
REMARK 927      BINDING AFFINITY PREDICTED BY RF-SCORE:    0.00 PKD
ROOT
HETATM    1  C   UNL     1     -14.386   7.328  71.666  1.00  0.00    -0.583 C  
HETATM    2  C   UNL     1     -13.938   8.778  71.559  1.00  0.00    -0.391 C  
ENDROOT
BRANCH   2   3
HETATM    3  C   UNL     1     -12.424   8.923  71.743  1.00  0.00    -0.425 C  
BRANCH   3   4
HETATM    4  C   UNL     1     -11.776   7.664  72.361  1.00  0.00    -0.317 C  
BRANCH   4   5
HETATM    5  N   UNL     1     -10.767   7.030  71.494  1.00  0.00    -0.221 NA 
HETATM    6  C   UNL     1      -9.892   8.001  70.815  1.00  0.00    -0.183 C  
HETATM    7  C   UNL     1      -8.874   8.687  71.746  1.00  0.00    -0.211 C  
HETATM    8  C   UNL     1      -7.979   7.610  72.370  1.00  0.00    -0.107 C  
HETATM    9  O   UNL     1      -8.069   9.634  71.039  1.00  0.00    -0.328 OA 
HETATM   10  H   UNL     1      -7.441  10.057  71.613  1.00  0.00     0.000 HD 
HETATM   11  C   UNL     1      -8.821   6.544  73.074  1.00  0.00    -0.128 C  
HETATM   12  O   UNL     1      -7.094   8.141  73.374  1.00  0.00    -0.120 OA 
HETATM   13  C   UNL     1      -9.940   5.980  72.160  1.00  0.00    -0.165 C  
HETATM   14  H   UNL     1      -6.539   7.475  73.760  1.00  0.00     0.000 HD 
HETATM   15  O   UNL     1      -7.939   5.491  73.511  1.00  0.00    -0.111 OA 
HETATM   16  H   UNL     1      -8.462   4.829  73.948  1.00  0.00     0.000 HD 
BRANCH  13  17
HETATM   17  C   UNL     1     -10.745   4.904  72.934  1.00  0.00    -0.235 C  
HETATM   18  O   UNL     1     -10.775   5.170  74.336  1.00  0.00    -0.320 OA 
HETATM   19  H   UNL     1     -11.268   4.511  74.810  1.00  0.00     0.000 HD 
ENDBRANCH  13  17
ENDBRANCH   4   5
ENDBRANCH   3   4
ENDBRANCH   2   3
TORSDOF 4
ENDMDL
MODEL      153
REMARK 921   NORMALIZED FREE ENERGY PREDICTED BY IDOCK:   -2.99 KCAL/MOL
REMARK 922        TOTAL FREE ENERGY PREDICTED BY IDOCK:   -4.18 KCAL/MOL
REMARK 923 INTER-LIGAND FREE ENERGY PREDICTED BY IDOCK:   -3.72 KCAL/MOL
REMARK 924 INTRA-LIGAND FREE ENERGY PREDICTED BY IDOCK:   -0.46 KCAL/MOL
REMARK 927      BINDING AFFINITY PREDICTED BY RF-SCORE:    0.00 PKD
ROOT
HETATM    1  C   UNL     1     -13.890   8.979  72.382  1.00  0.00    -0.540 C  
HETATM    2  C   UNL     1     -13.749   7.785  71.449  1.00  0.00    -0.359 C  
ENDROOT
BRANCH   2   3
HETATM    3  C   UNL     1     -12.862   6.691  72.052  1.00  0.00    -0.157 C  
BRANCH   3   4
HETATM    4  C   UNL     1     -11.516   6.538  71.309  1.00  0.00    -0.318 C  
BRANCH   4   5
HETATM    5  N   UNL     1     -11.165   7.699  70.472  1.00  0.00    -0.267 NA 
HETATM    6  C   UNL     1     -10.294   8.667  71.158  1.00  0.00    -0.230 C  
HETATM    7  C   UNL     1      -8.844   8.182  71.348  1.00  0.00    -0.149 C  
HETATM    8  C   UNL     1      -8.236   7.904  69.970  1.00  0.00    -0.119 C  
HETATM    9  O   UNL     1      -8.052   9.152  72.040  1.00  0.00    -0.321 OA 
HETATM   10  H   UNL     1      -7.157   8.852  72.157  1.00  0.00     0.000 HD 
HETATM   11  C   UNL     1      -9.105   6.922  69.180  1.00  0.00    -0.136 C  
HETATM   12  O   UNL     1      -6.932   7.300  70.052  1.00  0.00    -0.058 OA 
HETATM   13  C   UNL     1     -10.593   7.357  69.135  1.00  0.00    -0.204 C  
HETATM   14  H   UNL     1      -6.555   7.128  69.198  1.00  0.00     0.000 HD 
HETATM   15  O   UNL     1      -8.564   6.814  67.848  1.00  0.00    -0.122 OA 
HETATM   16  H   UNL     1      -9.104   6.205  67.358  1.00  0.00     0.000 HD 
BRANCH  13  17
HETATM   17  C   UNL     1     -11.408   6.323  68.317  1.00  0.00     0.040 C  
HETATM   18  O   UNL     1     -11.439   6.651  66.929  1.00  0.00    -0.777 OA 
HETATM   19  H   UNL     1     -11.939   6.017  66.428  1.00  0.00     0.000 HD 
ENDBRANCH  13  17
ENDBRANCH   4   5
ENDBRANCH   3   4
ENDBRANCH   2   3
TORSDOF 4
ENDMDL
MODEL      154
REMARK 921   NORMALIZED FREE ENERGY PREDICTED BY IDOCK:   -2.96 KCAL/MOL
REMARK 922        TOTAL FREE ENERGY PREDICTED BY IDOCK:   -4.14 KCAL/MOL
REMARK 923 INTER-LIGAND FREE ENERGY PREDICTED BY IDOCK:   -3.75 KCAL/MOL
REMARK 924 INTRA-LIGAND FREE ENERGY PREDICTED BY IDOCK:   -0.40 KCAL/MOL
REMARK 927      BINDING AFFINITY PREDICTED BY RF-SCORE:    0.00 PKD
ROOT
HETATM    1  C   UNL     1      -8.190   9.293  68.287  1.00  0.00    -0.115 C  
HETATM    2  C   UNL     1      -8.640  10.738  68.452  1.00  0.00    -0.141 C  
ENDROOT
BRANCH   2   3
HETATM    3  C   UNL     1      -8.264  11.595  67.238  1.00  0.00    -0.159 C  
BRANCH   3   4
HETATM    4  C   UNL     1      -9.151  12.851  67.099  1.00  0.00    -0.220 C  
BRANCH   4   5
HETATM    5  N   UNL     1      -8.882  13.884  68.116  1.00  0.00    -0.178 NA 
HETATM    6  C   UNL     1      -7.934  14.915  67.659  1.00  0.00    -0.169 C  
HETATM    7  C   UNL     1      -8.519  15.887  66.617  1.00  0.00    -0.287 C  
HETATM    8  C   UNL     1      -9.723  16.603  67.237  1.00  0.00    -0.245 C  
HETATM    9  O   UNL     1      -7.549  16.849  66.194  1.00  0.00    -0.297 OA 
HETATM   10  H   UNL     1      -7.910  17.449  65.551  1.00  0.00     0.000 HD 
HETATM   11  C   UNL     1     -10.745  15.593  67.763  1.00  0.00    -0.297 C  
HETATM   12  O   UNL     1     -10.430  17.421  66.286  1.00  0.00    -0.336 OA 
HETATM   13  C   UNL     1     -10.099  14.531  68.691  1.00  0.00    -0.244 C  
HETATM   14  H   UNL     1     -11.176  17.865  66.670  1.00  0.00     0.000 HD 
HETATM   15  O   UNL     1     -11.777  16.319  68.460  1.00  0.00    -0.302 OA 
HETATM   16  H   UNL     1     -12.412  15.692  68.787  1.00  0.00     0.000 HD 
BRANCH  13  17
HETATM   17  C   UNL     1     -11.190  13.549  69.189  1.00  0.00    -0.260 C  
HETATM   18  O   UNL     1     -11.623  13.864  70.512  1.00  0.00    -0.496 OA 
HETATM   19  H   UNL     1     -12.292  13.262  70.817  1.00  0.00     0.000 HD 
ENDBRANCH  13  17
ENDBRANCH   4   5
ENDBRANCH   3   4
ENDBRANCH   2   3
TORSDOF 4
ENDMDL
MODEL      155
REMARK 921   NORMALIZED FREE ENERGY PREDICTED BY IDOCK:   -2.95 KCAL/MOL
REMARK 922        TOTAL FREE ENERGY PREDICTED BY IDOCK:   -4.13 KCAL/MOL
REMARK 923 INTER-LIGAND FREE ENERGY PREDICTED BY IDOCK:   -3.67 KCAL/MOL
REMARK 924 INTRA-LIGAND FREE ENERGY PREDICTED BY IDOCK:   -0.47 KCAL/MOL
REMARK 927      BINDING AFFINITY PREDICTED BY RF-SCORE:    0.00 PKD
ROOT
HETATM    1  C   UNL     1      -9.875   5.813  67.724  1.00  0.00    -0.144 C  
HETATM    2  C   UNL     1     -10.960   6.829  68.049  1.00  0.00    -0.289 C  
ENDROOT
BRANCH   2   3
HETATM    3  C   UNL     1     -10.373   8.141  68.581  1.00  0.00    -0.224 C  
BRANCH   3   4
HETATM    4  C   UNL     1     -10.536   9.312  67.588  1.00  0.00    -0.264 C  
BRANCH   4   5
HETATM    5  N   UNL     1      -9.258   9.888  67.134  1.00  0.00    -0.138 NA 
HETATM    6  C   UNL     1      -8.586   9.072  66.107  1.00  0.00    -0.135 C  
HETATM    7  C   UNL     1      -9.265   9.120  64.725  1.00  0.00    -0.018 C  
HETATM    8  C   UNL     1      -9.276  10.572  64.234  1.00  0.00    -0.245 C  
HETATM    9  O   UNL     1      -8.586   8.294  63.776  1.00  0.00    -0.400 OA 
HETATM   10  H   UNL     1      -9.004   8.323  62.924  1.00  0.00     0.000 HD 
HETATM   11  C   UNL     1      -9.936  11.490  65.266  1.00  0.00    -0.260 C  
HETATM   12  O   UNL     1     -10.028  10.739  63.017  1.00  0.00    -0.445 OA 
HETATM   13  C   UNL     1      -9.335  11.310  66.684  1.00  0.00    -0.180 C  
HETATM   14  H   UNL     1     -10.034  11.638  62.713  1.00  0.00     0.000 HD 
HETATM   15  O   UNL     1      -9.785  12.851  64.817  1.00  0.00    -0.527 OA 
HETATM   16  H   UNL     1     -10.194  13.422  65.457  1.00  0.00     0.000 HD 
BRANCH  13  17
HETATM   17  C   UNL     1     -10.044  12.272  67.671  1.00  0.00    -0.200 C  
HETATM   18  O   UNL     1      -9.372  13.527  67.764  1.00  0.00    -0.197 OA 
HETATM   19  H   UNL     1      -9.807  14.117  68.368  1.00  0.00     0.000 HD 
ENDBRANCH  13  17
ENDBRANCH   4   5
ENDBRANCH   3   4
ENDBRANCH   2   3
TORSDOF 4
ENDMDL
MODEL      156
REMARK 921   NORMALIZED FREE ENERGY PREDICTED BY IDOCK:   -2.95 KCAL/MOL
REMARK 922        TOTAL FREE ENERGY PREDICTED BY IDOCK:   -4.13 KCAL/MOL
REMARK 923 INTER-LIGAND FREE ENERGY PREDICTED BY IDOCK:   -4.58 KCAL/MOL
REMARK 924 INTRA-LIGAND FREE ENERGY PREDICTED BY IDOCK:    0.45 KCAL/MOL
REMARK 927      BINDING AFFINITY PREDICTED BY RF-SCORE:    0.00 PKD
ROOT
HETATM    1  C   UNL     1     -14.394   7.332  71.671  1.00  0.00    -0.583 C  
HETATM    2  C   UNL     1     -13.983   8.795  71.587  1.00  0.00    -0.450 C  
ENDROOT
BRANCH   2   3
HETATM    3  C   UNL     1     -12.470   8.973  71.754  1.00  0.00    -0.438 C  
BRANCH   3   4
HETATM    4  C   UNL     1     -11.781   7.713  72.322  1.00  0.00    -0.324 C  
BRANCH   4   5
HETATM    5  N   UNL     1     -10.770   7.132  71.421  1.00  0.00    -0.224 NA 
HETATM    6  C   UNL     1     -11.032   7.410  69.998  1.00  0.00    -0.248 C  
HETATM    7  C   UNL     1     -10.771   8.871  69.586  1.00  0.00    -0.217 C  
HETATM    8  C   UNL     1      -9.301   9.202  69.863  1.00  0.00    -0.186 C  
HETATM    9  O   UNL     1     -11.064   9.087  68.203  1.00  0.00    -0.479 OA 
HETATM   10  H   UNL     1     -10.903   9.988  67.949  1.00  0.00     0.000 HD 
HETATM   11  C   UNL     1      -8.943   8.912  71.322  1.00  0.00    -0.243 C  
HETATM   12  O   UNL     1      -8.999  10.595  69.651  1.00  0.00    -0.401 OA 
HETATM   13  C   UNL     1      -9.357   7.482  71.756  1.00  0.00    -0.144 C  
HETATM   14  H   UNL     1      -8.088  10.800  69.822  1.00  0.00     0.000 HD 
HETATM   15  O   UNL     1      -7.523   9.103  71.483  1.00  0.00    -0.307 OA 
HETATM   16  H   UNL     1      -7.300   8.922  72.388  1.00  0.00     0.000 HD 
BRANCH  13  17
HETATM   17  C   UNL     1      -8.959   7.256  73.237  1.00  0.00    -0.152 C  
HETATM   18  O   UNL     1      -8.978   8.473  73.983  1.00  0.00    -0.182 OA 
HETATM   19  H   UNL     1      -8.733   8.334  74.890  1.00  0.00     0.000 HD 
ENDBRANCH  13  17
ENDBRANCH   4   5
ENDBRANCH   3   4
ENDBRANCH   2   3
TORSDOF 4
ENDMDL
MODEL      157
REMARK 921   NORMALIZED FREE ENERGY PREDICTED BY IDOCK:   -2.94 KCAL/MOL
REMARK 922        TOTAL FREE ENERGY PREDICTED BY IDOCK:   -4.12 KCAL/MOL
REMARK 923 INTER-LIGAND FREE ENERGY PREDICTED BY IDOCK:   -3.85 KCAL/MOL
REMARK 924 INTRA-LIGAND FREE ENERGY PREDICTED BY IDOCK:   -0.28 KCAL/MOL
REMARK 927      BINDING AFFINITY PREDICTED BY RF-SCORE:    0.00 PKD
ROOT
HETATM    1  C   UNL     1      -7.013   8.343  69.585  1.00  0.00    -0.048 C  
HETATM    2  C   UNL     1      -8.522   8.240  69.756  1.00  0.00    -0.128 C  
ENDROOT
BRANCH   2   3
HETATM    3  C   UNL     1      -9.087   9.415  70.561  1.00  0.00    -0.308 C  
BRANCH   3   4
HETATM    4  C   UNL     1      -9.554  10.581  69.663  1.00  0.00    -0.027 C  
BRANCH   4   5
HETATM    5  N   UNL     1     -11.005  10.588  69.404  1.00  0.00    -0.233 NA 
HETATM    6  C   UNL     1     -11.710  11.692  70.078  1.00  0.00    -0.321 C  
HETATM    7  C   UNL     1     -11.446  13.076  69.458  1.00  0.00    -0.222 C  
HETATM    8  C   UNL     1     -11.906  13.054  67.997  1.00  0.00    -0.347 C  
HETATM    9  O   UNL     1     -12.136  14.110  70.167  1.00  0.00    -0.303 OA 
HETATM   10  H   UNL     1     -11.973  14.964  69.784  1.00  0.00     0.000 HD 
HETATM   11  C   UNL     1     -11.234  11.910  67.233  1.00  0.00    -0.317 C  
HETATM   12  O   UNL     1     -11.559  14.260  67.289  1.00  0.00    -0.338 OA 
HETATM   13  C   UNL     1     -11.384  10.549  67.960  1.00  0.00    -0.246 C  
HETATM   14  H   UNL     1     -11.844  14.246  66.384  1.00  0.00     0.000 HD 
HETATM   15  O   UNL     1     -11.812  11.851  65.914  1.00  0.00    -0.466 OA 
HETATM   16  H   UNL     1     -11.396  11.141  65.439  1.00  0.00     0.000 HD 
BRANCH  13  17
HETATM   17  C   UNL     1     -10.689   9.441  67.129  1.00  0.00    -0.163 C  
HETATM   18  O   UNL     1     -11.256   8.155  67.378  1.00  0.00    -0.378 OA 
HETATM   19  H   UNL     1     -10.830   7.476  66.868  1.00  0.00     0.000 HD 
ENDBRANCH  13  17
ENDBRANCH   4   5
ENDBRANCH   3   4
ENDBRANCH   2   3
TORSDOF 4
ENDMDL
MODEL      158
REMARK 921   NORMALIZED FREE ENERGY PREDICTED BY IDOCK:   -2.94 KCAL/MOL
REMARK 922        TOTAL FREE ENERGY PREDICTED BY IDOCK:   -4.12 KCAL/MOL
REMARK 923 INTER-LIGAND FREE ENERGY PREDICTED BY IDOCK:   -3.67 KCAL/MOL
REMARK 924 INTRA-LIGAND FREE ENERGY PREDICTED BY IDOCK:   -0.45 KCAL/MOL
REMARK 927      BINDING AFFINITY PREDICTED BY RF-SCORE:    0.00 PKD
ROOT
HETATM    1  C   UNL     1      -6.701   5.618  71.730  1.00  0.00    -0.058 C  
HETATM    2  C   UNL     1      -7.224   4.384  71.010  1.00  0.00    -0.044 C  
ENDROOT
BRANCH   2   3
HETATM    3  C   UNL     1      -8.074   4.754  69.789  1.00  0.00    -0.069 C  
BRANCH   3   4
HETATM    4  C   UNL     1      -8.824   6.092  69.968  1.00  0.00    -0.139 C  
BRANCH   4   5
HETATM    5  N   UNL     1     -10.273   5.998  69.718  1.00  0.00    -0.189 NA 
HETATM    6  C   UNL     1     -10.999   5.269  70.772  1.00  0.00     0.060 C  
HETATM    7  C   UNL     1     -11.130   6.046  72.095  1.00  0.00    -0.279 C  
HETATM    8  C   UNL     1     -11.889   7.349  71.824  1.00  0.00    -0.294 C  
HETATM    9  O   UNL     1     -11.822   5.281  73.087  1.00  0.00    -0.540 OA 
HETATM   10  H   UNL     1     -11.903   5.761  73.903  1.00  0.00     0.000 HD 
HETATM   11  C   UNL     1     -11.208   8.154  70.715  1.00  0.00    -0.261 C  
HETATM   12  O   UNL     1     -11.928   8.215  72.974  1.00  0.00    -0.609 OA 
HETATM   13  C   UNL     1     -10.948   7.303  69.445  1.00  0.00    -0.136 C  
HETATM   14  H   UNL     1     -12.398   9.023  72.807  1.00  0.00     0.000 HD 
HETATM   15  O   UNL     1     -12.042   9.289  70.406  1.00  0.00    -0.469 OA 
HETATM   16  H   UNL     1     -11.620   9.789  69.718  1.00  0.00     0.000 HD 
BRANCH  13  17
HETATM   17  C   UNL     1     -10.265   8.181  68.366  1.00  0.00    -0.209 C  
HETATM   18  O   UNL     1     -11.205   9.010  67.683  1.00  0.00    -0.434 OA 
HETATM   19  H   UNL     1     -10.786   9.548  67.021  1.00  0.00     0.000 HD 
ENDBRANCH  13  17
ENDBRANCH   4   5
ENDBRANCH   3   4
ENDBRANCH   2   3
TORSDOF 4
ENDMDL
MODEL      159
REMARK 921   NORMALIZED FREE ENERGY PREDICTED BY IDOCK:   -2.93 KCAL/MOL
REMARK 922        TOTAL FREE ENERGY PREDICTED BY IDOCK:   -4.11 KCAL/MOL
REMARK 923 INTER-LIGAND FREE ENERGY PREDICTED BY IDOCK:   -4.01 KCAL/MOL
REMARK 924 INTRA-LIGAND FREE ENERGY PREDICTED BY IDOCK:   -0.10 KCAL/MOL
REMARK 927      BINDING AFFINITY PREDICTED BY RF-SCORE:    0.00 PKD
ROOT
HETATM    1  C   UNL     1     -12.614  11.281  71.034  1.00  0.00    -0.495 C  
HETATM    2  C   UNL     1     -11.901   9.940  70.932  1.00  0.00    -0.443 C  
ENDROOT
BRANCH   2   3
HETATM    3  C   UNL     1     -12.582   8.865  71.785  1.00  0.00    -0.420 C  
BRANCH   3   4
HETATM    4  C   UNL     1     -11.578   7.862  72.394  1.00  0.00    -0.380 C  
BRANCH   4   5
HETATM    5  N   UNL     1     -10.311   7.763  71.646  1.00  0.00    -0.195 NA 
HETATM    6  C   UNL     1      -9.167   8.353  72.361  1.00  0.00    -0.275 C  
HETATM    7  C   UNL     1      -8.688   7.526  73.568  1.00  0.00    -0.195 C  
HETATM    8  C   UNL     1      -8.263   6.139  73.074  1.00  0.00    -0.115 C  
HETATM    9  O   UNL     1      -7.592   8.157  74.237  1.00  0.00    -0.178 OA 
HETATM   10  H   UNL     1      -7.296   7.647  74.982  1.00  0.00     0.000 HD 
HETATM   11  C   UNL     1      -9.396   5.469  72.293  1.00  0.00    -0.145 C  
HETATM   12  O   UNL     1      -7.943   5.241  74.154  1.00  0.00    -0.102 OA 
HETATM   13  C   UNL     1      -9.965   6.387  71.180  1.00  0.00    -0.180 C  
HETATM   14  H   UNL     1      -7.680   4.382  73.848  1.00  0.00     0.000 HD 
HETATM   15  O   UNL     1      -8.892   4.240  71.734  1.00  0.00    -0.111 OA 
HETATM   16  H   UNL     1      -9.594   3.825  71.249  1.00  0.00     0.000 HD 
BRANCH  13  17
HETATM   17  C   UNL     1     -11.100   5.643  70.429  1.00  0.00    -0.125 C  
HETATM   18  O   UNL     1     -11.724   6.475  69.452  1.00  0.00    -0.649 OA 
HETATM   19  H   UNL     1     -12.419   6.020  68.993  1.00  0.00     0.000 HD 
ENDBRANCH  13  17
ENDBRANCH   4   5
ENDBRANCH   3   4
ENDBRANCH   2   3
TORSDOF 4
ENDMDL
MODEL      160
REMARK 921   NORMALIZED FREE ENERGY PREDICTED BY IDOCK:   -2.93 KCAL/MOL
REMARK 922        TOTAL FREE ENERGY PREDICTED BY IDOCK:   -4.10 KCAL/MOL
REMARK 923 INTER-LIGAND FREE ENERGY PREDICTED BY IDOCK:   -3.83 KCAL/MOL
REMARK 924 INTRA-LIGAND FREE ENERGY PREDICTED BY IDOCK:   -0.27 KCAL/MOL
REMARK 927      BINDING AFFINITY PREDICTED BY RF-SCORE:    0.00 PKD
ROOT
HETATM    1  C   UNL     1      -9.587  10.044  64.900  1.00  0.00    -0.375 C  
HETATM    2  C   UNL     1     -10.027  11.321  65.601  1.00  0.00    -0.292 C  
ENDROOT
BRANCH   2   3
HETATM    3  C   UNL     1     -10.468  11.057  67.045  1.00  0.00    -0.284 C  
BRANCH   3   4
HETATM    4  C   UNL     1     -10.632   9.553  67.352  1.00  0.00    -0.271 C  
BRANCH   4   5
HETATM    5  N   UNL     1      -9.821   9.087  68.490  1.00  0.00    -0.164 NA 
HETATM    6  C   UNL     1     -10.185   9.728  69.764  1.00  0.00    -0.242 C  
HETATM    7  C   UNL     1     -11.532   9.254  70.343  1.00  0.00    -0.213 C  
HETATM    8  C   UNL     1     -11.455   7.744  70.587  1.00  0.00    -0.245 C  
HETATM    9  O   UNL     1     -11.845   9.927  71.566  1.00  0.00    -0.381 OA 
HETATM   10  H   UNL     1     -12.675   9.634  71.923  1.00  0.00     0.000 HD 
HETATM   11  C   UNL     1     -11.051   7.005  69.309  1.00  0.00    -0.127 C  
HETATM   12  O   UNL     1     -12.720   7.183  70.986  1.00  0.00    -0.504 OA 
HETATM   13  C   UNL     1      -9.775   7.604  68.662  1.00  0.00    -0.155 C  
HETATM   14  H   UNL     1     -12.672   6.247  71.137  1.00  0.00     0.000 HD 
HETATM   15  O   UNL     1     -10.854   5.615  69.635  1.00  0.00    -0.337 OA 
HETATM   16  H   UNL     1     -10.604   5.157  68.842  1.00  0.00     0.000 HD 
BRANCH  13  17
HETATM   17  C   UNL     1      -9.424   6.805  67.380  1.00  0.00    -0.134 C  
HETATM   18  O   UNL     1      -8.095   6.287  67.425  1.00  0.00    -0.108 OA 
HETATM   19  H   UNL     1      -7.880   5.798  66.640  1.00  0.00     0.000 HD 
ENDBRANCH  13  17
ENDBRANCH   4   5
ENDBRANCH   3   4
ENDBRANCH   2   3
TORSDOF 4
ENDMDL
MODEL      161
REMARK 921   NORMALIZED FREE ENERGY PREDICTED BY IDOCK:   -2.93 KCAL/MOL
REMARK 922        TOTAL FREE ENERGY PREDICTED BY IDOCK:   -4.10 KCAL/MOL
REMARK 923 INTER-LIGAND FREE ENERGY PREDICTED BY IDOCK:   -3.65 KCAL/MOL
REMARK 924 INTRA-LIGAND FREE ENERGY PREDICTED BY IDOCK:   -0.45 KCAL/MOL
REMARK 927      BINDING AFFINITY PREDICTED BY RF-SCORE:    0.00 PKD
ROOT
HETATM    1  C   UNL     1      -6.315   8.380  69.564  1.00  0.00    -0.037 C  
HETATM    2  C   UNL     1      -7.820   8.395  69.337  1.00  0.00    -0.103 C  
ENDROOT
BRANCH   2   3
HETATM    3  C   UNL     1      -8.436   9.754  69.688  1.00  0.00    -0.194 C  
BRANCH   3   4
HETATM    4  C   UNL     1      -8.627  10.659  68.451  1.00  0.00    -0.134 C  
BRANCH   4   5
HETATM    5  N   UNL     1     -10.029  11.040  68.204  1.00  0.00    -0.172 NA 
HETATM    6  C   UNL     1     -10.271  12.486  68.347  1.00  0.00    -0.228 C  
HETATM    7  C   UNL     1      -9.686  13.336  67.203  1.00  0.00    -0.236 C  
HETATM    8  C   UNL     1     -10.322  12.885  65.884  1.00  0.00    -0.285 C  
HETATM    9  O   UNL     1      -9.931  14.730  67.406  1.00  0.00    -0.223 OA 
HETATM   10  H   UNL     1      -9.570  15.255  66.701  1.00  0.00     0.000 HD 
HETATM   11  C   UNL     1     -10.136  11.380  65.677  1.00  0.00    -0.248 C  
HETATM   12  O   UNL     1      -9.724  13.519  64.737  1.00  0.00    -0.589 OA 
HETATM   13  C   UNL     1     -10.591  10.556  66.908  1.00  0.00    -0.243 C  
HETATM   14  H   UNL     1     -10.118  13.240  63.920  1.00  0.00     0.000 HD 
HETATM   15  O   UNL     1     -10.875  10.993  64.501  1.00  0.00    -0.313 OA 
HETATM   16  H   UNL     1     -10.760  10.060  64.372  1.00  0.00     0.000 HD 
BRANCH  13  17
HETATM   17  C   UNL     1     -10.381   9.046  66.625  1.00  0.00    -0.219 C  
HETATM   18  O   UNL     1      -9.449   8.829  65.566  1.00  0.00    -0.422 OA 
HETATM   19  H   UNL     1      -9.320   7.905  65.393  1.00  0.00     0.000 HD 
ENDBRANCH  13  17
ENDBRANCH   4   5
ENDBRANCH   3   4
ENDBRANCH   2   3
TORSDOF 4
ENDMDL
MODEL      162
REMARK 921   NORMALIZED FREE ENERGY PREDICTED BY IDOCK:   -2.92 KCAL/MOL
REMARK 922        TOTAL FREE ENERGY PREDICTED BY IDOCK:   -4.10 KCAL/MOL
REMARK 923 INTER-LIGAND FREE ENERGY PREDICTED BY IDOCK:   -3.79 KCAL/MOL
REMARK 924 INTRA-LIGAND FREE ENERGY PREDICTED BY IDOCK:   -0.31 KCAL/MOL
REMARK 927      BINDING AFFINITY PREDICTED BY RF-SCORE:    0.00 PKD
ROOT
HETATM    1  C   UNL     1     -11.721   7.244  71.568  1.00  0.00    -0.320 C  
HETATM    2  C   UNL     1     -12.015   8.668  72.017  1.00  0.00    -0.442 C  
ENDROOT
BRANCH   2   3
HETATM    3  C   UNL     1     -11.140   9.690  71.283  1.00  0.00    -0.426 C  
BRANCH   3   4
HETATM    4  C   UNL     1     -11.176   9.511  69.750  1.00  0.00    -0.144 C  
BRANCH   4   5
HETATM    5  N   UNL     1      -9.872   9.725  69.096  1.00  0.00    -0.178 NA 
HETATM    6  C   UNL     1      -8.935   8.605  69.291  1.00  0.00    -0.145 C  
HETATM    7  C   UNL     1      -9.294   7.340  68.488  1.00  0.00    -0.141 C  
HETATM    8  C   UNL     1      -9.297   7.692  66.996  1.00  0.00    -0.157 C  
HETATM    9  O   UNL     1      -8.366   6.280  68.733  1.00  0.00    -0.118 OA 
HETATM   10  H   UNL     1      -8.587   5.500  68.237  1.00  0.00     0.000 HD 
HETATM   11  C   UNL     1     -10.231   8.872  66.717  1.00  0.00    -0.278 C  
HETATM   12  O   UNL     1      -9.772   6.609  66.174  1.00  0.00    -0.381 OA 
HETATM   13  C   UNL     1      -9.947  10.080  67.648  1.00  0.00    -0.176 C  
HETATM   14  H   UNL     1      -9.773   6.827  65.249  1.00  0.00     0.000 HD 
HETATM   15  O   UNL     1     -10.081   9.247  65.334  1.00  0.00    -0.379 OA 
HETATM   16  H   UNL     1     -10.660   9.980  65.160  1.00  0.00     0.000 HD 
BRANCH  13  17
HETATM   17  C   UNL     1     -10.922  11.235  67.305  1.00  0.00    -0.286 C  
HETATM   18  O   UNL     1     -10.236  12.369  66.776  1.00  0.00    -0.217 OA 
HETATM   19  H   UNL     1     -10.834  13.077  66.567  1.00  0.00     0.000 HD 
ENDBRANCH  13  17
ENDBRANCH   4   5
ENDBRANCH   3   4
ENDBRANCH   2   3
TORSDOF 4
ENDMDL
MODEL      163
REMARK 921   NORMALIZED FREE ENERGY PREDICTED BY IDOCK:   -2.92 KCAL/MOL
REMARK 922        TOTAL FREE ENERGY PREDICTED BY IDOCK:   -4.09 KCAL/MOL
REMARK 923 INTER-LIGAND FREE ENERGY PREDICTED BY IDOCK:   -3.59 KCAL/MOL
REMARK 924 INTRA-LIGAND FREE ENERGY PREDICTED BY IDOCK:   -0.50 KCAL/MOL
REMARK 927      BINDING AFFINITY PREDICTED BY RF-SCORE:    0.00 PKD
ROOT
HETATM    1  C   UNL     1      -7.050   9.567  68.279  1.00  0.00    -0.075 C  
HETATM    2  C   UNL     1      -7.513  10.987  68.572  1.00  0.00    -0.106 C  
ENDROOT
BRANCH   2   3
HETATM    3  C   UNL     1      -9.020  11.051  68.845  1.00  0.00    -0.123 C  
BRANCH   3   4
HETATM    4  C   UNL     1      -9.500   9.932  69.794  1.00  0.00    -0.226 C  
BRANCH   4   5
HETATM    5  N   UNL     1     -10.863   9.450  69.503  1.00  0.00    -0.232 NA 
HETATM    6  C   UNL     1     -11.027   8.975  68.119  1.00  0.00     0.076 C  
HETATM    7  C   UNL     1     -10.334   7.630  67.831  1.00  0.00    -0.212 C  
HETATM    8  C   UNL     1     -10.924   6.566  68.762  1.00  0.00    -0.305 C  
HETATM    9  O   UNL     1     -10.507   7.231  66.468  1.00  0.00    -0.493 OA 
HETATM   10  H   UNL     1     -10.079   6.401  66.291  1.00  0.00     0.000 HD 
HETATM   11  C   UNL     1     -10.815   7.002  70.225  1.00  0.00    -0.254 C  
HETATM   12  O   UNL     1     -10.231   5.307  68.672  1.00  0.00    -0.179 OA 
HETATM   13  C   UNL     1     -11.383   8.426  70.458  1.00  0.00    -0.216 C  
HETATM   14  H   UNL     1     -10.596   4.647  69.249  1.00  0.00     0.000 HD 
HETATM   15  O   UNL     1     -11.513   6.035  71.035  1.00  0.00    -0.280 OA 
HETATM   16  H   UNL     1     -11.446   6.306  71.943  1.00  0.00     0.000 HD 
BRANCH  13  17
HETATM   17  C   UNL     1     -11.246   8.797  71.957  1.00  0.00    -0.373 C  
HETATM   18  O   UNL     1     -12.297   8.234  72.741  1.00  0.00    -0.597 OA 
HETATM   19  H   UNL     1     -12.213   8.461  73.659  1.00  0.00     0.000 HD 
ENDBRANCH  13  17
ENDBRANCH   4   5
ENDBRANCH   3   4
ENDBRANCH   2   3
TORSDOF 4
ENDMDL
MODEL      164
REMARK 921   NORMALIZED FREE ENERGY PREDICTED BY IDOCK:   -2.91 KCAL/MOL
REMARK 922        TOTAL FREE ENERGY PREDICTED BY IDOCK:   -4.09 KCAL/MOL
REMARK 923 INTER-LIGAND FREE ENERGY PREDICTED BY IDOCK:   -4.19 KCAL/MOL
REMARK 924 INTRA-LIGAND FREE ENERGY PREDICTED BY IDOCK:    0.10 KCAL/MOL
REMARK 927      BINDING AFFINITY PREDICTED BY RF-SCORE:    0.00 PKD
ROOT
HETATM    1  C   UNL     1      -6.343  19.517  65.597  1.00  0.00    -0.253 C  
HETATM    2  C   UNL     1      -5.735  19.599  66.990  1.00  0.00    -0.174 C  
ENDROOT
BRANCH   2   3
HETATM    3  C   UNL     1      -6.627  18.933  68.043  1.00  0.00    -0.237 C  
BRANCH   3   4
HETATM    4  C   UNL     1      -6.761  17.409  67.831  1.00  0.00    -0.173 C  
BRANCH   4   5
HETATM    5  N   UNL     1      -8.008  16.841  68.376  1.00  0.00    -0.213 NA 
HETATM    6  C   UNL     1      -9.175  17.721  68.193  1.00  0.00    -0.277 C  
HETATM    7  C   UNL     1      -9.677  17.804  66.740  1.00  0.00    -0.309 C  
HETATM    8  C   UNL     1     -10.076  16.398  66.279  1.00  0.00    -0.331 C  
HETATM    9  O   UNL     1     -10.794  18.688  66.619  1.00  0.00    -0.312 OA 
HETATM   10  H   UNL     1     -11.104  18.739  65.722  1.00  0.00     0.000 HD 
HETATM   11  C   UNL     1      -8.918  15.415  66.465  1.00  0.00    -0.309 C  
HETATM   12  O   UNL     1     -10.415  16.350  64.880  1.00  0.00    -0.643 OA 
HETATM   13  C   UNL     1      -8.330  15.463  67.899  1.00  0.00    -0.144 C  
HETATM   14  H   UNL     1     -10.663  15.479  64.594  1.00  0.00     0.000 HD 
HETATM   15  O   UNL     1      -9.397  14.091  66.154  1.00  0.00    -0.456 OA 
HETATM   16  H   UNL     1      -8.679  13.481  66.270  1.00  0.00     0.000 HD 
BRANCH  13  17
HETATM   17  C   UNL     1      -7.170  14.441  68.015  1.00  0.00    -0.141 C  
HETATM   18  O   UNL     1      -6.193  14.627  66.992  1.00  0.00    -0.221 OA 
HETATM   19  H   UNL     1      -5.483  14.001  67.064  1.00  0.00     0.000 HD 
ENDBRANCH  13  17
ENDBRANCH   4   5
ENDBRANCH   3   4
ENDBRANCH   2   3
TORSDOF 4
ENDMDL
MODEL      165
REMARK 921   NORMALIZED FREE ENERGY PREDICTED BY IDOCK:   -2.91 KCAL/MOL
REMARK 922        TOTAL FREE ENERGY PREDICTED BY IDOCK:   -4.08 KCAL/MOL
REMARK 923 INTER-LIGAND FREE ENERGY PREDICTED BY IDOCK:   -4.00 KCAL/MOL
REMARK 924 INTRA-LIGAND FREE ENERGY PREDICTED BY IDOCK:   -0.08 KCAL/MOL
REMARK 927      BINDING AFFINITY PREDICTED BY RF-SCORE:    0.00 PKD
ROOT
HETATM    1  C   UNL     1      -6.199   5.927  71.817  1.00  0.00    -0.044 C  
HETATM    2  C   UNL     1      -6.754   4.611  72.342  1.00  0.00    -0.051 C  
ENDROOT
BRANCH   2   3
HETATM    3  C   UNL     1      -7.940   4.117  71.506  1.00  0.00    -0.077 C  
BRANCH   3   4
HETATM    4  C   UNL     1      -9.261   4.831  71.866  1.00  0.00    -0.137 C  
BRANCH   4   5
HETATM    5  N   UNL     1      -9.300   6.248  71.462  1.00  0.00    -0.149 NA 
HETATM    6  C   UNL     1      -9.748   6.442  70.072  1.00  0.00    -0.165 C  
HETATM    7  C   UNL     1     -11.251   6.188  69.856  1.00  0.00    -0.414 C  
HETATM    8  C   UNL     1     -12.044   7.157  70.740  1.00  0.00    -0.288 C  
HETATM    9  O   UNL     1     -11.624   6.369  68.487  1.00  0.00    -0.499 OA 
HETATM   10  H   UNL     1     -12.552   6.213  68.354  1.00  0.00     0.000 HD 
HETATM   11  C   UNL     1     -11.613   7.033  72.204  1.00  0.00    -0.282 C  
HETATM   12  O   UNL     1     -13.459   6.892  70.721  1.00  0.00    -0.365 OA 
HETATM   13  C   UNL     1     -10.075   7.139  72.375  1.00  0.00    -0.182 C  
HETATM   14  H   UNL     1     -13.950   7.492  71.269  1.00  0.00     0.000 HD 
HETATM   15  O   UNL     1     -12.283   8.063  72.958  1.00  0.00    -0.659 OA 
HETATM   16  H   UNL     1     -12.015   7.987  73.866  1.00  0.00     0.000 HD 
BRANCH  13  17
HETATM   17  C   UNL     1      -9.714   7.013  73.877  1.00  0.00    -0.294 C  
HETATM   18  O   UNL     1      -8.735   7.974  74.271  1.00  0.00    -0.393 OA 
HETATM   19  H   UNL     1      -8.514   7.896  75.191  1.00  0.00     0.000 HD 
ENDBRANCH  13  17
ENDBRANCH   4   5
ENDBRANCH   3   4
ENDBRANCH   2   3
TORSDOF 4
ENDMDL
MODEL      166
REMARK 921   NORMALIZED FREE ENERGY PREDICTED BY IDOCK:   -2.89 KCAL/MOL
REMARK 922        TOTAL FREE ENERGY PREDICTED BY IDOCK:   -4.06 KCAL/MOL
REMARK 923 INTER-LIGAND FREE ENERGY PREDICTED BY IDOCK:   -3.77 KCAL/MOL
REMARK 924 INTRA-LIGAND FREE ENERGY PREDICTED BY IDOCK:   -0.30 KCAL/MOL
REMARK 927      BINDING AFFINITY PREDICTED BY RF-SCORE:    0.00 PKD
ROOT
HETATM    1  C   UNL     1      -8.892   2.818  69.924  1.00  0.00    -0.146 C  
HETATM    2  C   UNL     1      -9.687   2.367  71.140  1.00  0.00    -0.180 C  
ENDROOT
BRANCH   2   3
HETATM    3  C   UNL     1      -9.716   3.440  72.233  1.00  0.00    -0.221 C  
BRANCH   3   4
HETATM    4  C   UNL     1     -10.392   4.748  71.766  1.00  0.00    -0.160 C  
BRANCH   4   5
HETATM    5  N   UNL     1     -10.779   5.644  72.871  1.00  0.00    -0.230 NA 
HETATM    6  C   UNL     1      -9.714   5.826  73.871  1.00  0.00    -0.169 C  
HETATM    7  C   UNL     1      -8.539   6.694  73.385  1.00  0.00    -0.122 C  
HETATM    8  C   UNL     1      -9.075   8.082  73.018  1.00  0.00    -0.265 C  
HETATM    9  O   UNL     1      -7.525   6.817  74.387  1.00  0.00    -0.097 OA 
HETATM   10  H   UNL     1      -6.800   7.354  74.087  1.00  0.00     0.000 HD 
HETATM   11  C   UNL     1     -10.211   7.974  71.998  1.00  0.00    -0.226 C  
HETATM   12  O   UNL     1      -8.073   8.918  72.407  1.00  0.00    -0.381 OA 
HETATM   13  C   UNL     1     -11.308   6.974  72.444  1.00  0.00    -0.269 C  
HETATM   14  H   UNL     1      -8.406   9.778  72.180  1.00  0.00     0.000 HD 
HETATM   15  O   UNL     1     -10.768   9.290  71.804  1.00  0.00    -0.363 OA 
HETATM   16  H   UNL     1     -11.473   9.223  71.171  1.00  0.00     0.000 HD 
BRANCH  13  17
HETATM   17  C   UNL     1     -12.425   6.921  71.370  1.00  0.00    -0.367 C  
HETATM   18  O   UNL     1     -11.903   7.084  70.052  1.00  0.00    -0.569 OA 
HETATM   19  H   UNL     1     -12.587   7.052  69.394  1.00  0.00     0.000 HD 
ENDBRANCH  13  17
ENDBRANCH   4   5
ENDBRANCH   3   4
ENDBRANCH   2   3
TORSDOF 4
ENDMDL
MODEL      167
REMARK 921   NORMALIZED FREE ENERGY PREDICTED BY IDOCK:   -2.87 KCAL/MOL
REMARK 922        TOTAL FREE ENERGY PREDICTED BY IDOCK:   -4.03 KCAL/MOL
REMARK 923 INTER-LIGAND FREE ENERGY PREDICTED BY IDOCK:   -3.58 KCAL/MOL
REMARK 924 INTRA-LIGAND FREE ENERGY PREDICTED BY IDOCK:   -0.44 KCAL/MOL
REMARK 927      BINDING AFFINITY PREDICTED BY RF-SCORE:    0.00 PKD
ROOT
HETATM    1  C   UNL     1      -7.313  17.138  68.954  1.00  0.00    -0.241 C  
HETATM    2  C   UNL     1      -7.703  17.156  67.483  1.00  0.00    -0.190 C  
ENDROOT
BRANCH   2   3
HETATM    3  C   UNL     1      -8.954  16.313  67.213  1.00  0.00    -0.209 C  
BRANCH   3   4
HETATM    4  C   UNL     1      -8.619  14.847  66.860  1.00  0.00    -0.239 C  
BRANCH   4   5
HETATM    5  N   UNL     1      -8.982  13.884  67.916  1.00  0.00    -0.181 NA 
HETATM    6  C   UNL     1     -10.397  13.479  67.871  1.00  0.00    -0.249 C  
HETATM    7  C   UNL     1     -10.745  12.545  66.697  1.00  0.00    -0.236 C  
HETATM    8  C   UNL     1      -9.900  11.272  66.817  1.00  0.00    -0.199 C  
HETATM    9  O   UNL     1     -12.134  12.204  66.690  1.00  0.00    -0.622 OA 
HETATM   10  H   UNL     1     -12.349  11.627  65.966  1.00  0.00     0.000 HD 
HETATM   11  C   UNL     1      -8.410  11.614  66.898  1.00  0.00    -0.169 C  
HETATM   12  O   UNL     1     -10.045  10.403  65.678  1.00  0.00    -0.259 OA 
HETATM   13  C   UNL     1      -8.109  12.675  67.988  1.00  0.00    -0.161 C  
HETATM   14  H   UNL     1      -9.522   9.614  65.753  1.00  0.00     0.000 HD 
HETATM   15  O   UNL     1      -7.683  10.396  67.155  1.00  0.00    -0.098 OA 
HETATM   16  H   UNL     1      -6.759  10.608  67.206  1.00  0.00     0.000 HD 
BRANCH  13  17
HETATM   17  C   UNL     1      -6.586  12.965  68.018  1.00  0.00    -0.107 C  
HETATM   18  O   UNL     1      -5.924  12.445  66.866  1.00  0.00    -0.424 OA 
HETATM   19  H   UNL     1      -4.991  12.623  66.884  1.00  0.00     0.000 HD 
ENDBRANCH  13  17
ENDBRANCH   4   5
ENDBRANCH   3   4
ENDBRANCH   2   3
TORSDOF 4
ENDMDL
MODEL      168
REMARK 921   NORMALIZED FREE ENERGY PREDICTED BY IDOCK:   -2.86 KCAL/MOL
REMARK 922        TOTAL FREE ENERGY PREDICTED BY IDOCK:   -4.02 KCAL/MOL
REMARK 923 INTER-LIGAND FREE ENERGY PREDICTED BY IDOCK:   -3.66 KCAL/MOL
REMARK 924 INTRA-LIGAND FREE ENERGY PREDICTED BY IDOCK:   -0.37 KCAL/MOL
REMARK 927      BINDING AFFINITY PREDICTED BY RF-SCORE:    0.00 PKD
ROOT
HETATM    1  C   UNL     1     -11.333  13.409  67.643  1.00  0.00    -0.321 C  
HETATM    2  C   UNL     1     -12.034  12.345  68.475  1.00  0.00    -0.273 C  
ENDROOT
BRANCH   2   3
HETATM    3  C   UNL     1     -11.042  11.519  69.301  1.00  0.00    -0.305 C  
BRANCH   3   4
HETATM    4  C   UNL     1     -11.285   9.999  69.180  1.00  0.00    -0.149 C  
BRANCH   4   5
HETATM    5  N   UNL     1     -10.095   9.182  69.473  1.00  0.00    -0.190 NA 
HETATM    6  C   UNL     1      -9.795   9.088  70.912  1.00  0.00    -0.264 C  
HETATM    7  C   UNL     1     -10.777   8.202  71.701  1.00  0.00    -0.241 C  
HETATM    8  C   UNL     1     -10.731   6.784  71.123  1.00  0.00    -0.229 C  
HETATM    9  O   UNL     1     -10.452   8.167  73.094  1.00  0.00    -0.285 OA 
HETATM   10  H   UNL     1     -11.058   7.621  73.580  1.00  0.00     0.000 HD 
HETATM   11  C   UNL     1     -11.006   6.801  69.617  1.00  0.00    -0.288 C  
HETATM   12  O   UNL     1     -11.729   5.920  71.698  1.00  0.00    -0.212 OA 
HETATM   13  C   UNL     1     -10.106   7.817  68.866  1.00  0.00    -0.195 C  
HETATM   14  H   UNL     1     -11.700   5.041  71.339  1.00  0.00     0.000 HD 
HETATM   15  O   UNL     1     -10.806   5.468  69.108  1.00  0.00    -0.251 OA 
HETATM   16  H   UNL     1     -10.976   5.478  68.174  1.00  0.00     0.000 HD 
BRANCH  13  17
HETATM   17  C   UNL     1     -10.435   7.775  67.352  1.00  0.00    -0.292 C  
HETATM   18  O   UNL     1      -9.935   6.591  66.733  1.00  0.00    -0.162 OA 
HETATM   19  H   UNL     1     -10.136   6.566  65.805  1.00  0.00     0.000 HD 
ENDBRANCH  13  17
ENDBRANCH   4   5
ENDBRANCH   3   4
ENDBRANCH   2   3
TORSDOF 4
ENDMDL
MODEL      169
REMARK 921   NORMALIZED FREE ENERGY PREDICTED BY IDOCK:   -2.85 KCAL/MOL
REMARK 922        TOTAL FREE ENERGY PREDICTED BY IDOCK:   -4.01 KCAL/MOL
REMARK 923 INTER-LIGAND FREE ENERGY PREDICTED BY IDOCK:   -3.64 KCAL/MOL
REMARK 924 INTRA-LIGAND FREE ENERGY PREDICTED BY IDOCK:   -0.38 KCAL/MOL
REMARK 927      BINDING AFFINITY PREDICTED BY RF-SCORE:    0.00 PKD
ROOT
HETATM    1  C   UNL     1      -9.749  13.537  67.761  1.00  0.00    -0.226 C  
HETATM    2  C   UNL     1      -9.521  14.504  66.608  1.00  0.00    -0.301 C  
ENDROOT
BRANCH   2   3
HETATM    3  C   UNL     1     -10.270  15.825  66.815  1.00  0.00    -0.284 C  
BRANCH   3   4
HETATM    4  C   UNL     1      -9.442  16.861  67.606  1.00  0.00    -0.241 C  
BRANCH   4   5
HETATM    5  N   UNL     1      -8.028  16.929  67.196  1.00  0.00    -0.172 NA 
HETATM    6  C   UNL     1      -7.770  17.949  66.165  1.00  0.00    -0.237 C  
HETATM    7  C   UNL     1      -7.840  19.397  66.684  1.00  0.00    -0.277 C  
HETATM    8  C   UNL     1      -6.790  19.574  67.786  1.00  0.00    -0.239 C  
HETATM    9  O   UNL     1      -7.606  20.343  65.637  1.00  0.00    -0.521 OA 
HETATM   10  H   UNL     1      -7.649  21.236  65.958  1.00  0.00     0.000 HD 
HETATM   11  C   UNL     1      -6.975  18.526  68.887  1.00  0.00    -0.283 C  
HETATM   12  O   UNL     1      -6.884  20.854  68.439  1.00  0.00    -0.158 OA 
HETATM   13  C   UNL     1      -7.056  17.085  68.320  1.00  0.00    -0.190 C  
HETATM   14  H   UNL     1      -6.233  20.963  69.122  1.00  0.00     0.000 HD 
HETATM   15  O   UNL     1      -5.878  18.649  69.814  1.00  0.00    -0.237 OA 
HETATM   16  H   UNL     1      -5.993  17.999  70.497  1.00  0.00     0.000 HD 
BRANCH  13  17
HETATM   17  C   UNL     1      -7.236  16.081  69.487  1.00  0.00    -0.162 C  
HETATM   18  O   UNL     1      -6.358  14.963  69.366  1.00  0.00    -0.108 OA 
HETATM   19  H   UNL     1      -6.469  14.348  70.081  1.00  0.00     0.000 HD 
ENDBRANCH  13  17
ENDBRANCH   4   5
ENDBRANCH   3   4
ENDBRANCH   2   3
TORSDOF 4
ENDMDL
MODEL      170
REMARK 921   NORMALIZED FREE ENERGY PREDICTED BY IDOCK:   -2.85 KCAL/MOL
REMARK 922        TOTAL FREE ENERGY PREDICTED BY IDOCK:   -4.01 KCAL/MOL
REMARK 923 INTER-LIGAND FREE ENERGY PREDICTED BY IDOCK:   -3.68 KCAL/MOL
REMARK 924 INTRA-LIGAND FREE ENERGY PREDICTED BY IDOCK:   -0.32 KCAL/MOL
REMARK 927      BINDING AFFINITY PREDICTED BY RF-SCORE:    0.00 PKD
ROOT
HETATM    1  C   UNL     1      -6.632   6.466  63.589  1.00  0.00    -0.033 C  
HETATM    2  C   UNL     1      -6.789   7.620  64.569  1.00  0.00    -0.055 C  
ENDROOT
BRANCH   2   3
HETATM    3  C   UNL     1      -8.240   8.106  64.650  1.00  0.00    -0.128 C  
BRANCH   3   4
HETATM    4  C   UNL     1      -8.364   9.503  65.297  1.00  0.00    -0.139 C  
BRANCH   4   5
HETATM    5  N   UNL     1      -9.753   9.983  65.413  1.00  0.00    -0.282 NA 
HETATM    6  C   UNL     1     -10.112  10.396  66.780  1.00  0.00    -0.214 C  
HETATM    7  C   UNL     1      -9.464  11.719  67.227  1.00  0.00    -0.170 C  
HETATM    8  C   UNL     1      -9.912  12.831  66.272  1.00  0.00    -0.264 C  
HETATM    9  O   UNL     1      -9.829  12.057  68.568  1.00  0.00    -0.220 OA 
HETATM   10  H   UNL     1      -9.429  12.874  68.843  1.00  0.00     0.000 HD 
HETATM   11  C   UNL     1      -9.597  12.461  64.821  1.00  0.00     0.140 C  
HETATM   12  O   UNL     1      -9.236  14.078  66.519  1.00  0.00    -0.356 OA 
HETATM   13  C   UNL     1     -10.129  11.055  64.443  1.00  0.00    -0.334 C  
HETATM   14  H   UNL     1      -9.513  14.767  65.928  1.00  0.00     0.000 HD 
HETATM   15  O   UNL     1     -10.169  13.471  63.965  1.00  0.00    -0.723 OA 
HETATM   16  H   UNL     1      -9.974  13.242  63.065  1.00  0.00     0.000 HD 
BRANCH  13  17
HETATM   17  C   UNL     1      -9.780  10.752  62.963  1.00  0.00    -0.340 C  
HETATM   18  O   UNL     1      -8.727  11.587  62.484  1.00  0.00    -0.567 OA 
HETATM   19  H   UNL     1      -8.514  11.402  61.577  1.00  0.00     0.000 HD 
ENDBRANCH  13  17
ENDBRANCH   4   5
ENDBRANCH   3   4
ENDBRANCH   2   3
TORSDOF 4
ENDMDL
MODEL      171
REMARK 921   NORMALIZED FREE ENERGY PREDICTED BY IDOCK:   -2.83 KCAL/MOL
REMARK 922        TOTAL FREE ENERGY PREDICTED BY IDOCK:   -3.98 KCAL/MOL
REMARK 923 INTER-LIGAND FREE ENERGY PREDICTED BY IDOCK:   -3.60 KCAL/MOL
REMARK 924 INTRA-LIGAND FREE ENERGY PREDICTED BY IDOCK:   -0.38 KCAL/MOL
REMARK 927      BINDING AFFINITY PREDICTED BY RF-SCORE:    0.00 PKD
ROOT
HETATM    1  C   UNL     1     -12.371  11.014  70.487  1.00  0.00    -0.462 C  
HETATM    2  C   UNL     1     -13.441  10.326  71.322  1.00  0.00    -0.267 C  
ENDROOT
BRANCH   2   3
HETATM    3  C   UNL     1     -13.063   8.878  71.653  1.00  0.00    -0.405 C  
BRANCH   3   4
HETATM    4  C   UNL     1     -11.676   8.484  71.101  1.00  0.00    -0.281 C  
BRANCH   4   5
HETATM    5  N   UNL     1     -11.410   7.034  71.140  1.00  0.00    -0.269 NA 
HETATM    6  C   UNL     1     -11.610   6.372  69.840  1.00  0.00    -0.353 C  
HETATM    7  C   UNL     1     -10.519   6.691  68.800  1.00  0.00    -0.213 C  
HETATM    8  C   UNL     1      -9.166   6.232  69.354  1.00  0.00    -0.138 C  
HETATM    9  O   UNL     1     -10.776   6.041  67.552  1.00  0.00    -0.247 OA 
HETATM   10  H   UNL     1     -10.103   6.238  66.911  1.00  0.00     0.000 HD 
HETATM   11  C   UNL     1      -8.898   6.859  70.724  1.00  0.00    -0.150 C  
HETATM   12  O   UNL     1      -8.063   6.627  68.516  1.00  0.00    -0.116 OA 
HETATM   13  C   UNL     1     -10.081   6.655  71.706  1.00  0.00    -0.183 C  
HETATM   14  H   UNL     1      -7.224   6.343  68.859  1.00  0.00     0.000 HD 
HETATM   15  O   UNL     1      -7.689   6.281  71.255  1.00  0.00    -0.099 OA 
HETATM   16  H   UNL     1      -7.523   6.669  72.105  1.00  0.00     0.000 HD 
BRANCH  13  17
HETATM   17  C   UNL     1      -9.738   7.308  73.070  1.00  0.00    -0.186 C  
HETATM   18  O   UNL     1      -8.869   8.429  72.918  1.00  0.00    -0.235 OA 
HETATM   19  H   UNL     1      -8.659   8.829  73.754  1.00  0.00     0.000 HD 
ENDBRANCH  13  17
ENDBRANCH   4   5
ENDBRANCH   3   4
ENDBRANCH   2   3
TORSDOF 4
ENDMDL
MODEL      172
REMARK 921   NORMALIZED FREE ENERGY PREDICTED BY IDOCK:   -2.79 KCAL/MOL
REMARK 922        TOTAL FREE ENERGY PREDICTED BY IDOCK:   -3.93 KCAL/MOL
REMARK 923 INTER-LIGAND FREE ENERGY PREDICTED BY IDOCK:   -3.54 KCAL/MOL
REMARK 924 INTRA-LIGAND FREE ENERGY PREDICTED BY IDOCK:   -0.39 KCAL/MOL
REMARK 927      BINDING AFFINITY PREDICTED BY RF-SCORE:    0.00 PKD
ROOT
HETATM    1  C   UNL     1      -9.696  10.434  65.666  1.00  0.00    -0.294 C  
HETATM    2  C   UNL     1     -10.782  11.473  65.901  1.00  0.00    -0.325 C  
ENDROOT
BRANCH   2   3
HETATM    3  C   UNL     1     -11.269  11.473  67.354  1.00  0.00    -0.367 C  
BRANCH   3   4
HETATM    4  C   UNL     1     -10.375  10.621  68.281  1.00  0.00    -0.177 C  
BRANCH   4   5
HETATM    5  N   UNL     1     -11.025   9.392  68.770  1.00  0.00    -0.107 NA 
HETATM    6  C   UNL     1     -10.373   8.161  68.292  1.00  0.00    -0.197 C  
HETATM    7  C   UNL     1      -9.012   7.876  68.952  1.00  0.00    -0.141 C  
HETATM    8  C   UNL     1      -9.220   7.736  70.464  1.00  0.00    -0.162 C  
HETATM    9  O   UNL     1      -8.416   6.683  68.434  1.00  0.00    -0.124 OA 
HETATM   10  H   UNL     1      -7.575   6.507  68.842  1.00  0.00     0.000 HD 
HETATM   11  C   UNL     1      -9.921   8.972  71.032  1.00  0.00    -0.279 C  
HETATM   12  O   UNL     1      -7.978   7.620  71.184  1.00  0.00    -0.089 OA 
HETATM   13  C   UNL     1     -11.212   9.328  70.250  1.00  0.00    -0.231 C  
HETATM   14  H   UNL     1      -8.107   7.533  72.121  1.00  0.00     0.000 HD 
HETATM   15  O   UNL     1     -10.218   8.721  72.421  1.00  0.00    -0.293 OA 
HETATM   16  H   UNL     1     -10.654   9.488  72.774  1.00  0.00     0.000 HD 
BRANCH  13  17
HETATM   17  C   UNL     1     -11.870  10.580  70.883  1.00  0.00    -0.355 C  
HETATM   18  O   UNL     1     -12.686  10.242  72.004  1.00  0.00    -0.401 OA 
HETATM   19  H   UNL     1     -13.090  11.010  72.391  1.00  0.00     0.000 HD 
ENDBRANCH  13  17
ENDBRANCH   4   5
ENDBRANCH   3   4
ENDBRANCH   2   3
TORSDOF 4
ENDMDL
MODEL      173
REMARK 921   NORMALIZED FREE ENERGY PREDICTED BY IDOCK:   -2.79 KCAL/MOL
REMARK 922        TOTAL FREE ENERGY PREDICTED BY IDOCK:   -3.93 KCAL/MOL
REMARK 923 INTER-LIGAND FREE ENERGY PREDICTED BY IDOCK:   -3.47 KCAL/MOL
REMARK 924 INTRA-LIGAND FREE ENERGY PREDICTED BY IDOCK:   -0.46 KCAL/MOL
REMARK 927      BINDING AFFINITY PREDICTED BY RF-SCORE:    0.00 PKD
ROOT
HETATM    1  C   UNL     1      -6.765  11.049  66.885  1.00  0.00    -0.120 C  
HETATM    2  C   UNL     1      -7.228  11.206  68.326  1.00  0.00    -0.083 C  
ENDROOT
BRANCH   2   3
HETATM    3  C   UNL     1      -8.698  11.631  68.411  1.00  0.00    -0.158 C  
BRANCH   3   4
HETATM    4  C   UNL     1      -9.566  10.619  69.189  1.00  0.00    -0.177 C  
BRANCH   4   5
HETATM    5  N   UNL     1      -8.965   9.277  69.295  1.00  0.00    -0.142 NA 
HETATM    6  C   UNL     1      -8.620   8.903  70.677  1.00  0.00    -0.194 C  
HETATM    7  C   UNL     1      -9.838   8.586  71.563  1.00  0.00    -0.239 C  
HETATM    8  C   UNL     1     -10.605   7.414  70.941  1.00  0.00    -0.223 C  
HETATM    9  O   UNL     1      -9.445   8.252  72.898  1.00  0.00    -0.262 OA 
HETATM   10  H   UNL     1     -10.197   8.056  73.445  1.00  0.00     0.000 HD 
HETATM   11  C   UNL     1     -10.976   7.717  69.487  1.00  0.00    -0.084 C  
HETATM   12  O   UNL     1     -11.847   7.143  71.618  1.00  0.00    -0.276 OA 
HETATM   13  C   UNL     1      -9.755   8.184  68.654  1.00  0.00    -0.153 C  
HETATM   14  H   UNL     1     -12.321   6.417  71.233  1.00  0.00     0.000 HD 
HETATM   15  O   UNL     1     -11.561   6.530  68.916  1.00  0.00    -0.606 OA 
HETATM   16  H   UNL     1     -11.791   6.718  68.014  1.00  0.00     0.000 HD 
BRANCH  13  17
HETATM   17  C   UNL     1     -10.202   8.465  67.196  1.00  0.00    -0.292 C  
HETATM   18  O   UNL     1     -10.186   7.283  66.398  1.00  0.00    -0.464 OA 
HETATM   19  H   UNL     1     -10.460   7.456  65.505  1.00  0.00     0.000 HD 
ENDBRANCH  13  17
ENDBRANCH   4   5
ENDBRANCH   3   4
ENDBRANCH   2   3
TORSDOF 4
ENDMDL
MODEL      174
REMARK 921   NORMALIZED FREE ENERGY PREDICTED BY IDOCK:   -2.78 KCAL/MOL
REMARK 922        TOTAL FREE ENERGY PREDICTED BY IDOCK:   -3.92 KCAL/MOL
REMARK 923 INTER-LIGAND FREE ENERGY PREDICTED BY IDOCK:   -3.47 KCAL/MOL
REMARK 924 INTRA-LIGAND FREE ENERGY PREDICTED BY IDOCK:   -0.45 KCAL/MOL
REMARK 927      BINDING AFFINITY PREDICTED BY RF-SCORE:    0.00 PKD
ROOT
HETATM    1  C   UNL     1      -5.283   6.541  70.544  1.00  0.00    -0.018 C  
HETATM    2  C   UNL     1      -6.118   5.278  70.704  1.00  0.00    -0.022 C  
ENDROOT
BRANCH   2   3
HETATM    3  C   UNL     1      -7.211   5.446  71.764  1.00  0.00    -0.085 C  
BRANCH   3   4
HETATM    4  C   UNL     1      -8.539   5.967  71.172  1.00  0.00    -0.129 C  
BRANCH   4   5
HETATM    5  N   UNL     1      -9.178   7.020  71.981  1.00  0.00    -0.139 NA 
HETATM    6  C   UNL     1      -8.646   8.366  71.706  1.00  0.00    -0.176 C  
HETATM    7  C   UNL     1      -9.079   8.946  70.347  1.00  0.00    -0.190 C  
HETATM    8  C   UNL     1     -10.609   9.034  70.316  1.00  0.00    -0.217 C  
HETATM    9  O   UNL     1      -8.515  10.242  70.124  1.00  0.00    -0.351 OA 
HETATM   10  H   UNL     1      -8.783  10.600  69.286  1.00  0.00     0.000 HD 
HETATM   11  C   UNL     1     -11.238   7.673  70.623  1.00  0.00    -0.266 C  
HETATM   12  O   UNL     1     -11.114   9.423  69.025  1.00  0.00    -0.417 OA 
HETATM   13  C   UNL     1     -10.670   7.041  71.919  1.00  0.00    -0.217 C  
HETATM   14  H   UNL     1     -12.062   9.478  69.007  1.00  0.00     0.000 HD 
HETATM   15  O   UNL     1     -12.665   7.850  70.723  1.00  0.00    -0.515 OA 
HETATM   16  H   UNL     1     -13.056   7.006  70.913  1.00  0.00     0.000 HD 
BRANCH  13  17
HETATM   17  C   UNL     1     -11.355   5.672  72.169  1.00  0.00    -0.214 C  
HETATM   18  O   UNL     1     -12.635   5.824  72.781  1.00  0.00    -0.511 OA 
HETATM   19  H   UNL     1     -13.055   4.985  72.934  1.00  0.00     0.000 HD 
ENDBRANCH  13  17
ENDBRANCH   4   5
ENDBRANCH   3   4
ENDBRANCH   2   3
TORSDOF 4
ENDMDL
MODEL      175
REMARK 921   NORMALIZED FREE ENERGY PREDICTED BY IDOCK:   -2.78 KCAL/MOL
REMARK 922        TOTAL FREE ENERGY PREDICTED BY IDOCK:   -3.92 KCAL/MOL
REMARK 923 INTER-LIGAND FREE ENERGY PREDICTED BY IDOCK:   -3.58 KCAL/MOL
REMARK 924 INTRA-LIGAND FREE ENERGY PREDICTED BY IDOCK:   -0.34 KCAL/MOL
REMARK 927      BINDING AFFINITY PREDICTED BY RF-SCORE:    0.00 PKD
ROOT
HETATM    1  C   UNL     1     -11.801  12.576  63.693  1.00  0.00    -0.610 C  
HETATM    2  C   UNL     1     -10.662  12.631  64.701  1.00  0.00    -0.353 C  
ENDROOT
BRANCH   2   3
HETATM    3  C   UNL     1     -11.066  12.034  66.053  1.00  0.00    -0.364 C  
BRANCH   3   4
HETATM    4  C   UNL     1      -9.918  12.066  67.086  1.00  0.00    -0.195 C  
BRANCH   4   5
HETATM    5  N   UNL     1      -9.155  10.808  67.164  1.00  0.00    -0.144 NA 
HETATM    6  C   UNL     1      -7.709  10.992  66.953  1.00  0.00    -0.140 C  
HETATM    7  C   UNL     1      -6.985  11.674  68.128  1.00  0.00    -0.071 C  
HETATM    8  C   UNL     1      -7.166  10.812  69.382  1.00  0.00    -0.132 C  
HETATM    9  O   UNL     1      -5.591  11.847  67.858  1.00  0.00    -0.046 OA 
HETATM   10  H   UNL     1      -5.144  12.268  68.583  1.00  0.00     0.000 HD 
HETATM   11  C   UNL     1      -8.650  10.552  69.653  1.00  0.00     0.043 C  
HETATM   12  O   UNL     1      -6.652  11.446  70.568  1.00  0.00    -0.508 OA 
HETATM   13  C   UNL     1      -9.390  10.008  68.404  1.00  0.00    -0.138 C  
HETATM   14  H   UNL     1      -6.764  10.912  71.345  1.00  0.00     0.000 HD 
HETATM   15  O   UNL     1      -8.750   9.623  70.751  1.00  0.00    -0.299 OA 
HETATM   16  H   UNL     1      -9.670   9.461  70.919  1.00  0.00     0.000 HD 
BRANCH  13  17
HETATM   17  C   UNL     1     -10.880   9.763  68.754  1.00  0.00    -0.188 C  
HETATM   18  O   UNL     1     -11.076   8.498  69.385  1.00  0.00    -0.429 OA 
HETATM   19  H   UNL     1     -11.989   8.348  69.599  1.00  0.00     0.000 HD 
ENDBRANCH  13  17
ENDBRANCH   4   5
ENDBRANCH   3   4
ENDBRANCH   2   3
TORSDOF 4
ENDMDL
MODEL      176
REMARK 921   NORMALIZED FREE ENERGY PREDICTED BY IDOCK:   -2.76 KCAL/MOL
REMARK 922        TOTAL FREE ENERGY PREDICTED BY IDOCK:   -3.89 KCAL/MOL
REMARK 923 INTER-LIGAND FREE ENERGY PREDICTED BY IDOCK:   -3.38 KCAL/MOL
REMARK 924 INTRA-LIGAND FREE ENERGY PREDICTED BY IDOCK:   -0.51 KCAL/MOL
REMARK 927      BINDING AFFINITY PREDICTED BY RF-SCORE:    0.00 PKD
ROOT
HETATM    1  C   UNL     1      -5.850   6.902  68.076  1.00  0.00    -0.024 C  
HETATM    2  C   UNL     1      -6.951   6.395  68.995  1.00  0.00    -0.072 C  
ENDROOT
BRANCH   2   3
HETATM    3  C   UNL     1      -8.337   6.534  68.357  1.00  0.00    -0.117 C  
BRANCH   3   4
HETATM    4  C   UNL     1      -9.475   6.546  69.401  1.00  0.00    -0.145 C  
BRANCH   4   5
HETATM    5  N   UNL     1      -9.081   7.113  70.703  1.00  0.00    -0.157 NA 
HETATM    6  C   UNL     1      -9.507   8.512  70.880  1.00  0.00    -0.180 C  
HETATM    7  C   UNL     1     -11.021   8.683  71.101  1.00  0.00    -0.260 C  
HETATM    8  C   UNL     1     -11.423   7.910  72.362  1.00  0.00    -0.376 C  
HETATM    9  O   UNL     1     -11.379  10.060  71.243  1.00  0.00    -0.357 OA 
HETATM   10  H   UNL     1     -12.314  10.166  71.379  1.00  0.00     0.000 HD 
HETATM   11  C   UNL     1     -10.987   6.446  72.265  1.00  0.00    -0.254 C  
HETATM   12  O   UNL     1     -12.849   7.886  72.564  1.00  0.00    -0.541 OA 
HETATM   13  C   UNL     1      -9.489   6.302  71.889  1.00  0.00    -0.153 C  
HETATM   14  H   UNL     1     -13.098   7.407  73.345  1.00  0.00     0.000 HD 
HETATM   15  O   UNL     1     -11.260   5.811  73.529  1.00  0.00    -0.455 OA 
HETATM   16  H   UNL     1     -10.989   4.903  73.470  1.00  0.00     0.000 HD 
BRANCH  13  17
HETATM   17  C   UNL     1      -9.118   4.799  71.816  1.00  0.00    -0.135 C  
HETATM   18  O   UNL     1     -10.276   3.970  71.725  1.00  0.00    -0.158 OA 
HETATM   19  H   UNL     1     -10.048   3.049  71.680  1.00  0.00     0.000 HD 
ENDBRANCH  13  17
ENDBRANCH   4   5
ENDBRANCH   3   4
ENDBRANCH   2   3
TORSDOF 4
ENDMDL
MODEL      177
REMARK 921   NORMALIZED FREE ENERGY PREDICTED BY IDOCK:   -2.75 KCAL/MOL
REMARK 922        TOTAL FREE ENERGY PREDICTED BY IDOCK:   -3.88 KCAL/MOL
REMARK 923 INTER-LIGAND FREE ENERGY PREDICTED BY IDOCK:   -3.50 KCAL/MOL
REMARK 924 INTRA-LIGAND FREE ENERGY PREDICTED BY IDOCK:   -0.38 KCAL/MOL
REMARK 927      BINDING AFFINITY PREDICTED BY RF-SCORE:    0.00 PKD
ROOT
HETATM    1  C   UNL     1     -12.659   9.612  70.845  1.00  0.00    -0.299 C  
HETATM    2  C   UNL     1     -12.157  11.037  70.667  1.00  0.00    -0.471 C  
ENDROOT
BRANCH   2   3
HETATM    3  C   UNL     1     -11.953  11.391  69.189  1.00  0.00    -0.395 C  
BRANCH   3   4
HETATM    4  C   UNL     1     -10.465  11.396  68.778  1.00  0.00    -0.204 C  
BRANCH   4   5
HETATM    5  N   UNL     1     -10.251  11.403  67.320  1.00  0.00    -0.195 NA 
HETATM    6  C   UNL     1      -9.564  12.614  66.840  1.00  0.00    -0.232 C  
HETATM    7  C   UNL     1      -8.069  12.673  67.205  1.00  0.00    -0.178 C  
HETATM    8  C   UNL     1      -7.365  11.461  66.585  1.00  0.00    -0.107 C  
HETATM    9  O   UNL     1      -7.460  13.878  66.735  1.00  0.00    -0.247 OA 
HETATM   10  H   UNL     1      -6.537  13.914  66.960  1.00  0.00     0.000 HD 
HETATM   11  C   UNL     1      -8.044  10.158  67.017  1.00  0.00    -0.117 C  
HETATM   12  O   UNL     1      -5.991  11.348  67.000  1.00  0.00    -0.082 OA 
HETATM   13  C   UNL     1      -9.575  10.186  66.779  1.00  0.00    -0.177 C  
HETATM   14  H   UNL     1      -5.555  10.597  66.616  1.00  0.00     0.000 HD 
HETATM   15  O   UNL     1      -7.433   9.072  66.292  1.00  0.00    -0.090 OA 
HETATM   16  H   UNL     1      -7.854   8.264  66.560  1.00  0.00     0.000 HD 
BRANCH  13  17
HETATM   17  C   UNL     1     -10.192   8.837  67.232  1.00  0.00    -0.263 C  
HETATM   18  O   UNL     1      -9.989   7.809  66.263  1.00  0.00    -0.447 OA 
HETATM   19  H   UNL     1     -10.367   6.983  66.541  1.00  0.00     0.000 HD 
ENDBRANCH  13  17
ENDBRANCH   4   5
ENDBRANCH   3   4
ENDBRANCH   2   3
TORSDOF 4
ENDMDL
MODEL      178
REMARK 921   NORMALIZED FREE ENERGY PREDICTED BY IDOCK:   -2.75 KCAL/MOL
REMARK 922        TOTAL FREE ENERGY PREDICTED BY IDOCK:   -3.88 KCAL/MOL
REMARK 923 INTER-LIGAND FREE ENERGY PREDICTED BY IDOCK:   -3.53 KCAL/MOL
REMARK 924 INTRA-LIGAND FREE ENERGY PREDICTED BY IDOCK:   -0.34 KCAL/MOL
REMARK 927      BINDING AFFINITY PREDICTED BY RF-SCORE:    0.00 PKD
ROOT
HETATM    1  C   UNL     1      -9.412  14.034  66.740  1.00  0.00    -0.292 C  
HETATM    2  C   UNL     1      -9.633  14.654  65.368  1.00  0.00    -0.040 C  
ENDROOT
BRANCH   2   3
HETATM    3  C   UNL     1      -9.889  16.162  65.456  1.00  0.00    -0.190 C  
BRANCH   3   4
HETATM    4  C   UNL     1      -8.700  16.932  66.071  1.00  0.00    -0.158 C  
BRANCH   4   5
HETATM    5  N   UNL     1      -8.910  18.389  66.146  1.00  0.00    -0.493 NA 
HETATM    6  C   UNL     1      -9.898  18.780  67.167  1.00  0.00    -0.316 C  
HETATM    7  C   UNL     1      -9.396  18.632  68.615  1.00  0.00    -0.341 C  
HETATM    8  C   UNL     1      -8.160  19.519  68.798  1.00  0.00    -0.322 C  
HETATM    9  O   UNL     1     -10.402  19.004  69.561  1.00  0.00    -0.427 OA 
HETATM   10  H   UNL     1     -10.092  18.912  70.455  1.00  0.00     0.000 HD 
HETATM   11  C   UNL     1      -7.093  19.189  67.751  1.00  0.00    -0.231 C  
HETATM   12  O   UNL     1      -7.528  19.329  70.079  1.00  0.00     0.240 OA 
HETATM   13  C   UNL     1      -7.664  19.195  66.309  1.00  0.00    -0.282 C  
HETATM   14  H   UNL     1      -6.762  19.879  70.193  1.00  0.00     0.000 HD 
HETATM   15  O   UNL     1      -6.024  20.147  67.881  1.00  0.00    -0.208 OA 
HETATM   16  H   UNL     1      -5.362  19.942  67.231  1.00  0.00     0.000 HD 
BRANCH  13  17
HETATM   17  C   UNL     1      -6.531  18.861  65.305  1.00  0.00    -0.257 C  
HETATM   18  O   UNL     1      -6.000  20.035  64.693  1.00  0.00    -0.217 OA 
HETATM   19  H   UNL     1      -5.306  19.830  64.078  1.00  0.00     0.000 HD 
ENDBRANCH  13  17
ENDBRANCH   4   5
ENDBRANCH   3   4
ENDBRANCH   2   3
TORSDOF 4
ENDMDL
MODEL      179
REMARK 921   NORMALIZED FREE ENERGY PREDICTED BY IDOCK:   -2.73 KCAL/MOL
REMARK 922        TOTAL FREE ENERGY PREDICTED BY IDOCK:   -3.86 KCAL/MOL
REMARK 923 INTER-LIGAND FREE ENERGY PREDICTED BY IDOCK:   -3.42 KCAL/MOL
REMARK 924 INTRA-LIGAND FREE ENERGY PREDICTED BY IDOCK:   -0.44 KCAL/MOL
REMARK 927      BINDING AFFINITY PREDICTED BY RF-SCORE:    0.00 PKD
ROOT
HETATM    1  C   UNL     1     -12.502  13.148  71.085  1.00  0.00    -0.378 C  
HETATM    2  C   UNL     1     -11.956  13.944  69.909  1.00  0.00    -0.405 C  
ENDROOT
BRANCH   2   3
HETATM    3  C   UNL     1     -11.918  13.110  68.624  1.00  0.00    -0.319 C  
BRANCH   3   4
HETATM    4  C   UNL     1     -10.609  12.303  68.476  1.00  0.00    -0.234 C  
BRANCH   4   5
HETATM    5  N   UNL     1     -10.791  10.987  67.839  1.00  0.00    -0.217 NA 
HETATM    6  C   UNL     1     -10.142  10.884  66.521  1.00  0.00    -0.222 C  
HETATM    7  C   UNL     1      -8.605  10.804  66.583  1.00  0.00    -0.143 C  
HETATM    8  C   UNL     1      -8.212   9.564  67.394  1.00  0.00    -0.114 C  
HETATM    9  O   UNL     1      -8.029  10.729  65.276  1.00  0.00    -0.302 OA 
HETATM   10  H   UNL     1      -7.081  10.679  65.314  1.00  0.00     0.000 HD 
HETATM   11  C   UNL     1      -8.874   9.584  68.774  1.00  0.00    -0.132 C  
HETATM   12  O   UNL     1      -6.794   9.488  67.636  1.00  0.00    -0.073 OA 
HETATM   13  C   UNL     1     -10.404   9.821  68.689  1.00  0.00    -0.201 C  
HETATM   14  H   UNL     1      -6.551   8.720  68.138  1.00  0.00     0.000 HD 
HETATM   15  O   UNL     1      -8.586   8.332  69.428  1.00  0.00    -0.131 OA 
HETATM   16  H   UNL     1      -8.997   8.344  70.284  1.00  0.00     0.000 HD 
BRANCH  13  17
HETATM   17  C   UNL     1     -11.005   9.822  70.118  1.00  0.00    -0.291 C  
HETATM   18  O   UNL     1     -11.192   8.498  70.616  1.00  0.00    -0.252 OA 
HETATM   19  H   UNL     1     -11.561   8.499  71.492  1.00  0.00     0.000 HD 
ENDBRANCH  13  17
ENDBRANCH   4   5
ENDBRANCH   3   4
ENDBRANCH   2   3
TORSDOF 4
ENDMDL
MODEL      180
REMARK 921   NORMALIZED FREE ENERGY PREDICTED BY IDOCK:   -2.73 KCAL/MOL
REMARK 922        TOTAL FREE ENERGY PREDICTED BY IDOCK:   -3.85 KCAL/MOL
REMARK 923 INTER-LIGAND FREE ENERGY PREDICTED BY IDOCK:   -3.37 KCAL/MOL
REMARK 924 INTRA-LIGAND FREE ENERGY PREDICTED BY IDOCK:   -0.48 KCAL/MOL
REMARK 927      BINDING AFFINITY PREDICTED BY RF-SCORE:    0.00 PKD
ROOT
HETATM    1  C   UNL     1      -9.630   8.395  72.269  1.00  0.00    -0.374 C  
HETATM    2  C   UNL     1      -8.582   7.552  71.557  1.00  0.00    -0.123 C  
ENDROOT
BRANCH   2   3
HETATM    3  C   UNL     1      -7.719   8.394  70.610  1.00  0.00    -0.083 C  
BRANCH   3   4
HETATM    4  C   UNL     1      -8.476   9.615  70.044  1.00  0.00    -0.204 C  
BRANCH   4   5
HETATM    5  N   UNL     1      -8.991   9.413  68.678  1.00  0.00    -0.131 NA 
HETATM    6  C   UNL     1     -10.461   9.479  68.597  1.00  0.00    -0.211 C  
HETATM    7  C   UNL     1     -11.035  10.898  68.761  1.00  0.00    -0.237 C  
HETATM    8  C   UNL     1     -10.468  11.787  67.649  1.00  0.00    -0.197 C  
HETATM    9  O   UNL     1     -12.464  10.897  68.696  1.00  0.00    -0.772 OA 
HETATM   10  H   UNL     1     -12.819  11.773  68.797  1.00  0.00     0.000 HD 
HETATM   11  C   UNL     1      -8.937  11.750  67.651  1.00  0.00    -0.169 C  
HETATM   12  O   UNL     1     -10.829  13.172  67.810  1.00  0.00    -0.236 OA 
HETATM   13  C   UNL     1      -8.385  10.301  67.641  1.00  0.00    -0.114 C  
HETATM   14  H   UNL     1     -10.478  13.723  67.121  1.00  0.00     0.000 HD 
HETATM   15  O   UNL     1      -8.469  12.483  66.502  1.00  0.00    -0.401 OA 
HETATM   16  H   UNL     1      -7.519  12.459  66.502  1.00  0.00     0.000 HD 
BRANCH  13  17
HETATM   17  C   UNL     1      -6.835  10.340  67.637  1.00  0.00    -0.075 C  
HETATM   18  O   UNL     1      -6.334  11.569  68.161  1.00  0.00    -0.046 OA 
HETATM   19  H   UNL     1      -5.384  11.593  68.158  1.00  0.00     0.000 HD 
ENDBRANCH  13  17
ENDBRANCH   4   5
ENDBRANCH   3   4
ENDBRANCH   2   3
TORSDOF 4
ENDMDL
MODEL      181
REMARK 921   NORMALIZED FREE ENERGY PREDICTED BY IDOCK:   -2.72 KCAL/MOL
REMARK 922        TOTAL FREE ENERGY PREDICTED BY IDOCK:   -3.85 KCAL/MOL
REMARK 923 INTER-LIGAND FREE ENERGY PREDICTED BY IDOCK:   -3.40 KCAL/MOL
REMARK 924 INTRA-LIGAND FREE ENERGY PREDICTED BY IDOCK:   -0.45 KCAL/MOL
REMARK 927      BINDING AFFINITY PREDICTED BY RF-SCORE:    0.00 PKD
ROOT
HETATM    1  C   UNL     1     -11.371   6.632  70.213  1.00  0.00    -0.431 C  
HETATM    2  C   UNL     1     -11.185   5.799  68.953  1.00  0.00     0.043 C  
ENDROOT
BRANCH   2   3
HETATM    3  C   UNL     1     -10.729   6.653  67.765  1.00  0.00    -0.352 C  
BRANCH   3   4
HETATM    4  C   UNL     1     -10.404   8.108  68.169  1.00  0.00    -0.201 C  
BRANCH   4   5
HETATM    5  N   UNL     1      -9.072   8.563  67.731  1.00  0.00    -0.135 NA 
HETATM    6  C   UNL     1      -8.991   8.808  66.280  1.00  0.00    -0.173 C  
HETATM    7  C   UNL     1      -9.735  10.073  65.815  1.00  0.00    -0.257 C  
HETATM    8  C   UNL     1      -9.130  11.287  66.528  1.00  0.00    -0.184 C  
HETATM    9  O   UNL     1      -9.642  10.248  64.399  1.00  0.00    -0.275 OA 
HETATM   10  H   UNL     1     -10.101  11.028  64.112  1.00  0.00     0.000 HD 
HETATM   11  C   UNL     1      -9.154  11.094  68.046  1.00  0.00    -0.153 C  
HETATM   12  O   UNL     1      -9.863  12.500  66.272  1.00  0.00    -0.243 OA 
HETATM   13  C   UNL     1      -8.534   9.740  68.476  1.00  0.00    -0.115 C  
HETATM   14  H   UNL     1      -9.488  13.253  66.713  1.00  0.00     0.000 HD 
HETATM   15  O   UNL     1      -8.445  12.195  68.650  1.00  0.00    -0.300 OA 
HETATM   16  H   UNL     1      -8.459  12.075  69.592  1.00  0.00     0.000 HD 
BRANCH  13  17
HETATM   17  C   UNL     1      -8.586   9.616  70.021  1.00  0.00    -0.215 C  
HETATM   18  O   UNL     1      -7.443  10.206  70.639  1.00  0.00    -0.410 OA 
HETATM   19  H   UNL     1      -7.475  10.131  71.585  1.00  0.00     0.000 HD 
ENDBRANCH  13  17
ENDBRANCH   4   5
ENDBRANCH   3   4
ENDBRANCH   2   3
TORSDOF 4
ENDMDL
MODEL      182
REMARK 921   NORMALIZED FREE ENERGY PREDICTED BY IDOCK:   -2.72 KCAL/MOL
REMARK 922        TOTAL FREE ENERGY PREDICTED BY IDOCK:   -3.84 KCAL/MOL
REMARK 923 INTER-LIGAND FREE ENERGY PREDICTED BY IDOCK:   -3.36 KCAL/MOL
REMARK 924 INTRA-LIGAND FREE ENERGY PREDICTED BY IDOCK:   -0.48 KCAL/MOL
REMARK 927      BINDING AFFINITY PREDICTED BY RF-SCORE:    0.00 PKD
ROOT
HETATM    1  C   UNL     1      -7.170   6.013  67.384  1.00  0.00    -0.076 C  
HETATM    2  C   UNL     1      -8.470   6.780  67.186  1.00  0.00    -0.120 C  
ENDROOT
BRANCH   2   3
HETATM    3  C   UNL     1      -8.458   8.123  67.924  1.00  0.00    -0.132 C  
BRANCH   3   4
HETATM    4  C   UNL     1      -8.503   9.330  66.963  1.00  0.00    -0.124 C  
BRANCH   4   5
HETATM    5  N   UNL     1      -9.593   9.262  65.974  1.00  0.00    -0.251 NA 
HETATM    6  C   UNL     1     -10.796  10.007  66.383  1.00  0.00     0.113 C  
HETATM    7  C   UNL     1     -10.637  11.537  66.318  1.00  0.00    -0.263 C  
HETATM    8  C   UNL     1     -10.311  11.936  64.875  1.00  0.00    -0.286 C  
HETATM    9  O   UNL     1     -11.826  12.208  66.747  1.00  0.00    -0.561 OA 
HETATM   10  H   UNL     1     -11.729  13.152  66.707  1.00  0.00     0.000 HD 
HETATM   11  C   UNL     1      -9.082  11.178  64.366  1.00  0.00    -0.043 C  
HETATM   12  O   UNL     1      -9.995  13.335  64.745  1.00  0.00    -0.560 OA 
HETATM   13  C   UNL     1      -9.203   9.648  64.584  1.00  0.00    -0.234 C  
HETATM   14  H   UNL     1      -9.793  13.582  63.851  1.00  0.00     0.000 HD 
HETATM   15  O   UNL     1      -8.914  11.483  62.967  1.00  0.00    -0.515 OA 
HETATM   16  H   UNL     1      -8.152  11.012  62.651  1.00  0.00     0.000 HD 
BRANCH  13  17
HETATM   17  C   UNL     1      -7.931   8.947  64.041  1.00  0.00    -0.153 C  
HETATM   18  O   UNL     1      -8.051   8.629  62.655  1.00  0.00    -0.158 OA 
HETATM   19  H   UNL     1      -7.271   8.200  62.323  1.00  0.00     0.000 HD 
ENDBRANCH  13  17
ENDBRANCH   4   5
ENDBRANCH   3   4
ENDBRANCH   2   3
TORSDOF 4
ENDMDL
MODEL      183
REMARK 921   NORMALIZED FREE ENERGY PREDICTED BY IDOCK:   -2.69 KCAL/MOL
REMARK 922        TOTAL FREE ENERGY PREDICTED BY IDOCK:   -3.81 KCAL/MOL
REMARK 923 INTER-LIGAND FREE ENERGY PREDICTED BY IDOCK:   -3.40 KCAL/MOL
REMARK 924 INTRA-LIGAND FREE ENERGY PREDICTED BY IDOCK:   -0.41 KCAL/MOL
REMARK 927      BINDING AFFINITY PREDICTED BY RF-SCORE:    0.00 PKD
ROOT
HETATM    1  C   UNL     1      -5.566  11.059  70.717  1.00  0.00    -0.115 C  
HETATM    2  C   UNL     1      -5.844   9.798  71.523  1.00  0.00     0.008 C  
ENDROOT
BRANCH   2   3
HETATM    3  C   UNL     1      -6.481   8.701  70.663  1.00  0.00    -0.040 C  
BRANCH   3   4
HETATM    4  C   UNL     1      -7.825   8.201  71.236  1.00  0.00    -0.097 C  
BRANCH   4   5
HETATM    5  N   UNL     1      -8.972   9.062  70.895  1.00  0.00    -0.226 NA 
HETATM    6  C   UNL     1      -8.941   9.547  69.505  1.00  0.00    -0.181 C  
HETATM    7  C   UNL     1      -9.256   8.465  68.456  1.00  0.00    -0.135 C  
HETATM    8  C   UNL     1     -10.661   7.915  68.726  1.00  0.00    -0.127 C  
HETATM    9  O   UNL     1      -9.189   8.987  67.125  1.00  0.00    -0.131 OA 
HETATM   10  H   UNL     1      -9.383   8.319  66.478  1.00  0.00     0.000 HD 
HETATM   11  C   UNL     1     -10.781   7.415  70.167  1.00  0.00    -0.242 C  
HETATM   12  O   UNL     1     -10.984   6.790  67.887  1.00  0.00    -0.392 OA 
HETATM   13  C   UNL     1     -10.310   8.472  71.198  1.00  0.00    -0.215 C  
HETATM   14  H   UNL     1     -11.855   6.449  68.055  1.00  0.00     0.000 HD 
HETATM   15  O   UNL     1     -12.155   7.047  70.402  1.00  0.00    -0.559 OA 
HETATM   16  H   UNL     1     -12.230   6.737  71.297  1.00  0.00     0.000 HD 
BRANCH  13  17
HETATM   17  C   UNL     1     -10.466   7.901  72.631  1.00  0.00    -0.320 C  
HETATM   18  O   UNL     1     -11.814   7.984  73.092  1.00  0.00    -0.625 OA 
HETATM   19  H   UNL     1     -11.909   7.634  73.970  1.00  0.00     0.000 HD 
ENDBRANCH  13  17
ENDBRANCH   4   5
ENDBRANCH   3   4
ENDBRANCH   2   3
TORSDOF 4
ENDMDL
MODEL      184
REMARK 921   NORMALIZED FREE ENERGY PREDICTED BY IDOCK:   -2.68 KCAL/MOL
REMARK 922        TOTAL FREE ENERGY PREDICTED BY IDOCK:   -3.80 KCAL/MOL
REMARK 923 INTER-LIGAND FREE ENERGY PREDICTED BY IDOCK:   -3.60 KCAL/MOL
REMARK 924 INTRA-LIGAND FREE ENERGY PREDICTED BY IDOCK:   -0.20 KCAL/MOL
REMARK 927      BINDING AFFINITY PREDICTED BY RF-SCORE:    0.00 PKD
ROOT
HETATM    1  C   UNL     1     -12.901  15.288  71.123  1.00  0.00    -0.494 C  
HETATM    2  C   UNL     1     -11.625  16.117  71.158  1.00  0.00    -0.453 C  
ENDROOT
BRANCH   2   3
HETATM    3  C   UNL     1     -11.127  16.458  69.749  1.00  0.00    -0.305 C  
BRANCH   3   4
HETATM    4  C   UNL     1      -9.593  16.621  69.683  1.00  0.00     0.205 C  
BRANCH   4   5
HETATM    5  N   UNL     1      -8.943  15.729  68.706  1.00  0.00    -0.199 NA 
HETATM    6  C   UNL     1      -9.583  15.756  67.380  1.00  0.00    -0.217 C  
HETATM    7  C   UNL     1      -9.329  17.051  66.586  1.00  0.00    -0.255 C  
HETATM    8  C   UNL     1      -7.819  17.209  66.377  1.00  0.00    -0.317 C  
HETATM    9  O   UNL     1      -9.993  17.031  65.319  1.00  0.00    -0.472 OA 
HETATM   10  H   UNL     1      -9.836  17.830  64.830  1.00  0.00     0.000 HD 
HETATM   11  C   UNL     1      -7.077  17.163  67.715  1.00  0.00    -0.153 C  
HETATM   12  O   UNL     1      -7.473  18.471  65.776  1.00  0.00    -0.471 OA 
HETATM   13  C   UNL     1      -7.469  15.925  68.562  1.00  0.00    -0.139 C  
HETATM   14  H   UNL     1      -6.538  18.569  65.647  1.00  0.00     0.000 HD 
HETATM   15  O   UNL     1      -5.662  17.169  67.444  1.00  0.00    -0.122 OA 
HETATM   16  H   UNL     1      -5.201  17.140  68.274  1.00  0.00     0.000 HD 
BRANCH  13  17
HETATM   17  C   UNL     1      -6.677  15.940  69.895  1.00  0.00    -0.054 C  
HETATM   18  O   UNL     1      -6.248  14.633  70.273  1.00  0.00    -0.156 OA 
HETATM   19  H   UNL     1      -5.763  14.643  71.090  1.00  0.00     0.000 HD 
ENDBRANCH  13  17
ENDBRANCH   4   5
ENDBRANCH   3   4
ENDBRANCH   2   3
TORSDOF 4
ENDMDL
MODEL      185
REMARK 921   NORMALIZED FREE ENERGY PREDICTED BY IDOCK:   -2.68 KCAL/MOL
REMARK 922        TOTAL FREE ENERGY PREDICTED BY IDOCK:   -3.80 KCAL/MOL
REMARK 923 INTER-LIGAND FREE ENERGY PREDICTED BY IDOCK:   -3.58 KCAL/MOL
REMARK 924 INTRA-LIGAND FREE ENERGY PREDICTED BY IDOCK:   -0.22 KCAL/MOL
REMARK 927      BINDING AFFINITY PREDICTED BY RF-SCORE:    0.00 PKD
ROOT
HETATM    1  C   UNL     1     -11.492   6.264  72.166  1.00  0.00    -0.354 C  
HETATM    2  C   UNL     1     -12.263   7.564  71.990  1.00  0.00    -0.314 C  
ENDROOT
BRANCH   2   3
HETATM    3  C   UNL     1     -11.544   8.531  71.044  1.00  0.00    -0.317 C  
BRANCH   3   4
HETATM    4  C   UNL     1     -10.709   7.801  69.969  1.00  0.00    -0.244 C  
BRANCH   4   5
HETATM    5  N   UNL     1     -10.650   8.510  68.679  1.00  0.00    -0.166 NA 
HETATM    6  C   UNL     1     -10.188   9.904  68.803  1.00  0.00    -0.189 C  
HETATM    7  C   UNL     1      -8.686  10.041  69.112  1.00  0.00    -0.167 C  
HETATM    8  C   UNL     1      -7.891   9.386  67.977  1.00  0.00    -0.091 C  
HETATM    9  O   UNL     1      -8.300  11.412  69.244  1.00  0.00    -0.375 OA 
HETATM   10  H   UNL     1      -7.372  11.497  69.434  1.00  0.00     0.000 HD 
HETATM   11  C   UNL     1      -8.336   7.936  67.767  1.00  0.00    -0.129 C  
HETATM   12  O   UNL     1      -6.478   9.330  68.253  1.00  0.00    -0.054 OA 
HETATM   13  C   UNL     1      -9.874   7.810  67.613  1.00  0.00    -0.163 C  
HETATM   14  H   UNL     1      -5.986   8.924  67.550  1.00  0.00     0.000 HD 
HETATM   15  O   UNL     1      -7.661   7.423  66.602  1.00  0.00    -0.097 OA 
HETATM   16  H   UNL     1      -7.938   6.524  66.471  1.00  0.00     0.000 HD 
BRANCH  13  17
HETATM   17  C   UNL     1     -10.250   6.321  67.398  1.00  0.00    -0.180 C  
HETATM   18  O   UNL     1     -11.330   6.174  66.477  1.00  0.00    -0.745 OA 
HETATM   19  H   UNL     1     -11.560   5.262  66.346  1.00  0.00     0.000 HD 
ENDBRANCH  13  17
ENDBRANCH   4   5
ENDBRANCH   3   4
ENDBRANCH   2   3
TORSDOF 4
ENDMDL
MODEL      186
REMARK 921   NORMALIZED FREE ENERGY PREDICTED BY IDOCK:   -2.68 KCAL/MOL
REMARK 922        TOTAL FREE ENERGY PREDICTED BY IDOCK:   -3.80 KCAL/MOL
REMARK 923 INTER-LIGAND FREE ENERGY PREDICTED BY IDOCK:   -4.35 KCAL/MOL
REMARK 924 INTRA-LIGAND FREE ENERGY PREDICTED BY IDOCK:    0.55 KCAL/MOL
REMARK 927      BINDING AFFINITY PREDICTED BY RF-SCORE:    0.00 PKD
ROOT
HETATM    1  C   UNL     1     -13.972  15.092  70.850  1.00  0.00    -0.256 C  
HETATM    2  C   UNL     1     -12.463  14.902  70.861  1.00  0.00    -0.395 C  
ENDROOT
BRANCH   2   3
HETATM    3  C   UNL     1     -11.816  15.400  69.564  1.00  0.00    -0.370 C  
BRANCH   3   4
HETATM    4  C   UNL     1     -11.016  16.707  69.761  1.00  0.00    -0.205 C  
BRANCH   4   5
HETATM    5  N   UNL     1      -9.589  16.588  69.413  1.00  0.00    -0.164 NA 
HETATM    6  C   UNL     1      -9.117  15.194  69.368  1.00  0.00    -0.180 C  
HETATM    7  C   UNL     1      -9.628  14.397  68.153  1.00  0.00    -0.218 C  
HETATM    8  C   UNL     1      -9.149  15.093  66.875  1.00  0.00    -0.247 C  
HETATM    9  O   UNL     1      -9.158  13.046  68.174  1.00  0.00    -0.196 OA 
HETATM   10  H   UNL     1      -9.473  12.555  67.424  1.00  0.00     0.000 HD 
HETATM   11  C   UNL     1      -9.579  16.562  66.861  1.00  0.00    -0.243 C  
HETATM   12  O   UNL     1      -9.707  14.506  65.684  1.00  0.00    -0.446 OA 
HETATM   13  C   UNL     1      -9.186  17.302  68.165  1.00  0.00    -0.267 C  
HETATM   14  H   UNL     1      -9.410  14.937  64.891  1.00  0.00     0.000 HD 
HETATM   15  O   UNL     1      -8.980  17.195  65.713  1.00  0.00    -0.523 OA 
HETATM   16  H   UNL     1      -9.246  18.106  65.704  1.00  0.00     0.000 HD 
BRANCH  13  17
HETATM   17  C   UNL     1      -9.646  18.780  68.078  1.00  0.00    -0.321 C  
HETATM   18  O   UNL     1      -8.876  19.627  68.930  1.00  0.00    -0.321 OA 
HETATM   19  H   UNL     1      -9.158  20.532  68.876  1.00  0.00     0.000 HD 
ENDBRANCH  13  17
ENDBRANCH   4   5
ENDBRANCH   3   4
ENDBRANCH   2   3
TORSDOF 4
ENDMDL
MODEL      187
REMARK 921   NORMALIZED FREE ENERGY PREDICTED BY IDOCK:   -2.68 KCAL/MOL
REMARK 922        TOTAL FREE ENERGY PREDICTED BY IDOCK:   -3.80 KCAL/MOL
REMARK 923 INTER-LIGAND FREE ENERGY PREDICTED BY IDOCK:   -3.38 KCAL/MOL
REMARK 924 INTRA-LIGAND FREE ENERGY PREDICTED BY IDOCK:   -0.42 KCAL/MOL
REMARK 927      BINDING AFFINITY PREDICTED BY RF-SCORE:    0.00 PKD
ROOT
HETATM    1  C   UNL     1     -11.338  11.568  67.367  1.00  0.00    -0.367 C  
HETATM    2  C   UNL     1     -10.842  11.963  68.750  1.00  0.00    -0.270 C  
ENDROOT
BRANCH   2   3
HETATM    3  C   UNL     1      -9.844  10.945  69.311  1.00  0.00    -0.113 C  
BRANCH   3   4
HETATM    4  C   UNL     1     -10.522   9.868  70.187  1.00  0.00    -0.285 C  
BRANCH   4   5
HETATM    5  N   UNL     1     -10.890   8.647  69.448  1.00  0.00    -0.155 NA 
HETATM    6  C   UNL     1      -9.870   8.231  68.470  1.00  0.00    -0.176 C  
HETATM    7  C   UNL     1      -8.598   7.639  69.104  1.00  0.00    -0.139 C  
HETATM    8  C   UNL     1      -8.988   6.404  69.923  1.00  0.00    -0.142 C  
HETATM    9  O   UNL     1      -7.636   7.275  68.110  1.00  0.00    -0.109 OA 
HETATM   10  H   UNL     1      -6.851   6.909  68.501  1.00  0.00     0.000 HD 
HETATM   11  C   UNL     1     -10.070   6.752  70.949  1.00  0.00    -0.190 C  
HETATM   12  O   UNL     1      -7.884   5.870  70.678  1.00  0.00    -0.100 OA 
HETATM   13  C   UNL     1     -11.275   7.487  70.306  1.00  0.00    -0.236 C  
HETATM   14  H   UNL     1      -8.126   5.105  71.186  1.00  0.00     0.000 HD 
HETATM   15  O   UNL     1     -10.497   5.530  71.583  1.00  0.00    -0.218 OA 
HETATM   16  H   UNL     1     -11.168   5.745  72.220  1.00  0.00     0.000 HD 
BRANCH  13  17
HETATM   17  C   UNL     1     -12.330   7.800  71.398  1.00  0.00    -0.323 C  
HETATM   18  O   UNL     1     -11.804   7.618  72.712  1.00  0.00    -0.557 OA 
HETATM   19  H   UNL     1     -12.450   7.810  73.381  1.00  0.00     0.000 HD 
ENDBRANCH  13  17
ENDBRANCH   4   5
ENDBRANCH   3   4
ENDBRANCH   2   3
TORSDOF 4
ENDMDL
MODEL      188
REMARK 921   NORMALIZED FREE ENERGY PREDICTED BY IDOCK:   -2.66 KCAL/MOL
REMARK 922        TOTAL FREE ENERGY PREDICTED BY IDOCK:   -3.77 KCAL/MOL
REMARK 923 INTER-LIGAND FREE ENERGY PREDICTED BY IDOCK:   -3.40 KCAL/MOL
REMARK 924 INTRA-LIGAND FREE ENERGY PREDICTED BY IDOCK:   -0.37 KCAL/MOL
REMARK 927      BINDING AFFINITY PREDICTED BY RF-SCORE:    0.00 PKD
ROOT
HETATM    1  C   UNL     1      -6.276  14.527  70.357  1.00  0.00    -0.174 C  
HETATM    2  C   UNL     1      -6.490  15.683  69.391  1.00  0.00    -0.156 C  
ENDROOT
BRANCH   2   3
HETATM    3  C   UNL     1      -7.978  15.976  69.172  1.00  0.00    -0.238 C  
BRANCH   3   4
HETATM    4  C   UNL     1      -8.553  15.245  67.939  1.00  0.00    -0.152 C  
BRANCH   4   5
HETATM    5  N   UNL     1      -9.229  13.976  68.262  1.00  0.00    -0.196 NA 
HETATM    6  C   UNL     1     -10.695  14.096  68.318  1.00  0.00    -0.249 C  
HETATM    7  C   UNL     1     -11.363  14.269  66.941  1.00  0.00    -0.343 C  
HETATM    8  C   UNL     1     -11.029  13.048  66.078  1.00  0.00    -0.275 C  
HETATM    9  O   UNL     1     -12.783  14.404  67.058  1.00  0.00    -0.455 OA 
HETATM   10  H   UNL     1     -13.195  14.511  66.209  1.00  0.00     0.000 HD 
HETATM   11  C   UNL     1      -9.515  12.838  65.995  1.00  0.00    -0.120 C  
HETATM   12  O   UNL     1     -11.484  13.190  64.719  1.00  0.00    -0.305 OA 
HETATM   13  C   UNL     1      -8.846  12.822  67.394  1.00  0.00    -0.190 C  
HETATM   14  H   UNL     1     -11.277  12.433  64.184  1.00  0.00     0.000 HD 
HETATM   15  O   UNL     1      -9.270  11.601  65.298  1.00  0.00    -0.380 OA 
HETATM   16  H   UNL     1      -8.331  11.470  65.246  1.00  0.00     0.000 HD 
BRANCH  13  17
HETATM   17  C   UNL     1      -7.320  12.601  67.233  1.00  0.00    -0.104 C  
HETATM   18  O   UNL     1      -6.809  11.695  68.210  1.00  0.00    -0.061 OA 
HETATM   19  H   UNL     1      -5.874  11.559  68.111  1.00  0.00     0.000 HD 
ENDBRANCH  13  17
ENDBRANCH   4   5
ENDBRANCH   3   4
ENDBRANCH   2   3
TORSDOF 4
ENDMDL
MODEL      189
REMARK 921   NORMALIZED FREE ENERGY PREDICTED BY IDOCK:   -2.65 KCAL/MOL
REMARK 922        TOTAL FREE ENERGY PREDICTED BY IDOCK:   -3.76 KCAL/MOL
REMARK 923 INTER-LIGAND FREE ENERGY PREDICTED BY IDOCK:   -3.28 KCAL/MOL
REMARK 924 INTRA-LIGAND FREE ENERGY PREDICTED BY IDOCK:   -0.49 KCAL/MOL
REMARK 927      BINDING AFFINITY PREDICTED BY RF-SCORE:    0.00 PKD
ROOT
HETATM    1  C   UNL     1      -8.272   9.371  67.964  1.00  0.00    -0.114 C  
HETATM    2  C   UNL     1      -7.576   8.219  68.672  1.00  0.00    -0.099 C  
ENDROOT
BRANCH   2   3
HETATM    3  C   UNL     1      -8.246   6.874  68.370  1.00  0.00    -0.120 C  
BRANCH   3   4
HETATM    4  C   UNL     1      -9.143   6.382  69.526  1.00  0.00    -0.138 C  
BRANCH   4   5
HETATM    5  N   UNL     1      -9.524   7.443  70.475  1.00  0.00    -0.162 NA 
HETATM    6  C   UNL     1     -10.925   7.874  70.330  1.00  0.00    -0.249 C  
HETATM    7  C   UNL     1     -11.953   6.848  70.840  1.00  0.00    -0.381 C  
HETATM    8  C   UNL     1     -11.696   6.594  72.329  1.00  0.00    -0.269 C  
HETATM    9  O   UNL     1     -13.294   7.310  70.653  1.00  0.00    -0.543 OA 
HETATM   10  H   UNL     1     -13.929   6.676  70.968  1.00  0.00     0.000 HD 
HETATM   11  C   UNL     1     -10.245   6.167  72.565  1.00  0.00    -0.185 C  
HETATM   12  O   UNL     1     -12.512   5.533  72.859  1.00  0.00    -0.500 OA 
HETATM   13  C   UNL     1      -9.231   7.138  71.908  1.00  0.00    -0.138 C  
HETATM   14  H   UNL     1     -12.353   5.376  73.782  1.00  0.00     0.000 HD 
HETATM   15  O   UNL     1     -10.026   6.085  73.987  1.00  0.00    -0.189 OA 
HETATM   16  H   UNL     1      -9.126   5.820  74.134  1.00  0.00     0.000 HD 
BRANCH  13  17
HETATM   17  C   UNL     1      -7.788   6.648  72.192  1.00  0.00    -0.097 C  
HETATM   18  O   UNL     1      -7.758   5.267  72.551  1.00  0.00    -0.095 OA 
HETATM   19  H   UNL     1      -6.873   4.967  72.725  1.00  0.00     0.000 HD 
ENDBRANCH  13  17
ENDBRANCH   4   5
ENDBRANCH   3   4
ENDBRANCH   2   3
TORSDOF 4
ENDMDL
MODEL      190
REMARK 921   NORMALIZED FREE ENERGY PREDICTED BY IDOCK:   -2.64 KCAL/MOL
REMARK 922        TOTAL FREE ENERGY PREDICTED BY IDOCK:   -3.75 KCAL/MOL
REMARK 923 INTER-LIGAND FREE ENERGY PREDICTED BY IDOCK:   -3.55 KCAL/MOL
REMARK 924 INTRA-LIGAND FREE ENERGY PREDICTED BY IDOCK:   -0.21 KCAL/MOL
REMARK 927      BINDING AFFINITY PREDICTED BY RF-SCORE:    0.00 PKD
ROOT
HETATM    1  C   UNL     1      -5.989  14.549  70.585  1.00  0.00    -0.184 C  
HETATM    2  C   UNL     1      -6.242  15.892  69.914  1.00  0.00    -0.157 C  
ENDROOT
BRANCH   2   3
HETATM    3  C   UNL     1      -7.738  16.167  69.733  1.00  0.00     0.316 C  
BRANCH   3   4
HETATM    4  C   UNL     1      -8.411  15.179  68.756  1.00  0.00    -0.180 C  
BRANCH   4   5
HETATM    5  N   UNL     1      -9.843  15.447  68.532  1.00  0.00    -0.203 NA 
HETATM    6  C   UNL     1     -10.086  16.556  67.594  1.00  0.00    -0.266 C  
HETATM    7  C   UNL     1      -9.771  16.216  66.125  1.00  0.00    -0.323 C  
HETATM    8  C   UNL     1     -10.654  15.040  65.695  1.00  0.00    -0.346 C  
HETATM    9  O   UNL     1     -10.003  17.335  65.265  1.00  0.00    -0.378 OA 
HETATM   10  H   UNL     1      -9.809  17.124  64.358  1.00  0.00     0.000 HD 
HETATM   11  C   UNL     1     -10.478  13.851  66.643  1.00  0.00    -0.272 C  
HETATM   12  O   UNL     1     -10.323  14.551  64.382  1.00  0.00    -0.496 OA 
HETATM   13  C   UNL     1     -10.649  14.255  68.130  1.00  0.00    -0.245 C  
HETATM   14  H   UNL     1     -10.870  13.822  64.115  1.00  0.00     0.000 HD 
HETATM   15  O   UNL     1     -11.434  12.838  66.276  1.00  0.00    -0.316 OA 
HETATM   16  H   UNL     1     -11.325  12.100  66.865  1.00  0.00     0.000 HD 
BRANCH  13  17
HETATM   17  C   UNL     1     -10.464  13.006  69.029  1.00  0.00     0.007 C  
HETATM   18  O   UNL     1     -11.395  12.987  70.110  1.00  0.00    -0.502 OA 
HETATM   19  H   UNL     1     -11.281  12.221  70.661  1.00  0.00     0.000 HD 
ENDBRANCH  13  17
ENDBRANCH   4   5
ENDBRANCH   3   4
ENDBRANCH   2   3
TORSDOF 4
ENDMDL
MODEL      191
REMARK 921   NORMALIZED FREE ENERGY PREDICTED BY IDOCK:   -2.62 KCAL/MOL
REMARK 922        TOTAL FREE ENERGY PREDICTED BY IDOCK:   -3.72 KCAL/MOL
REMARK 923 INTER-LIGAND FREE ENERGY PREDICTED BY IDOCK:   -3.29 KCAL/MOL
REMARK 924 INTRA-LIGAND FREE ENERGY PREDICTED BY IDOCK:   -0.43 KCAL/MOL
REMARK 927      BINDING AFFINITY PREDICTED BY RF-SCORE:    0.00 PKD
ROOT
HETATM    1  C   UNL     1     -12.871  11.222  71.273  1.00  0.00    -0.491 C  
HETATM    2  C   UNL     1     -11.687  10.413  70.764  1.00  0.00    -0.464 C  
ENDROOT
BRANCH   2   3
HETATM    3  C   UNL     1     -11.572  10.469  69.237  1.00  0.00    -0.308 C  
BRANCH   3   4
HETATM    4  C   UNL     1     -10.426  11.386  68.759  1.00  0.00    -0.204 C  
BRANCH   4   5
HETATM    5  N   UNL     1     -10.886  12.669  68.199  1.00  0.00    -0.218 NA 
HETATM    6  C   UNL     1     -10.372  13.840  68.930  1.00  0.00    -0.136 C  
HETATM    7  C   UNL     1      -8.873  14.112  68.703  1.00  0.00    -0.132 C  
HETATM    8  C   UNL     1      -8.641  14.358  67.209  1.00  0.00    -0.215 C  
HETATM    9  O   UNL     1      -8.425  15.244  69.455  1.00  0.00    -0.237 OA 
HETATM   10  H   UNL     1      -7.500  15.412  69.314  1.00  0.00     0.000 HD 
HETATM   11  C   UNL     1      -9.178  13.192  66.376  1.00  0.00    -0.122 C  
HETATM   12  O   UNL     1      -7.244  14.472  66.877  1.00  0.00    -0.325 OA 
HETATM   13  C   UNL     1     -10.644  12.838  66.735  1.00  0.00    -0.252 C  
HETATM   14  H   UNL     1      -7.101  14.624  65.951  1.00  0.00     0.000 HD 
HETATM   15  O   UNL     1      -9.064  13.544  64.983  1.00  0.00     0.306 OA 
HETATM   16  H   UNL     1      -9.397  12.821  64.466  1.00  0.00     0.000 HD 
BRANCH  13  17
HETATM   17  C   UNL     1     -11.121  11.657  65.851  1.00  0.00    -0.264 C  
HETATM   18  O   UNL     1     -10.030  10.850  65.410  1.00  0.00    -0.233 OA 
HETATM   19  H   UNL     1     -10.323  10.126  64.868  1.00  0.00     0.000 HD 
ENDBRANCH  13  17
ENDBRANCH   4   5
ENDBRANCH   3   4
ENDBRANCH   2   3
TORSDOF 4
ENDMDL
MODEL      192
REMARK 921   NORMALIZED FREE ENERGY PREDICTED BY IDOCK:   -2.60 KCAL/MOL
REMARK 922        TOTAL FREE ENERGY PREDICTED BY IDOCK:   -3.70 KCAL/MOL
REMARK 923 INTER-LIGAND FREE ENERGY PREDICTED BY IDOCK:   -3.30 KCAL/MOL
REMARK 924 INTRA-LIGAND FREE ENERGY PREDICTED BY IDOCK:   -0.39 KCAL/MOL
REMARK 927      BINDING AFFINITY PREDICTED BY RF-SCORE:    0.00 PKD
ROOT
HETATM    1  C   UNL     1      -7.085   7.493  63.740  1.00  0.00    -0.070 C  
HETATM    2  C   UNL     1      -7.327   8.727  64.598  1.00  0.00    -0.098 C  
ENDROOT
BRANCH   2   3
HETATM    3  C   UNL     1      -8.763   8.779  65.131  1.00  0.00    -0.202 C  
BRANCH   3   4
HETATM    4  C   UNL     1      -9.104  10.132  65.792  1.00  0.00    -0.171 C  
BRANCH   4   5
HETATM    5  N   UNL     1      -8.495  10.314  67.122  1.00  0.00    -0.125 NA 
HETATM    6  C   UNL     1      -7.380  11.277  67.123  1.00  0.00    -0.130 C  
HETATM    7  C   UNL     1      -7.819  12.744  66.963  1.00  0.00    -0.014 C  
HETATM    8  C   UNL     1      -8.749  13.107  68.126  1.00  0.00    -0.193 C  
HETATM    9  O   UNL     1      -6.696  13.630  66.947  1.00  0.00    -0.324 OA 
HETATM   10  H   UNL     1      -6.967  14.536  66.849  1.00  0.00     0.000 HD 
HETATM   11  C   UNL     1      -9.923  12.129  68.208  1.00  0.00    -0.212 C  
HETATM   12  O   UNL     1      -9.332  14.415  67.980  1.00  0.00    -0.189 OA 
HETATM   13  C   UNL     1      -9.458  10.650  68.212  1.00  0.00    -0.159 C  
HETATM   14  H   UNL     1      -9.908  14.640  68.700  1.00  0.00     0.000 HD 
HETATM   15  O   UNL     1     -10.676  12.431  69.399  1.00  0.00    -0.439 OA 
HETATM   16  H   UNL     1     -11.405  11.824  69.451  1.00  0.00     0.000 HD 
BRANCH  13  17
HETATM   17  C   UNL     1     -10.696   9.720  68.304  1.00  0.00    -0.233 C  
HETATM   18  O   UNL     1     -11.901  10.408  67.973  1.00  0.00    -0.746 OA 
HETATM   19  H   UNL     1     -12.659   9.838  68.029  1.00  0.00     0.000 HD 
ENDBRANCH  13  17
ENDBRANCH   4   5
ENDBRANCH   3   4
ENDBRANCH   2   3
TORSDOF 4
ENDMDL
MODEL      193
REMARK 921   NORMALIZED FREE ENERGY PREDICTED BY IDOCK:   -2.59 KCAL/MOL
REMARK 922        TOTAL FREE ENERGY PREDICTED BY IDOCK:   -3.69 KCAL/MOL
REMARK 923 INTER-LIGAND FREE ENERGY PREDICTED BY IDOCK:   -3.70 KCAL/MOL
REMARK 924 INTRA-LIGAND FREE ENERGY PREDICTED BY IDOCK:    0.01 KCAL/MOL
REMARK 927      BINDING AFFINITY PREDICTED BY RF-SCORE:    0.00 PKD
ROOT
HETATM    1  C   UNL     1     -10.342   5.350  66.164  1.00  0.00    -0.191 C  
HETATM    2  C   UNL     1     -10.902   5.729  67.527  1.00  0.00    -0.268 C  
ENDROOT
BRANCH   2   3
HETATM    3  C   UNL     1     -10.592   7.187  67.886  1.00  0.00    -0.269 C  
BRANCH   3   4
HETATM    4  C   UNL     1     -10.363   7.391  69.399  1.00  0.00    -0.210 C  
BRANCH   4   5
HETATM    5  N   UNL     1     -11.012   6.371  70.242  1.00  0.00    -0.288 NA 
HETATM    6  C   UNL     1     -10.175   5.177  70.456  1.00  0.00    -0.260 C  
HETATM    7  C   UNL     1      -8.982   5.409  71.403  1.00  0.00    -0.138 C  
HETATM    8  C   UNL     1      -9.519   5.853  72.768  1.00  0.00    -0.148 C  
HETATM    9  O   UNL     1      -8.194   4.225  71.555  1.00  0.00    -0.087 OA 
HETATM   10  H   UNL     1      -7.458   4.368  72.139  1.00  0.00     0.000 HD 
HETATM   11  C   UNL     1     -10.426   7.078  72.623  1.00  0.00    -0.226 C  
HETATM   12  O   UNL     1      -8.470   6.241  73.675  1.00  0.00    -0.123 OA 
HETATM   13  C   UNL     1     -11.526   6.873  71.551  1.00  0.00    -0.277 C  
HETATM   14  H   UNL     1      -8.803   6.516  74.521  1.00  0.00     0.000 HD 
HETATM   15  O   UNL     1     -11.012   7.357  73.910  1.00  0.00    -0.536 OA 
HETATM   16  H   UNL     1     -11.574   8.117  73.821  1.00  0.00     0.000 HD 
BRANCH  13  17
HETATM   17  C   UNL     1     -12.406   8.146  71.465  1.00  0.00    -0.306 C  
HETATM   18  O   UNL     1     -11.710   9.304  71.923  1.00  0.00    -0.370 OA 
HETATM   19  H   UNL     1     -12.249  10.084  71.870  1.00  0.00     0.000 HD 
ENDBRANCH  13  17
ENDBRANCH   4   5
ENDBRANCH   3   4
ENDBRANCH   2   3
TORSDOF 4
ENDMDL
MODEL      194
REMARK 921   NORMALIZED FREE ENERGY PREDICTED BY IDOCK:   -2.59 KCAL/MOL
REMARK 922        TOTAL FREE ENERGY PREDICTED BY IDOCK:   -3.68 KCAL/MOL
REMARK 923 INTER-LIGAND FREE ENERGY PREDICTED BY IDOCK:   -3.25 KCAL/MOL
REMARK 924 INTRA-LIGAND FREE ENERGY PREDICTED BY IDOCK:   -0.44 KCAL/MOL
REMARK 927      BINDING AFFINITY PREDICTED BY RF-SCORE:    0.00 PKD
ROOT
HETATM    1  C   UNL     1     -10.819   6.267  73.238  1.00  0.00    -0.269 C  
HETATM    2  C   UNL     1     -11.249   7.679  72.867  1.00  0.00    -0.426 C  
ENDROOT
BRANCH   2   3
HETATM    3  C   UNL     1     -11.961   7.722  71.511  1.00  0.00    -0.329 C  
BRANCH   3   4
HETATM    4  C   UNL     1     -10.993   7.525  70.324  1.00  0.00    -0.250 C  
BRANCH   4   5
HETATM    5  N   UNL     1      -9.716   8.245  70.473  1.00  0.00    -0.170 NA 
HETATM    6  C   UNL     1      -8.538   7.382  70.278  1.00  0.00    -0.145 C  
HETATM    7  C   UNL     1      -8.300   6.967  68.814  1.00  0.00    -0.122 C  
HETATM    8  C   UNL     1      -8.096   8.232  67.974  1.00  0.00    -0.127 C  
HETATM    9  O   UNL     1      -7.159   6.114  68.688  1.00  0.00    -0.077 OA 
HETATM   10  H   UNL     1      -7.012   5.858  67.785  1.00  0.00     0.000 HD 
HETATM   11  C   UNL     1      -9.272   9.196  68.147  1.00  0.00    -0.131 C  
HETATM   12  O   UNL     1      -8.017   7.952  66.563  1.00  0.00    -0.098 OA 
HETATM   13  C   UNL     1      -9.588   9.476  69.638  1.00  0.00    -0.202 C  
HETATM   14  H   UNL     1      -7.891   8.736  66.042  1.00  0.00     0.000 HD 
HETATM   15  O   UNL     1      -8.956  10.419  67.453  1.00  0.00    -0.135 OA 
HETATM   16  H   UNL     1      -9.686  11.018  67.560  1.00  0.00     0.000 HD 
BRANCH  13  17
HETATM   17  C   UNL     1     -10.782  10.461  69.736  1.00  0.00    -0.278 C  
HETATM   18  O   UNL     1     -11.567  10.464  68.545  1.00  0.00    -0.489 OA 
HETATM   19  H   UNL     1     -12.297  11.068  68.605  1.00  0.00     0.000 HD 
ENDBRANCH  13  17
ENDBRANCH   4   5
ENDBRANCH   3   4
ENDBRANCH   2   3
TORSDOF 4
ENDMDL
MODEL      195
REMARK 921   NORMALIZED FREE ENERGY PREDICTED BY IDOCK:   -2.59 KCAL/MOL
REMARK 922        TOTAL FREE ENERGY PREDICTED BY IDOCK:   -3.68 KCAL/MOL
REMARK 923 INTER-LIGAND FREE ENERGY PREDICTED BY IDOCK:   -3.26 KCAL/MOL
REMARK 924 INTRA-LIGAND FREE ENERGY PREDICTED BY IDOCK:   -0.42 KCAL/MOL
REMARK 927      BINDING AFFINITY PREDICTED BY RF-SCORE:    0.00 PKD
ROOT
HETATM    1  C   UNL     1      -6.527   8.261  67.665  1.00  0.00    -0.057 C  
HETATM    2  C   UNL     1      -7.162   7.554  68.854  1.00  0.00    -0.082 C  
ENDROOT
BRANCH   2   3
HETATM    3  C   UNL     1      -8.673   7.801  68.924  1.00  0.00    -0.135 C  
BRANCH   3   4
HETATM    4  C   UNL     1      -9.270   7.447  70.303  1.00  0.00    -0.154 C  
BRANCH   4   5
HETATM    5  N   UNL     1     -10.492   6.627  70.229  1.00  0.00    -0.202 NA 
HETATM    6  C   UNL     1     -10.246   5.263  69.730  1.00  0.00    -0.294 C  
HETATM    7  C   UNL     1      -9.520   4.350  70.734  1.00  0.00    -0.173 C  
HETATM    8  C   UNL     1     -10.376   4.235  72.000  1.00  0.00    -0.099 C  
HETATM    9  O   UNL     1      -9.287   3.048  70.189  1.00  0.00    -0.142 OA 
HETATM   10  H   UNL     1      -8.839   2.484  70.809  1.00  0.00     0.000 HD 
HETATM   11  C   UNL     1     -10.699   5.620  72.565  1.00  0.00    -0.239 C  
HETATM   12  O   UNL     1      -9.706   3.523  73.058  1.00  0.00    -0.115 OA 
HETATM   13  C   UNL     1     -11.288   6.571  71.491  1.00  0.00    -0.291 C  
HETATM   14  H   UNL     1     -10.237   3.452  73.842  1.00  0.00     0.000 HD 
HETATM   15  O   UNL     1     -11.620   5.455  73.662  1.00  0.00    -0.388 OA 
HETATM   16  H   UNL     1     -11.821   6.314  74.013  1.00  0.00     0.000 HD 
BRANCH  13  17
HETATM   17  C   UNL     1     -11.596   7.948  72.134  1.00  0.00    -0.328 C  
HETATM   18  O   UNL     1     -12.884   7.971  72.749  1.00  0.00    -0.562 OA 
HETATM   19  H   UNL     1     -13.072   8.814  73.143  1.00  0.00     0.000 HD 
ENDBRANCH  13  17
ENDBRANCH   4   5
ENDBRANCH   3   4
ENDBRANCH   2   3
TORSDOF 4
ENDMDL
MODEL      196
REMARK 921   NORMALIZED FREE ENERGY PREDICTED BY IDOCK:   -2.57 KCAL/MOL
REMARK 922        TOTAL FREE ENERGY PREDICTED BY IDOCK:   -3.67 KCAL/MOL
REMARK 923 INTER-LIGAND FREE ENERGY PREDICTED BY IDOCK:   -3.45 KCAL/MOL
REMARK 924 INTRA-LIGAND FREE ENERGY PREDICTED BY IDOCK:   -0.22 KCAL/MOL
REMARK 927      BINDING AFFINITY PREDICTED BY RF-SCORE:    0.00 PKD
ROOT
HETATM    1  C   UNL     1     -11.402  15.756  64.218  1.00  0.00    -0.189 C  
HETATM    2  C   UNL     1     -12.201  14.540  64.666  1.00  0.00    -0.474 C  
ENDROOT
BRANCH   2   3
HETATM    3  C   UNL     1     -12.036  14.270  66.165  1.00  0.00    -0.424 C  
BRANCH   3   4
HETATM    4  C   UNL     1     -10.581  14.457  66.647  1.00  0.00    -0.282 C  
BRANCH   4   5
HETATM    5  N   UNL     1     -10.234  13.637  67.822  1.00  0.00    -0.238 NA 
HETATM    6  C   UNL     1      -9.794  12.276  67.469  1.00  0.00    -0.193 C  
HETATM    7  C   UNL     1      -8.394  12.215  66.831  1.00  0.00    -0.151 C  
HETATM    8  C   UNL     1      -7.378  12.790  67.824  1.00  0.00    -0.130 C  
HETATM    9  O   UNL     1      -8.030  10.874  66.490  1.00  0.00    -0.140 OA 
HETATM   10  H   UNL     1      -7.166  10.837  66.096  1.00  0.00     0.000 HD 
HETATM   11  C   UNL     1      -7.784  14.200  68.261  1.00  0.00    -0.139 C  
HETATM   12  O   UNL     1      -6.061  12.916  67.257  1.00  0.00    -0.291 OA 
HETATM   13  C   UNL     1      -9.252  14.263  68.756  1.00  0.00    -0.112 C  
HETATM   14  H   UNL     1      -5.431  13.272  67.872  1.00  0.00     0.000 HD 
HETATM   15  O   UNL     1      -6.877  14.627  69.297  1.00  0.00    -0.123 OA 
HETATM   16  H   UNL     1      -7.128  15.502  69.569  1.00  0.00     0.000 HD 
BRANCH  13  17
HETATM   17  C   UNL     1      -9.589  15.713  69.187  1.00  0.00    -0.251 C  
HETATM   18  O   UNL     1     -10.615  15.747  70.179  1.00  0.00    -0.313 OA 
HETATM   19  H   UNL     1     -10.822  16.636  70.442  1.00  0.00     0.000 HD 
ENDBRANCH  13  17
ENDBRANCH   4   5
ENDBRANCH   3   4
ENDBRANCH   2   3
TORSDOF 4
ENDMDL
MODEL      197
REMARK 921   NORMALIZED FREE ENERGY PREDICTED BY IDOCK:   -2.55 KCAL/MOL
REMARK 922        TOTAL FREE ENERGY PREDICTED BY IDOCK:   -3.64 KCAL/MOL
REMARK 923 INTER-LIGAND FREE ENERGY PREDICTED BY IDOCK:   -3.30 KCAL/MOL
REMARK 924 INTRA-LIGAND FREE ENERGY PREDICTED BY IDOCK:   -0.34 KCAL/MOL
REMARK 927      BINDING AFFINITY PREDICTED BY RF-SCORE:    0.00 PKD
ROOT
HETATM    1  C   UNL     1      -7.287   9.707  67.297  1.00  0.00    -0.087 C  
HETATM    2  C   UNL     1      -6.190  10.744  67.103  1.00  0.00    -0.065 C  
ENDROOT
BRANCH   2   3
HETATM    3  C   UNL     1      -6.760  12.162  66.983  1.00  0.00    -0.072 C  
BRANCH   3   4
HETATM    4  C   UNL     1      -8.303  12.190  67.033  1.00  0.00    -0.173 C  
BRANCH   4   5
HETATM    5  N   UNL     1      -8.849  12.428  68.381  1.00  0.00    -0.165 NA 
HETATM    6  C   UNL     1      -8.254  13.598  69.050  1.00  0.00     0.244 C  
HETATM    7  C   UNL     1      -8.706  14.950  68.469  1.00  0.00    -0.172 C  
HETATM    8  C   UNL     1     -10.228  15.059  68.609  1.00  0.00    -0.231 C  
HETATM    9  O   UNL     1      -8.079  16.047  69.141  1.00  0.00    -0.222 OA 
HETATM   10  H   UNL     1      -8.358  16.882  68.783  1.00  0.00     0.000 HD 
HETATM   11  C   UNL     1     -10.921  13.859  67.959  1.00  0.00    -0.251 C  
HETATM   12  O   UNL     1     -10.761  16.226  67.954  1.00  0.00    -0.310 OA 
HETATM   13  C   UNL     1     -10.339  12.508  68.449  1.00  0.00    -0.230 C  
HETATM   14  H   UNL     1     -11.704  16.293  68.041  1.00  0.00     0.000 HD 
HETATM   15  O   UNL     1     -12.330  13.943  68.248  1.00  0.00    -0.493 OA 
HETATM   16  H   UNL     1     -12.760  13.198  67.845  1.00  0.00     0.000 HD 
BRANCH  13  17
HETATM   17  C   UNL     1     -11.090  11.341  67.757  1.00  0.00    -0.271 C  
HETATM   18  O   UNL     1     -12.256  10.955  68.483  1.00  0.00    -0.799 OA 
HETATM   19  H   UNL     1     -12.716  10.241  68.059  1.00  0.00     0.000 HD 
ENDBRANCH  13  17
ENDBRANCH   4   5
ENDBRANCH   3   4
ENDBRANCH   2   3
TORSDOF 4
ENDMDL
MODEL      198
REMARK 921   NORMALIZED FREE ENERGY PREDICTED BY IDOCK:   -2.53 KCAL/MOL
REMARK 922        TOTAL FREE ENERGY PREDICTED BY IDOCK:   -3.61 KCAL/MOL
REMARK 923 INTER-LIGAND FREE ENERGY PREDICTED BY IDOCK:   -3.18 KCAL/MOL
REMARK 924 INTRA-LIGAND FREE ENERGY PREDICTED BY IDOCK:   -0.44 KCAL/MOL
REMARK 927      BINDING AFFINITY PREDICTED BY RF-SCORE:    0.00 PKD
ROOT
HETATM    1  C   UNL     1      -9.753   3.448  63.076  1.00  0.00    -0.103 C  
HETATM    2  C   UNL     1      -8.929   4.127  64.160  1.00  0.00    -0.144 C  
ENDROOT
BRANCH   2   3
HETATM    3  C   UNL     1      -8.922   3.319  65.462  1.00  0.00    -0.142 C  
BRANCH   3   4
HETATM    4  C   UNL     1      -9.749   3.988  66.582  1.00  0.00    -0.192 C  
BRANCH   4   5
HETATM    5  N   UNL     1      -9.001   5.003  67.347  1.00  0.00    -0.109 NA 
HETATM    6  C   UNL     1      -9.466   6.378  67.095  1.00  0.00    -0.129 C  
HETATM    7  C   UNL     1     -10.834   6.702  67.722  1.00  0.00    -0.294 C  
HETATM    8  C   UNL     1     -10.734   6.515  69.240  1.00  0.00    -0.280 C  
HETATM    9  O   UNL     1     -11.244   8.040  67.426  1.00  0.00    -0.406 OA 
HETATM   10  H   UNL     1     -12.089   8.240  67.813  1.00  0.00     0.000 HD 
HETATM   11  C   UNL     1     -10.228   5.112  69.582  1.00  0.00    -0.267 C  
HETATM   12  O   UNL     1     -12.008   6.648  69.899  1.00  0.00    -0.652 OA 
HETATM   13  C   UNL     1      -8.929   4.752  68.817  1.00  0.00    -0.106 C  
HETATM   14  H   UNL     1     -11.946   6.533  70.839  1.00  0.00     0.000 HD 
HETATM   15  O   UNL     1     -10.017   5.046  71.007  1.00  0.00    -0.188 OA 
HETATM   16  H   UNL     1      -9.703   4.175  71.220  1.00  0.00     0.000 HD 
BRANCH  13  17
HETATM   17  C   UNL     1      -8.473   3.325  69.217  1.00  0.00    -0.062 C  
HETATM   18  O   UNL     1      -9.544   2.561  69.769  1.00  0.00    -0.102 OA 
HETATM   19  H   UNL     1      -9.264   1.687  70.014  1.00  0.00     0.000 HD 
ENDBRANCH  13  17
ENDBRANCH   4   5
ENDBRANCH   3   4
ENDBRANCH   2   3
TORSDOF 4
ENDMDL
MODEL      199
REMARK 921   NORMALIZED FREE ENERGY PREDICTED BY IDOCK:   -2.53 KCAL/MOL
REMARK 922        TOTAL FREE ENERGY PREDICTED BY IDOCK:   -3.61 KCAL/MOL
REMARK 923 INTER-LIGAND FREE ENERGY PREDICTED BY IDOCK:   -3.19 KCAL/MOL
REMARK 924 INTRA-LIGAND FREE ENERGY PREDICTED BY IDOCK:   -0.42 KCAL/MOL
REMARK 927      BINDING AFFINITY PREDICTED BY RF-SCORE:    0.00 PKD
ROOT
HETATM    1  C   UNL     1      -8.401   6.020  67.093  1.00  0.00    -0.105 C  
HETATM    2  C   UNL     1      -9.882   5.758  66.859  1.00  0.00    -0.179 C  
ENDROOT
BRANCH   2   3
HETATM    3  C   UNL     1     -10.705   7.049  66.906  1.00  0.00    -0.376 C  
BRANCH   3   4
HETATM    4  C   UNL     1      -9.958   8.254  66.292  1.00  0.00    -0.109 C  
BRANCH   4   5
HETATM    5  N   UNL     1     -10.395   9.557  66.825  1.00  0.00    -0.243 NA 
HETATM    6  C   UNL     1     -10.506   9.576  68.294  1.00  0.00    -0.223 C  
HETATM    7  C   UNL     1      -9.151   9.567  69.025  1.00  0.00    -0.144 C  
HETATM    8  C   UNL     1      -8.357  10.808  68.602  1.00  0.00    -0.141 C  
HETATM    9  O   UNL     1      -9.320   9.563  70.446  1.00  0.00    -0.242 OA 
HETATM   10  H   UNL     1      -8.484   9.557  70.897  1.00  0.00     0.000 HD 
HETATM   11  C   UNL     1      -8.223  10.874  67.079  1.00  0.00    -0.134 C  
HETATM   12  O   UNL     1      -7.013  10.807  69.118  1.00  0.00    -0.071 OA 
HETATM   13  C   UNL     1      -9.589  10.726  66.361  1.00  0.00    -0.189 C  
HETATM   14  H   UNL     1      -6.521  11.576  68.856  1.00  0.00     0.000 HD 
HETATM   15  O   UNL     1      -7.599  12.128  66.737  1.00  0.00    -0.343 OA 
HETATM   16  H   UNL     1      -7.516  12.169  65.792  1.00  0.00     0.000 HD 
BRANCH  13  17
HETATM   17  C   UNL     1      -9.377  10.808  64.827  1.00  0.00    -0.226 C  
HETATM   18  O   UNL     1      -9.514  12.144  64.344  1.00  0.00    -0.464 OA 
HETATM   19  H   UNL     1      -9.384  12.194  63.404  1.00  0.00     0.000 HD 
ENDBRANCH  13  17
ENDBRANCH   4   5
ENDBRANCH   3   4
ENDBRANCH   2   3
TORSDOF 4
ENDMDL
MODEL      200
REMARK 921   NORMALIZED FREE ENERGY PREDICTED BY IDOCK:   -2.51 KCAL/MOL
REMARK 922        TOTAL FREE ENERGY PREDICTED BY IDOCK:   -3.59 KCAL/MOL
REMARK 923 INTER-LIGAND FREE ENERGY PREDICTED BY IDOCK:   -3.47 KCAL/MOL
REMARK 924 INTRA-LIGAND FREE ENERGY PREDICTED BY IDOCK:   -0.12 KCAL/MOL
REMARK 927      BINDING AFFINITY PREDICTED BY RF-SCORE:    0.00 PKD
ROOT
HETATM    1  C   UNL     1      -6.259   9.805  70.883  1.00  0.00    -0.084 C  
HETATM    2  C   UNL     1      -7.287   8.690  70.754  1.00  0.00    -0.070 C  
ENDROOT
BRANCH   2   3
HETATM    3  C   UNL     1      -8.670   9.230  70.372  1.00  0.00    -0.263 C  
BRANCH   3   4
HETATM    4  C   UNL     1      -8.600  10.342  69.304  1.00  0.00    -0.150 C  
BRANCH   4   5
HETATM    5  N   UNL     1      -9.736  10.335  68.364  1.00  0.00    -0.152 NA 
HETATM    6  C   UNL     1     -11.009   9.949  68.996  1.00  0.00    -0.190 C  
HETATM    7  C   UNL     1     -11.599  11.025  69.927  1.00  0.00    -0.337 C  
HETATM    8  C   UNL     1     -11.851  12.296  69.110  1.00  0.00    -0.301 C  
HETATM    9  O   UNL     1     -12.820  10.587  70.529  1.00  0.00    -0.375 OA 
HETATM   10  H   UNL     1     -13.184  11.250  71.104  1.00  0.00     0.000 HD 
HETATM   11  C   UNL     1     -10.574  12.746  68.397  1.00  0.00    -0.248 C  
HETATM   12  O   UNL     1     -12.260  13.408  69.929  1.00  0.00    -0.314 OA 
HETATM   13  C   UNL     1      -9.916  11.599  67.588  1.00  0.00    -0.188 C  
HETATM   14  H   UNL     1     -12.417  14.196  69.422  1.00  0.00     0.000 HD 
HETATM   15  O   UNL     1     -10.906  13.853  67.535  1.00  0.00    -0.261 OA 
HETATM   16  H   UNL     1     -10.114  14.133  67.092  1.00  0.00     0.000 HD 
BRANCH  13  17
HETATM   17  C   UNL     1      -8.636  12.128  66.891  1.00  0.00    -0.191 C  
HETATM   18  O   UNL     1      -8.230  11.282  65.815  1.00  0.00    -0.346 OA 
HETATM   19  H   UNL     1      -7.446  11.607  65.388  1.00  0.00     0.000 HD 
ENDBRANCH  13  17
ENDBRANCH   4   5
ENDBRANCH   3   4
ENDBRANCH   2   3
TORSDOF 4
ENDMDL
MODEL      201
REMARK 921   NORMALIZED FREE ENERGY PREDICTED BY IDOCK:   -2.49 KCAL/MOL
REMARK 922        TOTAL FREE ENERGY PREDICTED BY IDOCK:   -3.57 KCAL/MOL
REMARK 923 INTER-LIGAND FREE ENERGY PREDICTED BY IDOCK:   -3.31 KCAL/MOL
REMARK 924 INTRA-LIGAND FREE ENERGY PREDICTED BY IDOCK:   -0.25 KCAL/MOL
REMARK 927      BINDING AFFINITY PREDICTED BY RF-SCORE:    0.00 PKD
ROOT
HETATM    1  C   UNL     1     -10.673  15.400  65.982  1.00  0.00    -0.326 C  
HETATM    2  C   UNL     1     -10.907  13.967  65.526  1.00  0.00    -0.306 C  
ENDROOT
BRANCH   2   3
HETATM    3  C   UNL     1     -11.367  13.068  66.680  1.00  0.00    -0.366 C  
BRANCH   3   4
HETATM    4  C   UNL     1     -11.003  11.584  66.460  1.00  0.00    -0.293 C  
BRANCH   4   5
HETATM    5  N   UNL     1     -10.340  10.957  67.617  1.00  0.00    -0.189 NA 
HETATM    6  C   UNL     1     -10.911   9.647  67.974  1.00  0.00    -0.140 C  
HETATM    7  C   UNL     1     -10.567   8.521  66.982  1.00  0.00    -0.235 C  
HETATM    8  C   UNL     1      -9.043   8.365  66.927  1.00  0.00    -0.148 C  
HETATM    9  O   UNL     1     -11.166   7.280  67.366  1.00  0.00    -0.565 OA 
HETATM   10  H   UNL     1     -10.953   6.585  66.753  1.00  0.00     0.000 HD 
HETATM   11  C   UNL     1      -8.372   9.698  66.587  1.00  0.00    -0.123 C  
HETATM   12  O   UNL     1      -8.618   7.438  65.911  1.00  0.00    -0.147 OA 
HETATM   13  C   UNL     1      -8.854  10.850  67.506  1.00  0.00    -0.133 C  
HETATM   14  H   UNL     1      -7.674   7.341  65.877  1.00  0.00     0.000 HD 
HETATM   15  O   UNL     1      -6.945   9.523  66.694  1.00  0.00    -0.083 OA 
HETATM   16  H   UNL     1      -6.528  10.350  66.483  1.00  0.00     0.000 HD 
BRANCH  13  17
HETATM   17  C   UNL     1      -8.130  12.163  67.110  1.00  0.00    -0.175 C  
HETATM   18  O   UNL     1      -6.929  12.353  67.856  1.00  0.00    -0.084 OA 
HETATM   19  H   UNL     1      -6.486  13.157  67.613  1.00  0.00     0.000 HD 
ENDBRANCH  13  17
ENDBRANCH   4   5
ENDBRANCH   3   4
ENDBRANCH   2   3
TORSDOF 4
ENDMDL
MODEL      202
REMARK 921   NORMALIZED FREE ENERGY PREDICTED BY IDOCK:   -2.49 KCAL/MOL
REMARK 922        TOTAL FREE ENERGY PREDICTED BY IDOCK:   -3.56 KCAL/MOL
REMARK 923 INTER-LIGAND FREE ENERGY PREDICTED BY IDOCK:   -3.06 KCAL/MOL
REMARK 924 INTRA-LIGAND FREE ENERGY PREDICTED BY IDOCK:   -0.50 KCAL/MOL
REMARK 927      BINDING AFFINITY PREDICTED BY RF-SCORE:    0.00 PKD
ROOT
HETATM    1  C   UNL     1      -5.647   6.831  67.930  1.00  0.00    -0.015 C  
HETATM    2  C   UNL     1      -7.107   6.791  68.358  1.00  0.00    -0.083 C  
ENDROOT
BRANCH   2   3
HETATM    3  C   UNL     1      -8.055   6.797  67.154  1.00  0.00    -0.117 C  
BRANCH   3   4
HETATM    4  C   UNL     1      -9.046   7.981  67.184  1.00  0.00    -0.137 C  
BRANCH   4   5
HETATM    5  N   UNL     1      -8.420   9.287  66.909  1.00  0.00    -0.126 NA 
HETATM    6  C   UNL     1      -7.766   9.351  65.591  1.00  0.00    -0.099 C  
HETATM    7  C   UNL     1      -8.748   9.409  64.406  1.00  0.00    -0.199 C  
HETATM    8  C   UNL     1      -9.621  10.660  64.554  1.00  0.00    -0.286 C  
HETATM    9  O   UNL     1      -8.058   9.447  63.153  1.00  0.00    -0.136 OA 
HETATM   10  H   UNL     1      -8.664   9.483  62.422  1.00  0.00     0.000 HD 
HETATM   11  C   UNL     1     -10.316  10.679  65.918  1.00  0.00    -0.224 C  
HETATM   12  O   UNL     1     -10.674  10.719  63.573  1.00  0.00    -0.530 OA 
HETATM   13  C   UNL     1      -9.322  10.464  67.088  1.00  0.00    -0.157 C  
HETATM   14  H   UNL     1     -11.215  11.493  63.665  1.00  0.00     0.000 HD 
HETATM   15  O   UNL     1     -11.001  11.940  66.055  1.00  0.00    -0.288 OA 
HETATM   16  H   UNL     1     -11.433  11.952  66.901  1.00  0.00     0.000 HD 
BRANCH  13  17
HETATM   17  C   UNL     1     -10.092  10.502  68.433  1.00  0.00    -0.164 C  
HETATM   18  O   UNL     1     -11.490  10.284  68.251  1.00  0.00    -0.501 OA 
HETATM   19  H   UNL     1     -11.962  10.308  69.075  1.00  0.00     0.000 HD 
ENDBRANCH  13  17
ENDBRANCH   4   5
ENDBRANCH   3   4
ENDBRANCH   2   3
TORSDOF 4
ENDMDL
MODEL      203
REMARK 921   NORMALIZED FREE ENERGY PREDICTED BY IDOCK:   -2.48 KCAL/MOL
REMARK 922        TOTAL FREE ENERGY PREDICTED BY IDOCK:   -3.56 KCAL/MOL
REMARK 923 INTER-LIGAND FREE ENERGY PREDICTED BY IDOCK:   -3.11 KCAL/MOL
REMARK 924 INTRA-LIGAND FREE ENERGY PREDICTED BY IDOCK:   -0.45 KCAL/MOL
REMARK 927      BINDING AFFINITY PREDICTED BY RF-SCORE:    0.00 PKD
ROOT
HETATM    1  C   UNL     1      -9.073   9.382  64.809  1.00  0.00    -0.248 C  
HETATM    2  C   UNL     1     -10.063   9.063  65.919  1.00  0.00    -0.041 C  
ENDROOT
BRANCH   2   3
HETATM    3  C   UNL     1      -9.361   8.553  67.182  1.00  0.00    -0.191 C  
BRANCH   3   4
HETATM    4  C   UNL     1     -10.307   8.477  68.400  1.00  0.00    -0.202 C  
BRANCH   4   5
HETATM    5  N   UNL     1      -9.781   9.147  69.603  1.00  0.00    -0.170 NA 
HETATM    6  C   UNL     1      -9.344  10.531  69.352  1.00  0.00    -0.117 C  
HETATM    7  C   UNL     1     -10.501  11.523  69.128  1.00  0.00    -0.101 C  
HETATM    8  C   UNL     1     -11.387  11.534  70.378  1.00  0.00     0.206 C  
HETATM    9  O   UNL     1     -10.017  12.844  68.867  1.00  0.00    -0.420 OA 
HETATM   10  H   UNL     1     -10.731  13.456  68.728  1.00  0.00     0.000 HD 
HETATM   11  C   UNL     1     -11.860  10.119  70.721  1.00  0.00    -0.351 C  
HETATM   12  O   UNL     1     -12.581  12.319  70.203  1.00  0.00    -0.054 OA 
HETATM   13  C   UNL     1     -10.687   9.107  70.790  1.00  0.00    -0.263 C  
HETATM   14  H   UNL     1     -13.130  12.326  70.977  1.00  0.00     0.000 HD 
HETATM   15  O   UNL     1     -12.562  10.173  71.979  1.00  0.00    -0.376 OA 
HETATM   16  H   UNL     1     -12.856   9.296  72.192  1.00  0.00     0.000 HD 
BRANCH  13  17
HETATM   17  C   UNL     1     -11.239   7.703  71.147  1.00  0.00    -0.261 C  
HETATM   18  O   UNL     1     -12.649   7.620  70.950  1.00  0.00    -0.517 OA 
HETATM   19  H   UNL     1     -12.987   6.760  71.168  1.00  0.00     0.000 HD 
ENDBRANCH  13  17
ENDBRANCH   4   5
ENDBRANCH   3   4
ENDBRANCH   2   3
TORSDOF 4
ENDMDL
MODEL      204
REMARK 921   NORMALIZED FREE ENERGY PREDICTED BY IDOCK:   -2.47 KCAL/MOL
REMARK 922        TOTAL FREE ENERGY PREDICTED BY IDOCK:   -3.54 KCAL/MOL
REMARK 923 INTER-LIGAND FREE ENERGY PREDICTED BY IDOCK:   -3.08 KCAL/MOL
REMARK 924 INTRA-LIGAND FREE ENERGY PREDICTED BY IDOCK:   -0.46 KCAL/MOL
REMARK 927      BINDING AFFINITY PREDICTED BY RF-SCORE:    0.00 PKD
ROOT
HETATM    1  C   UNL     1     -11.582  11.957  67.422  1.00  0.00    -0.367 C  
HETATM    2  C   UNL     1     -10.820  11.673  68.709  1.00  0.00    -0.262 C  
ENDROOT
BRANCH   2   3
HETATM    3  C   UNL     1      -9.662  10.695  68.482  1.00  0.00    -0.177 C  
BRANCH   3   4
HETATM    4  C   UNL     1      -9.882   9.340  69.189  1.00  0.00    -0.167 C  
BRANCH   4   5
HETATM    5  N   UNL     1     -10.723   8.401  68.425  1.00  0.00    -0.092 NA 
HETATM    6  C   UNL     1     -10.397   8.365  66.989  1.00  0.00    -0.315 C  
HETATM    7  C   UNL     1      -9.065   7.663  66.666  1.00  0.00    -0.164 C  
HETATM    8  C   UNL     1      -9.142   6.215  67.162  1.00  0.00    -0.114 C  
HETATM    9  O   UNL     1      -8.789   7.679  65.263  1.00  0.00    -0.363 OA 
HETATM   10  H   UNL     1      -7.967   7.245  65.063  1.00  0.00     0.000 HD 
HETATM   11  C   UNL     1      -9.507   6.168  68.648  1.00  0.00    -0.124 C  
HETATM   12  O   UNL     1      -7.886   5.521  67.040  1.00  0.00    -0.099 OA 
HETATM   13  C   UNL     1     -10.767   7.011  68.971  1.00  0.00    -0.210 C  
HETATM   14  H   UNL     1      -7.934   4.624  67.348  1.00  0.00     0.000 HD 
HETATM   15  O   UNL     1      -9.706   4.789  69.018  1.00  0.00    -0.155 OA 
HETATM   16  H   UNL     1      -9.933   4.759  69.940  1.00  0.00     0.000 HD 
BRANCH  13  17
HETATM   17  C   UNL     1     -11.079   6.912  70.487  1.00  0.00    -0.288 C  
HETATM   18  O   UNL     1      -9.946   6.469  71.234  1.00  0.00    -0.181 OA 
HETATM   19  H   UNL     1     -10.138   6.408  72.162  1.00  0.00     0.000 HD 
ENDBRANCH  13  17
ENDBRANCH   4   5
ENDBRANCH   3   4
ENDBRANCH   2   3
TORSDOF 4
ENDMDL
MODEL      205
REMARK 921   NORMALIZED FREE ENERGY PREDICTED BY IDOCK:   -2.46 KCAL/MOL
REMARK 922        TOTAL FREE ENERGY PREDICTED BY IDOCK:   -3.53 KCAL/MOL
REMARK 923 INTER-LIGAND FREE ENERGY PREDICTED BY IDOCK:   -3.84 KCAL/MOL
REMARK 924 INTRA-LIGAND FREE ENERGY PREDICTED BY IDOCK:    0.31 KCAL/MOL
REMARK 927      BINDING AFFINITY PREDICTED BY RF-SCORE:    0.00 PKD
ROOT
HETATM    1  C   UNL     1     -13.102  10.533  71.387  1.00  0.00    -0.509 C  
HETATM    2  C   UNL     1     -11.683  10.063  71.101  1.00  0.00    -0.472 C  
ENDROOT
BRANCH   2   3
HETATM    3  C   UNL     1     -11.165  10.595  69.760  1.00  0.00    -0.363 C  
BRANCH   3   4
HETATM    4  C   UNL     1      -9.640  10.412  69.596  1.00  0.00    -0.109 C  
BRANCH   4   5
HETATM    5  N   UNL     1      -9.155  10.669  68.229  1.00  0.00    -0.147 NA 
HETATM    6  C   UNL     1     -10.241  10.810  67.244  1.00  0.00    -0.205 C  
HETATM    7  C   UNL     1     -11.032  12.125  67.366  1.00  0.00    -0.260 C  
HETATM    8  C   UNL     1     -10.066  13.298  67.165  1.00  0.00    -0.239 C  
HETATM    9  O   UNL     1     -12.086  12.196  66.402  1.00  0.00    -0.630 OA 
HETATM   10  H   UNL     1     -12.574  13.008  66.477  1.00  0.00     0.000 HD 
HETATM   11  C   UNL     1      -8.889  13.206  68.139  1.00  0.00    -0.194 C  
HETATM   12  O   UNL     1     -10.687  14.574  67.413  1.00  0.00    -0.274 OA 
HETATM   13  C   UNL     1      -8.205  11.815  68.106  1.00  0.00    -0.153 C  
HETATM   14  H   UNL     1     -10.088  15.300  67.288  1.00  0.00     0.000 HD 
HETATM   15  O   UNL     1      -7.948  14.246  67.806  1.00  0.00    -0.139 OA 
HETATM   16  H   UNL     1      -7.218  14.189  68.410  1.00  0.00     0.000 HD 
BRANCH  13  17
HETATM   17  C   UNL     1      -7.023  11.798  69.108  1.00  0.00    -0.091 C  
HETATM   18  O   UNL     1      -5.800  12.203  68.494  1.00  0.00    -0.052 OA 
HETATM   19  H   UNL     1      -5.076  12.192  69.109  1.00  0.00     0.000 HD 
ENDBRANCH  13  17
ENDBRANCH   4   5
ENDBRANCH   3   4
ENDBRANCH   2   3
TORSDOF 4
ENDMDL
MODEL      206
REMARK 921   NORMALIZED FREE ENERGY PREDICTED BY IDOCK:   -2.45 KCAL/MOL
REMARK 922        TOTAL FREE ENERGY PREDICTED BY IDOCK:   -3.51 KCAL/MOL
REMARK 923 INTER-LIGAND FREE ENERGY PREDICTED BY IDOCK:   -3.22 KCAL/MOL
REMARK 924 INTRA-LIGAND FREE ENERGY PREDICTED BY IDOCK:   -0.29 KCAL/MOL
REMARK 927      BINDING AFFINITY PREDICTED BY RF-SCORE:    0.00 PKD
ROOT
HETATM    1  C   UNL     1      -6.472   6.071  71.761  1.00  0.00    -0.053 C  
HETATM    2  C   UNL     1      -6.280   4.564  71.665  1.00  0.00    -0.018 C  
ENDROOT
BRANCH   2   3
HETATM    3  C   UNL     1      -6.931   3.986  70.404  1.00  0.00    -0.034 C  
BRANCH   3   4
HETATM    4  C   UNL     1      -7.961   4.946  69.771  1.00  0.00    -0.070 C  
BRANCH   4   5
HETATM    5  N   UNL     1      -9.289   4.341  69.565  1.00  0.00    -0.145 NA 
HETATM    6  C   UNL     1     -10.136   4.373  70.770  1.00  0.00    -0.129 C  
HETATM    7  C   UNL     1     -10.669   5.774  71.124  1.00  0.00    -0.261 C  
HETATM    8  C   UNL     1     -11.509   6.289  69.950  1.00  0.00    -0.389 C  
HETATM    9  O   UNL     1     -11.464   5.748  72.313  1.00  0.00    -0.288 OA 
HETATM   10  H   UNL     1     -11.793   6.613  72.531  1.00  0.00     0.000 HD 
HETATM   11  C   UNL     1     -10.702   6.259  68.650  1.00  0.00    -0.298 C  
HETATM   12  O   UNL     1     -11.925   7.657  70.127  1.00  0.00    -0.478 OA 
HETATM   13  C   UNL     1     -10.048   4.877  68.395  1.00  0.00    -0.078 C  
HETATM   14  H   UNL     1     -12.445   7.976  69.399  1.00  0.00     0.000 HD 
HETATM   15  O   UNL     1     -11.584   6.614  67.566  1.00  0.00    -0.693 OA 
HETATM   16  H   UNL     1     -11.084   6.595  66.759  1.00  0.00     0.000 HD 
BRANCH  13  17
HETATM   17  C   UNL     1      -9.256   4.919  67.063  1.00  0.00    -0.123 C  
HETATM   18  O   UNL     1      -9.297   3.666  66.381  1.00  0.00    -0.168 OA 
HETATM   19  H   UNL     1      -8.812   3.692  65.565  1.00  0.00     0.000 HD 
ENDBRANCH  13  17
ENDBRANCH   4   5
ENDBRANCH   3   4
ENDBRANCH   2   3
TORSDOF 4
ENDMDL
MODEL      207
REMARK 921   NORMALIZED FREE ENERGY PREDICTED BY IDOCK:   -2.44 KCAL/MOL
REMARK 922        TOTAL FREE ENERGY PREDICTED BY IDOCK:   -3.51 KCAL/MOL
REMARK 923 INTER-LIGAND FREE ENERGY PREDICTED BY IDOCK:   -3.24 KCAL/MOL
REMARK 924 INTRA-LIGAND FREE ENERGY PREDICTED BY IDOCK:   -0.27 KCAL/MOL
REMARK 927      BINDING AFFINITY PREDICTED BY RF-SCORE:    0.00 PKD
ROOT
HETATM    1  C   UNL     1      -5.329   8.143  68.330  1.00  0.00    -0.033 C  
HETATM    2  C   UNL     1      -6.264   7.182  69.051  1.00  0.00    -0.031 C  
ENDROOT
BRANCH   2   3
HETATM    3  C   UNL     1      -7.072   7.886  70.147  1.00  0.00    -0.050 C  
BRANCH   3   4
HETATM    4  C   UNL     1      -8.477   8.313  69.669  1.00  0.00    -0.125 C  
BRANCH   4   5
HETATM    5  N   UNL     1      -8.829   9.699  70.024  1.00  0.00    -0.219 NA 
HETATM    6  C   UNL     1      -8.081  10.705  69.249  1.00  0.00    -0.127 C  
HETATM    7  C   UNL     1      -8.520  10.816  67.777  1.00  0.00    -0.120 C  
HETATM    8  C   UNL     1     -10.002  11.204  67.736  1.00  0.00    -0.175 C  
HETATM    9  O   UNL     1      -7.746  11.789  67.070  1.00  0.00    -0.154 OA 
HETATM   10  H   UNL     1      -8.017  11.858  66.162  1.00  0.00     0.000 HD 
HETATM   11  C   UNL     1     -10.845  10.217  68.547  1.00  0.00    -0.237 C  
HETATM   12  O   UNL     1     -10.542  11.183  66.401  1.00  0.00    -0.252 OA 
HETATM   13  C   UNL     1     -10.290  10.006  69.979  1.00  0.00    -0.272 C  
HETATM   14  H   UNL     1     -11.460  11.424  66.376  1.00  0.00     0.000 HD 
HETATM   15  O   UNL     1     -12.198  10.712  68.591  1.00  0.00    -0.814 OA 
HETATM   16  H   UNL     1     -12.722  10.100  69.094  1.00  0.00     0.000 HD 
BRANCH  13  17
HETATM   17  C   UNL     1     -11.195   9.003  70.740  1.00  0.00    -0.275 C  
HETATM   18  O   UNL     1     -10.804   8.868  72.106  1.00  0.00    -0.355 OA 
HETATM   19  H   UNL     1     -11.359   8.253  72.572  1.00  0.00     0.000 HD 
ENDBRANCH  13  17
ENDBRANCH   4   5
ENDBRANCH   3   4
ENDBRANCH   2   3
TORSDOF 4
ENDMDL
MODEL      208
REMARK 921   NORMALIZED FREE ENERGY PREDICTED BY IDOCK:   -2.44 KCAL/MOL
REMARK 922        TOTAL FREE ENERGY PREDICTED BY IDOCK:   -3.50 KCAL/MOL
REMARK 923 INTER-LIGAND FREE ENERGY PREDICTED BY IDOCK:   -2.99 KCAL/MOL
REMARK 924 INTRA-LIGAND FREE ENERGY PREDICTED BY IDOCK:   -0.51 KCAL/MOL
REMARK 927      BINDING AFFINITY PREDICTED BY RF-SCORE:    0.00 PKD
ROOT
HETATM    1  C   UNL     1      -5.678   6.723  70.588  1.00  0.00    -0.024 C  
HETATM    2  C   UNL     1      -6.952   5.891  70.622  1.00  0.00    -0.062 C  
ENDROOT
BRANCH   2   3
HETATM    3  C   UNL     1      -7.977   6.456  71.611  1.00  0.00    -0.102 C  
BRANCH   3   4
HETATM    4  C   UNL     1      -8.541   7.823  71.166  1.00  0.00    -0.131 C  
BRANCH   4   5
HETATM    5  N   UNL     1      -9.664   7.722  70.217  1.00  0.00    -0.179 NA 
HETATM    6  C   UNL     1     -10.974   7.989  70.837  1.00  0.00    -0.243 C  
HETATM    7  C   UNL     1     -11.212   9.470  71.186  1.00  0.00    -0.376 C  
HETATM    8  C   UNL     1     -11.130  10.296  69.898  1.00  0.00    -0.304 C  
HETATM    9  O   UNL     1     -12.487   9.666  71.804  1.00  0.00    -0.365 OA 
HETATM   10  H   UNL     1     -12.634  10.579  72.019  1.00  0.00     0.000 HD 
HETATM   11  C   UNL     1      -9.801  10.049  69.178  1.00  0.00    -0.205 C  
HETATM   12  O   UNL     1     -11.189  11.713  70.145  1.00  0.00    -0.493 OA 
HETATM   13  C   UNL     1      -9.513   8.539  68.976  1.00  0.00    -0.150 C  
HETATM   14  H   UNL     1     -11.137  12.225  69.347  1.00  0.00     0.000 HD 
HETATM   15  O   UNL     1      -9.843  10.735  67.911  1.00  0.00    -0.163 OA 
HETATM   16  H   UNL     1      -9.019  10.582  67.464  1.00  0.00     0.000 HD 
BRANCH  13  17
HETATM   17  C   UNL     1      -8.160   8.366  68.239  1.00  0.00    -0.120 C  
HETATM   18  O   UNL     1      -7.369   9.553  68.295  1.00  0.00    -0.076 OA 
HETATM   19  H   UNL     1      -6.541   9.446  67.843  1.00  0.00     0.000 HD 
ENDBRANCH  13  17
ENDBRANCH   4   5
ENDBRANCH   3   4
ENDBRANCH   2   3
TORSDOF 4
ENDMDL
MODEL      209
REMARK 921   NORMALIZED FREE ENERGY PREDICTED BY IDOCK:   -2.43 KCAL/MOL
REMARK 922        TOTAL FREE ENERGY PREDICTED BY IDOCK:   -3.49 KCAL/MOL
REMARK 923 INTER-LIGAND FREE ENERGY PREDICTED BY IDOCK:   -3.26 KCAL/MOL
REMARK 924 INTRA-LIGAND FREE ENERGY PREDICTED BY IDOCK:   -0.23 KCAL/MOL
REMARK 927      BINDING AFFINITY PREDICTED BY RF-SCORE:    0.00 PKD
ROOT
HETATM    1  C   UNL     1      -9.952   4.233  65.345  1.00  0.00    -0.233 C  
HETATM    2  C   UNL     1      -9.539   4.926  66.635  1.00  0.00    -0.171 C  
ENDROOT
BRANCH   2   3
HETATM    3  C   UNL     1     -10.117   6.341  66.735  1.00  0.00    -0.237 C  
BRANCH   3   4
HETATM    4  C   UNL     1      -9.825   7.010  68.096  1.00  0.00    -0.139 C  
BRANCH   4   5
HETATM    5  N   UNL     1     -11.022   7.202  68.932  1.00  0.00    -0.126 NA 
HETATM    6  C   UNL     1     -11.234   6.113  69.902  1.00  0.00    -0.414 C  
HETATM    7  C   UNL     1     -10.236   6.116  71.075  1.00  0.00    -0.196 C  
HETATM    8  C   UNL     1     -10.369   7.443  71.829  1.00  0.00    -0.192 C  
HETATM    9  O   UNL     1     -10.474   5.026  71.970  1.00  0.00    -0.212 OA 
HETATM   10  H   UNL     1      -9.859   5.027  72.694  1.00  0.00     0.000 HD 
HETATM   11  C   UNL     1     -10.189   8.629  70.878  1.00  0.00    -0.209 C  
HETATM   12  O   UNL     1      -9.368   7.601  72.852  1.00  0.00    -0.161 OA 
HETATM   13  C   UNL     1     -11.098   8.522  69.626  1.00  0.00    -0.009 C  
HETATM   14  H   UNL     1      -9.451   8.424  73.319  1.00  0.00     0.000 HD 
HETATM   15  O   UNL     1     -10.468   9.839  71.610  1.00  0.00    -0.026 OA 
HETATM   16  H   UNL     1     -10.357  10.575  71.020  1.00  0.00     0.000 HD 
BRANCH  13  17
HETATM   17  C   UNL     1     -10.867   9.756  68.715  1.00  0.00    -0.188 C  
HETATM   18  O   UNL     1     -12.097  10.362  68.322  1.00  0.00    -0.747 OA 
HETATM   19  H   UNL     1     -11.956  11.118  67.763  1.00  0.00     0.000 HD 
ENDBRANCH  13  17
ENDBRANCH   4   5
ENDBRANCH   3   4
ENDBRANCH   2   3
TORSDOF 4
ENDMDL
MODEL      210
REMARK 921   NORMALIZED FREE ENERGY PREDICTED BY IDOCK:   -2.42 KCAL/MOL
REMARK 922        TOTAL FREE ENERGY PREDICTED BY IDOCK:   -3.47 KCAL/MOL
REMARK 923 INTER-LIGAND FREE ENERGY PREDICTED BY IDOCK:   -3.00 KCAL/MOL
REMARK 924 INTRA-LIGAND FREE ENERGY PREDICTED BY IDOCK:   -0.48 KCAL/MOL
REMARK 927      BINDING AFFINITY PREDICTED BY RF-SCORE:    0.00 PKD
ROOT
HETATM    1  C   UNL     1      -6.692   9.924  70.197  1.00  0.00    -0.112 C  
HETATM    2  C   UNL     1      -7.022   9.007  71.366  1.00  0.00    -0.073 C  
ENDROOT
BRANCH   2   3
HETATM    3  C   UNL     1      -8.527   8.738  71.472  1.00  0.00    -0.230 C  
BRANCH   3   4
HETATM    4  C   UNL     1      -8.957   7.458  70.724  1.00  0.00    -0.151 C  
BRANCH   4   5
HETATM    5  N   UNL     1     -10.315   7.531  70.155  1.00  0.00    -0.211 NA 
HETATM    6  C   UNL     1     -10.543   8.743  69.350  1.00  0.00    -0.209 C  
HETATM    7  C   UNL     1      -9.817   8.742  67.993  1.00  0.00    -0.169 C  
HETATM    8  C   UNL     1     -10.309   7.542  67.176  1.00  0.00    -0.313 C  
HETATM    9  O   UNL     1     -10.055   9.951  67.267  1.00  0.00    -0.188 OA 
HETATM   10  H   UNL     1      -9.607   9.950  66.429  1.00  0.00     0.000 HD 
HETATM   11  C   UNL     1     -10.130   6.240  67.960  1.00  0.00    -0.152 C  
HETATM   12  O   UNL     1      -9.574   7.369  65.949  1.00  0.00    -0.407 OA 
HETATM   13  C   UNL     1     -10.737   6.323  69.384  1.00  0.00    -0.303 C  
HETATM   14  H   UNL     1      -9.878   6.626  65.443  1.00  0.00     0.000 HD 
HETATM   15  O   UNL     1     -10.740   5.173  67.206  1.00  0.00    -0.161 OA 
HETATM   16  H   UNL     1     -10.629   4.365  67.692  1.00  0.00     0.000 HD 
BRANCH  13  17
HETATM   17  C   UNL     1     -10.526   4.972  70.115  1.00  0.00    -0.165 C  
HETATM   18  O   UNL     1      -9.438   4.233  69.561  1.00  0.00    -0.153 OA 
HETATM   19  H   UNL     1      -9.308   3.406  70.008  1.00  0.00     0.000 HD 
ENDBRANCH  13  17
ENDBRANCH   4   5
ENDBRANCH   3   4
ENDBRANCH   2   3
TORSDOF 4
ENDMDL
MODEL      211
REMARK 921   NORMALIZED FREE ENERGY PREDICTED BY IDOCK:   -2.42 KCAL/MOL
REMARK 922        TOTAL FREE ENERGY PREDICTED BY IDOCK:   -3.47 KCAL/MOL
REMARK 923 INTER-LIGAND FREE ENERGY PREDICTED BY IDOCK:   -3.25 KCAL/MOL
REMARK 924 INTRA-LIGAND FREE ENERGY PREDICTED BY IDOCK:   -0.22 KCAL/MOL
REMARK 927      BINDING AFFINITY PREDICTED BY RF-SCORE:    0.00 PKD
ROOT
HETATM    1  C   UNL     1     -12.165  12.803  71.036  1.00  0.00    -0.202 C  
HETATM    2  C   UNL     1     -13.027  11.655  71.541  1.00  0.00    -0.463 C  
ENDROOT
BRANCH   2   3
HETATM    3  C   UNL     1     -12.287  10.315  71.477  1.00  0.00    -0.488 C  
BRANCH   3   4
HETATM    4  C   UNL     1     -11.068  10.353  70.530  1.00  0.00    -0.265 C  
BRANCH   4   5
HETATM    5  N   UNL     1     -10.713   9.038  69.966  1.00  0.00    -0.226 NA 
HETATM    6  C   UNL     1     -10.490   9.073  68.510  1.00  0.00    -0.196 C  
HETATM    7  C   UNL     1      -9.182   9.768  68.092  1.00  0.00    -0.128 C  
HETATM    8  C   UNL     1      -8.005   9.019  68.725  1.00  0.00    -0.101 C  
HETATM    9  O   UNL     1      -9.030   9.793  66.670  1.00  0.00    -0.140 OA 
HETATM   10  H   UNL     1      -8.222  10.222  66.412  1.00  0.00     0.000 HD 
HETATM   11  C   UNL     1      -8.178   8.916  70.242  1.00  0.00    -0.129 C  
HETATM   12  O   UNL     1      -6.746   9.686  68.515  1.00  0.00    -0.052 OA 
HETATM   13  C   UNL     1      -9.568   8.355  70.639  1.00  0.00    -0.171 C  
HETATM   14  H   UNL     1      -6.017   9.222  68.907  1.00  0.00     0.000 HD 
HETATM   15  O   UNL     1      -7.123   8.081  70.760  1.00  0.00    -0.047 OA 
HETATM   16  H   UNL     1      -7.231   8.017  71.701  1.00  0.00     0.000 HD 
BRANCH  13  17
HETATM   17  C   UNL     1      -9.669   8.274  72.184  1.00  0.00    -0.274 C  
HETATM   18  O   UNL     1      -8.591   8.954  72.823  1.00  0.00    -0.367 OA 
HETATM   19  H   UNL     1      -8.653   8.904  73.770  1.00  0.00     0.000 HD 
ENDBRANCH  13  17
ENDBRANCH   4   5
ENDBRANCH   3   4
ENDBRANCH   2   3
TORSDOF 4
ENDMDL
MODEL      212
REMARK 921   NORMALIZED FREE ENERGY PREDICTED BY IDOCK:   -2.41 KCAL/MOL
REMARK 922        TOTAL FREE ENERGY PREDICTED BY IDOCK:   -3.46 KCAL/MOL
REMARK 923 INTER-LIGAND FREE ENERGY PREDICTED BY IDOCK:   -3.09 KCAL/MOL
REMARK 924 INTRA-LIGAND FREE ENERGY PREDICTED BY IDOCK:   -0.37 KCAL/MOL
REMARK 927      BINDING AFFINITY PREDICTED BY RF-SCORE:    0.00 PKD
ROOT
HETATM    1  C   UNL     1      -6.597   9.954  68.327  1.00  0.00    -0.055 C  
HETATM    2  C   UNL     1      -7.213  11.230  68.882  1.00  0.00    -0.112 C  
ENDROOT
BRANCH   2   3
HETATM    3  C   UNL     1      -8.728  11.096  69.073  1.00  0.00    -0.027 C  
BRANCH   3   4
HETATM    4  C   UNL     1      -9.141   9.706  69.604  1.00  0.00    -0.210 C  
BRANCH   4   5
HETATM    5  N   UNL     1     -10.431   9.228  69.076  1.00  0.00    -0.215 NA 
HETATM    6  C   UNL     1     -10.689   9.662  67.693  1.00  0.00    -0.262 C  
HETATM    7  C   UNL     1      -9.827   8.944  66.638  1.00  0.00    -0.262 C  
HETATM    8  C   UNL     1     -10.111   7.440  66.715  1.00  0.00    -0.235 C  
HETATM    9  O   UNL     1     -10.103   9.422  65.319  1.00  0.00    -0.376 OA 
HETATM   10  H   UNL     1      -9.571   8.978  64.668  1.00  0.00     0.000 HD 
HETATM   11  C   UNL     1      -9.891   6.917  68.136  1.00  0.00    -0.136 C  
HETATM   12  O   UNL     1      -9.237   6.669  65.869  1.00  0.00    -0.335 OA 
HETATM   13  C   UNL     1     -10.651   7.756  69.196  1.00  0.00    -0.183 C  
HETATM   14  H   UNL     1      -9.413   5.737  65.917  1.00  0.00     0.000 HD 
HETATM   15  O   UNL     1     -10.311   5.539  68.178  1.00  0.00    -0.185 OA 
HETATM   16  H   UNL     1     -10.175   5.214  69.060  1.00  0.00     0.000 HD 
BRANCH  13  17
HETATM   17  C   UNL     1     -10.388   7.166  70.606  1.00  0.00    -0.204 C  
HETATM   18  O   UNL     1     -11.111   5.955  70.818  1.00  0.00    -0.293 OA 
HETATM   19  H   UNL     1     -10.950   5.594  71.682  1.00  0.00     0.000 HD 
ENDBRANCH  13  17
ENDBRANCH   4   5
ENDBRANCH   3   4
ENDBRANCH   2   3
TORSDOF 4
ENDMDL
MODEL      213
REMARK 921   NORMALIZED FREE ENERGY PREDICTED BY IDOCK:   -2.40 KCAL/MOL
REMARK 922        TOTAL FREE ENERGY PREDICTED BY IDOCK:   -3.45 KCAL/MOL
REMARK 923 INTER-LIGAND FREE ENERGY PREDICTED BY IDOCK:   -2.96 KCAL/MOL
REMARK 924 INTRA-LIGAND FREE ENERGY PREDICTED BY IDOCK:   -0.49 KCAL/MOL
REMARK 927      BINDING AFFINITY PREDICTED BY RF-SCORE:    0.00 PKD
ROOT
HETATM    1  C   UNL     1      -6.759   9.492  68.326  1.00  0.00    -0.058 C  
HETATM    2  C   UNL     1      -7.570  10.720  67.939  1.00  0.00    -0.091 C  
ENDROOT
BRANCH   2   3
HETATM    3  C   UNL     1      -9.074  10.496  68.135  1.00  0.00    -0.141 C  
BRANCH   3   4
HETATM    4  C   UNL     1      -9.403   9.806  69.477  1.00  0.00    -0.213 C  
BRANCH   4   5
HETATM    5  N   UNL     1     -10.532   8.863  69.398  1.00  0.00    -0.221 NA 
HETATM    6  C   UNL     1     -10.188   7.600  68.724  1.00  0.00    -0.199 C  
HETATM    7  C   UNL     1      -9.283   6.672  69.555  1.00  0.00    -0.143 C  
HETATM    8  C   UNL     1     -10.006   6.321  70.859  1.00  0.00    -0.186 C  
HETATM    9  O   UNL     1      -8.963   5.473  68.842  1.00  0.00    -0.113 OA 
HETATM   10  H   UNL     1      -8.404   4.900  69.355  1.00  0.00     0.000 HD 
HETATM   11  C   UNL     1     -10.423   7.590  71.608  1.00  0.00    -0.200 C  
HETATM   12  O   UNL     1      -9.174   5.579  71.771  1.00  0.00    -0.141 OA 
HETATM   13  C   UNL     1     -11.203   8.577  70.702  1.00  0.00    -0.252 C  
HETATM   14  H   UNL     1      -9.623   5.362  72.579  1.00  0.00     0.000 HD 
HETATM   15  O   UNL     1     -11.221   7.200  72.743  1.00  0.00    -0.299 OA 
HETATM   16  H   UNL     1     -11.480   7.986  73.208  1.00  0.00     0.000 HD 
BRANCH  13  17
HETATM   17  C   UNL     1     -11.597   9.831  71.525  1.00  0.00    -0.353 C  
HETATM   18  O   UNL     1     -12.779   9.611  72.294  1.00  0.00    -0.353 OA 
HETATM   19  H   UNL     1     -13.020  10.379  72.798  1.00  0.00     0.000 HD 
ENDBRANCH  13  17
ENDBRANCH   4   5
ENDBRANCH   3   4
ENDBRANCH   2   3
TORSDOF 4
ENDMDL
MODEL      214
REMARK 921   NORMALIZED FREE ENERGY PREDICTED BY IDOCK:   -2.39 KCAL/MOL
REMARK 922        TOTAL FREE ENERGY PREDICTED BY IDOCK:   -3.44 KCAL/MOL
REMARK 923 INTER-LIGAND FREE ENERGY PREDICTED BY IDOCK:   -3.17 KCAL/MOL
REMARK 924 INTRA-LIGAND FREE ENERGY PREDICTED BY IDOCK:   -0.28 KCAL/MOL
REMARK 927      BINDING AFFINITY PREDICTED BY RF-SCORE:    0.00 PKD
ROOT
HETATM    1  C   UNL     1     -12.062   8.083  72.551  1.00  0.00    -0.338 C  
HETATM    2  C   UNL     1     -10.821   8.840  72.102  1.00  0.00    -0.400 C  
ENDROOT
BRANCH   2   3
HETATM    3  C   UNL     1     -11.104   9.734  70.890  1.00  0.00    -0.428 C  
BRANCH   3   4
HETATM    4  C   UNL     1     -10.052   9.570  69.771  1.00  0.00    -0.216 C  
BRANCH   4   5
HETATM    5  N   UNL     1      -9.282  10.796  69.495  1.00  0.00     0.019 NA 
HETATM    6  C   UNL     1      -7.827  10.571  69.453  1.00  0.00    -0.147 C  
HETATM    7  C   UNL     1      -7.346   9.814  68.202  1.00  0.00    -0.080 C  
HETATM    8  C   UNL     1      -7.727  10.627  66.960  1.00  0.00    -0.117 C  
HETATM    9  O   UNL     1      -5.931   9.603  68.226  1.00  0.00    -0.046 OA 
HETATM   10  H   UNL     1      -5.634   9.136  67.454  1.00  0.00     0.000 HD 
HETATM   11  C   UNL     1      -9.228  10.927  66.947  1.00  0.00    -0.161 C  
HETATM   12  O   UNL     1      -7.453   9.924  65.733  1.00  0.00    -0.101 OA 
HETATM   13  C   UNL     1      -9.716  11.549  68.280  1.00  0.00    -0.198 C  
HETATM   14  H   UNL     1      -7.689  10.428  64.964  1.00  0.00     0.000 HD 
HETATM   15  O   UNL     1      -9.500  11.811  65.841  1.00  0.00    -0.227 OA 
HETATM   16  H   UNL     1     -10.431  11.998  65.832  1.00  0.00     0.000 HD 
BRANCH  13  17
HETATM   17  C   UNL     1     -11.238  11.832  68.192  1.00  0.00    -0.260 C  
HETATM   18  O   UNL     1     -11.841  11.150  67.093  1.00  0.00    -0.466 OA 
HETATM   19  H   UNL     1     -12.773  11.324  67.039  1.00  0.00     0.000 HD 
ENDBRANCH  13  17
ENDBRANCH   4   5
ENDBRANCH   3   4
ENDBRANCH   2   3
TORSDOF 4
ENDMDL
MODEL      215
REMARK 921   NORMALIZED FREE ENERGY PREDICTED BY IDOCK:   -2.37 KCAL/MOL
REMARK 922        TOTAL FREE ENERGY PREDICTED BY IDOCK:   -3.42 KCAL/MOL
REMARK 923 INTER-LIGAND FREE ENERGY PREDICTED BY IDOCK:   -3.06 KCAL/MOL
REMARK 924 INTRA-LIGAND FREE ENERGY PREDICTED BY IDOCK:   -0.37 KCAL/MOL
REMARK 927      BINDING AFFINITY PREDICTED BY RF-SCORE:    0.00 PKD
ROOT
HETATM    1  C   UNL     1     -12.320  11.970  70.568  1.00  0.00    -0.369 C  
HETATM    2  C   UNL     1     -11.545  11.832  69.266  1.00  0.00    -0.378 C  
ENDROOT
BRANCH   2   3
HETATM    3  C   UNL     1     -10.778  10.507  69.196  1.00  0.00    -0.266 C  
BRANCH   3   4
HETATM    4  C   UNL     1      -9.643  10.530  68.150  1.00  0.00    -0.154 C  
BRANCH   4   5
HETATM    5  N   UNL     1      -9.618   9.345  67.274  1.00  0.00    -0.146 NA 
HETATM    6  C   UNL     1     -10.383   9.527  66.028  1.00  0.00    -0.060 C  
HETATM    7  C   UNL     1      -9.713  10.471  65.013  1.00  0.00    -0.292 C  
HETATM    8  C   UNL     1      -8.344   9.895  64.638  1.00  0.00    -0.163 C  
HETATM    9  O   UNL     1     -10.510  10.629  63.836  1.00  0.00    -0.472 OA 
HETATM   10  H   UNL     1     -10.097  11.211  63.209  1.00  0.00     0.000 HD 
HETATM   11  C   UNL     1      -7.496   9.650  65.889  1.00  0.00    -0.099 C  
HETATM   12  O   UNL     1      -7.577  10.788  63.808  1.00  0.00    -0.351 OA 
HETATM   13  C   UNL     1      -8.253   8.825  66.961  1.00  0.00    -0.103 C  
HETATM   14  H   UNL     1      -6.728  10.431  63.576  1.00  0.00     0.000 HD 
HETATM   15  O   UNL     1      -6.286   8.977  65.487  1.00  0.00    -0.065 OA 
HETATM   16  H   UNL     1      -5.760   8.825  66.262  1.00  0.00     0.000 HD 
BRANCH  13  17
HETATM   17  C   UNL     1      -7.335   8.611  68.191  1.00  0.00    -0.091 C  
HETATM   18  O   UNL     1      -6.238   7.750  67.891  1.00  0.00    -0.046 OA 
HETATM   19  H   UNL     1      -5.675   7.619  68.645  1.00  0.00     0.000 HD 
ENDBRANCH  13  17
ENDBRANCH   4   5
ENDBRANCH   3   4
ENDBRANCH   2   3
TORSDOF 4
ENDMDL
MODEL      216
REMARK 921   NORMALIZED FREE ENERGY PREDICTED BY IDOCK:   -2.37 KCAL/MOL
REMARK 922        TOTAL FREE ENERGY PREDICTED BY IDOCK:   -3.41 KCAL/MOL
REMARK 923 INTER-LIGAND FREE ENERGY PREDICTED BY IDOCK:   -2.97 KCAL/MOL
REMARK 924 INTRA-LIGAND FREE ENERGY PREDICTED BY IDOCK:   -0.44 KCAL/MOL
REMARK 927      BINDING AFFINITY PREDICTED BY RF-SCORE:    0.00 PKD
ROOT
HETATM    1  C   UNL     1     -11.031   6.458  66.839  1.00  0.00    -0.413 C  
HETATM    2  C   UNL     1     -10.157   7.350  67.709  1.00  0.00    -0.232 C  
ENDROOT
BRANCH   2   3
HETATM    3  C   UNL     1     -10.283   8.827  67.321  1.00  0.00    -0.332 C  
BRANCH   3   4
HETATM    4  C   UNL     1      -9.437   9.191  66.082  1.00  0.00    -0.245 C  
BRANCH   4   5
HETATM    5  N   UNL     1      -8.065   8.654  66.121  1.00  0.00    -0.105 NA 
HETATM    6  C   UNL     1      -7.816   7.622  65.099  1.00  0.00    -0.124 C  
HETATM    7  C   UNL     1      -7.716   8.172  63.664  1.00  0.00    -0.143 C  
HETATM    8  C   UNL     1      -6.559   9.176  63.604  1.00  0.00    -0.090 C  
HETATM    9  O   UNL     1      -7.498   7.126  62.714  1.00  0.00    -0.081 OA 
HETATM   10  H   UNL     1      -7.435   7.466  61.828  1.00  0.00     0.000 HD 
HETATM   11  C   UNL     1      -6.731  10.269  64.662  1.00  0.00    -0.084 C  
HETATM   12  O   UNL     1      -6.483   9.858  62.338  1.00  0.00    -0.101 OA 
HETATM   13  C   UNL     1      -6.985   9.685  66.075  1.00  0.00    -0.093 C  
HETATM   14  H   UNL     1      -5.766  10.479  62.301  1.00  0.00     0.000 HD 
HETATM   15  O   UNL     1      -5.548  11.092  64.654  1.00  0.00    -0.461 OA 
HETATM   16  H   UNL     1      -5.655  11.771  65.310  1.00  0.00     0.000 HD 
BRANCH  13  17
HETATM   17  C   UNL     1      -7.144  10.845  67.092  1.00  0.00    -0.103 C  
HETATM   18  O   UNL     1      -7.487  12.071  66.448  1.00  0.00    -0.367 OA 
HETATM   19  H   UNL     1      -7.584  12.782  67.071  1.00  0.00     0.000 HD 
ENDBRANCH  13  17
ENDBRANCH   4   5
ENDBRANCH   3   4
ENDBRANCH   2   3
TORSDOF 4
ENDMDL
MODEL      217
REMARK 921   NORMALIZED FREE ENERGY PREDICTED BY IDOCK:   -2.34 KCAL/MOL
REMARK 922        TOTAL FREE ENERGY PREDICTED BY IDOCK:   -3.38 KCAL/MOL
REMARK 923 INTER-LIGAND FREE ENERGY PREDICTED BY IDOCK:   -2.98 KCAL/MOL
REMARK 924 INTRA-LIGAND FREE ENERGY PREDICTED BY IDOCK:   -0.41 KCAL/MOL
REMARK 927      BINDING AFFINITY PREDICTED BY RF-SCORE:    0.00 PKD
ROOT
HETATM    1  C   UNL     1      -6.463   5.828  63.384  1.00  0.00    -0.032 C  
HETATM    2  C   UNL     1      -6.670   6.839  64.502  1.00  0.00    -0.042 C  
ENDROOT
BRANCH   2   3
HETATM    3  C   UNL     1      -8.104   7.377  64.527  1.00  0.00    -0.079 C  
BRANCH   3   4
HETATM    4  C   UNL     1      -8.318   8.452  65.615  1.00  0.00    -0.154 C  
BRANCH   4   5
HETATM    5  N   UNL     1      -9.724   8.604  66.032  1.00  0.00    -0.217 NA 
HETATM    6  C   UNL     1      -9.978   8.126  67.402  1.00  0.00    -0.209 C  
HETATM    7  C   UNL     1      -9.401   9.038  68.501  1.00  0.00    -0.139 C  
HETATM    8  C   UNL     1     -10.034  10.427  68.368  1.00  0.00    -0.162 C  
HETATM    9  O   UNL     1      -9.658   8.513  69.807  1.00  0.00    -0.168 OA 
HETATM   10  H   UNL     1      -9.302   9.076  70.486  1.00  0.00     0.000 HD 
HETATM   11  C   UNL     1      -9.835  10.981  66.955  1.00  0.00    -0.182 C  
HETATM   12  O   UNL     1      -9.443  11.392  69.259  1.00  0.00    -0.403 OA 
HETATM   13  C   UNL     1     -10.283   9.978  65.861  1.00  0.00    -0.205 C  
HETATM   14  H   UNL     1      -9.835  12.253  69.176  1.00  0.00     0.000 HD 
HETATM   15  O   UNL     1     -10.572  12.216  66.849  1.00  0.00    -0.222 OA 
HETATM   16  H   UNL     1     -10.449  12.560  65.972  1.00  0.00     0.000 HD 
BRANCH  13  17
HETATM   17  C   UNL     1     -10.060  10.608  64.462  1.00  0.00    -0.353 C  
HETATM   18  O   UNL     1      -9.083  11.647  64.497  1.00  0.00    -0.410 OA 
HETATM   19  H   UNL     1      -8.946  12.033  63.640  1.00  0.00     0.000 HD 
ENDBRANCH  13  17
ENDBRANCH   4   5
ENDBRANCH   3   4
ENDBRANCH   2   3
TORSDOF 4
ENDMDL
MODEL      218
REMARK 921   NORMALIZED FREE ENERGY PREDICTED BY IDOCK:   -2.33 KCAL/MOL
REMARK 922        TOTAL FREE ENERGY PREDICTED BY IDOCK:   -3.37 KCAL/MOL
REMARK 923 INTER-LIGAND FREE ENERGY PREDICTED BY IDOCK:   -3.47 KCAL/MOL
REMARK 924 INTRA-LIGAND FREE ENERGY PREDICTED BY IDOCK:    0.10 KCAL/MOL
REMARK 927      BINDING AFFINITY PREDICTED BY RF-SCORE:    0.00 PKD
ROOT
HETATM    1  C   UNL     1     -12.433   8.474  72.021  1.00  0.00    -0.417 C  
HETATM    2  C   UNL     1     -11.104   8.964  71.464  1.00  0.00    -0.397 C  
ENDROOT
BRANCH   2   3
HETATM    3  C   UNL     1     -11.299   9.951  70.308  1.00  0.00    -0.357 C  
BRANCH   3   4
HETATM    4  C   UNL     1     -10.890   9.356  68.942  1.00  0.00    -0.123 C  
BRANCH   4   5
HETATM    5  N   UNL     1      -9.716  10.009  68.337  1.00  0.00    -0.144 NA 
HETATM    6  C   UNL     1      -8.909   9.099  67.506  1.00  0.00    -0.119 C  
HETATM    7  C   UNL     1      -9.570   8.721  66.167  1.00  0.00    -0.253 C  
HETATM    8  C   UNL     1      -9.808  10.002  65.360  1.00  0.00    -0.314 C  
HETATM    9  O   UNL     1      -8.754   7.819  65.414  1.00  0.00    -0.298 OA 
HETATM   10  H   UNL     1      -9.162   7.586  64.588  1.00  0.00     0.000 HD 
HETATM   11  C   UNL     1     -10.620  11.014  66.172  1.00  0.00    -0.228 C  
HETATM   12  O   UNL     1     -10.562   9.764  64.156  1.00  0.00     0.250 OA 
HETATM   13  C   UNL     1     -10.016  11.260  67.578  1.00  0.00    -0.182 C  
HETATM   14  H   UNL     1     -10.710  10.557  63.656  1.00  0.00     0.000 HD 
HETATM   15  O   UNL     1     -10.686  12.243  65.422  1.00  0.00    -0.268 OA 
HETATM   16  H   UNL     1     -11.190  12.871  65.926  1.00  0.00     0.000 HD 
BRANCH  13  17
HETATM   17  C   UNL     1     -10.883  12.296  68.338  1.00  0.00    -0.230 C  
HETATM   18  O   UNL     1     -12.088  12.597  67.636  1.00  0.00    -0.391 OA 
HETATM   19  H   UNL     1     -12.619  13.232  68.102  1.00  0.00     0.000 HD 
ENDBRANCH  13  17
ENDBRANCH   4   5
ENDBRANCH   3   4
ENDBRANCH   2   3
TORSDOF 4
ENDMDL
MODEL      219
REMARK 921   NORMALIZED FREE ENERGY PREDICTED BY IDOCK:   -2.33 KCAL/MOL
REMARK 922        TOTAL FREE ENERGY PREDICTED BY IDOCK:   -3.36 KCAL/MOL
REMARK 923 INTER-LIGAND FREE ENERGY PREDICTED BY IDOCK:   -3.17 KCAL/MOL
REMARK 924 INTRA-LIGAND FREE ENERGY PREDICTED BY IDOCK:   -0.19 KCAL/MOL
REMARK 927      BINDING AFFINITY PREDICTED BY RF-SCORE:    0.00 PKD
ROOT
HETATM    1  C   UNL     1      -9.348  10.177  68.598  1.00  0.00    -0.161 C  
HETATM    2  C   UNL     1      -9.790   9.594  69.933  1.00  0.00    -0.271 C  
ENDROOT
BRANCH   2   3
HETATM    3  C   UNL     1      -8.595   9.181  70.799  1.00  0.00    -0.265 C  
BRANCH   3   4
HETATM    4  C   UNL     1      -8.762   7.774  71.413  1.00  0.00    -0.128 C  
BRANCH   4   5
HETATM    5  N   UNL     1      -9.321   7.784  72.776  1.00  0.00    -0.182 NA 
HETATM    6  C   UNL     1     -10.794   7.765  72.800  1.00  0.00    -0.379 C  
HETATM    7  C   UNL     1     -11.410   6.411  72.400  1.00  0.00    -0.287 C  
HETATM    8  C   UNL     1     -10.915   5.340  73.377  1.00  0.00    -0.316 C  
HETATM    9  O   UNL     1     -12.840   6.458  72.418  1.00  0.00    -0.543 OA 
HETATM   10  H   UNL     1     -13.220   5.623  72.172  1.00  0.00     0.000 HD 
HETATM   11  C   UNL     1      -9.385   5.317  73.430  1.00  0.00    -0.134 C  
HETATM   12  O   UNL     1     -11.317   4.012  72.992  1.00  0.00    -0.097 OA 
HETATM   13  C   UNL     1      -8.785   6.724  73.682  1.00  0.00    -0.134 C  
HETATM   14  H   UNL     1     -11.010   3.348  73.598  1.00  0.00     0.000 HD 
HETATM   15  O   UNL     1      -8.985   4.398  74.466  1.00  0.00    -0.103 OA 
HETATM   16  H   UNL     1      -8.036   4.384  74.499  1.00  0.00     0.000 HD 
BRANCH  13  17
HETATM   17  C   UNL     1      -7.238   6.624  73.729  1.00  0.00    -0.083 C  
HETATM   18  O   UNL     1      -6.651   7.763  74.358  1.00  0.00    -0.092 OA 
HETATM   19  H   UNL     1      -5.704   7.701  74.386  1.00  0.00     0.000 HD 
ENDBRANCH  13  17
ENDBRANCH   4   5
ENDBRANCH   3   4
ENDBRANCH   2   3
TORSDOF 4
ENDMDL
MODEL      220
REMARK 921   NORMALIZED FREE ENERGY PREDICTED BY IDOCK:   -2.32 KCAL/MOL
REMARK 922        TOTAL FREE ENERGY PREDICTED BY IDOCK:   -3.36 KCAL/MOL
REMARK 923 INTER-LIGAND FREE ENERGY PREDICTED BY IDOCK:   -3.15 KCAL/MOL
REMARK 924 INTRA-LIGAND FREE ENERGY PREDICTED BY IDOCK:   -0.21 KCAL/MOL
REMARK 927      BINDING AFFINITY PREDICTED BY RF-SCORE:    0.00 PKD
ROOT
HETATM    1  C   UNL     1     -10.881   5.792  67.127  1.00  0.00    -0.308 C  
HETATM    2  C   UNL     1     -10.645   6.877  68.167  1.00  0.00    -0.262 C  
ENDROOT
BRANCH   2   3
HETATM    3  C   UNL     1     -10.748   8.281  67.561  1.00  0.00    -0.217 C  
BRANCH   3   4
HETATM    4  C   UNL     1      -9.779   8.491  66.378  1.00  0.00    -0.258 C  
BRANCH   4   5
HETATM    5  N   UNL     1      -9.758   9.873  65.865  1.00  0.00    -0.242 NA 
HETATM    6  C   UNL     1     -10.150  10.872  66.874  1.00  0.00    -0.212 C  
HETATM    7  C   UNL     1      -9.092  11.108  67.967  1.00  0.00    -0.153 C  
HETATM    8  C   UNL     1      -7.801  11.599  67.302  1.00  0.00    -0.157 C  
HETATM    9  O   UNL     1      -9.535  12.068  68.930  1.00  0.00    -0.403 OA 
HETATM   10  H   UNL     1      -8.882  12.214  69.605  1.00  0.00     0.000 HD 
HETATM   11  C   UNL     1      -7.343  10.622  66.216  1.00  0.00    -0.137 C  
HETATM   12  O   UNL     1      -6.705  11.701  68.231  1.00  0.00    -0.060 OA 
HETATM   13  C   UNL     1      -8.477  10.282  65.215  1.00  0.00    -0.163 C  
HETATM   14  H   UNL     1      -5.905  12.005  67.819  1.00  0.00     0.000 HD 
HETATM   15  O   UNL     1      -6.216  11.205  65.533  1.00  0.00    -0.371 OA 
HETATM   16  H   UNL     1      -5.932  10.600  64.859  1.00  0.00     0.000 HD 
BRANCH  13  17
HETATM   17  C   UNL     1      -7.942   9.297  64.144  1.00  0.00    -0.136 C  
HETATM   18  O   UNL     1      -6.748   8.643  64.574  1.00  0.00    -0.066 OA 
HETATM   19  H   UNL     1      -6.420   8.040  63.918  1.00  0.00     0.000 HD 
ENDBRANCH  13  17
ENDBRANCH   4   5
ENDBRANCH   3   4
ENDBRANCH   2   3
TORSDOF 4
ENDMDL
MODEL      221
REMARK 921   NORMALIZED FREE ENERGY PREDICTED BY IDOCK:   -2.31 KCAL/MOL
REMARK 922        TOTAL FREE ENERGY PREDICTED BY IDOCK:   -3.34 KCAL/MOL
REMARK 923 INTER-LIGAND FREE ENERGY PREDICTED BY IDOCK:   -3.21 KCAL/MOL
REMARK 924 INTRA-LIGAND FREE ENERGY PREDICTED BY IDOCK:   -0.13 KCAL/MOL
REMARK 927      BINDING AFFINITY PREDICTED BY RF-SCORE:    0.00 PKD
ROOT
HETATM    1  C   UNL     1      -8.768  10.120  67.817  1.00  0.00    -0.121 C  
HETATM    2  C   UNL     1      -8.927   8.690  67.319  1.00  0.00    -0.145 C  
ENDROOT
BRANCH   2   3
HETATM    3  C   UNL     1     -10.248   8.067  67.785  1.00  0.00    -0.282 C  
BRANCH   3   4
HETATM    4  C   UNL     1     -10.410   8.095  69.320  1.00  0.00    -0.217 C  
BRANCH   4   5
HETATM    5  N   UNL     1     -10.116   6.807  69.972  1.00  0.00    -0.183 NA 
HETATM    6  C   UNL     1      -8.700   6.657  70.349  1.00  0.00    -0.151 C  
HETATM    7  C   UNL     1      -8.275   7.526  71.547  1.00  0.00    -0.103 C  
HETATM    8  C   UNL     1      -9.124   7.136  72.762  1.00  0.00    -0.138 C  
HETATM    9  O   UNL     1      -6.887   7.358  71.853  1.00  0.00    -0.057 OA 
HETATM   10  H   UNL     1      -6.625   7.894  72.593  1.00  0.00     0.000 HD 
HETATM   11  C   UNL     1     -10.616   7.239  72.438  1.00  0.00    -0.237 C  
HETATM   12  O   UNL     1      -8.903   8.001  73.892  1.00  0.00    -0.269 OA 
HETATM   13  C   UNL     1     -10.990   6.480  71.139  1.00  0.00    -0.266 C  
HETATM   14  H   UNL     1      -9.429   7.758  74.645  1.00  0.00     0.000 HD 
HETATM   15  O   UNL     1     -11.357   6.723  73.562  1.00  0.00    -0.452 OA 
HETATM   16  H   UNL     1     -12.283   6.787  73.361  1.00  0.00     0.000 HD 
BRANCH  13  17
HETATM   17  C   UNL     1     -12.512   6.622  70.878  1.00  0.00    -0.122 C  
HETATM   18  O   UNL     1     -13.175   7.284  71.954  1.00  0.00    -0.470 OA 
HETATM   19  H   UNL     1     -14.107   7.371  71.794  1.00  0.00     0.000 HD 
ENDBRANCH  13  17
ENDBRANCH   4   5
ENDBRANCH   3   4
ENDBRANCH   2   3
TORSDOF 4
ENDMDL
MODEL      222
REMARK 921   NORMALIZED FREE ENERGY PREDICTED BY IDOCK:   -2.29 KCAL/MOL
REMARK 922        TOTAL FREE ENERGY PREDICTED BY IDOCK:   -3.32 KCAL/MOL
REMARK 923 INTER-LIGAND FREE ENERGY PREDICTED BY IDOCK:   -3.19 KCAL/MOL
REMARK 924 INTRA-LIGAND FREE ENERGY PREDICTED BY IDOCK:   -0.13 KCAL/MOL
REMARK 927      BINDING AFFINITY PREDICTED BY RF-SCORE:    0.00 PKD
ROOT
HETATM    1  C   UNL     1      -6.354   2.135  68.519  1.00  0.00    -0.029 C  
HETATM    2  C   UNL     1      -5.556   3.332  69.017  1.00  0.00    -0.018 C  
ENDROOT
BRANCH   2   3
HETATM    3  C   UNL     1      -6.278   4.655  68.738  1.00  0.00    -0.031 C  
BRANCH   3   4
HETATM    4  C   UNL     1      -7.304   4.543  67.589  1.00  0.00    -0.069 C  
BRANCH   4   5
HETATM    5  N   UNL     1      -8.625   4.052  68.019  1.00  0.00    -0.094 NA 
HETATM    6  C   UNL     1      -9.252   4.897  69.050  1.00  0.00    -0.119 C  
HETATM    7  C   UNL     1      -9.764   6.251  68.525  1.00  0.00    -0.129 C  
HETATM    8  C   UNL     1     -10.812   5.990  67.437  1.00  0.00    -0.303 C  
HETATM    9  O   UNL     1     -10.340   7.037  69.572  1.00  0.00    -0.199 OA 
HETATM   10  H   UNL     1     -10.656   7.873  69.248  1.00  0.00     0.000 HD 
HETATM   11  C   UNL     1     -10.242   5.090  66.338  1.00  0.00    -0.273 C  
HETATM   12  O   UNL     1     -11.238   7.198  66.779  1.00  0.00    -0.551 OA 
HETATM   13  C   UNL     1      -9.593   3.803  66.909  1.00  0.00    -0.179 C  
HETATM   14  H   UNL     1     -11.887   7.036  66.105  1.00  0.00     0.000 HD 
HETATM   15  O   UNL     1     -11.309   4.764  65.426  1.00  0.00    -0.950 OA 
HETATM   16  H   UNL     1     -10.956   4.205  64.744  1.00  0.00     0.000 HD 
BRANCH  13  17
HETATM   17  C   UNL     1      -9.046   2.940  65.743  1.00  0.00    -0.137 C  
HETATM   18  O   UNL     1      -8.878   3.706  64.550  1.00  0.00    -0.113 OA 
HETATM   19  H   UNL     1      -8.543   3.177  63.835  1.00  0.00     0.000 HD 
ENDBRANCH  13  17
ENDBRANCH   4   5
ENDBRANCH   3   4
ENDBRANCH   2   3
TORSDOF 4
ENDMDL
MODEL      223
REMARK 921   NORMALIZED FREE ENERGY PREDICTED BY IDOCK:   -2.29 KCAL/MOL
REMARK 922        TOTAL FREE ENERGY PREDICTED BY IDOCK:   -3.31 KCAL/MOL
REMARK 923 INTER-LIGAND FREE ENERGY PREDICTED BY IDOCK:   -2.89 KCAL/MOL
REMARK 924 INTRA-LIGAND FREE ENERGY PREDICTED BY IDOCK:   -0.42 KCAL/MOL
REMARK 927      BINDING AFFINITY PREDICTED BY RF-SCORE:    0.00 PKD
ROOT
HETATM    1  C   UNL     1     -12.508   9.781  70.409  1.00  0.00    -0.031 C  
HETATM    2  C   UNL     1     -11.493  10.828  69.975  1.00  0.00    -0.412 C  
ENDROOT
BRANCH   2   3
HETATM    3  C   UNL     1     -11.284  10.826  68.457  1.00  0.00    -0.340 C  
BRANCH   3   4
HETATM    4  C   UNL     1     -10.081   9.961  68.023  1.00  0.00    -0.171 C  
BRANCH   4   5
HETATM    5  N   UNL     1     -10.215   9.395  66.669  1.00  0.00    -0.258 NA 
HETATM    6  C   UNL     1      -9.300  10.007  65.691  1.00  0.00    -0.204 C  
HETATM    7  C   UNL     1      -7.825   9.601  65.872  1.00  0.00    -0.102 C  
HETATM    8  C   UNL     1      -7.715   8.079  65.725  1.00  0.00    -0.093 C  
HETATM    9  O   UNL     1      -6.981  10.242  64.912  1.00  0.00    -0.147 OA 
HETATM   10  H   UNL     1      -6.072   9.991  65.024  1.00  0.00     0.000 HD 
HETATM   11  C   UNL     1      -8.663   7.369  66.695  1.00  0.00    -0.135 C  
HETATM   12  O   UNL     1      -6.396   7.589  66.030  1.00  0.00    -0.041 OA 
HETATM   13  C   UNL     1     -10.114   7.906  66.598  1.00  0.00    -0.240 C  
HETATM   14  H   UNL     1      -6.327   6.646  65.939  1.00  0.00     0.000 HD 
HETATM   15  O   UNL     1      -8.621   5.956  66.410  1.00  0.00    -0.120 OA 
HETATM   16  H   UNL     1      -9.209   5.515  67.011  1.00  0.00     0.000 HD 
BRANCH  13  17
HETATM   17  C   UNL     1     -11.015   7.139  67.600  1.00  0.00    -0.155 C  
HETATM   18  O   UNL     1     -11.403   5.863  67.094  1.00  0.00    -0.446 OA 
HETATM   19  H   UNL     1     -11.956   5.393  67.708  1.00  0.00     0.000 HD 
ENDBRANCH  13  17
ENDBRANCH   4   5
ENDBRANCH   3   4
ENDBRANCH   2   3
TORSDOF 4
ENDMDL
MODEL      224
REMARK 921   NORMALIZED FREE ENERGY PREDICTED BY IDOCK:   -2.28 KCAL/MOL
REMARK 922        TOTAL FREE ENERGY PREDICTED BY IDOCK:   -3.31 KCAL/MOL
REMARK 923 INTER-LIGAND FREE ENERGY PREDICTED BY IDOCK:   -4.03 KCAL/MOL
REMARK 924 INTRA-LIGAND FREE ENERGY PREDICTED BY IDOCK:    0.73 KCAL/MOL
REMARK 927      BINDING AFFINITY PREDICTED BY RF-SCORE:    0.00 PKD
ROOT
HETATM    1  C   UNL     1      -7.622  10.574  67.297  1.00  0.00    -0.096 C  
HETATM    2  C   UNL     1      -7.229  12.042  67.207  1.00  0.00    -0.150 C  
ENDROOT
BRANCH   2   3
HETATM    3  C   UNL     1      -8.260  12.951  67.884  1.00  0.00    -0.165 C  
BRANCH   3   4
HETATM    4  C   UNL     1      -8.533  14.241  67.081  1.00  0.00    -0.200 C  
BRANCH   4   5
HETATM    5  N   UNL     1      -9.960  14.605  67.011  1.00  0.00    -0.243 NA 
HETATM    6  C   UNL     1     -10.670  13.956  65.895  1.00  0.00    -0.286 C  
HETATM    7  C   UNL     1     -10.915  12.450  66.100  1.00  0.00    -0.286 C  
HETATM    8  C   UNL     1     -11.760  12.258  67.364  1.00  0.00    -0.335 C  
HETATM    9  O   UNL     1     -11.586  11.869  64.977  1.00  0.00    -0.298 OA 
HETATM   10  H   UNL     1     -11.737  10.940  65.104  1.00  0.00     0.000 HD 
HETATM   11  C   UNL     1     -11.098  12.933  68.568  1.00  0.00    -0.267 C  
HETATM   12  O   UNL     1     -11.912  10.872  67.722  1.00  0.00    -0.691 OA 
HETATM   13  C   UNL     1     -10.721  14.409  68.281  1.00  0.00    -0.242 C  
HETATM   14  H   UNL     1     -12.436  10.753  68.505  1.00  0.00     0.000 HD 
HETATM   15  O   UNL     1     -12.003  12.845  69.686  1.00  0.00    -0.313 OA 
HETATM   16  H   UNL     1     -11.592  13.264  70.433  1.00  0.00     0.000 HD 
BRANCH  13  17
HETATM   17  C   UNL     1     -10.064  15.028  69.541  1.00  0.00    -0.166 C  
HETATM   18  O   UNL     1     -11.038  15.490  70.476  1.00  0.00    -0.297 OA 
HETATM   19  H   UNL     1     -10.635  15.869  71.248  1.00  0.00     0.000 HD 
ENDBRANCH  13  17
ENDBRANCH   4   5
ENDBRANCH   3   4
ENDBRANCH   2   3
TORSDOF 4
ENDMDL
MODEL      225
REMARK 921   NORMALIZED FREE ENERGY PREDICTED BY IDOCK:   -2.26 KCAL/MOL
REMARK 922        TOTAL FREE ENERGY PREDICTED BY IDOCK:   -3.29 KCAL/MOL
REMARK 923 INTER-LIGAND FREE ENERGY PREDICTED BY IDOCK:   -2.83 KCAL/MOL
REMARK 924 INTRA-LIGAND FREE ENERGY PREDICTED BY IDOCK:   -0.46 KCAL/MOL
REMARK 927      BINDING AFFINITY PREDICTED BY RF-SCORE:    0.00 PKD
ROOT
HETATM    1  C   UNL     1      -8.572  10.138  67.438  1.00  0.00    -0.122 C  
HETATM    2  C   UNL     1      -8.773   8.765  66.812  1.00  0.00    -0.134 C  
ENDROOT
BRANCH   2   3
HETATM    3  C   UNL     1     -10.203   8.251  67.010  1.00  0.00    -0.380 C  
BRANCH   3   4
HETATM    4  C   UNL     1     -10.501   7.871  68.477  1.00  0.00    -0.167 C  
BRANCH   4   5
HETATM    5  N   UNL     1     -11.002   6.495  68.644  1.00  0.00    -0.294 NA 
HETATM    6  C   UNL     1     -10.073   5.473  68.133  1.00  0.00    -0.172 C  
HETATM    7  C   UNL     1      -8.818   5.276  69.004  1.00  0.00    -0.099 C  
HETATM    8  C   UNL     1      -9.257   4.847  70.407  1.00  0.00    -0.134 C  
HETATM    9  O   UNL     1      -7.942   4.291  68.449  1.00  0.00    -0.077 OA 
HETATM   10  H   UNL     1      -7.168   4.169  68.986  1.00  0.00     0.000 HD 
HETATM   11  C   UNL     1     -10.252   5.850  70.997  1.00  0.00    -0.211 C  
HETATM   12  O   UNL     1      -8.159   4.786  71.337  1.00  0.00    -0.097 OA 
HETATM   13  C   UNL     1     -11.429   6.147  70.032  1.00  0.00    -0.299 C  
HETATM   14  H   UNL     1      -8.431   4.520  72.206  1.00  0.00     0.000 HD 
HETATM   15  O   UNL     1     -10.737   5.321  72.247  1.00  0.00    -0.220 OA 
HETATM   16  H   UNL     1     -11.354   5.943  72.612  1.00  0.00     0.000 HD 
BRANCH  13  17
HETATM   17  C   UNL     1     -12.395   7.162  70.695  1.00  0.00    -0.156 C  
HETATM   18  O   UNL     1     -11.753   7.911  71.726  1.00  0.00    -0.265 OA 
HETATM   19  H   UNL     1     -12.345   8.533  72.132  1.00  0.00     0.000 HD 
ENDBRANCH  13  17
ENDBRANCH   4   5
ENDBRANCH   3   4
ENDBRANCH   2   3
TORSDOF 4
ENDMDL
MODEL      226
REMARK 921   NORMALIZED FREE ENERGY PREDICTED BY IDOCK:   -2.25 KCAL/MOL
REMARK 922        TOTAL FREE ENERGY PREDICTED BY IDOCK:   -3.27 KCAL/MOL
REMARK 923 INTER-LIGAND FREE ENERGY PREDICTED BY IDOCK:   -4.21 KCAL/MOL
REMARK 924 INTRA-LIGAND FREE ENERGY PREDICTED BY IDOCK:    0.94 KCAL/MOL
REMARK 927      BINDING AFFINITY PREDICTED BY RF-SCORE:    0.00 PKD
ROOT
HETATM    1  C   UNL     1      -5.847  15.701  68.540  1.00  0.00    -0.101 C  
HETATM    2  C   UNL     1      -6.179  16.260  67.164  1.00  0.00    -0.176 C  
ENDROOT
BRANCH   2   3
HETATM    3  C   UNL     1      -7.690  16.278  66.905  1.00  0.00    -0.278 C  
BRANCH   3   4
HETATM    4  C   UNL     1      -8.173  17.609  66.289  1.00  0.00    -0.229 C  
BRANCH   4   5
HETATM    5  N   UNL     1      -9.628  17.666  66.063  1.00  0.00    -0.526 NA 
HETATM    6  C   UNL     1     -10.101  16.675  65.081  1.00  0.00     0.350 C  
HETATM    7  C   UNL     1     -10.091  15.224  65.599  1.00  0.00    -0.371 C  
HETATM    8  C   UNL     1     -11.004  15.137  66.827  1.00  0.00    -0.321 C  
HETATM    9  O   UNL     1     -10.538  14.305  64.598  1.00  0.00    -0.510 OA 
HETATM   10  H   UNL     1     -10.532  13.411  64.918  1.00  0.00     0.000 HD 
HETATM   11  C   UNL     1     -10.591  16.161  67.886  1.00  0.00    -0.309 C  
HETATM   12  O   UNL     1     -10.940  13.851  67.473  1.00  0.00    -0.269 OA 
HETATM   13  C   UNL     1     -10.459  17.591  67.302  1.00  0.00    -0.327 C  
HETATM   14  H   UNL     1     -11.506  13.797  68.234  1.00  0.00     0.000 HD 
HETATM   15  O   UNL     1     -11.568  16.131  68.946  1.00  0.00    -0.357 OA 
HETATM   16  H   UNL     1     -11.312  16.767  69.603  1.00  0.00     0.000 HD 
BRANCH  13  17
HETATM   17  C   UNL     1     -10.046  18.573  68.428  1.00  0.00    -0.388 C  
HETATM   18  O   UNL     1     -10.738  19.816  68.329  1.00  0.00    -0.399 OA 
HETATM   19  H   UNL     1     -10.485  20.417  69.020  1.00  0.00     0.000 HD 
ENDBRANCH  13  17
ENDBRANCH   4   5
ENDBRANCH   3   4
ENDBRANCH   2   3
TORSDOF 4
ENDMDL
MODEL      227
REMARK 921   NORMALIZED FREE ENERGY PREDICTED BY IDOCK:   -2.22 KCAL/MOL
REMARK 922        TOTAL FREE ENERGY PREDICTED BY IDOCK:   -3.23 KCAL/MOL
REMARK 923 INTER-LIGAND FREE ENERGY PREDICTED BY IDOCK:   -2.83 KCAL/MOL
REMARK 924 INTRA-LIGAND FREE ENERGY PREDICTED BY IDOCK:   -0.40 KCAL/MOL
REMARK 927      BINDING AFFINITY PREDICTED BY RF-SCORE:    0.00 PKD
ROOT
HETATM    1  C   UNL     1      -7.715   1.858  68.376  1.00  0.00    -0.053 C  
HETATM    2  C   UNL     1      -6.619   2.435  69.259  1.00  0.00    -0.029 C  
ENDROOT
BRANCH   2   3
HETATM    3  C   UNL     1      -6.653   3.967  69.285  1.00  0.00    -0.040 C  
BRANCH   3   4
HETATM    4  C   UNL     1      -7.870   4.548  68.532  1.00  0.00    -0.079 C  
BRANCH   4   5
HETATM    5  N   UNL     1      -7.997   6.012  68.648  1.00  0.00    -0.103 NA 
HETATM    6  C   UNL     1      -7.904   6.707  67.352  1.00  0.00    -0.113 C  
HETATM    7  C   UNL     1      -9.140   6.525  66.453  1.00  0.00    -0.155 C  
HETATM    8  C   UNL     1     -10.367   7.074  67.189  1.00  0.00    -0.281 C  
HETATM    9  O   UNL     1      -8.984   7.201  65.202  1.00  0.00    -0.359 OA 
HETATM   10  H   UNL     1      -9.748   7.089  64.647  1.00  0.00     0.000 HD 
HETATM   11  C   UNL     1     -10.515   6.418  68.564  1.00  0.00    -0.224 C  
HETATM   12  O   UNL     1     -11.597   6.810  66.489  1.00  0.00    -0.396 OA 
HETATM   13  C   UNL     1      -9.205   6.480  69.390  1.00  0.00    -0.144 C  
HETATM   14  H   UNL     1     -12.357   7.151  66.945  1.00  0.00     0.000 HD 
HETATM   15  O   UNL     1     -11.592   7.075  69.262  1.00  0.00    -0.534 OA 
HETATM   16  H   UNL     1     -11.684   6.668  70.115  1.00  0.00     0.000 HD 
BRANCH  13  17
HETATM   17  C   UNL     1      -9.431   5.804  70.767  1.00  0.00    -0.165 C  
HETATM   18  O   UNL     1     -10.548   4.916  70.745  1.00  0.00    -0.153 OA 
HETATM   19  H   UNL     1     -10.687   4.502  71.589  1.00  0.00     0.000 HD 
ENDBRANCH  13  17
ENDBRANCH   4   5
ENDBRANCH   3   4
ENDBRANCH   2   3
TORSDOF 4
ENDMDL
MODEL      228
REMARK 921   NORMALIZED FREE ENERGY PREDICTED BY IDOCK:   -2.21 KCAL/MOL
REMARK 922        TOTAL FREE ENERGY PREDICTED BY IDOCK:   -3.22 KCAL/MOL
REMARK 923 INTER-LIGAND FREE ENERGY PREDICTED BY IDOCK:   -3.33 KCAL/MOL
REMARK 924 INTRA-LIGAND FREE ENERGY PREDICTED BY IDOCK:    0.10 KCAL/MOL
REMARK 927      BINDING AFFINITY PREDICTED BY RF-SCORE:    0.00 PKD
ROOT
HETATM    1  C   UNL     1      -6.043  17.493  68.925  1.00  0.00    -0.195 C  
HETATM    2  C   UNL     1      -6.521  17.798  67.513  1.00  0.00    -0.176 C  
ENDROOT
BRANCH   2   3
HETATM    3  C   UNL     1      -8.003  17.456  67.325  1.00  0.00    -0.218 C  
BRANCH   3   4
HETATM    4  C   UNL     1      -8.348  16.025  67.791  1.00  0.00    -0.150 C  
BRANCH   4   5
HETATM    5  N   UNL     1      -9.439  15.397  67.025  1.00  0.00    -0.214 NA 
HETATM    6  C   UNL     1      -9.129  14.024  66.591  1.00  0.00    -0.200 C  
HETATM    7  C   UNL     1      -9.138  12.989  67.731  1.00  0.00    -0.200 C  
HETATM    8  C   UNL     1     -10.532  12.972  68.366  1.00  0.00    -0.252 C  
HETATM    9  O   UNL     1      -8.808  11.681  67.255  1.00  0.00    -0.155 OA 
HETATM   10  H   UNL     1      -8.813  11.042  67.958  1.00  0.00     0.000 HD 
HETATM   11  C   UNL     1     -10.940  14.376  68.820  1.00  0.00    -0.250 C  
HETATM   12  O   UNL     1     -10.594  12.142  69.542  1.00  0.00    -0.431 OA 
HETATM   13  C   UNL     1     -10.774  15.429  67.694  1.00  0.00    -0.292 C  
HETATM   14  H   UNL     1     -11.458  12.132  69.936  1.00  0.00     0.000 HD 
HETATM   15  O   UNL     1     -12.307  14.322  69.272  1.00  0.00    -0.491 OA 
HETATM   16  H   UNL     1     -12.561  15.193  69.554  1.00  0.00     0.000 HD 
BRANCH  13  17
HETATM   17  C   UNL     1     -11.210  16.820  68.222  1.00  0.00    -0.167 C  
HETATM   18  O   UNL     1     -11.182  17.810  67.194  1.00  0.00     0.065 OA 
HETATM   19  H   UNL     1     -11.449  18.662  67.518  1.00  0.00     0.000 HD 
ENDBRANCH  13  17
ENDBRANCH   4   5
ENDBRANCH   3   4
ENDBRANCH   2   3
TORSDOF 4
ENDMDL
MODEL      229
REMARK 921   NORMALIZED FREE ENERGY PREDICTED BY IDOCK:   -2.19 KCAL/MOL
REMARK 922        TOTAL FREE ENERGY PREDICTED BY IDOCK:   -3.19 KCAL/MOL
REMARK 923 INTER-LIGAND FREE ENERGY PREDICTED BY IDOCK:   -3.53 KCAL/MOL
REMARK 924 INTRA-LIGAND FREE ENERGY PREDICTED BY IDOCK:    0.33 KCAL/MOL
REMARK 927      BINDING AFFINITY PREDICTED BY RF-SCORE:    0.00 PKD
ROOT
HETATM    1  C   UNL     1      -6.390  11.624  68.265  1.00  0.00    -0.050 C  
HETATM    2  C   UNL     1      -6.536  10.144  67.942  1.00  0.00    -0.066 C  
ENDROOT
BRANCH   2   3
HETATM    3  C   UNL     1      -7.975   9.783  67.556  1.00  0.00    -0.106 C  
BRANCH   3   4
HETATM    4  C   UNL     1      -8.324  10.195  66.110  1.00  0.00    -0.131 C  
BRANCH   4   5
HETATM    5  N   UNL     1      -9.772  10.254  65.842  1.00  0.00    -0.210 NA 
HETATM    6  C   UNL     1     -10.550  10.789  66.973  1.00  0.00    -0.260 C  
HETATM    7  C   UNL     1     -10.381  12.304  67.190  1.00  0.00    -0.218 C  
HETATM    8  C   UNL     1     -10.840  13.034  65.922  1.00  0.00    -0.272 C  
HETATM    9  O   UNL     1     -11.140  12.762  68.313  1.00  0.00    -0.230 OA 
HETATM   10  H   UNL     1     -11.036  13.698  68.446  1.00  0.00     0.000 HD 
HETATM   11  C   UNL     1     -10.093  12.510  64.693  1.00  0.00    -0.233 C  
HETATM   12  O   UNL     1     -10.576  14.448  65.973  1.00  0.00    -0.287 OA 
HETATM   13  C   UNL     1     -10.150  10.965  64.584  1.00  0.00    -0.328 C  
HETATM   14  H   UNL     1     -10.860  14.901  65.188  1.00  0.00     0.000 HD 
HETATM   15  O   UNL     1     -10.667  13.126  63.523  1.00  0.00    -0.463 OA 
HETATM   16  H   UNL     1     -10.204  12.801  62.760  1.00  0.00     0.000 HD 
BRANCH  13  17
HETATM   17  C   UNL     1      -9.381  10.508  63.318  1.00  0.00    -0.314 C  
HETATM   18  O   UNL     1      -8.000  10.861  63.379  1.00  0.00    -0.360 OA 
HETATM   19  H   UNL     1      -7.529  10.582  62.602  1.00  0.00     0.000 HD 
ENDBRANCH  13  17
ENDBRANCH   4   5
ENDBRANCH   3   4
ENDBRANCH   2   3
TORSDOF 4
ENDMDL
MODEL      230
REMARK 921   NORMALIZED FREE ENERGY PREDICTED BY IDOCK:   -2.18 KCAL/MOL
REMARK 922        TOTAL FREE ENERGY PREDICTED BY IDOCK:   -3.18 KCAL/MOL
REMARK 923 INTER-LIGAND FREE ENERGY PREDICTED BY IDOCK:   -2.83 KCAL/MOL
REMARK 924 INTRA-LIGAND FREE ENERGY PREDICTED BY IDOCK:   -0.35 KCAL/MOL
REMARK 927      BINDING AFFINITY PREDICTED BY RF-SCORE:    0.00 PKD
ROOT
HETATM    1  C   UNL     1     -10.499   8.591  72.199  1.00  0.00    -0.412 C  
HETATM    2  C   UNL     1      -9.043   8.462  71.776  1.00  0.00    -0.283 C  
ENDROOT
BRANCH   2   3
HETATM    3  C   UNL     1      -8.751   9.244  70.491  1.00  0.00    -0.276 C  
BRANCH   3   4
HETATM    4  C   UNL     1      -8.542   8.324  69.268  1.00  0.00    -0.138 C  
BRANCH   4   5
HETATM    5  N   UNL     1      -9.688   8.297  68.343  1.00  0.00    -0.155 NA 
HETATM    6  C   UNL     1      -9.517   9.185  67.180  1.00  0.00    -0.154 C  
HETATM    7  C   UNL     1      -8.488   8.680  66.151  1.00  0.00    -0.133 C  
HETATM    8  C   UNL     1      -8.947   7.314  65.630  1.00  0.00     0.047 C  
HETATM    9  O   UNL     1      -8.347   9.592  65.058  1.00  0.00    -0.127 OA 
HETATM   10  H   UNL     1      -7.712   9.280  64.423  1.00  0.00     0.000 HD 
HETATM   11  C   UNL     1      -9.174   6.339  66.788  1.00  0.00    -0.137 C  
HETATM   12  O   UNL     1      -7.969   6.692  64.775  1.00  0.00    -0.114 OA 
HETATM   13  C   UNL     1     -10.093   6.934  67.886  1.00  0.00    -0.162 C  
HETATM   14  H   UNL     1      -8.253   5.845  64.452  1.00  0.00     0.000 HD 
HETATM   15  O   UNL     1      -9.740   5.127  66.250  1.00  0.00    -0.152 OA 
HETATM   16  H   UNL     1      -9.882   4.522  66.968  1.00  0.00     0.000 HD 
BRANCH  13  17
HETATM   17  C   UNL     1     -10.284   5.892  69.019  1.00  0.00    -0.203 C  
HETATM   18  O   UNL     1     -11.459   6.151  69.786  1.00  0.00    -0.433 OA 
HETATM   19  H   UNL     1     -11.575   5.513  70.480  1.00  0.00     0.000 HD 
ENDBRANCH  13  17
ENDBRANCH   4   5
ENDBRANCH   3   4
ENDBRANCH   2   3
TORSDOF 4
ENDMDL
MODEL      231
REMARK 921   NORMALIZED FREE ENERGY PREDICTED BY IDOCK:   -2.18 KCAL/MOL
REMARK 922        TOTAL FREE ENERGY PREDICTED BY IDOCK:   -3.18 KCAL/MOL
REMARK 923 INTER-LIGAND FREE ENERGY PREDICTED BY IDOCK:   -3.93 KCAL/MOL
REMARK 924 INTRA-LIGAND FREE ENERGY PREDICTED BY IDOCK:    0.75 KCAL/MOL
REMARK 927      BINDING AFFINITY PREDICTED BY RF-SCORE:    0.00 PKD
ROOT
HETATM    1  C   UNL     1      -9.322   8.824  65.889  1.00  0.00    -0.284 C  
HETATM    2  C   UNL     1      -9.855  10.064  65.186  1.00  0.00    -0.388 C  
ENDROOT
BRANCH   2   3
HETATM    3  C   UNL     1      -9.147  11.338  65.660  1.00  0.00    -0.203 C  
BRANCH   3   4
HETATM    4  C   UNL     1     -10.121  12.517  65.870  1.00  0.00    -0.254 C  
BRANCH   4   5
HETATM    5  N   UNL     1     -10.184  12.995  67.263  1.00  0.00    -0.237 NA 
HETATM    6  C   UNL     1     -11.408  12.574  67.966  1.00  0.00    -0.289 C  
HETATM    7  C   UNL     1     -11.443  11.077  68.324  1.00  0.00    -0.304 C  
HETATM    8  C   UNL     1     -10.251  10.764  69.236  1.00  0.00    -0.194 C  
HETATM    9  O   UNL     1     -12.662  10.721  68.983  1.00  0.00    -0.655 OA 
HETATM   10  H   UNL     1     -12.683   9.798  69.205  1.00  0.00     0.000 HD 
HETATM   11  C   UNL     1      -8.937  11.200  68.583  1.00  0.00    -0.162 C  
HETATM   12  O   UNL     1     -10.112   9.355  69.501  1.00  0.00    -0.186 OA 
HETATM   13  C   UNL     1      -8.985  12.670  68.092  1.00  0.00    -0.199 C  
HETATM   14  H   UNL     1      -9.374   9.161  70.066  1.00  0.00     0.000 HD 
HETATM   15  O   UNL     1      -7.876  11.016  69.541  1.00  0.00    -0.354 OA 
HETATM   16  H   UNL     1      -7.061  11.287  69.136  1.00  0.00     0.000 HD 
BRANCH  13  17
HETATM   17  C   UNL     1      -7.624  13.044  67.450  1.00  0.00    -0.137 C  
HETATM   18  O   UNL     1      -6.677  13.475  68.427  1.00  0.00    -0.079 OA 
HETATM   19  H   UNL     1      -5.843  13.703  68.033  1.00  0.00     0.000 HD 
ENDBRANCH  13  17
ENDBRANCH   4   5
ENDBRANCH   3   4
ENDBRANCH   2   3
TORSDOF 4
ENDMDL
MODEL      232
REMARK 921   NORMALIZED FREE ENERGY PREDICTED BY IDOCK:   -2.17 KCAL/MOL
REMARK 922        TOTAL FREE ENERGY PREDICTED BY IDOCK:   -3.17 KCAL/MOL
REMARK 923 INTER-LIGAND FREE ENERGY PREDICTED BY IDOCK:   -2.91 KCAL/MOL
REMARK 924 INTRA-LIGAND FREE ENERGY PREDICTED BY IDOCK:   -0.26 KCAL/MOL
REMARK 927      BINDING AFFINITY PREDICTED BY RF-SCORE:    0.00 PKD
ROOT
HETATM    1  C   UNL     1     -10.724  13.093  67.994  1.00  0.00    -0.248 C  
HETATM    2  C   UNL     1     -11.563  11.878  68.363  1.00  0.00    -0.376 C  
ENDROOT
BRANCH   2   3
HETATM    3  C   UNL     1     -10.770  10.869  69.199  1.00  0.00    -0.265 C  
BRANCH   3   4
HETATM    4  C   UNL     1     -10.774   9.452  68.584  1.00  0.00    -0.160 C  
BRANCH   4   5
HETATM    5  N   UNL     1      -9.426   8.914  68.325  1.00  0.00    -0.139 NA 
HETATM    6  C   UNL     1      -8.944   8.019  69.391  1.00  0.00    -0.148 C  
HETATM    7  C   UNL     1      -9.645   6.648  69.424  1.00  0.00    -0.145 C  
HETATM    8  C   UNL     1      -9.408   5.945  68.083  1.00  0.00    -0.115 C  
HETATM    9  O   UNL     1      -9.154   5.832  70.491  1.00  0.00    -0.143 OA 
HETATM   10  H   UNL     1      -9.586   4.986  70.511  1.00  0.00     0.000 HD 
HETATM   11  C   UNL     1      -9.860   6.828  66.918  1.00  0.00    -0.175 C  
HETATM   12  O   UNL     1     -10.153   4.718  67.963  1.00  0.00    -0.125 OA 
HETATM   13  C   UNL     1      -9.259   8.255  66.995  1.00  0.00    -0.152 C  
HETATM   14  H   UNL     1     -10.006   4.282  67.132  1.00  0.00     0.000 HD 
HETATM   15  O   UNL     1      -9.480   6.179  65.688  1.00  0.00    -0.377 OA 
HETATM   16  H   UNL     1      -9.760   6.727  64.965  1.00  0.00     0.000 HD 
BRANCH  13  17
HETATM   17  C   UNL     1      -9.753   9.089  65.784  1.00  0.00    -0.184 C  
HETATM   18  O   UNL     1      -8.961  10.259  65.587  1.00  0.00    -0.158 OA 
HETATM   19  H   UNL     1      -9.265  10.769  64.845  1.00  0.00     0.000 HD 
ENDBRANCH  13  17
ENDBRANCH   4   5
ENDBRANCH   3   4
ENDBRANCH   2   3
TORSDOF 4
ENDMDL
MODEL      233
REMARK 921   NORMALIZED FREE ENERGY PREDICTED BY IDOCK:   -2.15 KCAL/MOL
REMARK 922        TOTAL FREE ENERGY PREDICTED BY IDOCK:   -3.15 KCAL/MOL
REMARK 923 INTER-LIGAND FREE ENERGY PREDICTED BY IDOCK:   -2.77 KCAL/MOL
REMARK 924 INTRA-LIGAND FREE ENERGY PREDICTED BY IDOCK:   -0.38 KCAL/MOL
REMARK 927      BINDING AFFINITY PREDICTED BY RF-SCORE:    0.00 PKD
ROOT
HETATM    1  C   UNL     1      -9.374  11.108  67.706  1.00  0.00    -0.166 C  
HETATM    2  C   UNL     1      -9.198  10.475  69.078  1.00  0.00    -0.193 C  
ENDROOT
BRANCH   2   3
HETATM    3  C   UNL     1      -8.675   9.038  68.981  1.00  0.00    -0.138 C  
BRANCH   3   4
HETATM    4  C   UNL     1      -9.465   8.055  69.873  1.00  0.00    -0.160 C  
BRANCH   4   5
HETATM    5  N   UNL     1      -8.664   7.465  70.961  1.00  0.00    -0.138 NA 
HETATM    6  C   UNL     1      -9.140   7.843  72.302  1.00  0.00    -0.161 C  
HETATM    7  C   UNL     1     -10.462   7.168  72.713  1.00  0.00    -0.244 C  
HETATM    8  C   UNL     1     -10.260   5.649  72.701  1.00  0.00    -0.185 C  
HETATM    9  O   UNL     1     -10.886   7.590  74.012  1.00  0.00    -0.511 OA 
HETATM   10  H   UNL     1     -11.702   7.173  74.266  1.00  0.00     0.000 HD 
HETATM   11  C   UNL     1      -9.737   5.180  71.341  1.00  0.00    -0.168 C  
HETATM   12  O   UNL     1     -11.486   4.927  72.925  1.00  0.00    -0.251 OA 
HETATM   13  C   UNL     1      -8.494   5.983  70.881  1.00  0.00    -0.127 C  
HETATM   14  H   UNL     1     -11.361   3.986  72.917  1.00  0.00     0.000 HD 
HETATM   15  O   UNL     1      -9.431   3.775  71.438  1.00  0.00    -0.131 OA 
HETATM   16  H   UNL     1      -9.106   3.484  70.594  1.00  0.00     0.000 HD 
BRANCH  13  17
HETATM   17  C   UNL     1      -8.017   5.452  69.504  1.00  0.00    -0.089 C  
HETATM   18  O   UNL     1      -9.097   4.920  68.738  1.00  0.00    -0.104 OA 
HETATM   19  H   UNL     1      -8.805   4.594  67.895  1.00  0.00     0.000 HD 
ENDBRANCH  13  17
ENDBRANCH   4   5
ENDBRANCH   3   4
ENDBRANCH   2   3
TORSDOF 4
ENDMDL
MODEL      234
REMARK 921   NORMALIZED FREE ENERGY PREDICTED BY IDOCK:   -2.10 KCAL/MOL
REMARK 922        TOTAL FREE ENERGY PREDICTED BY IDOCK:   -3.08 KCAL/MOL
REMARK 923 INTER-LIGAND FREE ENERGY PREDICTED BY IDOCK:   -2.70 KCAL/MOL
REMARK 924 INTRA-LIGAND FREE ENERGY PREDICTED BY IDOCK:   -0.38 KCAL/MOL
REMARK 927      BINDING AFFINITY PREDICTED BY RF-SCORE:    0.00 PKD
ROOT
HETATM    1  C   UNL     1     -11.653  12.390  67.515  1.00  0.00    -0.431 C  
HETATM    2  C   UNL     1     -10.755  12.129  68.715  1.00  0.00    -0.252 C  
ENDROOT
BRANCH   2   3
HETATM    3  C   UNL     1      -9.860  10.903  68.502  1.00  0.00    -0.188 C  
BRANCH   3   4
HETATM    4  C   UNL     1      -9.848   9.956  69.721  1.00  0.00    -0.236 C  
BRANCH   4   5
HETATM    5  N   UNL     1      -8.918   8.821  69.583  1.00  0.00    -0.143 NA 
HETATM    6  C   UNL     1      -7.515   9.238  69.416  1.00  0.00    -0.078 C  
HETATM    7  C   UNL     1      -6.870   9.797  70.698  1.00  0.00    -0.103 C  
HETATM    8  C   UNL     1      -6.909   8.712  71.780  1.00  0.00    -0.080 C  
HETATM    9  O   UNL     1      -5.518  10.207  70.472  1.00  0.00    -0.046 OA 
HETATM   10  H   UNL     1      -5.121  10.552  71.263  1.00  0.00     0.000 HD 
HETATM   11  C   UNL     1      -8.338   8.206  71.991  1.00  0.00    -0.152 C  
HETATM   12  O   UNL     1      -6.466   9.194  73.062  1.00  0.00    -0.316 OA 
HETATM   13  C   UNL     1      -9.018   7.792  70.661  1.00  0.00    -0.145 C  
HETATM   14  H   UNL     1      -6.490   8.522  73.732  1.00  0.00     0.000 HD 
HETATM   15  O   UNL     1      -8.289   7.094  72.907  1.00  0.00    -0.105 OA 
HETATM   16  H   UNL     1      -9.176   6.779  73.038  1.00  0.00     0.000 HD 
BRANCH  13  17
HETATM   17  C   UNL     1     -10.454   7.286  70.952  1.00  0.00    -0.213 C  
HETATM   18  O   UNL     1     -10.450   5.979  71.525  1.00  0.00    -0.213 OA 
HETATM   19  H   UNL     1     -11.330   5.669  71.703  1.00  0.00     0.000 HD 
ENDBRANCH  13  17
ENDBRANCH   4   5
ENDBRANCH   3   4
ENDBRANCH   2   3
TORSDOF 4
ENDMDL
MODEL      235
REMARK 921   NORMALIZED FREE ENERGY PREDICTED BY IDOCK:   -2.09 KCAL/MOL
REMARK 922        TOTAL FREE ENERGY PREDICTED BY IDOCK:   -3.07 KCAL/MOL
REMARK 923 INTER-LIGAND FREE ENERGY PREDICTED BY IDOCK:   -2.87 KCAL/MOL
REMARK 924 INTRA-LIGAND FREE ENERGY PREDICTED BY IDOCK:   -0.19 KCAL/MOL
REMARK 927      BINDING AFFINITY PREDICTED BY RF-SCORE:    0.00 PKD
ROOT
HETATM    1  C   UNL     1      -9.946   4.034  65.328  1.00  0.00    -0.193 C  
HETATM    2  C   UNL     1      -9.363   4.844  66.478  1.00  0.00    -0.142 C  
ENDROOT
BRANCH   2   3
HETATM    3  C   UNL     1     -10.221   6.072  66.804  1.00  0.00    -0.268 C  
BRANCH   3   4
HETATM    4  C   UNL     1     -10.269   6.379  68.316  1.00  0.00    -0.171 C  
BRANCH   4   5
HETATM    5  N   UNL     1      -9.024   6.966  68.844  1.00  0.00    -0.132 NA 
HETATM    6  C   UNL     1      -8.498   8.058  68.008  1.00  0.00    -0.126 C  
HETATM    7  C   UNL     1      -9.317   9.360  68.088  1.00  0.00    -0.133 C  
HETATM    8  C   UNL     1      -9.322   9.846  69.541  1.00  0.00    -0.220 C  
HETATM    9  O   UNL     1      -8.774  10.376  67.240  1.00  0.00    -0.126 OA 
HETATM   10  H   UNL     1      -9.279  11.179  67.290  1.00  0.00     0.000 HD 
HETATM   11  C   UNL     1      -9.832   8.750  70.480  1.00  0.00    -0.188 C  
HETATM   12  O   UNL     1     -10.191  10.977  69.743  1.00  0.00    -0.437 OA 
HETATM   13  C   UNL     1      -9.093   7.404  70.270  1.00  0.00    -0.151 C  
HETATM   14  H   UNL     1     -10.194  11.278  70.644  1.00  0.00     0.000 HD 
HETATM   15  O   UNL     1      -9.677   9.212  71.837  1.00  0.00    -0.282 OA 
HETATM   16  H   UNL     1      -9.993   8.532  72.419  1.00  0.00     0.000 HD 
BRANCH  13  17
HETATM   17  C   UNL     1      -9.655   6.347  71.255  1.00  0.00    -0.170 C  
HETATM   18  O   UNL     1      -8.631   5.488  71.753  1.00  0.00    -0.132 OA 
HETATM   19  H   UNL     1      -8.976   4.841  72.357  1.00  0.00     0.000 HD 
ENDBRANCH  13  17
ENDBRANCH   4   5
ENDBRANCH   3   4
ENDBRANCH   2   3
TORSDOF 4
ENDMDL
MODEL      236
REMARK 921   NORMALIZED FREE ENERGY PREDICTED BY IDOCK:   -2.04 KCAL/MOL
REMARK 922        TOTAL FREE ENERGY PREDICTED BY IDOCK:   -3.01 KCAL/MOL
REMARK 923 INTER-LIGAND FREE ENERGY PREDICTED BY IDOCK:   -2.55 KCAL/MOL
REMARK 924 INTRA-LIGAND FREE ENERGY PREDICTED BY IDOCK:   -0.45 KCAL/MOL
REMARK 927      BINDING AFFINITY PREDICTED BY RF-SCORE:    0.00 PKD
ROOT
HETATM    1  C   UNL     1      -9.101  10.204  66.258  1.00  0.00    -0.180 C  
HETATM    2  C   UNL     1      -9.218   8.797  65.692  1.00  0.00    -0.244 C  
ENDROOT
BRANCH   2   3
HETATM    3  C   UNL     1      -9.277   7.739  66.799  1.00  0.00    -0.202 C  
BRANCH   3   4
HETATM    4  C   UNL     1      -9.524   6.317  66.251  1.00  0.00    -0.100 C  
BRANCH   4   5
HETATM    5  N   UNL     1      -8.327   5.457  66.269  1.00  0.00    -0.113 NA 
HETATM    6  C   UNL     1      -8.394   4.389  67.282  1.00  0.00    -0.100 C  
HETATM    7  C   UNL     1      -9.380   3.258  66.936  1.00  0.00    -0.158 C  
HETATM    8  C   UNL     1      -8.947   2.618  65.613  1.00  0.00    -0.134 C  
HETATM    9  O   UNL     1      -9.421   2.264  67.964  1.00  0.00    -0.236 OA 
HETATM   10  H   UNL     1     -10.029   1.565  67.750  1.00  0.00     0.000 HD 
HETATM   11  C   UNL     1      -8.827   3.674  64.512  1.00  0.00    -0.118 C  
HETATM   12  O   UNL     1      -9.897   1.649  65.130  1.00  0.00    -0.328 OA 
HETATM   13  C   UNL     1      -7.951   4.878  64.945  1.00  0.00    -0.096 C  
HETATM   14  H   UNL     1      -9.629   1.252  64.310  1.00  0.00     0.000 HD 
HETATM   15  O   UNL     1      -8.280   3.040  63.339  1.00  0.00    -0.083 OA 
HETATM   16  H   UNL     1      -8.204   3.695  62.655  1.00  0.00     0.000 HD 
BRANCH  13  17
HETATM   17  C   UNL     1      -7.869   5.900  63.782  1.00  0.00    -0.115 C  
HETATM   18  O   UNL     1      -8.921   5.714  62.836  1.00  0.00    -0.344 OA 
HETATM   19  H   UNL     1      -8.870   6.341  62.124  1.00  0.00     0.000 HD 
ENDBRANCH  13  17
ENDBRANCH   4   5
ENDBRANCH   3   4
ENDBRANCH   2   3
TORSDOF 4
ENDMDL
MODEL      237
REMARK 921   NORMALIZED FREE ENERGY PREDICTED BY IDOCK:   -2.03 KCAL/MOL
REMARK 922        TOTAL FREE ENERGY PREDICTED BY IDOCK:   -3.00 KCAL/MOL
REMARK 923 INTER-LIGAND FREE ENERGY PREDICTED BY IDOCK:   -2.76 KCAL/MOL
REMARK 924 INTRA-LIGAND FREE ENERGY PREDICTED BY IDOCK:   -0.23 KCAL/MOL
REMARK 927      BINDING AFFINITY PREDICTED BY RF-SCORE:    0.00 PKD
ROOT
HETATM    1  C   UNL     1      -5.617  11.033  70.641  1.00  0.00    -0.132 C  
HETATM    2  C   UNL     1      -5.646   9.571  71.062  1.00  0.00    -0.060 C  
ENDROOT
BRANCH   2   3
HETATM    3  C   UNL     1      -5.916   8.641  69.875  1.00  0.00    -0.031 C  
BRANCH   3   4
HETATM    4  C   UNL     1      -7.344   8.054  69.891  1.00  0.00    -0.066 C  
BRANCH   4   5
HETATM    5  N   UNL     1      -8.364   8.959  69.331  1.00  0.00    -0.110 NA 
HETATM    6  C   UNL     1      -7.929   9.629  68.093  1.00  0.00    -0.100 C  
HETATM    7  C   UNL     1      -7.869   8.702  66.866  1.00  0.00    -0.091 C  
HETATM    8  C   UNL     1      -9.268   8.127  66.617  1.00  0.00    -0.180 C  
HETATM    9  O   UNL     1      -7.419   9.399  65.701  1.00  0.00    -0.093 OA 
HETATM   10  H   UNL     1      -7.382   8.827  64.943  1.00  0.00     0.000 HD 
HETATM   11  C   UNL     1      -9.803   7.436  67.873  1.00  0.00    -0.148 C  
HETATM   12  O   UNL     1      -9.279   7.128  65.580  1.00  0.00    -0.380 OA 
HETATM   13  C   UNL     1      -9.708   8.341  69.129  1.00  0.00    -0.171 C  
HETATM   14  H   UNL     1     -10.146   6.772  65.426  1.00  0.00     0.000 HD 
HETATM   15  O   UNL     1     -11.168   7.047  67.626  1.00  0.00    -0.543 OA 
HETATM   16  H   UNL     1     -11.501   6.618  68.405  1.00  0.00     0.000 HD 
BRANCH  13  17
HETATM   17  C   UNL     1     -10.272   7.580  70.357  1.00  0.00    -0.202 C  
HETATM   18  O   UNL     1     -11.624   7.173  70.154  1.00  0.00    -0.457 OA 
HETATM   19  H   UNL     1     -11.969   6.707  70.907  1.00  0.00     0.000 HD 
ENDBRANCH  13  17
ENDBRANCH   4   5
ENDBRANCH   3   4
ENDBRANCH   2   3
TORSDOF 4
ENDMDL
MODEL      238
REMARK 921   NORMALIZED FREE ENERGY PREDICTED BY IDOCK:   -2.03 KCAL/MOL
REMARK 922        TOTAL FREE ENERGY PREDICTED BY IDOCK:   -2.99 KCAL/MOL
REMARK 923 INTER-LIGAND FREE ENERGY PREDICTED BY IDOCK:   -2.52 KCAL/MOL
REMARK 924 INTRA-LIGAND FREE ENERGY PREDICTED BY IDOCK:   -0.47 KCAL/MOL
REMARK 927      BINDING AFFINITY PREDICTED BY RF-SCORE:    0.00 PKD
ROOT
HETATM    1  C   UNL     1     -11.738  12.701  67.399  1.00  0.00    -0.432 C  
HETATM    2  C   UNL     1     -11.899  11.653  68.491  1.00  0.00    -0.357 C  
ENDROOT
BRANCH   2   3
HETATM    3  C   UNL     1     -10.546  11.182  69.035  1.00  0.00    -0.251 C  
BRANCH   3   4
HETATM    4  C   UNL     1      -9.751  10.346  68.008  1.00  0.00    -0.150 C  
BRANCH   4   5
HETATM    5  N   UNL     1      -8.486  10.973  67.584  1.00  0.00    -0.120 NA 
HETATM    6  C   UNL     1      -7.369  10.707  68.507  1.00  0.00    -0.090 C  
HETATM    7  C   UNL     1      -6.840   9.262  68.451  1.00  0.00    -0.063 C  
HETATM    8  C   UNL     1      -6.347   8.975  67.029  1.00  0.00    -0.060 C  
HETATM    9  O   UNL     1      -5.774   9.056  69.383  1.00  0.00    -0.034 OA 
HETATM   10  H   UNL     1      -5.447   8.164  69.348  1.00  0.00     0.000 HD 
HETATM   11  C   UNL     1      -7.450   9.256  66.005  1.00  0.00    -0.095 C  
HETATM   12  O   UNL     1      -5.974   7.597  66.840  1.00  0.00    -0.043 OA 
HETATM   13  C   UNL     1      -8.072  10.665  66.183  1.00  0.00    -0.154 C  
HETATM   14  H   UNL     1      -5.669   7.419  65.959  1.00  0.00     0.000 HD 
HETATM   15  O   UNL     1      -6.886   9.110  64.686  1.00  0.00    -0.083 OA 
HETATM   16  H   UNL     1      -7.569   9.285  64.050  1.00  0.00     0.000 HD 
BRANCH  13  17
HETATM   17  C   UNL     1      -9.172  10.882  65.112  1.00  0.00    -0.214 C  
HETATM   18  O   UNL     1      -8.619  11.265  63.853  1.00  0.00    -0.376 OA 
HETATM   19  H   UNL     1      -9.293  11.398  63.197  1.00  0.00     0.000 HD 
ENDBRANCH  13  17
ENDBRANCH   4   5
ENDBRANCH   3   4
ENDBRANCH   2   3
TORSDOF 4
ENDMDL
MODEL      239
REMARK 921   NORMALIZED FREE ENERGY PREDICTED BY IDOCK:   -1.95 KCAL/MOL
REMARK 922        TOTAL FREE ENERGY PREDICTED BY IDOCK:   -2.89 KCAL/MOL
REMARK 923 INTER-LIGAND FREE ENERGY PREDICTED BY IDOCK:   -2.59 KCAL/MOL
REMARK 924 INTRA-LIGAND FREE ENERGY PREDICTED BY IDOCK:   -0.30 KCAL/MOL
REMARK 927      BINDING AFFINITY PREDICTED BY RF-SCORE:    0.00 PKD
ROOT
HETATM    1  C   UNL     1      -9.524   7.853  72.176  1.00  0.00    -0.234 C  
HETATM    2  C   UNL     1      -8.179   7.336  71.685  1.00  0.00    -0.104 C  
ENDROOT
BRANCH   2   3
HETATM    3  C   UNL     1      -7.976   7.602  70.190  1.00  0.00    -0.109 C  
BRANCH   3   4
HETATM    4  C   UNL     1      -8.114   6.325  69.333  1.00  0.00    -0.113 C  
BRANCH   4   5
HETATM    5  N   UNL     1      -9.409   5.640  69.493  1.00  0.00    -0.131 NA 
HETATM    6  C   UNL     1     -10.438   6.117  68.553  1.00  0.00    -0.237 C  
HETATM    7  C   UNL     1     -10.215   5.668  67.097  1.00  0.00    -0.212 C  
HETATM    8  C   UNL     1     -10.217   4.136  67.051  1.00  0.00     0.223 C  
HETATM    9  O   UNL     1     -11.229   6.179  66.227  1.00  0.00    -0.657 OA 
HETATM   10  H   UNL     1     -11.091   5.901  65.329  1.00  0.00     0.000 HD 
HETATM   11  C   UNL     1      -9.188   3.561  68.028  1.00  0.00    -0.178 C  
HETATM   12  O   UNL     1      -9.863   3.621  65.754  1.00  0.00    -0.349 OA 
HETATM   13  C   UNL     1      -9.338   4.148  69.455  1.00  0.00    -0.168 C  
HETATM   14  H   UNL     1      -9.865   2.671  65.726  1.00  0.00     0.000 HD 
HETATM   15  O   UNL     1      -9.338   2.128  68.047  1.00  0.00    -0.186 OA 
HETATM   16  H   UNL     1      -8.699   1.771  68.652  1.00  0.00     0.000 HD 
BRANCH  13  17
HETATM   17  C   UNL     1      -8.272   3.518  70.387  1.00  0.00    -0.052 C  
HETATM   18  O   UNL     1      -8.750   3.380  71.724  1.00  0.00    -0.082 OA 
HETATM   19  H   UNL     1      -8.096   2.994  72.295  1.00  0.00     0.000 HD 
ENDBRANCH  13  17
ENDBRANCH   4   5
ENDBRANCH   3   4
ENDBRANCH   2   3
TORSDOF 4
ENDMDL
MODEL      240
REMARK 921   NORMALIZED FREE ENERGY PREDICTED BY IDOCK:   -1.93 KCAL/MOL
REMARK 922        TOTAL FREE ENERGY PREDICTED BY IDOCK:   -2.88 KCAL/MOL
REMARK 923 INTER-LIGAND FREE ENERGY PREDICTED BY IDOCK:   -2.88 KCAL/MOL
REMARK 924 INTRA-LIGAND FREE ENERGY PREDICTED BY IDOCK:   -0.00 KCAL/MOL
REMARK 927      BINDING AFFINITY PREDICTED BY RF-SCORE:    0.00 PKD
ROOT
HETATM    1  C   UNL     1     -10.531   7.726  67.075  1.00  0.00    -0.419 C  
HETATM    2  C   UNL     1     -10.826   9.093  67.676  1.00  0.00    -0.160 C  
ENDROOT
BRANCH   2   3
HETATM    3  C   UNL     1     -10.068  10.210  66.952  1.00  0.00    -0.279 C  
BRANCH   3   4
HETATM    4  C   UNL     1      -8.647  10.429  67.517  1.00  0.00    -0.125 C  
BRANCH   4   5
HETATM    5  N   UNL     1      -7.956  11.600  66.949  1.00  0.00    -0.163 NA 
HETATM    6  C   UNL     1      -8.838  12.461  66.143  1.00  0.00     0.116 C  
HETATM    7  C   UNL     1      -9.846  13.277  66.974  1.00  0.00    -0.242 C  
HETATM    8  C   UNL     1      -9.069  14.179  67.939  1.00  0.00    -0.189 C  
HETATM    9  O   UNL     1     -10.691  14.075  66.140  1.00  0.00    -0.285 OA 
HETATM   10  H   UNL     1     -11.312  14.579  66.652  1.00  0.00     0.000 HD 
HETATM   11  C   UNL     1      -8.104  13.356  68.795  1.00  0.00     0.043 C  
HETATM   12  O   UNL     1      -9.930  14.870  68.864  1.00  0.00    -0.222 OA 
HETATM   13  C   UNL     1      -7.205  12.427  67.940  1.00  0.00    -0.110 C  
HETATM   14  H   UNL     1      -9.448  15.429  69.462  1.00  0.00     0.000 HD 
HETATM   15  O   UNL     1      -7.304  14.268  69.573  1.00  0.00    -0.313 OA 
HETATM   16  H   UNL     1      -6.705  13.757  70.105  1.00  0.00     0.000 HD 
BRANCH  13  17
HETATM   17  C   UNL     1      -6.253  11.632  68.870  1.00  0.00    -0.057 C  
HETATM   18  O   UNL     1      -6.684  11.671  70.230  1.00  0.00    -0.473 OA 
HETATM   19  H   UNL     1      -6.100  11.184  70.800  1.00  0.00     0.000 HD 
ENDBRANCH  13  17
ENDBRANCH   4   5
ENDBRANCH   3   4
ENDBRANCH   2   3
TORSDOF 4
ENDMDL
MODEL      241
REMARK 921   NORMALIZED FREE ENERGY PREDICTED BY IDOCK:   -1.92 KCAL/MOL
REMARK 922        TOTAL FREE ENERGY PREDICTED BY IDOCK:   -2.86 KCAL/MOL
REMARK 923 INTER-LIGAND FREE ENERGY PREDICTED BY IDOCK:   -2.99 KCAL/MOL
REMARK 924 INTRA-LIGAND FREE ENERGY PREDICTED BY IDOCK:    0.13 KCAL/MOL
REMARK 927      BINDING AFFINITY PREDICTED BY RF-SCORE:    0.00 PKD
ROOT
HETATM    1  C   UNL     1      -6.825  10.629  70.175  1.00  0.00    -0.119 C  
HETATM    2  C   UNL     1      -7.480   9.565  71.043  1.00  0.00     0.036 C  
ENDROOT
BRANCH   2   3
HETATM    3  C   UNL     1      -8.948   9.342  70.664  1.00  0.00    -0.296 C  
BRANCH   3   4
HETATM    4  C   UNL     1      -9.145   8.122  69.737  1.00  0.00    -0.148 C  
BRANCH   4   5
HETATM    5  N   UNL     1     -10.379   8.181  68.933  1.00  0.00    -0.214 NA 
HETATM    6  C   UNL     1     -11.125   9.439  69.104  1.00  0.00    -0.013 C  
HETATM    7  C   UNL     1     -10.460  10.658  68.439  1.00  0.00    -0.188 C  
HETATM    8  C   UNL     1     -10.339  10.390  66.935  1.00  0.00    -0.240 C  
HETATM    9  O   UNL     1     -11.215  11.853  68.658  1.00  0.00    -0.217 OA 
HETATM   10  H   UNL     1     -10.805  12.606  68.247  1.00  0.00     0.000 HD 
HETATM   11  C   UNL     1      -9.596   9.077  66.674  1.00  0.00    -0.213 C  
HETATM   12  O   UNL     1      -9.591  11.412  66.249  1.00  0.00    -0.201 OA 
HETATM   13  C   UNL     1     -10.193   7.894  67.479  1.00  0.00    -0.242 C  
HETATM   14  H   UNL     1      -9.516  11.245  65.317  1.00  0.00     0.000 HD 
HETATM   15  O   UNL     1      -9.642   8.808  65.259  1.00  0.00    -0.430 OA 
HETATM   16  H   UNL     1      -9.182   7.994  65.097  1.00  0.00     0.000 HD 
BRANCH  13  17
HETATM   17  C   UNL     1      -9.398   6.601  67.161  1.00  0.00    -0.134 C  
HETATM   18  O   UNL     1      -9.569   6.192  65.805  1.00  0.00    -0.376 OA 
HETATM   19  H   UNL     1      -9.082   5.400  65.611  1.00  0.00     0.000 HD 
ENDBRANCH  13  17
ENDBRANCH   4   5
ENDBRANCH   3   4
ENDBRANCH   2   3
TORSDOF 4
ENDMDL
MODEL      242
REMARK 921   NORMALIZED FREE ENERGY PREDICTED BY IDOCK:   -1.89 KCAL/MOL
REMARK 922        TOTAL FREE ENERGY PREDICTED BY IDOCK:   -2.83 KCAL/MOL
REMARK 923 INTER-LIGAND FREE ENERGY PREDICTED BY IDOCK:   -2.64 KCAL/MOL
REMARK 924 INTRA-LIGAND FREE ENERGY PREDICTED BY IDOCK:   -0.19 KCAL/MOL
REMARK 927      BINDING AFFINITY PREDICTED BY RF-SCORE:    0.00 PKD
ROOT
HETATM    1  C   UNL     1      -7.482  10.586  65.479  1.00  0.00    -0.111 C  
HETATM    2  C   UNL     1      -8.516  11.440  66.197  1.00  0.00    -0.105 C  
ENDROOT
BRANCH   2   3
HETATM    3  C   UNL     1      -9.709  10.608  66.680  1.00  0.00    -0.225 C  
BRANCH   3   4
HETATM    4  C   UNL     1      -9.297   9.498  67.671  1.00  0.00    -0.123 C  
BRANCH   4   5
HETATM    5  N   UNL     1      -9.680   9.775  69.067  1.00  0.00    -0.169 NA 
HETATM    6  C   UNL     1     -10.800   8.942  69.539  1.00  0.00    -0.153 C  
HETATM    7  C   UNL     1     -10.426   7.468  69.781  1.00  0.00    -0.230 C  
HETATM    8  C   UNL     1      -9.323   7.411  70.844  1.00  0.00    -0.155 C  
HETATM    9  O   UNL     1     -11.555   6.704  70.215  1.00  0.00    -0.370 OA 
HETATM   10  H   UNL     1     -11.324   5.794  70.365  1.00  0.00     0.000 HD 
HETATM   11  C   UNL     1      -8.130   8.280  70.437  1.00  0.00    -0.108 C  
HETATM   12  O   UNL     1      -8.801   6.082  71.028  1.00  0.00    -0.137 OA 
HETATM   13  C   UNL     1      -8.556   9.719  70.049  1.00  0.00    -0.204 C  
HETATM   14  H   UNL     1      -8.118   6.047  71.687  1.00  0.00     0.000 HD 
HETATM   15  O   UNL     1      -7.196   8.302  71.534  1.00  0.00    -0.070 OA 
HETATM   16  H   UNL     1      -6.455   8.841  71.283  1.00  0.00     0.000 HD 
BRANCH  13  17
HETATM   17  C   UNL     1      -7.301  10.540  69.656  1.00  0.00    -0.149 C  
HETATM   18  O   UNL     1      -7.632  11.883  69.307  1.00  0.00    -0.331 OA 
HETATM   19  H   UNL     1      -6.863  12.386  69.066  1.00  0.00     0.000 HD 
ENDBRANCH  13  17
ENDBRANCH   4   5
ENDBRANCH   3   4
ENDBRANCH   2   3
TORSDOF 4
ENDMDL
MODEL      243
REMARK 921   NORMALIZED FREE ENERGY PREDICTED BY IDOCK:   -1.89 KCAL/MOL
REMARK 922        TOTAL FREE ENERGY PREDICTED BY IDOCK:   -2.82 KCAL/MOL
REMARK 923 INTER-LIGAND FREE ENERGY PREDICTED BY IDOCK:   -2.42 KCAL/MOL
REMARK 924 INTRA-LIGAND FREE ENERGY PREDICTED BY IDOCK:   -0.40 KCAL/MOL
REMARK 927      BINDING AFFINITY PREDICTED BY RF-SCORE:    0.00 PKD
ROOT
HETATM    1  C   UNL     1      -9.765  10.406  68.038  1.00  0.00    -0.166 C  
HETATM    2  C   UNL     1     -10.693   9.801  69.081  1.00  0.00    -0.242 C  
ENDROOT
BRANCH   2   3
HETATM    3  C   UNL     1     -10.018   9.693  70.452  1.00  0.00    -0.330 C  
BRANCH   3   4
HETATM    4  C   UNL     1     -10.115   8.274  71.054  1.00  0.00    -0.191 C  
BRANCH   4   5
HETATM    5  N   UNL     1      -8.940   7.429  70.776  1.00  0.00    -0.150 NA 
HETATM    6  C   UNL     1      -7.662   8.150  70.913  1.00  0.00    -0.085 C  
HETATM    7  C   UNL     1      -7.273   8.466  72.369  1.00  0.00    -0.083 C  
HETATM    8  C   UNL     1      -7.149   7.147  73.140  1.00  0.00    -0.072 C  
HETATM    9  O   UNL     1      -6.038   9.184  72.439  1.00  0.00    -0.221 OA 
HETATM   10  H   UNL     1      -5.798   9.379  73.337  1.00  0.00     0.000 HD 
HETATM   11  C   UNL     1      -8.435   6.325  73.021  1.00  0.00    -0.117 C  
HETATM   12  O   UNL     1      -6.937   7.349  74.550  1.00  0.00    -0.098 OA 
HETATM   13  C   UNL     1      -8.889   6.152  71.549  1.00  0.00    -0.135 C  
HETATM   14  H   UNL     1      -6.860   6.532  75.028  1.00  0.00     0.000 HD 
HETATM   15  O   UNL     1      -8.207   5.043  73.639  1.00  0.00    -0.106 OA 
HETATM   16  H   UNL     1      -9.004   4.532  73.566  1.00  0.00     0.000 HD 
BRANCH  13  17
HETATM   17  C   UNL     1     -10.188   5.307  71.506  1.00  0.00    -0.212 C  
HETATM   18  O   UNL     1     -10.773   5.167  72.799  1.00  0.00    -0.214 OA 
HETATM   19  H   UNL     1     -11.569   4.649  72.772  1.00  0.00     0.000 HD 
ENDBRANCH  13  17
ENDBRANCH   4   5
ENDBRANCH   3   4
ENDBRANCH   2   3
TORSDOF 4
ENDMDL
MODEL      244
REMARK 921   NORMALIZED FREE ENERGY PREDICTED BY IDOCK:   -1.85 KCAL/MOL
REMARK 922        TOTAL FREE ENERGY PREDICTED BY IDOCK:   -2.77 KCAL/MOL
REMARK 923 INTER-LIGAND FREE ENERGY PREDICTED BY IDOCK:   -2.84 KCAL/MOL
REMARK 924 INTRA-LIGAND FREE ENERGY PREDICTED BY IDOCK:    0.07 KCAL/MOL
REMARK 927      BINDING AFFINITY PREDICTED BY RF-SCORE:    0.00 PKD
ROOT
HETATM    1  C   UNL     1      -9.331   4.617  66.943  1.00  0.00    -0.150 C  
HETATM    2  C   UNL     1      -9.078   5.585  65.796  1.00  0.00    -0.152 C  
ENDROOT
BRANCH   2   3
HETATM    3  C   UNL     1      -9.502   7.014  66.150  1.00  0.00    -0.055 C  
BRANCH   3   4
HETATM    4  C   UNL     1      -8.372   8.043  65.928  1.00  0.00    -0.134 C  
BRANCH   4   5
HETATM    5  N   UNL     1      -8.843   9.438  65.862  1.00  0.00    -0.152 NA 
HETATM    6  C   UNL     1     -10.174   9.630  66.463  1.00  0.00    -0.224 C  
HETATM    7  C   UNL     1     -10.186   9.546  68.000  1.00  0.00    -0.201 C  
HETATM    8  C   UNL     1      -9.262  10.634  68.558  1.00  0.00    -0.170 C  
HETATM    9  O   UNL     1     -11.506   9.717  68.526  1.00  0.00    -0.493 OA 
HETATM   10  H   UNL     1     -11.513   9.665  69.475  1.00  0.00     0.000 HD 
HETATM   11  C   UNL     1      -7.860  10.517  67.956  1.00  0.00    -0.105 C  
HETATM   12  O   UNL     1      -9.090  10.536  69.984  1.00  0.00    -0.343 OA 
HETATM   13  C   UNL     1      -7.888  10.448  66.407  1.00  0.00    -0.128 C  
HETATM   14  H   UNL     1      -8.518  11.210  70.330  1.00  0.00     0.000 HD 
HETATM   15  O   UNL     1      -7.083  11.646  68.403  1.00  0.00    -0.072 OA 
HETATM   16  H   UNL     1      -6.213  11.574  68.030  1.00  0.00     0.000 HD 
BRANCH  13  17
HETATM   17  C   UNL     1      -6.438  10.338  65.869  1.00  0.00    -0.111 C  
HETATM   18  O   UNL     1      -6.366  10.630  64.474  1.00  0.00    -0.352 OA 
HETATM   19  H   UNL     1      -5.478  10.562  64.145  1.00  0.00     0.000 HD 
ENDBRANCH  13  17
ENDBRANCH   4   5
ENDBRANCH   3   4
ENDBRANCH   2   3
TORSDOF 4
ENDMDL
MODEL      245
REMARK 921   NORMALIZED FREE ENERGY PREDICTED BY IDOCK:   -1.82 KCAL/MOL
REMARK 922        TOTAL FREE ENERGY PREDICTED BY IDOCK:   -2.74 KCAL/MOL
REMARK 923 INTER-LIGAND FREE ENERGY PREDICTED BY IDOCK:   -2.42 KCAL/MOL
REMARK 924 INTRA-LIGAND FREE ENERGY PREDICTED BY IDOCK:   -0.32 KCAL/MOL
REMARK 927      BINDING AFFINITY PREDICTED BY RF-SCORE:    0.00 PKD
ROOT
HETATM    1  C   UNL     1      -9.045  10.050  69.713  1.00  0.00    -0.219 C  
HETATM    2  C   UNL     1      -7.767   9.224  69.687  1.00  0.00    -0.087 C  
ENDROOT
BRANCH   2   3
HETATM    3  C   UNL     1      -7.356   8.764  71.090  1.00  0.00    -0.106 C  
BRANCH   3   4
HETATM    4  C   UNL     1      -7.607   7.258  71.320  1.00  0.00    -0.083 C  
BRANCH   4   5
HETATM    5  N   UNL     1      -8.989   6.835  71.030  1.00  0.00    -0.145 NA 
HETATM    6  C   UNL     1      -9.063   5.586  70.254  1.00  0.00    -0.138 C  
HETATM    7  C   UNL     1      -8.692   4.325  71.057  1.00  0.00    -0.093 C  
HETATM    8  C   UNL     1      -9.658   4.197  72.240  1.00  0.00    -0.143 C  
HETATM    9  O   UNL     1      -8.759   3.147  70.248  1.00  0.00    -0.060 OA 
HETATM   10  H   UNL     1      -8.531   2.370  70.744  1.00  0.00     0.000 HD 
HETATM   11  C   UNL     1      -9.658   5.474  73.083  1.00  0.00    -0.149 C  
HETATM   12  O   UNL     1      -9.294   3.131  73.137  1.00  0.00    -0.089 OA 
HETATM   13  C   UNL     1      -9.882   6.746  72.224  1.00  0.00    -0.155 C  
HETATM   14  H   UNL     1      -9.893   3.051  73.870  1.00  0.00     0.000 HD 
HETATM   15  O   UNL     1     -10.685   5.350  74.087  1.00  0.00    -0.281 OA 
HETATM   16  H   UNL     1     -10.686   6.142  74.610  1.00  0.00     0.000 HD 
BRANCH  13  17
HETATM   17  C   UNL     1      -9.876   7.995  73.142  1.00  0.00    -0.262 C  
HETATM   18  O   UNL     1      -9.197   7.748  74.372  1.00  0.00    -0.410 OA 
HETATM   19  H   UNL     1      -9.195   8.513  74.934  1.00  0.00     0.000 HD 
ENDBRANCH  13  17
ENDBRANCH   4   5
ENDBRANCH   3   4
ENDBRANCH   2   3
TORSDOF 4
ENDMDL
MODEL      246
REMARK 921   NORMALIZED FREE ENERGY PREDICTED BY IDOCK:   -1.74 KCAL/MOL
REMARK 922        TOTAL FREE ENERGY PREDICTED BY IDOCK:   -2.64 KCAL/MOL
REMARK 923 INTER-LIGAND FREE ENERGY PREDICTED BY IDOCK:   -2.21 KCAL/MOL
REMARK 924 INTRA-LIGAND FREE ENERGY PREDICTED BY IDOCK:   -0.43 KCAL/MOL
REMARK 927      BINDING AFFINITY PREDICTED BY RF-SCORE:    0.00 PKD
ROOT
HETATM    1  C   UNL     1      -7.240   2.823  70.846  1.00  0.00    -0.033 C  
HETATM    2  C   UNL     1      -7.142   3.967  71.844  1.00  0.00    -0.049 C  
ENDROOT
BRANCH   2   3
HETATM    3  C   UNL     1      -8.151   5.079  71.540  1.00  0.00    -0.113 C  
BRANCH   3   4
HETATM    4  C   UNL     1      -8.560   5.121  70.052  1.00  0.00    -0.100 C  
BRANCH   4   5
HETATM    5  N   UNL     1      -9.938   5.592  69.827  1.00  0.00    -0.192 NA 
HETATM    6  C   UNL     1     -10.217   6.894  70.457  1.00  0.00    -0.192 C  
HETATM    7  C   UNL     1      -9.541   8.087  69.755  1.00  0.00    -0.171 C  
HETATM    8  C   UNL     1     -10.041   8.152  68.308  1.00  0.00    -0.197 C  
HETATM    9  O   UNL     1      -9.827   9.320  70.422  1.00  0.00    -0.205 OA 
HETATM   10  H   UNL     1      -9.410  10.056  69.989  1.00  0.00     0.000 HD 
HETATM   11  C   UNL     1      -9.811   6.819  67.593  1.00  0.00    -0.128 C  
HETATM   12  O   UNL     1      -9.349   9.145  67.528  1.00  0.00    -0.133 OA 
HETATM   13  C   UNL     1     -10.368   5.616  68.397  1.00  0.00    -0.196 C  
HETATM   14  H   UNL     1      -9.659   9.186  66.632  1.00  0.00     0.000 HD 
HETATM   15  O   UNL     1     -10.430   6.894  66.293  1.00  0.00    -0.454 OA 
HETATM   16  H   UNL     1     -10.287   6.067  65.848  1.00  0.00     0.000 HD 
BRANCH  13  17
HETATM   17  C   UNL     1     -10.106   4.305  67.611  1.00  0.00     0.070 C  
HETATM   18  O   UNL     1      -9.050   4.456  66.664  1.00  0.00    -0.117 OA 
HETATM   19  H   UNL     1      -8.890   3.653  66.183  1.00  0.00     0.000 HD 
ENDBRANCH  13  17
ENDBRANCH   4   5
ENDBRANCH   3   4
ENDBRANCH   2   3
TORSDOF 4
ENDMDL
MODEL      247
REMARK 921   NORMALIZED FREE ENERGY PREDICTED BY IDOCK:   -1.69 KCAL/MOL
REMARK 922        TOTAL FREE ENERGY PREDICTED BY IDOCK:   -2.57 KCAL/MOL
REMARK 923 INTER-LIGAND FREE ENERGY PREDICTED BY IDOCK:   -2.85 KCAL/MOL
REMARK 924 INTRA-LIGAND FREE ENERGY PREDICTED BY IDOCK:    0.28 KCAL/MOL
REMARK 927      BINDING AFFINITY PREDICTED BY RF-SCORE:    0.00 PKD
ROOT
HETATM    1  C   UNL     1     -12.044  14.238  66.320  1.00  0.00    -0.433 C  
HETATM    2  C   UNL     1     -11.735  13.043  67.211  1.00  0.00    -0.429 C  
ENDROOT
BRANCH   2   3
HETATM    3  C   UNL     1     -10.234  12.740  67.259  1.00  0.00    -0.232 C  
BRANCH   3   4
HETATM    4  C   UNL     1      -9.729  12.028  65.985  1.00  0.00    -0.239 C  
BRANCH   4   5
HETATM    5  N   UNL     1      -9.778  10.557  66.067  1.00  0.00    -0.195 NA 
HETATM    6  C   UNL     1      -9.767   9.902  64.747  1.00  0.00    -0.235 C  
HETATM    7  C   UNL     1      -8.406   9.962  64.028  1.00  0.00    -0.168 C  
HETATM    8  C   UNL     1      -7.359   9.265  64.903  1.00  0.00    -0.103 C  
HETATM    9  O   UNL     1      -8.461   9.331  62.746  1.00  0.00    -0.183 OA 
HETATM   10  H   UNL     1      -7.621   9.368  62.302  1.00  0.00     0.000 HD 
HETATM   11  C   UNL     1      -7.330   9.875  66.307  1.00  0.00    -0.102 C  
HETATM   12  O   UNL     1      -6.023   9.404  64.384  1.00  0.00    -0.072 OA 
HETATM   13  C   UNL     1      -8.740   9.944  66.948  1.00  0.00    -0.128 C  
HETATM   14  H   UNL     1      -5.374   8.972  64.926  1.00  0.00     0.000 HD 
HETATM   15  O   UNL     1      -6.436   9.089  67.120  1.00  0.00    -0.059 OA 
HETATM   16  H   UNL     1      -6.418   9.467  67.991  1.00  0.00     0.000 HD 
BRANCH  13  17
HETATM   17  C   UNL     1      -8.633  10.564  68.365  1.00  0.00    -0.132 C  
HETATM   18  O   UNL     1      -8.614   9.563  69.382  1.00  0.00    -0.137 OA 
HETATM   19  H   UNL     1      -8.549   9.944  70.250  1.00  0.00     0.000 HD 
ENDBRANCH  13  17
ENDBRANCH   4   5
ENDBRANCH   3   4
ENDBRANCH   2   3
TORSDOF 4
ENDMDL
MODEL      248
REMARK 921   NORMALIZED FREE ENERGY PREDICTED BY IDOCK:   -1.67 KCAL/MOL
REMARK 922        TOTAL FREE ENERGY PREDICTED BY IDOCK:   -2.55 KCAL/MOL
REMARK 923 INTER-LIGAND FREE ENERGY PREDICTED BY IDOCK:   -2.11 KCAL/MOL
REMARK 924 INTRA-LIGAND FREE ENERGY PREDICTED BY IDOCK:   -0.44 KCAL/MOL
REMARK 927      BINDING AFFINITY PREDICTED BY RF-SCORE:    0.00 PKD
ROOT
HETATM    1  C   UNL     1      -6.048   3.648  63.809  1.00  0.00    -0.014 C  
HETATM    2  C   UNL     1      -6.560   4.634  64.849  1.00  0.00    -0.044 C  
ENDROOT
BRANCH   2   3
HETATM    3  C   UNL     1      -7.963   4.266  65.343  1.00  0.00    -0.097 C  
BRANCH   3   4
HETATM    4  C   UNL     1      -8.763   5.493  65.833  1.00  0.00    -0.145 C  
BRANCH   4   5
HETATM    5  N   UNL     1      -7.917   6.601  66.311  1.00  0.00    -0.104 NA 
HETATM    6  C   UNL     1      -8.123   7.853  65.562  1.00  0.00    -0.130 C  
HETATM    7  C   UNL     1      -9.461   8.552  65.864  1.00  0.00    -0.137 C  
HETATM    8  C   UNL     1      -9.512   8.889  67.358  1.00  0.00    -0.145 C  
HETATM    9  O   UNL     1      -9.616   9.746  65.093  1.00  0.00    -0.273 OA 
HETATM   10  H   UNL     1     -10.442  10.178  65.279  1.00  0.00     0.000 HD 
HETATM   11  C   UNL     1      -9.277   7.637  68.207  1.00  0.00    -0.139 C  
HETATM   12  O   UNL     1     -10.792   9.409  67.764  1.00  0.00    -0.416 OA 
HETATM   13  C   UNL     1      -8.002   6.867  67.779  1.00  0.00    -0.114 C  
HETATM   14  H   UNL     1     -10.823   9.618  68.690  1.00  0.00     0.000 HD 
HETATM   15  O   UNL     1      -9.191   8.040  69.588  1.00  0.00    -0.152 OA 
HETATM   16  H   UNL     1      -9.045   7.264  70.115  1.00  0.00     0.000 HD 
BRANCH  13  17
HETATM   17  C   UNL     1      -7.825   5.619  68.682  1.00  0.00    -0.096 C  
HETATM   18  O   UNL     1      -9.055   5.225  69.289  1.00  0.00    -0.105 OA 
HETATM   19  H   UNL     1      -8.946   4.461  69.843  1.00  0.00     0.000 HD 
ENDBRANCH  13  17
ENDBRANCH   4   5
ENDBRANCH   3   4
ENDBRANCH   2   3
TORSDOF 4
ENDMDL
MODEL      249
REMARK 921   NORMALIZED FREE ENERGY PREDICTED BY IDOCK:   -1.61 KCAL/MOL
REMARK 922        TOTAL FREE ENERGY PREDICTED BY IDOCK:   -2.48 KCAL/MOL
REMARK 923 INTER-LIGAND FREE ENERGY PREDICTED BY IDOCK:   -2.16 KCAL/MOL
REMARK 924 INTRA-LIGAND FREE ENERGY PREDICTED BY IDOCK:   -0.32 KCAL/MOL
REMARK 927      BINDING AFFINITY PREDICTED BY RF-SCORE:    0.00 PKD
ROOT
HETATM    1  C   UNL     1     -11.867  11.653  67.912  1.00  0.00    -0.273 C  
HETATM    2  C   UNL     1     -11.191  12.916  67.397  1.00  0.00    -0.331 C  
ENDROOT
BRANCH   2   3
HETATM    3  C   UNL     1      -9.787  12.631  66.854  1.00  0.00    -0.234 C  
BRANCH   3   4
HETATM    4  C   UNL     1      -8.913  11.839  67.851  1.00  0.00    -0.180 C  
BRANCH   4   5
HETATM    5  N   UNL     1      -7.787  11.128  67.219  1.00  0.00    -0.130 NA 
HETATM    6  C   UNL     1      -6.521  11.274  67.958  1.00  0.00    -0.057 C  
HETATM    7  C   UNL     1      -6.470  10.482  69.277  1.00  0.00    -0.055 C  
HETATM    8  C   UNL     1      -6.657   8.994  68.963  1.00  0.00    -0.048 C  
HETATM    9  O   UNL     1      -5.229  10.679  69.961  1.00  0.00    -0.038 OA 
HETATM   10  H   UNL     1      -5.197  10.190  70.776  1.00  0.00     0.000 HD 
HETATM   11  C   UNL     1      -7.945   8.764  68.168  1.00  0.00    -0.106 C  
HETATM   12  O   UNL     1      -6.777   8.189  70.151  1.00  0.00    -0.036 OA 
HETATM   13  C   UNL     1      -8.041   9.686  66.926  1.00  0.00    -0.113 C  
HETATM   14  H   UNL     1      -6.893   7.266  69.957  1.00  0.00     0.000 HD 
HETATM   15  O   UNL     1      -7.991   7.377  67.779  1.00  0.00    -0.115 OA 
HETATM   16  H   UNL     1      -8.790   7.234  67.286  1.00  0.00     0.000 HD 
BRANCH  13  17
HETATM   17  C   UNL     1      -9.362   9.394  66.168  1.00  0.00    -0.205 C  
HETATM   18  O   UNL     1     -10.284   8.660  66.972  1.00  0.00    -0.239 OA 
HETATM   19  H   UNL     1     -11.093   8.482  66.508  1.00  0.00     0.000 HD 
ENDBRANCH  13  17
ENDBRANCH   4   5
ENDBRANCH   3   4
ENDBRANCH   2   3
TORSDOF 4
ENDMDL
MODEL      250
REMARK 921   NORMALIZED FREE ENERGY PREDICTED BY IDOCK:   -1.60 KCAL/MOL
REMARK 922        TOTAL FREE ENERGY PREDICTED BY IDOCK:   -2.46 KCAL/MOL
REMARK 923 INTER-LIGAND FREE ENERGY PREDICTED BY IDOCK:   -3.01 KCAL/MOL
REMARK 924 INTRA-LIGAND FREE ENERGY PREDICTED BY IDOCK:    0.55 KCAL/MOL
REMARK 927      BINDING AFFINITY PREDICTED BY RF-SCORE:    0.00 PKD
ROOT
HETATM    1  C   UNL     1     -11.592  11.748  67.763  1.00  0.00    -0.374 C  
HETATM    2  C   UNL     1     -10.680  12.821  67.187  1.00  0.00    -0.264 C  
ENDROOT
BRANCH   2   3
HETATM    3  C   UNL     1      -9.287  12.272  66.861  1.00  0.00    -0.210 C  
BRANCH   3   4
HETATM    4  C   UNL     1      -8.576  11.681  68.098  1.00  0.00    -0.158 C  
BRANCH   4   5
HETATM    5  N   UNL     1      -7.790  10.468  67.809  1.00  0.00    -0.104 NA 
HETATM    6  C   UNL     1      -8.520   9.486  66.989  1.00  0.00    -0.128 C  
HETATM    7  C   UNL     1      -8.691   9.902  65.516  1.00  0.00    -0.151 C  
HETATM    8  C   UNL     1      -7.303  10.088  64.895  1.00  0.00    -0.140 C  
HETATM    9  O   UNL     1      -9.425   8.923  64.775  1.00  0.00    -0.384 OA 
HETATM   10  H   UNL     1      -9.531   9.180  63.866  1.00  0.00     0.000 HD 
HETATM   11  C   UNL     1      -6.470  11.079  65.711  1.00  0.00     0.052 C  
HETATM   12  O   UNL     1      -7.362  10.625  63.560  1.00  0.00    -0.346 OA 
HETATM   13  C   UNL     1      -6.441  10.721  67.219  1.00  0.00    -0.070 C  
HETATM   14  H   UNL     1      -6.501  10.740  63.175  1.00  0.00     0.000 HD 
HETATM   15  O   UNL     1      -5.136  11.100  65.166  1.00  0.00    -0.371 OA 
HETATM   16  H   UNL     1      -4.618  11.715  65.672  1.00  0.00     0.000 HD 
BRANCH  13  17
HETATM   17  C   UNL     1      -5.577  11.759  67.980  1.00  0.00    -0.046 C  
HETATM   18  O   UNL     1      -5.372  12.944  67.211  1.00  0.00    -0.318 OA 
HETATM   19  H   UNL     1      -4.843  13.580  67.677  1.00  0.00     0.000 HD 
ENDBRANCH  13  17
ENDBRANCH   4   5
ENDBRANCH   3   4
ENDBRANCH   2   3
TORSDOF 4
ENDMDL
MODEL      251
REMARK 921   NORMALIZED FREE ENERGY PREDICTED BY IDOCK:   -1.59 KCAL/MOL
REMARK 922        TOTAL FREE ENERGY PREDICTED BY IDOCK:   -2.45 KCAL/MOL
REMARK 923 INTER-LIGAND FREE ENERGY PREDICTED BY IDOCK:   -2.16 KCAL/MOL
REMARK 924 INTRA-LIGAND FREE ENERGY PREDICTED BY IDOCK:   -0.29 KCAL/MOL
REMARK 927      BINDING AFFINITY PREDICTED BY RF-SCORE:    0.00 PKD
ROOT
HETATM    1  C   UNL     1      -7.423   9.614  66.094  1.00  0.00    -0.098 C  
HETATM    2  C   UNL     1      -8.078   9.997  67.413  1.00  0.00    -0.114 C  
ENDROOT
BRANCH   2   3
HETATM    3  C   UNL     1      -9.025   8.903  67.919  1.00  0.00    -0.142 C  
BRANCH   3   4
HETATM    4  C   UNL     1      -8.366   7.507  67.939  1.00  0.00    -0.123 C  
BRANCH   4   5
HETATM    5  N   UNL     1      -9.086   6.499  67.141  1.00  0.00    -0.119 NA 
HETATM    6  C   UNL     1      -8.278   5.944  66.041  1.00  0.00    -0.123 C  
HETATM    7  C   UNL     1      -7.160   4.992  66.503  1.00  0.00    -0.069 C  
HETATM    8  C   UNL     1      -7.796   3.816  67.252  1.00  0.00    -0.079 C  
HETATM    9  O   UNL     1      -6.395   4.503  65.397  1.00  0.00    -0.033 OA 
HETATM   10  H   UNL     1      -5.705   3.915  65.682  1.00  0.00     0.000 HD 
HETATM   11  C   UNL     1      -8.678   4.315  68.399  1.00  0.00    -0.098 C  
HETATM   12  O   UNL     1      -6.816   2.949  67.855  1.00  0.00    -0.047 OA 
HETATM   13  C   UNL     1      -9.695   5.389  67.934  1.00  0.00    -0.136 C  
HETATM   14  H   UNL     1      -7.210   2.221  68.319  1.00  0.00     0.000 HD 
HETATM   15  O   UNL     1      -9.359   3.180  68.969  1.00  0.00    -0.152 OA 
HETATM   16  H   UNL     1      -9.907   3.489  69.680  1.00  0.00     0.000 HD 
BRANCH  13  17
HETATM   17  C   UNL     1     -10.555   5.842  69.141  1.00  0.00    -0.299 C  
HETATM   18  O   UNL     1     -11.720   6.555  68.726  1.00  0.00    -0.533 OA 
HETATM   19  H   UNL     1     -12.246   6.833  69.466  1.00  0.00     0.000 HD 
ENDBRANCH  13  17
ENDBRANCH   4   5
ENDBRANCH   3   4
ENDBRANCH   2   3
TORSDOF 4
ENDMDL
MODEL      252
REMARK 921   NORMALIZED FREE ENERGY PREDICTED BY IDOCK:   -1.57 KCAL/MOL
REMARK 922        TOTAL FREE ENERGY PREDICTED BY IDOCK:   -2.43 KCAL/MOL
REMARK 923 INTER-LIGAND FREE ENERGY PREDICTED BY IDOCK:   -1.94 KCAL/MOL
REMARK 924 INTRA-LIGAND FREE ENERGY PREDICTED BY IDOCK:   -0.49 KCAL/MOL
REMARK 927      BINDING AFFINITY PREDICTED BY RF-SCORE:    0.00 PKD
ROOT
HETATM    1  C   UNL     1     -10.242   5.439  66.436  1.00  0.00    -0.268 C  
HETATM    2  C   UNL     1     -10.737   6.369  67.533  1.00  0.00    -0.396 C  
ENDROOT
BRANCH   2   3
HETATM    3  C   UNL     1     -10.803   7.826  67.061  1.00  0.00    -0.176 C  
BRANCH   3   4
HETATM    4  C   UNL     1      -9.562   8.644  67.480  1.00  0.00    -0.157 C  
BRANCH   4   5
HETATM    5  N   UNL     1      -8.690   7.949  68.444  1.00  0.00    -0.131 NA 
HETATM    6  C   UNL     1      -7.299   7.816  67.977  1.00  0.00    -0.102 C  
HETATM    7  C   UNL     1      -6.505   9.135  67.988  1.00  0.00    -0.059 C  
HETATM    8  C   UNL     1      -6.465   9.671  69.424  1.00  0.00    -0.044 C  
HETATM    9  O   UNL     1      -5.171   8.950  67.505  1.00  0.00    -0.033 OA 
HETATM   10  H   UNL     1      -4.681   9.764  67.512  1.00  0.00     0.000 HD 
HETATM   11  C   UNL     1      -7.880   9.811  69.991  1.00  0.00    -0.178 C  
HETATM   12  O   UNL     1      -5.873  10.981  69.508  1.00  0.00    -0.043 OA 
HETATM   13  C   UNL     1      -8.711   8.512  69.827  1.00  0.00    -0.132 C  
HETATM   14  H   UNL     1      -5.849  11.313  70.398  1.00  0.00     0.000 HD 
HETATM   15  O   UNL     1      -7.772  10.176  71.381  1.00  0.00     0.355 OA 
HETATM   16  H   UNL     1      -8.650  10.263  71.734  1.00  0.00     0.000 HD 
BRANCH  13  17
HETATM   17  C   UNL     1     -10.124   8.724  70.428  1.00  0.00    -0.192 C  
HETATM   18  O   UNL     1     -10.455  10.109  70.529  1.00  0.00    -0.384 OA 
HETATM   19  H   UNL     1     -11.321  10.239  70.897  1.00  0.00     0.000 HD 
ENDBRANCH  13  17
ENDBRANCH   4   5
ENDBRANCH   3   4
ENDBRANCH   2   3
TORSDOF 4
ENDMDL
MODEL      253
REMARK 921   NORMALIZED FREE ENERGY PREDICTED BY IDOCK:   -1.55 KCAL/MOL
REMARK 922        TOTAL FREE ENERGY PREDICTED BY IDOCK:   -2.40 KCAL/MOL
REMARK 923 INTER-LIGAND FREE ENERGY PREDICTED BY IDOCK:   -2.91 KCAL/MOL
REMARK 924 INTRA-LIGAND FREE ENERGY PREDICTED BY IDOCK:    0.51 KCAL/MOL
REMARK 927      BINDING AFFINITY PREDICTED BY RF-SCORE:    0.00 PKD
ROOT
HETATM    1  C   UNL     1     -10.241  10.975  65.139  1.00  0.00    -0.352 C  
HETATM    2  C   UNL     1     -10.147   9.767  66.059  1.00  0.00    -0.322 C  
ENDROOT
BRANCH   2   3
HETATM    3  C   UNL     1      -8.693   9.395  66.367  1.00  0.00    -0.149 C  
BRANCH   3   4
HETATM    4  C   UNL     1      -8.188   8.211  65.514  1.00  0.00    -0.144 C  
BRANCH   4   5
HETATM    5  N   UNL     1      -7.837   7.017  66.304  1.00  0.00    -0.101 NA 
HETATM    6  C   UNL     1      -7.850   7.258  67.757  1.00  0.00    -0.114 C  
HETATM    7  C   UNL     1      -9.261   7.417  68.354  1.00  0.00    -0.138 C  
HETATM    8  C   UNL     1     -10.053   6.132  68.088  1.00  0.00    -0.157 C  
HETATM    9  O   UNL     1      -9.212   7.672  69.761  1.00  0.00    -0.147 OA 
HETATM   10  H   UNL     1     -10.082   7.769  70.129  1.00  0.00     0.000 HD 
HETATM   11  C   UNL     1     -10.061   5.798  66.594  1.00  0.00    -0.193 C  
HETATM   12  O   UNL     1     -11.435   6.244  68.476  1.00  0.00    -0.481 OA 
HETATM   13  C   UNL     1      -8.635   5.796  65.984  1.00  0.00    -0.139 C  
HETATM   14  H   UNL     1     -11.926   5.448  68.311  1.00  0.00     0.000 HD 
HETATM   15  O   UNL     1     -10.690   4.512  66.425  1.00  0.00    -0.391 OA 
HETATM   16  H   UNL     1     -10.695   4.304  65.498  1.00  0.00     0.000 HD 
BRANCH  13  17
HETATM   17  C   UNL     1      -8.720   5.444  64.477  1.00  0.00    -0.027 C  
HETATM   18  O   UNL     1      -7.500   4.884  63.993  1.00  0.00    -0.057 OA 
HETATM   19  H   UNL     1      -7.552   4.669  63.069  1.00  0.00     0.000 HD 
ENDBRANCH  13  17
ENDBRANCH   4   5
ENDBRANCH   3   4
ENDBRANCH   2   3
TORSDOF 4
ENDMDL
MODEL      254
REMARK 921   NORMALIZED FREE ENERGY PREDICTED BY IDOCK:   -1.54 KCAL/MOL
REMARK 922        TOTAL FREE ENERGY PREDICTED BY IDOCK:   -2.39 KCAL/MOL
REMARK 923 INTER-LIGAND FREE ENERGY PREDICTED BY IDOCK:   -3.33 KCAL/MOL
REMARK 924 INTRA-LIGAND FREE ENERGY PREDICTED BY IDOCK:    0.94 KCAL/MOL
REMARK 927      BINDING AFFINITY PREDICTED BY RF-SCORE:    0.00 PKD
ROOT
HETATM    1  C   UNL     1      -5.414  11.338  69.208  1.00  0.00    -0.040 C  
HETATM    2  C   UNL     1      -5.919  10.224  70.113  1.00  0.00    -0.076 C  
ENDROOT
BRANCH   2   3
HETATM    3  C   UNL     1      -7.055   9.429  69.461  1.00  0.00    -0.062 C  
BRANCH   3   4
HETATM    4  C   UNL     1      -8.164   9.043  70.463  1.00  0.00    -0.168 C  
BRANCH   4   5
HETATM    5  N   UNL     1      -9.276   8.289  69.858  1.00  0.00    -0.154 NA 
HETATM    6  C   UNL     1     -10.199   7.716  70.853  1.00  0.00    -0.199 C  
HETATM    7  C   UNL     1     -11.093   8.757  71.552  1.00  0.00    -0.307 C  
HETATM    8  C   UNL     1     -11.937   9.470  70.490  1.00  0.00    -0.134 C  
HETATM    9  O   UNL     1     -11.950   8.148  72.522  1.00  0.00    -0.416 OA 
HETATM   10  H   UNL     1     -12.502   8.791  72.953  1.00  0.00     0.000 HD 
HETATM   11  C   UNL     1     -11.046  10.070  69.400  1.00  0.00    -0.223 C  
HETATM   12  O   UNL     1     -12.695  10.568  71.031  1.00  0.00    -0.347 OA 
HETATM   13  C   UNL     1     -10.048   9.036  68.820  1.00  0.00    -0.199 C  
HETATM   14  H   UNL     1     -13.219  11.009  70.373  1.00  0.00     0.000 HD 
HETATM   15  O   UNL     1     -11.898  10.596  68.362  1.00  0.00    -0.700 OA 
HETATM   16  H   UNL     1     -11.346  10.968  67.685  1.00  0.00     0.000 HD 
BRANCH  13  17
HETATM   17  C   UNL     1      -9.186   9.710  67.721  1.00  0.00    -0.124 C  
HETATM   18  O   UNL     1      -9.865  10.809  67.114  1.00  0.00    -0.178 OA 
HETATM   19  H   UNL     1      -9.337  11.222  66.441  1.00  0.00     0.000 HD 
ENDBRANCH  13  17
ENDBRANCH   4   5
ENDBRANCH   3   4
ENDBRANCH   2   3
TORSDOF 4
ENDMDL
MODEL      255
REMARK 921   NORMALIZED FREE ENERGY PREDICTED BY IDOCK:   -1.53 KCAL/MOL
REMARK 922        TOTAL FREE ENERGY PREDICTED BY IDOCK:   -2.38 KCAL/MOL
REMARK 923 INTER-LIGAND FREE ENERGY PREDICTED BY IDOCK:   -2.10 KCAL/MOL
REMARK 924 INTRA-LIGAND FREE ENERGY PREDICTED BY IDOCK:   -0.29 KCAL/MOL
REMARK 927      BINDING AFFINITY PREDICTED BY RF-SCORE:    0.00 PKD
ROOT
HETATM    1  C   UNL     1      -5.355   4.297  63.404  1.00  0.00    -0.012 C  
HETATM    2  C   UNL     1      -5.939   4.968  64.639  1.00  0.00    -0.021 C  
ENDROOT
BRANCH   2   3
HETATM    3  C   UNL     1      -7.455   5.161  64.521  1.00  0.00    -0.072 C  
BRANCH   3   4
HETATM    4  C   UNL     1      -8.055   5.914  65.729  1.00  0.00    -0.121 C  
BRANCH   4   5
HETATM    5  N   UNL     1      -9.460   5.566  66.007  1.00  0.00    -0.153 NA 
HETATM    6  C   UNL     1      -9.645   4.153  66.379  1.00  0.00    -0.202 C  
HETATM    7  C   UNL     1      -9.127   3.802  67.787  1.00  0.00    -0.157 C  
HETATM    8  C   UNL     1      -9.880   4.657  68.812  1.00  0.00    -0.131 C  
HETATM    9  O   UNL     1      -9.312   2.415  68.084  1.00  0.00    -0.191 OA 
HETATM   10  H   UNL     1      -8.993   2.199  68.953  1.00  0.00     0.000 HD 
HETATM   11  C   UNL     1      -9.757   6.145  68.475  1.00  0.00    -0.127 C  
HETATM   12  O   UNL     1      -9.356   4.508  70.146  1.00  0.00    -0.118 OA 
HETATM   13  C   UNL     1     -10.138   6.448  67.003  1.00  0.00    -0.174 C  
HETATM   14  H   UNL     1      -9.823   5.038  70.782  1.00  0.00     0.000 HD 
HETATM   15  O   UNL     1     -10.599   6.882  69.384  1.00  0.00    -0.210 OA 
HETATM   16  H   UNL     1     -10.523   7.805  69.175  1.00  0.00     0.000 HD 
BRANCH  13  17
HETATM   17  C   UNL     1      -9.997   7.968  66.737  1.00  0.00    -0.274 C  
HETATM   18  O   UNL     1      -8.874   8.525  67.419  1.00  0.00    -0.132 OA 
HETATM   19  H   UNL     1      -8.788   9.457  67.256  1.00  0.00     0.000 HD 
ENDBRANCH  13  17
ENDBRANCH   4   5
ENDBRANCH   3   4
ENDBRANCH   2   3
TORSDOF 4
ENDMDL
MODEL      256
REMARK 921   NORMALIZED FREE ENERGY PREDICTED BY IDOCK:   -1.53 KCAL/MOL
REMARK 922        TOTAL FREE ENERGY PREDICTED BY IDOCK:   -2.38 KCAL/MOL
REMARK 923 INTER-LIGAND FREE ENERGY PREDICTED BY IDOCK:   -1.97 KCAL/MOL
REMARK 924 INTRA-LIGAND FREE ENERGY PREDICTED BY IDOCK:   -0.41 KCAL/MOL
REMARK 927      BINDING AFFINITY PREDICTED BY RF-SCORE:    0.00 PKD
ROOT
HETATM    1  C   UNL     1      -8.591  11.534  66.631  1.00  0.00    -0.176 C  
HETATM    2  C   UNL     1      -9.123  10.524  67.638  1.00  0.00    -0.146 C  
ENDROOT
BRANCH   2   3
HETATM    3  C   UNL     1      -8.011   9.626  68.189  1.00  0.00    -0.100 C  
BRANCH   3   4
HETATM    4  C   UNL     1      -8.211   8.139  67.823  1.00  0.00    -0.128 C  
BRANCH   4   5
HETATM    5  N   UNL     1      -7.525   7.206  68.735  1.00  0.00    -0.100 NA 
HETATM    6  C   UNL     1      -7.742   7.520  70.158  1.00  0.00    -0.089 C  
HETATM    7  C   UNL     1      -9.161   7.200  70.662  1.00  0.00    -0.158 C  
HETATM    8  C   UNL     1      -9.422   5.702  70.472  1.00  0.00    -0.163 C  
HETATM    9  O   UNL     1      -9.320   7.547  72.041  1.00  0.00    -0.131 OA 
HETATM   10  H   UNL     1     -10.195   7.349  72.352  1.00  0.00     0.000 HD 
HETATM   11  C   UNL     1      -9.189   5.290  69.016  1.00  0.00    -0.118 C  
HETATM   12  O   UNL     1     -10.781   5.335  70.775  1.00  0.00    -0.221 OA 
HETATM   13  C   UNL     1      -7.811   5.761  68.485  1.00  0.00    -0.097 C  
HETATM   14  H   UNL     1     -10.942   4.406  70.657  1.00  0.00     0.000 HD 
HETATM   15  O   UNL     1      -9.306   3.856  68.931  1.00  0.00    -0.141 OA 
HETATM   16  H   UNL     1      -9.162   3.600  68.028  1.00  0.00     0.000 HD 
BRANCH  13  17
HETATM   17  C   UNL     1      -7.642   5.305  67.013  1.00  0.00    -0.092 C  
HETATM   18  O   UNL     1      -8.897   5.009  66.402  1.00  0.00    -0.113 OA 
HETATM   19  H   UNL     1      -8.794   4.730  65.500  1.00  0.00     0.000 HD 
ENDBRANCH  13  17
ENDBRANCH   4   5
ENDBRANCH   3   4
ENDBRANCH   2   3
TORSDOF 4
ENDMDL
MODEL      257
REMARK 921   NORMALIZED FREE ENERGY PREDICTED BY IDOCK:   -1.49 KCAL/MOL
REMARK 922        TOTAL FREE ENERGY PREDICTED BY IDOCK:   -2.33 KCAL/MOL
REMARK 923 INTER-LIGAND FREE ENERGY PREDICTED BY IDOCK:   -1.95 KCAL/MOL
REMARK 924 INTRA-LIGAND FREE ENERGY PREDICTED BY IDOCK:   -0.38 KCAL/MOL
REMARK 927      BINDING AFFINITY PREDICTED BY RF-SCORE:    0.00 PKD
ROOT
HETATM    1  C   UNL     1     -10.365   3.265  64.201  1.00  0.00    -0.159 C  
HETATM    2  C   UNL     1      -8.972   3.877  64.200  1.00  0.00    -0.129 C  
ENDROOT
BRANCH   2   3
HETATM    3  C   UNL     1      -8.992   5.343  64.646  1.00  0.00     0.068 C  
BRANCH   3   4
HETATM    4  C   UNL     1      -9.371   5.508  66.134  1.00  0.00    -0.157 C  
BRANCH   4   5
HETATM    5  N   UNL     1      -8.663   6.609  66.809  1.00  0.00    -0.117 NA 
HETATM    6  C   UNL     1      -9.570   7.619  67.381  1.00  0.00    -0.147 C  
HETATM    7  C   UNL     1     -10.327   7.143  68.635  1.00  0.00    -0.187 C  
HETATM    8  C   UNL     1      -9.304   6.773  69.714  1.00  0.00    -0.145 C  
HETATM    9  O   UNL     1     -11.209   8.154  69.132  1.00  0.00    -0.423 OA 
HETATM   10  H   UNL     1     -11.676   7.861  69.906  1.00  0.00     0.000 HD 
HETATM   11  C   UNL     1      -8.303   5.743  69.183  1.00  0.00    -0.105 C  
HETATM   12  O   UNL     1      -9.914   6.172  70.872  1.00  0.00    -0.179 OA 
HETATM   13  C   UNL     1      -7.669   6.179  67.837  1.00  0.00    -0.102 C  
HETATM   14  H   UNL     1      -9.279   5.942  71.540  1.00  0.00     0.000 HD 
HETATM   15  O   UNL     1      -7.287   5.546  70.187  1.00  0.00    -0.065 OA 
HETATM   16  H   UNL     1      -6.666   4.907  69.858  1.00  0.00     0.000 HD 
BRANCH  13  17
HETATM   17  C   UNL     1      -6.665   5.095  67.366  1.00  0.00    -0.055 C  
HETATM   18  O   UNL     1      -6.815   3.879  68.096  1.00  0.00    -0.046 OA 
HETATM   19  H   UNL     1      -6.200   3.216  67.807  1.00  0.00     0.000 HD 
ENDBRANCH  13  17
ENDBRANCH   4   5
ENDBRANCH   3   4
ENDBRANCH   2   3
TORSDOF 4
ENDMDL
MODEL      258
REMARK 921   NORMALIZED FREE ENERGY PREDICTED BY IDOCK:   -1.38 KCAL/MOL
REMARK 922        TOTAL FREE ENERGY PREDICTED BY IDOCK:   -2.19 KCAL/MOL
REMARK 923 INTER-LIGAND FREE ENERGY PREDICTED BY IDOCK:   -2.84 KCAL/MOL
REMARK 924 INTRA-LIGAND FREE ENERGY PREDICTED BY IDOCK:    0.65 KCAL/MOL
REMARK 927      BINDING AFFINITY PREDICTED BY RF-SCORE:    0.00 PKD
ROOT
HETATM    1  C   UNL     1     -11.136   6.555  66.888  1.00  0.00    -0.342 C  
HETATM    2  C   UNL     1     -10.111   7.074  67.886  1.00  0.00    -0.204 C  
ENDROOT
BRANCH   2   3
HETATM    3  C   UNL     1      -9.397   8.328  67.370  1.00  0.00    -0.171 C  
BRANCH   3   4
HETATM    4  C   UNL     1      -8.041   8.009  66.703  1.00  0.00    -0.103 C  
BRANCH   4   5
HETATM    5  N   UNL     1      -7.051   9.095  66.821  1.00  0.00    -0.081 NA 
HETATM    6  C   UNL     1      -7.441  10.317  66.098  1.00  0.00    -0.121 C  
HETATM    7  C   UNL     1      -8.592  11.098  66.760  1.00  0.00    -0.157 C  
HETATM    8  C   UNL     1      -8.156  11.510  68.170  1.00  0.00    -0.146 C  
HETATM    9  O   UNL     1      -8.943  12.260  66.003  1.00  0.00    -0.412 OA 
HETATM   10  H   UNL     1      -9.652  12.742  66.412  1.00  0.00     0.000 HD 
HETATM   11  C   UNL     1      -7.707  10.291  68.979  1.00  0.00    -0.110 C  
HETATM   12  O   UNL     1      -9.224  12.114  68.924  1.00  0.00    -0.390 OA 
HETATM   13  C   UNL     1      -6.658   9.436  68.221  1.00  0.00    -0.058 C  
HETATM   14  H   UNL     1      -8.954  12.370  69.798  1.00  0.00     0.000 HD 
HETATM   15  O   UNL     1      -7.175  10.756  70.235  1.00  0.00    -0.453 OA 
HETATM   16  H   UNL     1      -6.896  10.000  70.737  1.00  0.00     0.000 HD 
BRANCH  13  17
HETATM   17  C   UNL     1      -6.246   8.227  69.100  1.00  0.00    -0.039 C  
HETATM   18  O   UNL     1      -7.234   7.925  70.084  1.00  0.00    -0.056 OA 
HETATM   19  H   UNL     1      -6.982   7.185  70.623  1.00  0.00     0.000 HD 
ENDBRANCH  13  17
ENDBRANCH   4   5
ENDBRANCH   3   4
ENDBRANCH   2   3
TORSDOF 4
ENDMDL
MODEL      259
REMARK 921   NORMALIZED FREE ENERGY PREDICTED BY IDOCK:   -1.31 KCAL/MOL
REMARK 922        TOTAL FREE ENERGY PREDICTED BY IDOCK:   -2.11 KCAL/MOL
REMARK 923 INTER-LIGAND FREE ENERGY PREDICTED BY IDOCK:   -2.24 KCAL/MOL
REMARK 924 INTRA-LIGAND FREE ENERGY PREDICTED BY IDOCK:    0.13 KCAL/MOL
REMARK 927      BINDING AFFINITY PREDICTED BY RF-SCORE:    0.00 PKD
ROOT
HETATM    1  C   UNL     1      -9.521   5.363  68.104  1.00  0.00    -0.142 C  
HETATM    2  C   UNL     1      -8.369   5.483  67.117  1.00  0.00    -0.104 C  
ENDROOT
BRANCH   2   3
HETATM    3  C   UNL     1      -7.976   6.944  66.874  1.00  0.00    -0.109 C  
BRANCH   3   4
HETATM    4  C   UNL     1      -9.193   7.894  66.864  1.00  0.00    -0.155 C  
BRANCH   4   5
HETATM    5  N   UNL     1      -9.145   8.931  67.911  1.00  0.00    -0.139 NA 
HETATM    6  C   UNL     1      -7.855   8.980  68.621  1.00  0.00    -0.101 C  
HETATM    7  C   UNL     1      -6.701   9.564  67.785  1.00  0.00    -0.067 C  
HETATM    8  C   UNL     1      -7.065  10.997  67.381  1.00  0.00    -0.095 C  
HETATM    9  O   UNL     1      -5.471   9.566  68.515  1.00  0.00    -0.040 OA 
HETATM   10  H   UNL     1      -4.759   9.926  68.000  1.00  0.00     0.000 HD 
HETATM   11  C   UNL     1      -8.414  11.032  66.659  1.00  0.00    -0.153 C  
HETATM   12  O   UNL     1      -6.112  11.573  66.468  1.00  0.00    -0.221 OA 
HETATM   13  C   UNL     1      -9.526  10.301  67.454  1.00  0.00    -0.153 C  
HETATM   14  H   UNL     1      -6.337  12.461  66.217  1.00  0.00     0.000 HD 
HETATM   15  O   UNL     1      -8.768  12.411  66.435  1.00  0.00    -0.386 OA 
HETATM   16  H   UNL     1      -9.605  12.434  65.988  1.00  0.00     0.000 HD 
BRANCH  13  17
HETATM   17  C   UNL     1     -10.860  10.383  66.668  1.00  0.00    -0.070 C  
HETATM   18  O   UNL     1     -11.285  11.732  66.483  1.00  0.00    -0.306 OA 
HETATM   19  H   UNL     1     -12.103  11.782  66.002  1.00  0.00     0.000 HD 
ENDBRANCH  13  17
ENDBRANCH   4   5
ENDBRANCH   3   4
ENDBRANCH   2   3
TORSDOF 4
ENDMDL
MODEL      260
REMARK 921   NORMALIZED FREE ENERGY PREDICTED BY IDOCK:   -1.28 KCAL/MOL
REMARK 922        TOTAL FREE ENERGY PREDICTED BY IDOCK:   -2.07 KCAL/MOL
REMARK 923 INTER-LIGAND FREE ENERGY PREDICTED BY IDOCK:   -2.12 KCAL/MOL
REMARK 924 INTRA-LIGAND FREE ENERGY PREDICTED BY IDOCK:    0.05 KCAL/MOL
REMARK 927      BINDING AFFINITY PREDICTED BY RF-SCORE:    0.00 PKD
ROOT
HETATM    1  C   UNL     1      -6.092  10.324  67.105  1.00  0.00    -0.055 C  
HETATM    2  C   UNL     1      -6.525  10.168  68.555  1.00  0.00    -0.049 C  
ENDROOT
BRANCH   2   3
HETATM    3  C   UNL     1      -8.049  10.093  68.691  1.00  0.00    -0.109 C  
BRANCH   3   4
HETATM    4  C   UNL     1      -8.617   8.717  68.280  1.00  0.00    -0.134 C  
BRANCH   4   5
HETATM    5  N   UNL     1      -7.655   7.872  67.551  1.00  0.00    -0.103 NA 
HETATM    6  C   UNL     1      -7.141   6.750  68.355  1.00  0.00    -0.083 C  
HETATM    7  C   UNL     1      -8.168   5.628  68.594  1.00  0.00    -0.103 C  
HETATM    8  C   UNL     1      -8.604   5.066  67.237  1.00  0.00    -0.104 C  
HETATM    9  O   UNL     1      -7.623   4.579  69.399  1.00  0.00    -0.055 OA 
HETATM   10  H   UNL     1      -8.256   3.886  69.547  1.00  0.00     0.000 HD 
HETATM   11  C   UNL     1      -9.127   6.182  66.329  1.00  0.00    -0.154 C  
HETATM   12  O   UNL     1      -9.679   4.114  67.352  1.00  0.00    -0.190 OA 
HETATM   13  C   UNL     1      -8.137   7.371  66.229  1.00  0.00    -0.117 C  
HETATM   14  H   UNL     1      -9.949   3.765  66.511  1.00  0.00     0.000 HD 
HETATM   15  O   UNL     1      -9.383   5.619  65.027  1.00  0.00    -0.361 OA 
HETATM   16  H   UNL     1      -9.707   6.311  64.463  1.00  0.00     0.000 HD 
BRANCH  13  17
HETATM   17  C   UNL     1      -8.727   8.456  65.292  1.00  0.00    -0.113 C  
HETATM   18  O   UNL     1      -8.615   8.088  63.917  1.00  0.00    -0.391 OA 
HETATM   19  H   UNL     1      -8.977   8.753  63.344  1.00  0.00     0.000 HD 
ENDBRANCH  13  17
ENDBRANCH   4   5
ENDBRANCH   3   4
ENDBRANCH   2   3
TORSDOF 4
ENDMDL
MODEL      261
REMARK 921   NORMALIZED FREE ENERGY PREDICTED BY IDOCK:   -1.21 KCAL/MOL
REMARK 922        TOTAL FREE ENERGY PREDICTED BY IDOCK:   -1.99 KCAL/MOL
REMARK 923 INTER-LIGAND FREE ENERGY PREDICTED BY IDOCK:   -1.78 KCAL/MOL
REMARK 924 INTRA-LIGAND FREE ENERGY PREDICTED BY IDOCK:   -0.21 KCAL/MOL
REMARK 927      BINDING AFFINITY PREDICTED BY RF-SCORE:    0.00 PKD
ROOT
HETATM    1  C   UNL     1      -5.611  10.858  70.254  1.00  0.00    -0.089 C  
HETATM    2  C   UNL     1      -5.889   9.407  69.887  1.00  0.00    -0.035 C  
ENDROOT
BRANCH   2   3
HETATM    3  C   UNL     1      -5.834   9.180  68.373  1.00  0.00    -0.041 C  
BRANCH   3   4
HETATM    4  C   UNL     1      -6.872   8.144  67.888  1.00  0.00    -0.073 C  
BRANCH   4   5
HETATM    5  N   UNL     1      -7.894   8.705  66.986  1.00  0.00    -0.095 NA 
HETATM    6  C   UNL     1      -7.490   8.687  65.569  1.00  0.00    -0.085 C  
HETATM    7  C   UNL     1      -7.490   7.285  64.934  1.00  0.00    -0.091 C  
HETATM    8  C   UNL     1      -8.907   6.707  65.022  1.00  0.00     0.298 C  
HETATM    9  O   UNL     1      -7.068   7.326  63.568  1.00  0.00    -0.059 OA 
HETATM   10  H   UNL     1      -7.068   6.460  63.176  1.00  0.00     0.000 HD 
HETATM   11  C   UNL     1      -9.410   6.718  66.467  1.00  0.00    -0.161 C  
HETATM   12  O   UNL     1      -8.972   5.335  64.590  1.00  0.00    -0.307 OA 
HETATM   13  C   UNL     1      -9.255   8.109  67.134  1.00  0.00    -0.145 C  
HETATM   14  H   UNL     1      -9.850   4.978  64.644  1.00  0.00     0.000 HD 
HETATM   15  O   UNL     1     -10.791   6.303  66.465  1.00  0.00    -0.509 OA 
HETATM   16  H   UNL     1     -11.103   6.310  67.362  1.00  0.00     0.000 HD 
BRANCH  13  17
HETATM   17  C   UNL     1      -9.789   8.047  68.588  1.00  0.00    -0.174 C  
HETATM   18  O   UNL     1     -10.474   9.244  68.954  1.00  0.00    -0.210 OA 
HETATM   19  H   UNL     1     -10.801   9.205  69.845  1.00  0.00     0.000 HD 
ENDBRANCH  13  17
ENDBRANCH   4   5
ENDBRANCH   3   4
ENDBRANCH   2   3
TORSDOF 4
ENDMDL
MODEL      262
REMARK 921   NORMALIZED FREE ENERGY PREDICTED BY IDOCK:   -1.07 KCAL/MOL
REMARK 922        TOTAL FREE ENERGY PREDICTED BY IDOCK:   -1.81 KCAL/MOL
REMARK 923 INTER-LIGAND FREE ENERGY PREDICTED BY IDOCK:   -2.31 KCAL/MOL
REMARK 924 INTRA-LIGAND FREE ENERGY PREDICTED BY IDOCK:    0.50 KCAL/MOL
REMARK 927      BINDING AFFINITY PREDICTED BY RF-SCORE:    0.00 PKD
ROOT
HETATM    1  C   UNL     1      -6.100   4.884  63.296  1.00  0.00    -0.021 C  
HETATM    2  C   UNL     1      -6.023   5.673  64.595  1.00  0.00    -0.022 C  
ENDROOT
BRANCH   2   3
HETATM    3  C   UNL     1      -7.414   6.028  65.131  1.00  0.00    -0.084 C  
BRANCH   3   4
HETATM    4  C   UNL     1      -7.358   6.951  66.367  1.00  0.00    -0.073 C  
BRANCH   4   5
HETATM    5  N   UNL     1      -8.510   6.799  67.275  1.00  0.00    -0.120 NA 
HETATM    6  C   UNL     1      -9.747   6.404  66.581  1.00  0.00    -0.153 C  
HETATM    7  C   UNL     1      -9.754   4.944  66.093  1.00  0.00    -0.190 C  
HETATM    8  C   UNL     1      -9.585   4.021  67.306  1.00  0.00    -0.189 C  
HETATM    9  O   UNL     1     -10.968   4.623  65.408  1.00  0.00    -0.742 OA 
HETATM   10  H   UNL     1     -10.973   3.722  65.107  1.00  0.00     0.000 HD 
HETATM   11  C   UNL     1      -8.328   4.390  68.098  1.00  0.00    -0.093 C  
HETATM   12  O   UNL     1      -9.426   2.640  66.931  1.00  0.00    -0.373 OA 
HETATM   13  C   UNL     1      -8.273   5.900  68.444  1.00  0.00    -0.109 C  
HETATM   14  H   UNL     1      -9.322   2.068  67.683  1.00  0.00     0.000 HD 
HETATM   15  O   UNL     1      -8.302   3.590  69.297  1.00  0.00    -0.059 OA 
HETATM   16  H   UNL     1      -7.523   3.818  69.789  1.00  0.00     0.000 HD 
BRANCH  13  17
HETATM   17  C   UNL     1      -6.981   6.198  69.249  1.00  0.00    -0.064 C  
HETATM   18  O   UNL     1      -5.976   5.210  69.024  1.00  0.00    -0.019 OA 
HETATM   19  H   UNL     1      -5.185   5.392  69.517  1.00  0.00     0.000 HD 
ENDBRANCH  13  17
ENDBRANCH   4   5
ENDBRANCH   3   4
ENDBRANCH   2   3
TORSDOF 4
ENDMDL
MODEL      263
REMARK 921   NORMALIZED FREE ENERGY PREDICTED BY IDOCK:   -0.60 KCAL/MOL
REMARK 922        TOTAL FREE ENERGY PREDICTED BY IDOCK:   -1.24 KCAL/MOL
REMARK 923 INTER-LIGAND FREE ENERGY PREDICTED BY IDOCK:   -1.88 KCAL/MOL
REMARK 924 INTRA-LIGAND FREE ENERGY PREDICTED BY IDOCK:    0.64 KCAL/MOL
REMARK 927      BINDING AFFINITY PREDICTED BY RF-SCORE:    0.00 PKD
ROOT
HETATM    1  C   UNL     1     -10.379  10.387  65.813  1.00  0.00    -0.257 C  
HETATM    2  C   UNL     1     -10.240   9.379  66.945  1.00  0.00    -0.318 C  
ENDROOT
BRANCH   2   3
HETATM    3  C   UNL     1      -9.001   9.653  67.804  1.00  0.00    -0.122 C  
BRANCH   3   4
HETATM    4  C   UNL     1      -8.190   8.373  68.103  1.00  0.00    -0.124 C  
BRANCH   4   5
HETATM    5  N   UNL     1      -6.739   8.528  67.895  1.00  0.00    -0.065 NA 
HETATM    6  C   UNL     1      -6.395   9.038  66.556  1.00  0.00    -0.066 C  
HETATM    7  C   UNL     1      -6.731  10.526  66.347  1.00  0.00    -0.114 C  
HETATM    8  C   UNL     1      -5.951  11.353  67.374  1.00  0.00    -0.073 C  
HETATM    9  O   UNL     1      -6.398  10.959  65.024  1.00  0.00    -0.370 OA 
HETATM   10  H   UNL     1      -6.605  11.877  64.895  1.00  0.00     0.000 HD 
HETATM   11  C   UNL     1      -6.235  10.862  68.796  1.00  0.00    -0.044 C  
HETATM   12  O   UNL     1      -6.317  12.746  67.355  1.00  0.00    -0.156 OA 
HETATM   13  C   UNL     1      -6.037   9.331  68.940  1.00  0.00    -0.043 C  
HETATM   14  H   UNL     1      -5.834  13.258  67.992  1.00  0.00     0.000 HD 
HETATM   15  O   UNL     1      -5.368  11.577  69.699  1.00  0.00    -0.055 OA 
HETATM   16  H   UNL     1      -5.544  11.273  70.581  1.00  0.00     0.000 HD 
BRANCH  13  17
HETATM   17  C   UNL     1      -6.334   8.909  70.402  1.00  0.00    -0.041 C  
HETATM   18  O   UNL     1      -5.176   9.007  71.229  1.00  0.00    -0.032 OA 
HETATM   19  H   UNL     1      -5.359   8.748  72.124  1.00  0.00     0.000 HD 
ENDBRANCH  13  17
ENDBRANCH   4   5
ENDBRANCH   3   4
ENDBRANCH   2   3
TORSDOF 4
ENDMDL
MODEL      264
REMARK 921   NORMALIZED FREE ENERGY PREDICTED BY IDOCK:   -0.48 KCAL/MOL
REMARK 922        TOTAL FREE ENERGY PREDICTED BY IDOCK:   -1.08 KCAL/MOL
REMARK 923 INTER-LIGAND FREE ENERGY PREDICTED BY IDOCK:   -1.08 KCAL/MOL
REMARK 924 INTRA-LIGAND FREE ENERGY PREDICTED BY IDOCK:   -0.00 KCAL/MOL
REMARK 927      BINDING AFFINITY PREDICTED BY RF-SCORE:    0.00 PKD
ROOT
HETATM    1  C   UNL     1     -10.504  10.274  65.791  1.00  0.00    -0.159 C  
HETATM    2  C   UNL     1     -10.856   9.178  66.787  1.00  0.00     0.041 C  
ENDROOT
BRANCH   2   3
HETATM    3  C   UNL     1      -9.745   8.967  67.821  1.00  0.00    -0.196 C  
BRANCH   3   4
HETATM    4  C   UNL     1      -9.313   7.489  67.937  1.00  0.00    -0.138 C  
BRANCH   4   5
HETATM    5  N   UNL     1      -8.024   7.194  67.285  1.00  0.00    -0.110 NA 
HETATM    6  C   UNL     1      -7.310   8.402  66.837  1.00  0.00    -0.083 C  
HETATM    7  C   UNL     1      -6.705   9.234  67.983  1.00  0.00    -0.060 C  
HETATM    8  C   UNL     1      -5.707   8.360  68.749  1.00  0.00    -0.040 C  
HETATM    9  O   UNL     1      -6.046  10.404  67.492  1.00  0.00    -0.052 OA 
HETATM   10  H   UNL     1      -5.672  10.918  68.200  1.00  0.00     0.000 HD 
HETATM   11  C   UNL     1      -6.371   7.065  69.225  1.00  0.00    -0.035 C  
HETATM   12  O   UNL     1      -5.202   9.004  69.934  1.00  0.00    -0.029 OA 
HETATM   13  C   UNL     1      -7.105   6.324  68.078  1.00  0.00    -0.082 C  
HETATM   14  H   UNL     1      -4.583   8.463  70.409  1.00  0.00     0.000 HD 
HETATM   15  O   UNL     1      -5.353   6.226  69.807  1.00  0.00    -0.012 OA 
HETATM   16  H   UNL     1      -5.765   5.422  70.102  1.00  0.00     0.000 HD 
BRANCH  13  17
HETATM   17  C   UNL     1      -7.745   5.025  68.630  1.00  0.00    -0.078 C  
HETATM   18  O   UNL     1      -6.842   3.921  68.570  1.00  0.00    -0.045 OA 
HETATM   19  H   UNL     1      -7.235   3.125  68.908  1.00  0.00     0.000 HD 
ENDBRANCH  13  17
ENDBRANCH   4   5
ENDBRANCH   3   4
ENDBRANCH   2   3
TORSDOF 4
ENDMDL
MODEL      265
REMARK 921   NORMALIZED FREE ENERGY PREDICTED BY IDOCK:   -0.26 KCAL/MOL
REMARK 922        TOTAL FREE ENERGY PREDICTED BY IDOCK:   -0.81 KCAL/MOL
REMARK 923 INTER-LIGAND FREE ENERGY PREDICTED BY IDOCK:   -1.28 KCAL/MOL
REMARK 924 INTRA-LIGAND FREE ENERGY PREDICTED BY IDOCK:    0.47 KCAL/MOL
REMARK 927      BINDING AFFINITY PREDICTED BY RF-SCORE:    0.00 PKD
ROOT
HETATM    1  C   UNL     1      -9.793   6.648  66.062  1.00  0.00     0.204 C  
HETATM    2  C   UNL     1      -8.703   6.026  66.922  1.00  0.00    -0.112 C  
ENDROOT
BRANCH   2   3
HETATM    3  C   UNL     1      -7.495   6.957  67.075  1.00  0.00    -0.087 C  
BRANCH   3   4
HETATM    4  C   UNL     1      -7.901   8.404  67.430  1.00  0.00    -0.099 C  
BRANCH   4   5
HETATM    5  N   UNL     1      -7.057   9.431  66.792  1.00  0.00    -0.082 NA 
HETATM    6  C   UNL     1      -7.459   9.735  65.408  1.00  0.00    -0.121 C  
HETATM    7  C   UNL     1      -8.769  10.536  65.298  1.00  0.00    -0.188 C  
HETATM    8  C   UNL     1      -8.593  11.868  66.035  1.00  0.00     0.132 C  
HETATM    9  O   UNL     1      -9.122  10.782  63.933  1.00  0.00    -0.190 OA 
HETATM   10  H   UNL     1      -9.931  11.277  63.865  1.00  0.00     0.000 HD 
HETATM   11  C   UNL     1      -8.146  11.634  67.480  1.00  0.00    -0.144 C  
HETATM   12  O   UNL     1      -9.818  12.621  66.116  1.00  0.00    -0.253 OA 
HETATM   13  C   UNL     1      -6.914  10.698  67.571  1.00  0.00    -0.083 C  
HETATM   14  H   UNL     1      -9.709  13.446  66.573  1.00  0.00     0.000 HD 
HETATM   15  O   UNL     1      -7.858  12.916  68.074  1.00  0.00    -0.124 OA 
HETATM   16  H   UNL     1      -7.580  12.771  68.971  1.00  0.00     0.000 HD 
BRANCH  13  17
HETATM   17  C   UNL     1      -6.515  10.512  69.057  1.00  0.00    -0.054 C  
HETATM   18  O   UNL     1      -7.377   9.593  69.728  1.00  0.00    -0.077 OA 
HETATM   19  H   UNL     1      -7.132   9.480  70.638  1.00  0.00     0.000 HD 
ENDBRANCH  13  17
ENDBRANCH   4   5
ENDBRANCH   3   4
ENDBRANCH   2   3
TORSDOF 4
ENDMDL
MODEL      266
REMARK 921   NORMALIZED FREE ENERGY PREDICTED BY IDOCK:    0.17 KCAL/MOL
REMARK 922        TOTAL FREE ENERGY PREDICTED BY IDOCK:   -0.28 KCAL/MOL
REMARK 923 INTER-LIGAND FREE ENERGY PREDICTED BY IDOCK:   -1.08 KCAL/MOL
REMARK 924 INTRA-LIGAND FREE ENERGY PREDICTED BY IDOCK:    0.80 KCAL/MOL
REMARK 927      BINDING AFFINITY PREDICTED BY RF-SCORE:    0.00 PKD
ROOT
HETATM    1  C   UNL     1      -7.393  12.817  66.424  1.00  0.00     1.312 C  
HETATM    2  C   UNL     1      -6.376  11.863  67.034  1.00  0.00    -0.141 C  
ENDROOT
BRANCH   2   3
HETATM    3  C   UNL     1      -6.798  11.397  68.431  1.00  0.00    -0.068 C  
BRANCH   3   4
HETATM    4  C   UNL     1      -7.761  10.190  68.390  1.00  0.00    -0.089 C  
BRANCH   4   5
HETATM    5  N   UNL     1      -9.051  10.482  67.740  1.00  0.00    -0.138 NA 
HETATM    6  C   UNL     1      -9.775   9.271  67.317  1.00  0.00    -0.167 C  
HETATM    7  C   UNL     1     -10.378   8.461  68.480  1.00  0.00    -0.200 C  
HETATM    8  C   UNL     1     -11.367   9.354  69.237  1.00  0.00     0.152 C  
HETATM    9  O   UNL     1     -11.047   7.287  68.012  1.00  0.00    -0.474 OA 
HETATM   10  H   UNL     1     -11.420   6.788  68.730  1.00  0.00     0.000 HD 
HETATM   11  C   UNL     1     -10.693  10.653  69.687  1.00  0.00    -0.244 C  
HETATM   12  O   UNL     1     -11.869   8.732  70.435  1.00  0.00    -0.470 OA 
HETATM   13  C   UNL     1      -9.961  11.370  68.524  1.00  0.00    -0.201 C  
HETATM   14  H   UNL     1     -12.482   9.286  70.904  1.00  0.00     0.000 HD 
HETATM   15  O   UNL     1     -11.702  11.508  70.260  1.00  0.00    -0.389 OA 
HETATM   16  H   UNL     1     -11.285  12.313  70.540  1.00  0.00     0.000 HD 
BRANCH  13  17
HETATM   17  C   UNL     1      -9.310  12.675  69.050  1.00  0.00     0.463 C  
HETATM   18  O   UNL     1     -10.290  13.640  69.431  1.00  0.00    -0.428 OA 
HETATM   19  H   UNL     1      -9.891  14.440  69.753  1.00  0.00     0.000 HD 
ENDBRANCH  13  17
ENDBRANCH   4   5
ENDBRANCH   3   4
ENDBRANCH   2   3
TORSDOF 4
ENDMDL
MODEL      267
REMARK 921   NORMALIZED FREE ENERGY PREDICTED BY IDOCK:    2.71 KCAL/MOL
REMARK 922        TOTAL FREE ENERGY PREDICTED BY IDOCK:    2.86 KCAL/MOL
REMARK 923 INTER-LIGAND FREE ENERGY PREDICTED BY IDOCK:    2.58 KCAL/MOL
REMARK 924 INTRA-LIGAND FREE ENERGY PREDICTED BY IDOCK:    0.28 KCAL/MOL
REMARK 927      BINDING AFFINITY PREDICTED BY RF-SCORE:    0.00 PKD
ROOT
HETATM    1  C   UNL     1     -11.231  16.129  73.610  1.00  0.00     1.561 C  
HETATM    2  C   UNL     1     -12.718  16.155  73.286  1.00  0.00    -0.607 C  
ENDROOT
BRANCH   2   3
HETATM    3  C   UNL     1     -13.047  15.315  72.047  1.00  0.00    -0.473 C  
BRANCH   3   4
HETATM    4  C   UNL     1     -11.951  15.399  70.963  1.00  0.00    -0.359 C  
BRANCH   4   5
HETATM    5  N   UNL     1     -10.998  14.275  70.993  1.00  0.00     0.648 NA 
HETATM    6  C   UNL     1     -11.531  13.081  71.671  1.00  0.00     2.933 C  
HETATM    7  C   UNL     1     -12.611  12.333  70.868  1.00  0.00    -0.241 C  
HETATM    8  C   UNL     1     -12.006  11.881  69.535  1.00  0.00    -0.292 C  
HETATM    9  O   UNL     1     -13.107  11.198  71.584  1.00  0.00    -0.449 OA 
HETATM   10  H   UNL     1     -13.774  10.737  71.088  1.00  0.00     0.000 HD 
HETATM   11  C   UNL     1     -11.404  13.069  68.780  1.00  0.00    -0.289 C  
HETATM   12  O   UNL     1     -12.985  11.305  68.650  1.00  0.00     0.531 OA 
HETATM   13  C   UNL     1     -10.434  13.896  69.663  1.00  0.00     0.349 C  
HETATM   14  H   UNL     1     -12.610  11.025  67.824  1.00  0.00     0.000 HD 
HETATM   15  O   UNL     1     -10.726  12.563  67.613  1.00  0.00    -0.212 OA 
HETATM   16  H   UNL     1     -10.352  13.299  67.145  1.00  0.00     0.000 HD 
BRANCH  13  17
HETATM   17  C   UNL     1      -9.860  15.074  68.834  1.00  0.00    -0.233 C  
HETATM   18  O   UNL     1     -10.868  15.716  68.055  1.00  0.00    -0.287 OA 
HETATM   19  H   UNL     1     -10.515  16.437  67.547  1.00  0.00     0.000 HD 
ENDBRANCH  13  17
ENDBRANCH   4   5
ENDBRANCH   3   4
ENDBRANCH   2   3
TORSDOF 4
ENDMDL
