MODEL        1
REMARK 921   NORMALIZED FREE ENERGY PREDICTED BY IDOCK:   -5.60 KCAL/MOL
REMARK 922        TOTAL FREE ENERGY PREDICTED BY IDOCK:   -7.63 KCAL/MOL
REMARK 923 INTER-LIGAND FREE ENERGY PREDICTED BY IDOCK:   -7.24 KCAL/MOL
REMARK 924 INTRA-LIGAND FREE ENERGY PREDICTED BY IDOCK:   -0.40 KCAL/MOL
REMARK 927      BINDING AFFINITY PREDICTED BY RF-SCORE:    0.00 PKD
ROOT
HETATM    1  C   UNL     1      -9.420  10.516  63.732  1.00  0.00    -0.342 C  
HETATM    2  C   UNL     1     -10.249  10.671  64.996  1.00  0.00    -0.310 C  
ENDROOT
BRANCH   2   3
HETATM    3  N   UNL     1     -10.593  12.063  65.293  1.00  0.00    -0.276 N  
HETATM    4  O   UNL     1      -8.776  12.231  66.724  1.00  0.00    -0.199 OA 
HETATM    5  C   UNL     1      -9.775  12.738  66.217  1.00  0.00    -0.262 C  
BRANCH   3   6
HETATM    6  C   UNL     1     -11.926  12.572  64.958  1.00  0.00    -0.427 C  
HETATM    7  C   UNL     1     -12.265  12.784  63.492  1.00  0.00    -0.613 C  
ENDBRANCH   3   6
BRANCH   5   8
HETATM    8  C   UNL     1     -10.130  14.183  66.594  1.00  0.00    -0.275 C  
HETATM    9  C   UNL     1      -9.002  15.220  66.456  1.00  0.00    -0.340 C  
HETATM   10  C   UNL     1     -10.088  15.182  65.428  1.00  0.00    -0.384 C  
BRANCH   8  11
HETATM   11  C   UNL     1     -10.955  14.316  67.883  1.00  0.00    -0.278 A  
HETATM   12  C   UNL     1     -10.999  15.556  68.551  1.00  0.00    -0.288 A  
HETATM   13  C   UNL     1     -11.519  15.681  69.842  1.00  0.00    -0.344 A  
HETATM   14  C   UNL     1     -11.550  13.224  68.539  1.00  0.00    -0.368 A  
HETATM   15  C   UNL     1     -12.030  14.565  70.493  1.00  0.00    -0.387 A  
HETATM   16  C   UNL     1     -12.068  13.341  69.834  1.00  0.00    -0.377 A  
ENDBRANCH   8  11
BRANCH  10  17
HETATM   17  C   UNL     1     -10.954  16.378  65.252  1.00  0.00    -0.195 C  
HETATM   18  N   UNL     1     -11.547  16.331  63.919  1.00  0.00    -1.573 NA 
HETATM   19  H2  UNL     1     -12.045  15.458  63.743  1.00  0.00     0.000 HD 
HETATM   20  H1  UNL     1     -12.141  17.151  63.799  1.00  0.00     0.000 HD 
ENDBRANCH  10  17
ENDBRANCH   5   8
ENDBRANCH   2   3
TORSDOF 5
ENDMDL
MODEL        2
REMARK 921   NORMALIZED FREE ENERGY PREDICTED BY IDOCK:   -5.28 KCAL/MOL
REMARK 922        TOTAL FREE ENERGY PREDICTED BY IDOCK:   -7.21 KCAL/MOL
REMARK 923 INTER-LIGAND FREE ENERGY PREDICTED BY IDOCK:   -6.84 KCAL/MOL
REMARK 924 INTRA-LIGAND FREE ENERGY PREDICTED BY IDOCK:   -0.37 KCAL/MOL
REMARK 927      BINDING AFFINITY PREDICTED BY RF-SCORE:    0.00 PKD
ROOT
HETATM    1  C   UNL     1     -10.394   9.727  66.378  1.00  0.00    -0.247 C  
HETATM    2  C   UNL     1      -9.926  10.668  65.281  1.00  0.00    -0.294 C  
ENDROOT
BRANCH   2   3
HETATM    3  N   UNL     1     -10.331  12.058  65.502  1.00  0.00    -0.254 N  
HETATM    4  O   UNL     1      -8.458  12.418  66.821  1.00  0.00    -0.174 OA 
HETATM    5  C   UNL     1      -9.507  12.837  66.334  1.00  0.00    -0.229 C  
BRANCH   3   6
HETATM    6  C   UNL     1     -11.705  12.472  65.205  1.00  0.00    -0.378 C  
HETATM    7  C   UNL     1     -12.165  12.444  63.757  1.00  0.00    -0.626 C  
ENDBRANCH   3   6
BRANCH   5   8
HETATM    8  C   UNL     1      -9.922  14.284  66.632  1.00  0.00    -0.279 C  
HETATM    9  C   UNL     1      -8.930  15.379  66.205  1.00  0.00    -0.341 C  
HETATM   10  C   UNL     1     -10.164  15.154  65.389  1.00  0.00    -0.402 C  
BRANCH   8  11
HETATM   11  C   UNL     1     -10.532  14.493  68.027  1.00  0.00    -0.236 A  
HETATM   12  C   UNL     1     -11.552  13.628  68.472  1.00  0.00    -0.371 A  
HETATM   13  C   UNL     1     -12.312  13.908  69.610  1.00  0.00    -0.301 A  
HETATM   14  C   UNL     1     -10.249  15.606  68.838  1.00  0.00    -0.214 A  
HETATM   15  C   UNL     1     -12.057  15.058  70.348  1.00  0.00    -0.384 A  
HETATM   16  C   UNL     1     -11.010  15.895  69.976  1.00  0.00    -0.361 A  
ENDBRANCH   8  11
BRANCH  10  17
HETATM   17  C   UNL     1     -11.150  16.259  65.256  1.00  0.00    -0.151 C  
HETATM   18  N   UNL     1     -11.562  16.349  63.859  1.00  0.00    -1.602 NA 
HETATM   19  H2  UNL     1     -11.915  15.463  63.498  1.00  0.00     0.000 HD 
HETATM   20  H1  UNL     1     -12.238  17.106  63.768  1.00  0.00     0.000 HD 
ENDBRANCH  10  17
ENDBRANCH   5   8
ENDBRANCH   2   3
TORSDOF 5
ENDMDL
MODEL        3
REMARK 921   NORMALIZED FREE ENERGY PREDICTED BY IDOCK:   -5.27 KCAL/MOL
REMARK 922        TOTAL FREE ENERGY PREDICTED BY IDOCK:   -7.21 KCAL/MOL
REMARK 923 INTER-LIGAND FREE ENERGY PREDICTED BY IDOCK:   -6.94 KCAL/MOL
REMARK 924 INTRA-LIGAND FREE ENERGY PREDICTED BY IDOCK:   -0.27 KCAL/MOL
REMARK 927      BINDING AFFINITY PREDICTED BY RF-SCORE:    0.00 PKD
ROOT
HETATM    1  C   UNL     1     -12.384  13.784  70.635  1.00  0.00    -0.445 C  
HETATM    2  C   UNL     1     -11.428  12.940  69.808  1.00  0.00    -0.132 C  
ENDROOT
BRANCH   2   3
HETATM    3  N   UNL     1     -11.143  13.515  68.491  1.00  0.00    -0.260 N  
HETATM    4  O   UNL     1     -12.254  11.761  67.460  1.00  0.00    -0.526 OA 
HETATM    5  C   UNL     1     -11.596  12.795  67.371  1.00  0.00    -0.356 C  
BRANCH   3   6
HETATM    6  C   UNL     1     -10.112  14.547  68.355  1.00  0.00    -0.241 C  
HETATM    7  C   UNL     1      -8.657  14.108  68.333  1.00  0.00    -0.176 C  
ENDBRANCH   3   6
BRANCH   5   8
HETATM    8  C   UNL     1     -11.274  13.337  65.971  1.00  0.00    -0.316 C  
HETATM    9  C   UNL     1     -12.461  13.897  65.168  1.00  0.00    -0.479 C  
HETATM   10  C   UNL     1     -11.493  14.848  65.798  1.00  0.00    -0.281 C  
BRANCH   8  11
HETATM   11  C   UNL     1     -10.320  12.452  65.154  1.00  0.00    -0.313 A  
HETATM   12  C   UNL     1     -10.518  12.323  63.764  1.00  0.00    -0.476 A  
HETATM   13  C   UNL     1      -9.850  11.353  63.012  1.00  0.00    -0.373 A  
HETATM   14  C   UNL     1      -9.345  11.623  65.733  1.00  0.00    -0.220 A  
HETATM   15  C   UNL     1      -8.947  10.497  63.630  1.00  0.00    -0.230 A  
HETATM   16  C   UNL     1      -8.676  10.646  64.986  1.00  0.00    -0.186 A  
ENDBRANCH   8  11
BRANCH  10  17
HETATM   17  C   UNL     1     -10.713  15.764  64.926  1.00  0.00    -0.361 C  
HETATM   18  N   UNL     1     -11.583  16.240  63.855  1.00  0.00    -1.573 NA 
HETATM   19  H2  UNL     1     -12.439  16.670  64.209  1.00  0.00     0.000 HD 
HETATM   20  H1  UNL     1     -11.048  16.869  63.257  1.00  0.00     0.000 HD 
ENDBRANCH  10  17
ENDBRANCH   5   8
ENDBRANCH   2   3
TORSDOF 5
ENDMDL
MODEL        4
REMARK 921   NORMALIZED FREE ENERGY PREDICTED BY IDOCK:   -5.14 KCAL/MOL
REMARK 922        TOTAL FREE ENERGY PREDICTED BY IDOCK:   -7.03 KCAL/MOL
REMARK 923 INTER-LIGAND FREE ENERGY PREDICTED BY IDOCK:   -6.48 KCAL/MOL
REMARK 924 INTRA-LIGAND FREE ENERGY PREDICTED BY IDOCK:   -0.56 KCAL/MOL
REMARK 927      BINDING AFFINITY PREDICTED BY RF-SCORE:    0.00 PKD
ROOT
HETATM    1  C   UNL     1      -8.998  17.418  68.339  1.00  0.00    -0.277 C  
HETATM    2  C   UNL     1     -10.399  17.406  67.751  1.00  0.00    -0.358 C  
ENDROOT
BRANCH   2   3
HETATM    3  N   UNL     1     -10.871  16.063  67.411  1.00  0.00    -0.307 N  
HETATM    4  O   UNL     1     -10.194  16.357  65.212  1.00  0.00    -0.575 OA 
HETATM    5  C   UNL     1     -10.734  15.661  66.070  1.00  0.00    -0.317 C  
BRANCH   3   6
HETATM    6  C   UNL     1     -11.783  15.360  68.316  1.00  0.00    -0.297 C  
HETATM    7  C   UNL     1     -11.211  14.767  69.593  1.00  0.00    -0.305 C  
ENDBRANCH   3   6
BRANCH   5   8
HETATM    8  C   UNL     1     -11.262  14.279  65.660  1.00  0.00    -0.314 C  
HETATM    9  C   UNL     1     -12.787  14.151  65.506  1.00  0.00    -0.404 C  
HETATM   10  C   UNL     1     -11.934  14.229  64.279  1.00  0.00    -0.449 C  
BRANCH   8  11
HETATM   11  C   UNL     1     -10.601  13.104  66.398  1.00  0.00    -0.293 A  
HETATM   12  C   UNL     1     -11.410  12.083  66.935  1.00  0.00    -0.400 A  
HETATM   13  C   UNL     1     -10.902  11.128  67.820  1.00  0.00    -0.288 A  
HETATM   14  C   UNL     1      -9.233  13.060  66.717  1.00  0.00    -0.229 A  
HETATM   15  C   UNL     1      -9.559  11.159  68.176  1.00  0.00    -0.181 A  
HETATM   16  C   UNL     1      -8.719  12.111  67.607  1.00  0.00    -0.172 A  
ENDBRANCH   8  11
BRANCH  10  17
HETATM   17  C   UNL     1     -11.931  13.084  63.331  1.00  0.00    -0.520 C  
HETATM   18  N   UNL     1     -13.010  12.173  63.699  1.00  0.00    -0.790 NA 
HETATM   19  H2  UNL     1     -13.916  12.638  63.747  1.00  0.00     0.000 HD 
HETATM   20  H1  UNL     1     -13.007  11.387  63.048  1.00  0.00     0.000 HD 
ENDBRANCH  10  17
ENDBRANCH   5   8
ENDBRANCH   2   3
TORSDOF 5
ENDMDL
MODEL        5
REMARK 921   NORMALIZED FREE ENERGY PREDICTED BY IDOCK:   -5.00 KCAL/MOL
REMARK 922        TOTAL FREE ENERGY PREDICTED BY IDOCK:   -6.86 KCAL/MOL
REMARK 923 INTER-LIGAND FREE ENERGY PREDICTED BY IDOCK:   -6.52 KCAL/MOL
REMARK 924 INTRA-LIGAND FREE ENERGY PREDICTED BY IDOCK:   -0.34 KCAL/MOL
REMARK 927      BINDING AFFINITY PREDICTED BY RF-SCORE:    0.00 PKD
ROOT
HETATM    1  C   UNL     1     -11.789  12.067  63.611  1.00  0.00    -0.602 C  
HETATM    2  C   UNL     1     -12.640  12.488  64.797  1.00  0.00    -0.413 C  
ENDROOT
BRANCH   2   3
HETATM    3  N   UNL     1     -11.880  13.191  65.832  1.00  0.00    -0.384 N  
HETATM    4  O   UNL     1     -11.803  11.263  67.118  1.00  0.00    -0.524 OA 
HETATM    5  C   UNL     1     -11.540  12.456  66.982  1.00  0.00    -0.365 C  
BRANCH   3   6
HETATM    6  C   UNL     1     -11.837  14.656  65.837  1.00  0.00    -0.272 C  
HETATM    7  C   UNL     1     -10.909  15.349  64.854  1.00  0.00    -0.445 C  
ENDBRANCH   3   6
BRANCH   5   8
HETATM    8  C   UNL     1     -10.787  13.169  68.114  1.00  0.00    -0.271 C  
HETATM    9  C   UNL     1      -9.473  12.515  68.576  1.00  0.00    -0.100 C  
HETATM   10  C   UNL     1      -9.416  13.738  67.717  1.00  0.00    -0.216 C  
BRANCH   8  11
HETATM   11  C   UNL     1     -11.684  13.662  69.260  1.00  0.00    -0.376 A  
HETATM   12  C   UNL     1     -11.942  15.042  69.392  1.00  0.00    -0.336 A  
HETATM   13  C   UNL     1     -12.536  15.574  70.538  1.00  0.00    -0.472 A  
HETATM   14  C   UNL     1     -12.143  12.832  70.297  1.00  0.00    -0.373 A  
HETATM   15  C   UNL     1     -12.908  14.733  71.580  1.00  0.00    -0.405 A  
HETATM   16  C   UNL     1     -12.733  13.359  71.451  1.00  0.00    -0.411 A  
ENDBRANCH   8  11
BRANCH  10  17
HETATM   17  C   UNL     1      -8.775  14.967  68.256  1.00  0.00    -0.166 C  
HETATM   18  N   UNL     1      -8.304  14.690  69.610  1.00  0.00    -0.390 NA 
HETATM   19  H2  UNL     1      -7.690  13.877  69.651  1.00  0.00     0.000 HD 
HETATM   20  H1  UNL     1      -7.865  15.532  69.979  1.00  0.00     0.000 HD 
ENDBRANCH  10  17
ENDBRANCH   5   8
ENDBRANCH   2   3
TORSDOF 5
ENDMDL
MODEL        6
REMARK 921   NORMALIZED FREE ENERGY PREDICTED BY IDOCK:   -4.97 KCAL/MOL
REMARK 922        TOTAL FREE ENERGY PREDICTED BY IDOCK:   -6.82 KCAL/MOL
REMARK 923 INTER-LIGAND FREE ENERGY PREDICTED BY IDOCK:   -6.47 KCAL/MOL
REMARK 924 INTRA-LIGAND FREE ENERGY PREDICTED BY IDOCK:   -0.35 KCAL/MOL
REMARK 927      BINDING AFFINITY PREDICTED BY RF-SCORE:    0.00 PKD
ROOT
HETATM    1  C   UNL     1      -8.904  17.581  68.031  1.00  0.00    -0.258 C  
HETATM    2  C   UNL     1     -10.359  17.477  67.607  1.00  0.00    -0.360 C  
ENDROOT
BRANCH   2   3
HETATM    3  N   UNL     1     -10.795  16.098  67.377  1.00  0.00    -0.302 N  
HETATM    4  O   UNL     1     -10.213  16.262  65.139  1.00  0.00    -0.566 OA 
HETATM    5  C   UNL     1     -10.695  15.609  66.062  1.00  0.00    -0.317 C  
BRANCH   3   6
HETATM    6  C   UNL     1     -11.647  15.430  68.364  1.00  0.00    -0.354 C  
HETATM    7  C   UNL     1     -11.049  15.097  69.720  1.00  0.00    -0.295 C  
ENDBRANCH   3   6
BRANCH   5   8
HETATM    8  C   UNL     1     -11.188  14.186  65.768  1.00  0.00    -0.312 C  
HETATM    9  C   UNL     1     -12.698  14.026  65.519  1.00  0.00    -0.517 C  
HETATM   10  C   UNL     1     -11.759  13.980  64.356  1.00  0.00    -0.415 C  
BRANCH   8  11
HETATM   11  C   UNL     1     -10.580  13.105  66.674  1.00  0.00    -0.284 A  
HETATM   12  C   UNL     1      -9.178  13.000  66.780  1.00  0.00    -0.229 A  
HETATM   13  C   UNL     1      -8.565  11.898  67.381  1.00  0.00    -0.164 A  
HETATM   14  C   UNL     1     -11.337  12.094  67.292  1.00  0.00    -0.398 A  
HETATM   15  C   UNL     1      -9.342  10.877  67.914  1.00  0.00    -0.159 A  
HETATM   16  C   UNL     1     -10.729  10.985  67.891  1.00  0.00    -0.263 A  
ENDBRANCH   8  11
BRANCH  10  17
HETATM   17  C   UNL     1     -11.684  12.739  63.540  1.00  0.00    -0.530 C  
HETATM   18  N   UNL     1     -13.023  12.167  63.441  1.00  0.00    -0.747 NA 
HETATM   19  H2  UNL     1     -13.707  12.832  63.080  1.00  0.00     0.000 HD 
HETATM   20  H1  UNL     1     -12.971  11.316  62.882  1.00  0.00     0.000 HD 
ENDBRANCH  10  17
ENDBRANCH   5   8
ENDBRANCH   2   3
TORSDOF 5
ENDMDL
MODEL        7
REMARK 921   NORMALIZED FREE ENERGY PREDICTED BY IDOCK:   -4.89 KCAL/MOL
REMARK 922        TOTAL FREE ENERGY PREDICTED BY IDOCK:   -6.72 KCAL/MOL
REMARK 923 INTER-LIGAND FREE ENERGY PREDICTED BY IDOCK:   -6.77 KCAL/MOL
REMARK 924 INTRA-LIGAND FREE ENERGY PREDICTED BY IDOCK:    0.05 KCAL/MOL
REMARK 927      BINDING AFFINITY PREDICTED BY RF-SCORE:    0.00 PKD
ROOT
HETATM    1  C   UNL     1     -10.026   9.548  65.873  1.00  0.00    -0.342 C  
HETATM    2  C   UNL     1     -10.784  10.193  67.021  1.00  0.00    -0.196 C  
ENDROOT
BRANCH   2   3
HETATM    3  N   UNL     1     -10.414  11.592  67.243  1.00  0.00    -0.210 N  
HETATM    4  O   UNL     1     -12.142  12.292  65.865  1.00  0.00    -0.609 OA 
HETATM    5  C   UNL     1     -11.172  12.566  66.568  1.00  0.00    -0.307 C  
BRANCH   3   6
HETATM    6  C   UNL     1      -9.099  11.918  67.802  1.00  0.00    -0.180 C  
HETATM    7  C   UNL     1      -8.539  11.015  68.888  1.00  0.00    -0.122 C  
ENDBRANCH   3   6
BRANCH   5   8
HETATM    8  C   UNL     1     -10.785  14.042  66.733  1.00  0.00    -0.285 C  
HETATM    9  C   UNL     1      -9.361  14.426  66.296  1.00  0.00    -0.261 C  
HETATM   10  C   UNL     1     -10.517  14.789  65.418  1.00  0.00    -0.401 C  
BRANCH   8  11
HETATM   11  C   UNL     1     -11.226  14.667  68.065  1.00  0.00    -0.307 A  
HETATM   12  C   UNL     1     -10.552  15.806  68.552  1.00  0.00    -0.253 A  
HETATM   13  C   UNL     1     -10.735  16.269  69.856  1.00  0.00    -0.322 A  
HETATM   14  C   UNL     1     -12.168  14.075  68.925  1.00  0.00    -0.261 A  
HETATM   15  C   UNL     1     -11.618  15.615  70.707  1.00  0.00    -0.412 A  
HETATM   16  C   UNL     1     -12.352  14.531  70.235  1.00  0.00    -0.408 A  
ENDBRANCH   8  11
BRANCH  10  17
HETATM   17  C   UNL     1     -10.787  16.225  65.141  1.00  0.00    -0.318 C  
HETATM   18  N   UNL     1     -11.564  16.322  63.909  1.00  0.00    -1.573 NA 
HETATM   19  H2  UNL     1     -12.416  15.762  63.938  1.00  0.00     0.000 HD 
HETATM   20  H1  UNL     1     -11.749  17.307  63.719  1.00  0.00     0.000 HD 
ENDBRANCH  10  17
ENDBRANCH   5   8
ENDBRANCH   2   3
TORSDOF 5
ENDMDL
MODEL        8
REMARK 921   NORMALIZED FREE ENERGY PREDICTED BY IDOCK:   -4.89 KCAL/MOL
REMARK 922        TOTAL FREE ENERGY PREDICTED BY IDOCK:   -6.71 KCAL/MOL
REMARK 923 INTER-LIGAND FREE ENERGY PREDICTED BY IDOCK:   -6.43 KCAL/MOL
REMARK 924 INTRA-LIGAND FREE ENERGY PREDICTED BY IDOCK:   -0.29 KCAL/MOL
REMARK 927      BINDING AFFINITY PREDICTED BY RF-SCORE:    0.00 PKD
ROOT
HETATM    1  C   UNL     1      -7.683  10.256  65.029  1.00  0.00    -0.129 C  
HETATM    2  C   UNL     1      -8.388  10.701  66.300  1.00  0.00    -0.155 C  
ENDROOT
BRANCH   2   3
HETATM    3  N   UNL     1      -9.366  11.767  66.074  1.00  0.00    -0.229 N  
HETATM    4  O   UNL     1      -8.023  13.273  67.217  1.00  0.00    -0.171 OA 
HETATM    5  C   UNL     1      -9.071  13.028  66.622  1.00  0.00    -0.176 C  
BRANCH   3   6
HETATM    6  C   UNL     1     -10.730  11.428  65.660  1.00  0.00    -0.242 C  
HETATM    7  C   UNL     1     -11.003  11.238  64.177  1.00  0.00    -0.376 C  
ENDBRANCH   3   6
BRANCH   5   8
HETATM    8  C   UNL     1     -10.094  14.160  66.452  1.00  0.00    -0.299 C  
HETATM    9  C   UNL     1      -9.588  15.437  65.758  1.00  0.00    -0.368 C  
HETATM   10  C   UNL     1     -10.456  14.487  64.995  1.00  0.00    -0.454 C  
BRANCH   8  11
HETATM   11  C   UNL     1     -10.965  14.418  67.691  1.00  0.00    -0.294 A  
HETATM   12  C   UNL     1     -11.408  15.728  67.964  1.00  0.00    -0.310 A  
HETATM   13  C   UNL     1     -11.987  16.071  69.188  1.00  0.00    -0.187 A  
HETATM   14  C   UNL     1     -11.222  13.447  68.674  1.00  0.00    -0.304 A  
HETATM   15  C   UNL     1     -12.156  15.102  70.170  1.00  0.00    -0.384 A  
HETATM   16  C   UNL     1     -11.795  13.784  69.905  1.00  0.00    -0.394 A  
ENDBRANCH   8  11
BRANCH  10  17
HETATM   17  C   UNL     1     -11.773  14.962  64.493  1.00  0.00    -0.382 C  
HETATM   18  N   UNL     1     -11.587  16.264  63.861  1.00  0.00    -1.573 NA 
HETATM   19  H2  UNL     1     -10.873  16.248  63.132  1.00  0.00     0.000 HD 
HETATM   20  H1  UNL     1     -12.490  16.590  63.517  1.00  0.00     0.000 HD 
ENDBRANCH  10  17
ENDBRANCH   5   8
ENDBRANCH   2   3
TORSDOF 5
ENDMDL
MODEL        9
REMARK 921   NORMALIZED FREE ENERGY PREDICTED BY IDOCK:   -4.89 KCAL/MOL
REMARK 922        TOTAL FREE ENERGY PREDICTED BY IDOCK:   -6.71 KCAL/MOL
REMARK 923 INTER-LIGAND FREE ENERGY PREDICTED BY IDOCK:   -6.30 KCAL/MOL
REMARK 924 INTRA-LIGAND FREE ENERGY PREDICTED BY IDOCK:   -0.41 KCAL/MOL
REMARK 927      BINDING AFFINITY PREDICTED BY RF-SCORE:    0.00 PKD
ROOT
HETATM    1  C   UNL     1     -10.650  17.082  68.528  1.00  0.00    -0.370 C  
HETATM    2  C   UNL     1     -10.020  15.912  69.264  1.00  0.00    -0.254 C  
ENDROOT
BRANCH   2   3
HETATM    3  N   UNL     1     -10.473  14.610  68.772  1.00  0.00    -0.241 N  
HETATM    4  O   UNL     1      -8.680  14.516  67.303  1.00  0.00    -0.186 OA 
HETATM    5  C   UNL     1      -9.713  14.018  67.746  1.00  0.00    -0.228 C  
BRANCH   3   6
HETATM    6  C   UNL     1     -11.839  14.161  69.049  1.00  0.00    -0.348 C  
HETATM    7  C   UNL     1     -12.245  13.951  70.498  1.00  0.00    -0.443 C  
ENDBRANCH   3   6
BRANCH   5   8
HETATM    8  C   UNL     1     -10.182  12.676  67.167  1.00  0.00    -0.230 C  
HETATM    9  C   UNL     1      -9.124  11.561  67.088  1.00  0.00    -0.167 C  
HETATM   10  C   UNL     1     -10.167  11.504  68.160  1.00  0.00    -0.205 C  
BRANCH   8  11
HETATM   11  C   UNL     1     -11.062  12.800  65.914  1.00  0.00    -0.318 A  
HETATM   12  C   UNL     1     -11.019  11.786  64.935  1.00  0.00    -0.358 A  
HETATM   13  C   UNL     1     -11.597  11.953  63.674  1.00  0.00    -0.559 A  
HETATM   14  C   UNL     1     -11.800  13.953  65.596  1.00  0.00    -0.383 A  
HETATM   15  C   UNL     1     -12.254  13.138  63.365  1.00  0.00    -0.521 A  
HETATM   16  C   UNL     1     -12.376  14.129  64.333  1.00  0.00    -0.410 A  
ENDBRANCH   8  11
BRANCH  10  17
HETATM   17  C   UNL     1     -11.106  10.352  68.189  1.00  0.00    -0.285 C  
HETATM   18  N   UNL     1     -12.374  10.801  68.757  1.00  0.00    -0.792 NA 
HETATM   19  H2  UNL     1     -12.759  11.608  68.265  1.00  0.00     0.000 HD 
HETATM   20  H1  UNL     1     -13.018  10.011  68.777  1.00  0.00     0.000 HD 
ENDBRANCH  10  17
ENDBRANCH   5   8
ENDBRANCH   2   3
TORSDOF 5
ENDMDL
MODEL       10
REMARK 921   NORMALIZED FREE ENERGY PREDICTED BY IDOCK:   -4.87 KCAL/MOL
REMARK 922        TOTAL FREE ENERGY PREDICTED BY IDOCK:   -6.68 KCAL/MOL
REMARK 923 INTER-LIGAND FREE ENERGY PREDICTED BY IDOCK:   -6.45 KCAL/MOL
REMARK 924 INTRA-LIGAND FREE ENERGY PREDICTED BY IDOCK:   -0.23 KCAL/MOL
REMARK 927      BINDING AFFINITY PREDICTED BY RF-SCORE:    0.00 PKD
ROOT
HETATM    1  C   UNL     1     -10.330  10.353  69.089  1.00  0.00    -0.241 C  
HETATM    2  C   UNL     1      -9.856  10.614  67.669  1.00  0.00    -0.167 C  
ENDROOT
BRANCH   2   3
HETATM    3  N   UNL     1      -9.906  12.029  67.295  1.00  0.00    -0.191 N  
HETATM    4  O   UNL     1     -12.034  11.746  66.420  1.00  0.00    -0.515 OA 
HETATM    5  C   UNL     1     -11.066  12.472  66.635  1.00  0.00    -0.283 C  
BRANCH   3   6
HETATM    6  C   UNL     1      -8.670  12.815  67.253  1.00  0.00    -0.200 C  
HETATM    7  C   UNL     1      -7.349  12.082  67.417  1.00  0.00    -0.150 C  
ENDBRANCH   3   6
BRANCH   5   8
HETATM    8  C   UNL     1     -11.138  13.937  66.181  1.00  0.00    -0.299 C  
HETATM    9  C   UNL     1     -10.221  14.333  65.011  1.00  0.00    -0.402 C  
HETATM   10  C   UNL     1     -11.684  14.145  64.760  1.00  0.00    -0.416 C  
BRANCH   8  11
HETATM   11  C   UNL     1     -11.170  14.955  67.331  1.00  0.00    -0.343 A  
HETATM   12  C   UNL     1     -10.415  16.141  67.225  1.00  0.00    -0.309 A  
HETATM   13  C   UNL     1     -10.205  16.982  68.320  1.00  0.00    -0.326 A  
HETATM   14  C   UNL     1     -11.784  14.707  68.570  1.00  0.00    -0.348 A  
HETATM   15  C   UNL     1     -10.764  16.666  69.553  1.00  0.00    -0.306 A  
HETATM   16  C   UNL     1     -11.573  15.541  69.673  1.00  0.00    -0.359 A  
ENDBRANCH   8  11
BRANCH  10  17
HETATM   17  C   UNL     1     -12.486  15.301  64.277  1.00  0.00     0.004 C  
HETATM   18  N   UNL     1     -11.571  16.367  63.881  1.00  0.00    -1.602 NA 
HETATM   19  H2  UNL     1     -10.881  16.057  63.197  1.00  0.00     0.000 HD 
HETATM   20  H1  UNL     1     -12.121  17.159  63.550  1.00  0.00     0.000 HD 
ENDBRANCH  10  17
ENDBRANCH   5   8
ENDBRANCH   2   3
TORSDOF 5
ENDMDL
MODEL       11
REMARK 921   NORMALIZED FREE ENERGY PREDICTED BY IDOCK:   -4.85 KCAL/MOL
REMARK 922        TOTAL FREE ENERGY PREDICTED BY IDOCK:   -6.66 KCAL/MOL
REMARK 923 INTER-LIGAND FREE ENERGY PREDICTED BY IDOCK:   -6.16 KCAL/MOL
REMARK 924 INTRA-LIGAND FREE ENERGY PREDICTED BY IDOCK:   -0.50 KCAL/MOL
REMARK 927      BINDING AFFINITY PREDICTED BY RF-SCORE:    0.00 PKD
ROOT
HETATM    1  C   UNL     1      -7.025  10.715  66.203  1.00  0.00    -0.135 C  
HETATM    2  C   UNL     1      -8.119  10.955  67.230  1.00  0.00    -0.123 C  
ENDROOT
BRANCH   2   3
HETATM    3  N   UNL     1      -8.747  12.272  67.107  1.00  0.00    -0.186 N  
HETATM    4  O   UNL     1     -10.543  11.335  65.978  1.00  0.00    -0.258 OA 
HETATM    5  C   UNL     1      -9.972  12.331  66.418  1.00  0.00    -0.228 C  
BRANCH   3   6
HETATM    6  C   UNL     1      -7.953  13.482  67.333  1.00  0.00    -0.156 C  
HETATM    7  C   UNL     1      -7.837  14.009  68.753  1.00  0.00    -0.097 C  
ENDBRANCH   3   6
BRANCH   5   8
HETATM    8  C   UNL     1     -10.639  13.699  66.223  1.00  0.00    -0.289 C  
HETATM    9  C   UNL     1      -9.852  14.729  65.395  1.00  0.00    -0.295 C  
HETATM   10  C   UNL     1     -11.019  14.030  64.771  1.00  0.00    -0.410 C  
BRANCH   8  11
HETATM   11  C   UNL     1     -11.290  14.273  67.491  1.00  0.00    -0.346 A  
HETATM   12  C   UNL     1     -11.141  15.644  67.784  1.00  0.00    -0.311 A  
HETATM   13  C   UNL     1     -11.490  16.173  69.029  1.00  0.00    -0.323 A  
HETATM   14  C   UNL     1     -11.898  13.479  68.478  1.00  0.00    -0.398 A  
HETATM   15  C   UNL     1     -12.018  15.345  70.011  1.00  0.00    -0.383 A  
HETATM   16  C   UNL     1     -12.245  14.001  69.729  1.00  0.00    -0.396 A  
ENDBRANCH   8  11
BRANCH  10  17
HETATM   17  C   UNL     1     -12.184  14.837  64.320  1.00  0.00    -0.379 C  
HETATM   18  N   UNL     1     -11.706  16.154  63.910  1.00  0.00    -1.452 NA 
HETATM   19  H2  UNL     1     -10.969  16.102  63.206  1.00  0.00     0.000 HD 
HETATM   20  H1  UNL     1     -12.505  16.707  63.601  1.00  0.00     0.000 HD 
ENDBRANCH  10  17
ENDBRANCH   5   8
ENDBRANCH   2   3
TORSDOF 5
ENDMDL
MODEL       12
REMARK 921   NORMALIZED FREE ENERGY PREDICTED BY IDOCK:   -4.84 KCAL/MOL
REMARK 922        TOTAL FREE ENERGY PREDICTED BY IDOCK:   -6.65 KCAL/MOL
REMARK 923 INTER-LIGAND FREE ENERGY PREDICTED BY IDOCK:   -6.22 KCAL/MOL
REMARK 924 INTRA-LIGAND FREE ENERGY PREDICTED BY IDOCK:   -0.42 KCAL/MOL
REMARK 927      BINDING AFFINITY PREDICTED BY RF-SCORE:    0.00 PKD
ROOT
HETATM    1  C   UNL     1     -10.550  18.916  67.420  1.00  0.00    -0.534 C  
HETATM    2  C   UNL     1     -10.362  17.606  68.167  1.00  0.00    -0.386 C  
ENDROOT
BRANCH   2   3
HETATM    3  N   UNL     1     -10.442  16.430  67.299  1.00  0.00    -0.303 N  
HETATM    4  O   UNL     1     -12.114  15.532  68.632  1.00  0.00    -0.271 OA 
HETATM    5  C   UNL     1     -11.359  15.429  67.667  1.00  0.00    -0.290 C  
BRANCH   3   6
HETATM    6  C   UNL     1      -9.358  16.146  66.355  1.00  0.00    -0.298 C  
HETATM    7  C   UNL     1      -7.952  15.982  66.907  1.00  0.00    -0.283 C  
ENDBRANCH   3   6
BRANCH   5   8
HETATM    8  C   UNL     1     -11.439  14.156  66.812  1.00  0.00    -0.383 C  
HETATM    9  C   UNL     1     -12.768  13.912  66.077  1.00  0.00    -0.410 C  
HETATM   10  C   UNL     1     -11.585  14.402  65.303  1.00  0.00    -0.353 C  
BRANCH   8  11
HETATM   11  C   UNL     1     -10.848  12.906  67.481  1.00  0.00    -0.256 A  
HETATM   12  C   UNL     1     -11.706  12.008  68.149  1.00  0.00    -0.398 A  
HETATM   13  C   UNL     1     -11.215  10.998  68.979  1.00  0.00    -0.320 A  
HETATM   14  C   UNL     1      -9.468  12.675  67.613  1.00  0.00    -0.189 A  
HETATM   15  C   UNL     1      -9.845  10.845  69.148  1.00  0.00    -0.164 A  
HETATM   16  C   UNL     1      -8.969  11.669  68.448  1.00  0.00    -0.176 A  
ENDBRANCH   8  11
BRANCH  10  17
HETATM   17  C   UNL     1     -11.040  13.556  64.208  1.00  0.00    -0.351 C  
HETATM   18  N   UNL     1     -12.105  13.304  63.242  1.00  0.00    -0.860 NA 
HETATM   19  H2  UNL     1     -12.531  14.164  62.896  1.00  0.00     0.000 HD 
HETATM   20  H1  UNL     1     -11.731  12.723  62.491  1.00  0.00     0.000 HD 
ENDBRANCH  10  17
ENDBRANCH   5   8
ENDBRANCH   2   3
TORSDOF 5
ENDMDL
MODEL       13
REMARK 921   NORMALIZED FREE ENERGY PREDICTED BY IDOCK:   -4.83 KCAL/MOL
REMARK 922        TOTAL FREE ENERGY PREDICTED BY IDOCK:   -6.64 KCAL/MOL
REMARK 923 INTER-LIGAND FREE ENERGY PREDICTED BY IDOCK:   -6.31 KCAL/MOL
REMARK 924 INTRA-LIGAND FREE ENERGY PREDICTED BY IDOCK:   -0.33 KCAL/MOL
REMARK 927      BINDING AFFINITY PREDICTED BY RF-SCORE:    0.00 PKD
ROOT
HETATM    1  C   UNL     1      -7.888  17.562  66.902  1.00  0.00    -0.258 C  
HETATM    2  C   UNL     1      -8.411  17.513  68.328  1.00  0.00    -0.265 C  
ENDROOT
BRANCH   2   3
HETATM    3  N   UNL     1      -9.053  16.241  68.664  1.00  0.00    -0.218 N  
HETATM    4  O   UNL     1     -11.130  17.121  68.127  1.00  0.00    -0.315 OA 
HETATM    5  C   UNL     1     -10.453  16.184  68.546  1.00  0.00    -0.269 C  
BRANCH   3   6
HETATM    6  C   UNL     1      -8.324  15.243  69.451  1.00  0.00    -0.232 C  
HETATM    7  C   UNL     1      -7.283  14.392  68.742  1.00  0.00    -0.128 C  
ENDBRANCH   3   6
BRANCH   5   8
HETATM    8  C   UNL     1     -11.171  14.885  68.937  1.00  0.00    -0.282 C  
HETATM    9  C   UNL     1     -12.119  14.287  67.883  1.00  0.00    -0.296 C  
HETATM   10  C   UNL     1     -10.780  13.656  68.101  1.00  0.00    -0.260 C  
BRANCH   8  11
HETATM   11  C   UNL     1     -11.731  14.876  70.367  1.00  0.00    -0.347 A  
HETATM   12  C   UNL     1     -12.620  13.853  70.756  1.00  0.00    -0.424 A  
HETATM   13  C   UNL     1     -13.350  13.923  71.945  1.00  0.00    -0.496 A  
HETATM   14  C   UNL     1     -11.540  15.927  71.281  1.00  0.00    -0.509 A  
HETATM   15  C   UNL     1     -13.194  15.014  72.791  1.00  0.00    -0.565 A  
HETATM   16  C   UNL     1     -12.272  16.006  72.471  1.00  0.00    -0.612 A  
ENDBRANCH   8  11
BRANCH  10  17
HETATM   17  C   UNL     1     -10.716  12.246  68.571  1.00  0.00    -0.237 C  
HETATM   18  N   UNL     1     -11.863  11.524  68.030  1.00  0.00    -0.601 NA 
HETATM   19  H2  UNL     1     -11.927  11.596  67.014  1.00  0.00     0.000 HD 
HETATM   20  H1  UNL     1     -11.819  10.558  68.352  1.00  0.00     0.000 HD 
ENDBRANCH  10  17
ENDBRANCH   5   8
ENDBRANCH   2   3
TORSDOF 5
ENDMDL
MODEL       14
REMARK 921   NORMALIZED FREE ENERGY PREDICTED BY IDOCK:   -4.80 KCAL/MOL
REMARK 922        TOTAL FREE ENERGY PREDICTED BY IDOCK:   -6.60 KCAL/MOL
REMARK 923 INTER-LIGAND FREE ENERGY PREDICTED BY IDOCK:   -6.35 KCAL/MOL
REMARK 924 INTRA-LIGAND FREE ENERGY PREDICTED BY IDOCK:   -0.24 KCAL/MOL
REMARK 927      BINDING AFFINITY PREDICTED BY RF-SCORE:    0.00 PKD
ROOT
HETATM    1  C   UNL     1     -10.613  18.228  66.387  1.00  0.00    -0.318 C  
HETATM    2  C   UNL     1     -10.444  17.211  67.503  1.00  0.00    -0.348 C  
ENDROOT
BRANCH   2   3
HETATM    3  N   UNL     1     -10.153  15.862  67.015  1.00  0.00    -0.262 N  
HETATM    4  O   UNL     1     -11.736  14.974  68.457  1.00  0.00    -0.320 OA 
HETATM    5  C   UNL     1     -10.863  14.803  67.608  1.00  0.00    -0.285 C  
BRANCH   3   6
HETATM    6  C   UNL     1      -8.924  15.611  66.257  1.00  0.00    -0.342 C  
HETATM    7  C   UNL     1      -7.638  16.262  66.739  1.00  0.00    -0.285 C  
ENDBRANCH   3   6
BRANCH   5   8
HETATM    8  C   UNL     1     -10.552  13.368  67.160  1.00  0.00    -0.259 C  
HETATM    9  C   UNL     1      -9.144  12.843  67.486  1.00  0.00    -0.191 C  
HETATM   10  C   UNL     1     -10.304  12.375  68.306  1.00  0.00    -0.232 C  
BRANCH   8  11
HETATM   11  C   UNL     1     -11.042  13.027  65.744  1.00  0.00    -0.302 A  
HETATM   12  C   UNL     1     -12.418  13.105  65.451  1.00  0.00    -0.535 A  
HETATM   13  C   UNL     1     -12.952  12.577  64.273  1.00  0.00    -0.253 A  
HETATM   14  C   UNL     1     -10.214  12.478  64.749  1.00  0.00    -0.304 A  
HETATM   15  C   UNL     1     -12.116  11.972  63.343  1.00  0.00    -0.597 A  
HETATM   16  C   UNL     1     -10.743  11.942  63.570  1.00  0.00    -0.504 A  
ENDBRANCH   8  11
BRANCH  10  17
HETATM   17  C   UNL     1     -10.642  10.927  68.314  1.00  0.00    -0.190 C  
HETATM   18  N   UNL     1     -12.089  10.788  68.437  1.00  0.00    -0.827 NA 
HETATM   19  H2  UNL     1     -12.594  11.303  67.715  1.00  0.00     0.000 HD 
HETATM   20  H1  UNL     1     -12.321   9.795  68.443  1.00  0.00     0.000 HD 
ENDBRANCH  10  17
ENDBRANCH   5   8
ENDBRANCH   2   3
TORSDOF 5
ENDMDL
MODEL       15
REMARK 921   NORMALIZED FREE ENERGY PREDICTED BY IDOCK:   -4.78 KCAL/MOL
REMARK 922        TOTAL FREE ENERGY PREDICTED BY IDOCK:   -6.58 KCAL/MOL
REMARK 923 INTER-LIGAND FREE ENERGY PREDICTED BY IDOCK:   -6.31 KCAL/MOL
REMARK 924 INTRA-LIGAND FREE ENERGY PREDICTED BY IDOCK:   -0.27 KCAL/MOL
REMARK 927      BINDING AFFINITY PREDICTED BY RF-SCORE:    0.00 PKD
ROOT
HETATM    1  C   UNL     1      -6.362  17.092  66.457  1.00  0.00    -0.219 C  
HETATM    2  C   UNL     1      -7.863  17.318  66.382  1.00  0.00    -0.310 C  
ENDROOT
BRANCH   2   3
HETATM    3  N   UNL     1      -8.632  16.073  66.327  1.00  0.00    -0.331 N  
HETATM    4  O   UNL     1     -10.474  17.220  65.510  1.00  0.00    -0.609 OA 
HETATM    5  C   UNL     1      -9.965  16.167  65.890  1.00  0.00    -0.356 C  
BRANCH   3   6
HETATM    6  C   UNL     1      -8.162  14.894  67.060  1.00  0.00    -0.196 C  
HETATM    7  C   UNL     1      -8.111  14.966  68.577  1.00  0.00    -0.147 C  
ENDBRANCH   3   6
BRANCH   5   8
HETATM    8  C   UNL     1     -10.822  14.894  65.866  1.00  0.00    -0.336 C  
HETATM    9  C   UNL     1     -11.830  14.773  64.711  1.00  0.00    -0.425 C  
HETATM   10  C   UNL     1     -10.569  13.970  64.665  1.00  0.00    -0.416 C  
BRANCH   8  11
HETATM   11  C   UNL     1     -11.379  14.479  67.236  1.00  0.00    -0.363 A  
HETATM   12  C   UNL     1     -11.620  15.468  68.212  1.00  0.00    -0.344 A  
HETATM   13  C   UNL     1     -11.887  15.140  69.543  1.00  0.00    -0.358 A  
HETATM   14  C   UNL     1     -11.516  13.141  67.645  1.00  0.00    -0.366 A  
HETATM   15  C   UNL     1     -11.940  13.806  69.931  1.00  0.00    -0.412 A  
HETATM   16  C   UNL     1     -11.778  12.806  68.978  1.00  0.00    -0.371 A  
ENDBRANCH   8  11
BRANCH  10  17
HETATM   17  C   UNL     1     -10.661  12.486  64.651  1.00  0.00    -0.316 C  
HETATM   18  N   UNL     1      -9.327  11.936  64.870  1.00  0.00    -0.431 NA 
HETATM   19  H2  UNL     1      -8.891  12.293  65.721  1.00  0.00     0.000 HD 
HETATM   20  H1  UNL     1      -9.390  10.918  64.860  1.00  0.00     0.000 HD 
ENDBRANCH  10  17
ENDBRANCH   5   8
ENDBRANCH   2   3
TORSDOF 5
ENDMDL
MODEL       16
REMARK 921   NORMALIZED FREE ENERGY PREDICTED BY IDOCK:   -4.77 KCAL/MOL
REMARK 922        TOTAL FREE ENERGY PREDICTED BY IDOCK:   -6.55 KCAL/MOL
REMARK 923 INTER-LIGAND FREE ENERGY PREDICTED BY IDOCK:   -6.23 KCAL/MOL
REMARK 924 INTRA-LIGAND FREE ENERGY PREDICTED BY IDOCK:   -0.33 KCAL/MOL
REMARK 927      BINDING AFFINITY PREDICTED BY RF-SCORE:    0.00 PKD
ROOT
HETATM    1  C   UNL     1     -10.602  14.603  64.759  1.00  0.00    -0.379 C  
HETATM    2  C   UNL     1     -10.792  15.045  66.200  1.00  0.00    -0.329 C  
ENDROOT
BRANCH   2   3
HETATM    3  N   UNL     1     -10.479  13.996  67.172  1.00  0.00    -0.269 N  
HETATM    4  O   UNL     1     -12.531  12.990  66.781  1.00  0.00    -0.324 OA 
HETATM    5  C   UNL     1     -11.468  13.021  67.397  1.00  0.00    -0.332 C  
BRANCH   3   6
HETATM    6  C   UNL     1      -9.384  14.190  68.126  1.00  0.00    -0.206 C  
HETATM    7  C   UNL     1      -7.995  14.470  67.577  1.00  0.00    -0.208 C  
ENDBRANCH   3   6
BRANCH   5   8
HETATM    8  C   UNL     1     -11.200  11.932  68.445  1.00  0.00    -0.312 C  
HETATM    9  C   UNL     1     -11.340  10.477  67.967  1.00  0.00    -0.319 C  
HETATM   10  C   UNL     1      -9.973  11.052  68.161  1.00  0.00    -0.190 C  
BRANCH   8  11
HETATM   11  C   UNL     1     -11.827  12.208  69.820  1.00  0.00    -0.397 A  
HETATM   12  C   UNL     1     -12.254  11.125  70.615  1.00  0.00    -0.492 A  
HETATM   13  C   UNL     1     -13.048  11.311  71.749  1.00  0.00    -0.527 A  
HETATM   14  C   UNL     1     -12.156  13.495  70.278  1.00  0.00    -0.425 A  
HETATM   15  C   UNL     1     -13.420  12.594  72.132  1.00  0.00    -0.561 A  
HETATM   16  C   UNL     1     -12.956  13.688  71.410  1.00  0.00    -0.427 A  
ENDBRANCH   8  11
BRANCH  10  17
HETATM   17  C   UNL     1      -9.069  10.435  69.168  1.00  0.00    -0.187 C  
HETATM   18  N   UNL     1      -7.831  11.206  69.214  1.00  0.00    -0.343 NA 
HETATM   19  H2  UNL     1      -7.993  12.197  69.389  1.00  0.00     0.000 HD 
HETATM   20  H1  UNL     1      -7.211  10.782  69.905  1.00  0.00     0.000 HD 
ENDBRANCH  10  17
ENDBRANCH   5   8
ENDBRANCH   2   3
TORSDOF 5
ENDMDL
MODEL       17
REMARK 921   NORMALIZED FREE ENERGY PREDICTED BY IDOCK:   -4.74 KCAL/MOL
REMARK 922        TOTAL FREE ENERGY PREDICTED BY IDOCK:   -6.52 KCAL/MOL
REMARK 923 INTER-LIGAND FREE ENERGY PREDICTED BY IDOCK:   -6.19 KCAL/MOL
REMARK 924 INTRA-LIGAND FREE ENERGY PREDICTED BY IDOCK:   -0.33 KCAL/MOL
REMARK 927      BINDING AFFINITY PREDICTED BY RF-SCORE:    0.00 PKD
ROOT
HETATM    1  C   UNL     1     -10.081  11.509  65.156  1.00  0.00    -0.313 C  
HETATM    2  C   UNL     1     -11.146  11.726  66.218  1.00  0.00    -0.311 C  
ENDROOT
BRANCH   2   3
HETATM    3  N   UNL     1     -11.136  13.079  66.778  1.00  0.00    -0.279 N  
HETATM    4  O   UNL     1      -9.654  12.408  68.430  1.00  0.00    -0.216 OA 
HETATM    5  C   UNL     1     -10.354  13.285  67.929  1.00  0.00    -0.238 C  
BRANCH   3   6
HETATM    6  C   UNL     1     -12.183  14.031  66.400  1.00  0.00    -0.460 C  
HETATM    7  C   UNL     1     -12.258  14.476  64.950  1.00  0.00    -0.409 C  
ENDBRANCH   3   6
BRANCH   5   8
HETATM    8  C   UNL     1     -10.355  14.676  68.577  1.00  0.00    -0.238 C  
HETATM    9  C   UNL     1      -8.977  15.324  68.803  1.00  0.00    -0.200 C  
HETATM   10  C   UNL     1      -9.835  15.808  67.677  1.00  0.00    -0.232 C  
BRANCH   8  11
HETATM   11  C   UNL     1     -11.323  14.823  69.761  1.00  0.00    -0.319 A  
HETATM   12  C   UNL     1     -11.170  15.906  70.649  1.00  0.00    -0.402 A  
HETATM   13  C   UNL     1     -11.849  15.961  71.869  1.00  0.00    -0.595 A  
HETATM   14  C   UNL     1     -12.267  13.844  70.115  1.00  0.00    -0.425 A  
HETATM   15  C   UNL     1     -12.719  14.938  72.225  1.00  0.00    -0.411 A  
HETATM   16  C   UNL     1     -12.947  13.890  71.338  1.00  0.00    -0.430 A  
ENDBRANCH   8  11
BRANCH  10  17
HETATM   17  C   UNL     1     -10.291  17.223  67.676  1.00  0.00    -0.350 C  
HETATM   18  N   UNL     1     -10.382  17.681  66.293  1.00  0.00    -0.360 NA 
HETATM   19  H2  UNL     1     -10.974  17.079  65.720  1.00  0.00     0.000 HD 
HETATM   20  H1  UNL     1     -10.695  18.651  66.293  1.00  0.00     0.000 HD 
ENDBRANCH  10  17
ENDBRANCH   5   8
ENDBRANCH   2   3
TORSDOF 5
ENDMDL
MODEL       18
REMARK 921   NORMALIZED FREE ENERGY PREDICTED BY IDOCK:   -4.73 KCAL/MOL
REMARK 922        TOTAL FREE ENERGY PREDICTED BY IDOCK:   -6.51 KCAL/MOL
REMARK 923 INTER-LIGAND FREE ENERGY PREDICTED BY IDOCK:   -6.12 KCAL/MOL
REMARK 924 INTRA-LIGAND FREE ENERGY PREDICTED BY IDOCK:   -0.39 KCAL/MOL
REMARK 927      BINDING AFFINITY PREDICTED BY RF-SCORE:    0.00 PKD
ROOT
HETATM    1  C   UNL     1     -11.165  12.853  63.965  1.00  0.00    -0.458 C  
HETATM    2  C   UNL     1     -11.872  14.121  64.412  1.00  0.00    -0.428 C  
ENDROOT
BRANCH   2   3
HETATM    3  N   UNL     1     -11.242  14.756  65.571  1.00  0.00    -0.337 N  
HETATM    4  O   UNL     1     -11.013  16.738  64.390  1.00  0.00    -0.974 OA 
HETATM    5  C   UNL     1     -10.822  16.089  65.416  1.00  0.00    -0.328 C  
BRANCH   3   6
HETATM    6  C   UNL     1     -10.726  13.927  66.664  1.00  0.00    -0.281 C  
HETATM    7  C   UNL     1     -11.724  13.323  67.637  1.00  0.00    -0.408 C  
ENDBRANCH   3   6
BRANCH   5   8
HETATM    8  C   UNL     1     -10.110  16.775  66.591  1.00  0.00    -0.304 C  
HETATM    9  C   UNL     1     -10.670  18.142  67.021  1.00  0.00    -0.274 C  
HETATM   10  C   UNL     1     -10.965  16.937  67.857  1.00  0.00    -0.251 C  
BRANCH   8  11
HETATM   11  C   UNL     1      -8.577  16.713  66.526  1.00  0.00    -0.320 A  
HETATM   12  C   UNL     1      -7.898  15.673  67.192  1.00  0.00    -0.253 A  
HETATM   13  C   UNL     1      -6.514  15.696  67.379  1.00  0.00    -0.172 A  
HETATM   14  C   UNL     1      -7.782  17.732  65.971  1.00  0.00    -0.223 A  
HETATM   15  C   UNL     1      -5.766  16.758  66.884  1.00  0.00    -0.168 A  
HETATM   16  C   UNL     1      -6.396  17.765  66.160  1.00  0.00    -0.278 A  
ENDBRANCH   8  11
BRANCH  10  17
HETATM   17  C   UNL     1     -10.485  16.901  69.264  1.00  0.00    -0.319 C  
HETATM   18  N   UNL     1     -11.446  16.147  70.063  1.00  0.00    -0.341 NA 
HETATM   19  H2  UNL     1     -11.623  15.216  69.687  1.00  0.00     0.000 HD 
HETATM   20  H1  UNL     1     -11.116  16.123  71.028  1.00  0.00     0.000 HD 
ENDBRANCH  10  17
ENDBRANCH   5   8
ENDBRANCH   2   3
TORSDOF 5
ENDMDL
MODEL       19
REMARK 921   NORMALIZED FREE ENERGY PREDICTED BY IDOCK:   -4.73 KCAL/MOL
REMARK 922        TOTAL FREE ENERGY PREDICTED BY IDOCK:   -6.51 KCAL/MOL
REMARK 923 INTER-LIGAND FREE ENERGY PREDICTED BY IDOCK:   -6.10 KCAL/MOL
REMARK 924 INTRA-LIGAND FREE ENERGY PREDICTED BY IDOCK:   -0.41 KCAL/MOL
REMARK 927      BINDING AFFINITY PREDICTED BY RF-SCORE:    0.00 PKD
ROOT
HETATM    1  C   UNL     1      -7.218  20.217  67.222  1.00  0.00    -0.328 C  
HETATM    2  C   UNL     1      -7.667  19.006  66.423  1.00  0.00    -0.274 C  
ENDROOT
BRANCH   2   3
HETATM    3  N   UNL     1      -8.711  18.228  67.091  1.00  0.00    -0.251 N  
HETATM    4  O   UNL     1      -7.572  16.261  66.634  1.00  0.00    -0.238 OA 
HETATM    5  C   UNL     1      -8.556  16.830  67.102  1.00  0.00    -0.196 C  
BRANCH   3   6
HETATM    6  C   UNL     1     -10.014  18.841  67.364  1.00  0.00    -0.335 C  
HETATM    7  C   UNL     1     -10.765  19.475  66.205  1.00  0.00    -0.530 C  
ENDBRANCH   3   6
BRANCH   5   8
HETATM    8  C   UNL     1      -9.654  15.974  67.749  1.00  0.00    -0.219 C  
HETATM    9  C   UNL     1      -9.188  14.939  68.787  1.00  0.00    -0.193 C  
HETATM   10  C   UNL     1      -9.842  16.200  69.257  1.00  0.00    -0.250 C  
BRANCH   8  11
HETATM   11  C   UNL     1     -10.710  15.450  66.764  1.00  0.00    -0.310 A  
HETATM   12  C   UNL     1     -11.565  14.402  67.161  1.00  0.00    -0.406 A  
HETATM   13  C   UNL     1     -12.369  13.719  66.245  1.00  0.00    -0.479 A  
HETATM   14  C   UNL     1     -10.775  15.842  65.416  1.00  0.00    -0.420 A  
HETATM   15  C   UNL     1     -12.353  14.082  64.904  1.00  0.00    -0.447 A  
HETATM   16  C   UNL     1     -11.574  15.158  64.492  1.00  0.00    -0.330 A  
ENDBRANCH   8  11
BRANCH  10  17
HETATM   17  C   UNL     1     -11.118  16.108  70.016  1.00  0.00    -0.363 C  
HETATM   18  N   UNL     1     -11.044  14.959  70.913  1.00  0.00    -0.530 NA 
HETATM   19  H2  UNL     1     -10.227  14.991  71.523  1.00  0.00     0.000 HD 
HETATM   20  H1  UNL     1     -11.919  14.897  71.433  1.00  0.00     0.000 HD 
ENDBRANCH  10  17
ENDBRANCH   5   8
ENDBRANCH   2   3
TORSDOF 5
ENDMDL
MODEL       20
REMARK 921   NORMALIZED FREE ENERGY PREDICTED BY IDOCK:   -4.71 KCAL/MOL
REMARK 922        TOTAL FREE ENERGY PREDICTED BY IDOCK:   -6.48 KCAL/MOL
REMARK 923 INTER-LIGAND FREE ENERGY PREDICTED BY IDOCK:   -6.05 KCAL/MOL
REMARK 924 INTRA-LIGAND FREE ENERGY PREDICTED BY IDOCK:   -0.43 KCAL/MOL
REMARK 927      BINDING AFFINITY PREDICTED BY RF-SCORE:    0.00 PKD
ROOT
HETATM    1  C   UNL     1     -11.041  15.346  71.262  1.00  0.00    -0.341 C  
HETATM    2  C   UNL     1     -12.067  15.651  70.184  1.00  0.00    -0.377 C  
ENDROOT
BRANCH   2   3
HETATM    3  N   UNL     1     -11.566  15.415  68.828  1.00  0.00    -0.351 N  
HETATM    4  O   UNL     1     -12.510  13.297  68.824  1.00  0.00    -0.023 OA 
HETATM    5  C   UNL     1     -11.838  14.157  68.260  1.00  0.00    -0.356 C  
BRANCH   3   6
HETATM    6  C   UNL     1     -10.518  16.278  68.278  1.00  0.00    -0.284 C  
HETATM    7  C   UNL     1     -10.768  17.776  68.243  1.00  0.00    -0.255 C  
ENDBRANCH   3   6
BRANCH   5   8
HETATM    8  C   UNL     1     -11.288  13.850  66.860  1.00  0.00    -0.343 C  
HETATM    9  C   UNL     1     -12.327  13.503  65.780  1.00  0.00    -0.516 C  
HETATM   10  C   UNL     1     -11.693  14.858  65.773  1.00  0.00    -0.179 C  
BRANCH   8  11
HETATM   11  C   UNL     1     -10.044  12.948  66.852  1.00  0.00    -0.241 A  
HETATM   12  C   UNL     1      -9.874  12.015  65.809  1.00  0.00    -0.263 A  
HETATM   13  C   UNL     1      -8.909  11.007  65.872  1.00  0.00    -0.204 A  
HETATM   14  C   UNL     1      -9.130  12.878  67.917  1.00  0.00    -0.201 A  
HETATM   15  C   UNL     1      -8.070  10.919  66.976  1.00  0.00    -0.131 A  
HETATM   16  C   UNL     1      -8.164  11.868  67.989  1.00  0.00    -0.157 A  
ENDBRANCH   8  11
BRANCH  10  17
HETATM   17  C   UNL     1     -10.883  15.267  64.595  1.00  0.00    -0.257 C  
HETATM   18  N   UNL     1     -11.611  16.302  63.868  1.00  0.00    -1.573 NA 
HETATM   19  H2  UNL     1     -11.864  17.092  64.462  1.00  0.00     0.000 HD 
HETATM   20  H1  UNL     1     -11.055  16.583  63.060  1.00  0.00     0.000 HD 
ENDBRANCH  10  17
ENDBRANCH   5   8
ENDBRANCH   2   3
TORSDOF 5
ENDMDL
MODEL       21
REMARK 921   NORMALIZED FREE ENERGY PREDICTED BY IDOCK:   -4.70 KCAL/MOL
REMARK 922        TOTAL FREE ENERGY PREDICTED BY IDOCK:   -6.47 KCAL/MOL
REMARK 923 INTER-LIGAND FREE ENERGY PREDICTED BY IDOCK:   -6.32 KCAL/MOL
REMARK 924 INTRA-LIGAND FREE ENERGY PREDICTED BY IDOCK:   -0.15 KCAL/MOL
REMARK 927      BINDING AFFINITY PREDICTED BY RF-SCORE:    0.00 PKD
ROOT
HETATM    1  C   UNL     1      -7.605  14.592  69.026  1.00  0.00    -0.136 C  
HETATM    2  C   UNL     1      -9.097  14.858  68.921  1.00  0.00    -0.191 C  
ENDROOT
BRANCH   2   3
HETATM    3  N   UNL     1      -9.622  14.670  67.567  1.00  0.00    -0.204 N  
HETATM    4  O   UNL     1     -11.021  12.981  68.319  1.00  0.00    -0.239 OA 
HETATM    5  C   UNL     1     -10.581  13.656  67.391  1.00  0.00    -0.259 C  
BRANCH   3   6
HETATM    6  C   UNL     1      -8.898  15.227  66.421  1.00  0.00    -0.276 C  
HETATM    7  C   UNL     1      -8.870  16.737  66.256  1.00  0.00    -0.334 C  
ENDBRANCH   3   6
BRANCH   5   8
HETATM    8  C   UNL     1     -11.120  13.392  65.978  1.00  0.00    -0.294 C  
HETATM    9  C   UNL     1     -12.646  13.253  65.846  1.00  0.00    -0.349 C  
HETATM   10  C   UNL     1     -11.988  14.520  65.398  1.00  0.00    -0.332 C  
BRANCH   8  11
HETATM   11  C   UNL     1     -10.320  12.352  65.179  1.00  0.00    -0.313 A  
HETATM   12  C   UNL     1     -10.337  12.401  63.770  1.00  0.00    -0.454 A  
HETATM   13  C   UNL     1      -9.841  11.353  62.990  1.00  0.00    -0.373 A  
HETATM   14  C   UNL     1      -9.691  11.240  65.765  1.00  0.00    -0.263 A  
HETATM   15  C   UNL     1      -9.295  10.231  63.603  1.00  0.00    -0.338 A  
HETATM   16  C   UNL     1      -9.198  10.184  64.990  1.00  0.00    -0.266 A  
ENDBRANCH   8  11
BRANCH  10  17
HETATM   17  C   UNL     1     -12.089  14.917  63.969  1.00  0.00    -0.126 C  
HETATM   18  N   UNL     1     -11.623  16.294  63.836  1.00  0.00    -1.573 NA 
HETATM   19  H2  UNL     1     -10.685  16.427  64.213  1.00  0.00     0.000 HD 
HETATM   20  H1  UNL     1     -11.693  16.566  62.856  1.00  0.00     0.000 HD 
ENDBRANCH  10  17
ENDBRANCH   5   8
ENDBRANCH   2   3
TORSDOF 5
ENDMDL
MODEL       22
REMARK 921   NORMALIZED FREE ENERGY PREDICTED BY IDOCK:   -4.68 KCAL/MOL
REMARK 922        TOTAL FREE ENERGY PREDICTED BY IDOCK:   -6.45 KCAL/MOL
REMARK 923 INTER-LIGAND FREE ENERGY PREDICTED BY IDOCK:   -6.02 KCAL/MOL
REMARK 924 INTRA-LIGAND FREE ENERGY PREDICTED BY IDOCK:   -0.42 KCAL/MOL
REMARK 927      BINDING AFFINITY PREDICTED BY RF-SCORE:    0.00 PKD
ROOT
HETATM    1  C   UNL     1      -7.775  17.143  67.498  1.00  0.00    -0.190 C  
HETATM    2  C   UNL     1      -8.842  16.323  68.204  1.00  0.00    -0.183 C  
ENDROOT
BRANCH   2   3
HETATM    3  N   UNL     1      -9.341  15.208  67.397  1.00  0.00    -0.194 N  
HETATM    4  O   UNL     1     -11.526  15.907  67.741  1.00  0.00    -0.260 OA 
HETATM    5  C   UNL     1     -10.737  15.093  67.264  1.00  0.00    -0.305 C  
BRANCH   3   6
HETATM    6  C   UNL     1      -8.462  14.076  67.097  1.00  0.00    -0.190 C  
HETATM    7  C   UNL     1      -7.851  13.314  68.262  1.00  0.00    -0.143 C  
ENDBRANCH   3   6
BRANCH   5   8
HETATM    8  C   UNL     1     -11.304  13.909  66.468  1.00  0.00    -0.340 C  
HETATM    9  C   UNL     1     -12.522  14.208  65.577  1.00  0.00    -0.495 C  
HETATM   10  C   UNL     1     -11.178  14.039  64.943  1.00  0.00    -0.362 C  
BRANCH   8  11
HETATM   11  C   UNL     1     -11.412  12.602  67.269  1.00  0.00    -0.402 A  
HETATM   12  C   UNL     1     -11.785  12.653  68.627  1.00  0.00    -0.364 A  
HETATM   13  C   UNL     1     -11.663  11.543  69.467  1.00  0.00    -0.413 A  
HETATM   14  C   UNL     1     -11.003  11.353  66.772  1.00  0.00    -0.347 A  
HETATM   15  C   UNL     1     -11.182  10.341  68.961  1.00  0.00    -0.260 A  
HETATM   16  C   UNL     1     -10.874  10.238  67.609  1.00  0.00    -0.363 A  
ENDBRANCH   8  11
BRANCH  10  17
HETATM   17  C   UNL     1     -10.975  12.932  63.971  1.00  0.00    -0.411 C  
HETATM   18  N   UNL     1     -12.027  13.000  62.962  1.00  0.00    -0.802 NA 
HETATM   19  H2  UNL     1     -12.077  13.913  62.510  1.00  0.00     0.000 HD 
HETATM   20  H1  UNL     1     -11.888  12.241  62.296  1.00  0.00     0.000 HD 
ENDBRANCH  10  17
ENDBRANCH   5   8
ENDBRANCH   2   3
TORSDOF 5
ENDMDL
MODEL       23
REMARK 921   NORMALIZED FREE ENERGY PREDICTED BY IDOCK:   -4.65 KCAL/MOL
REMARK 922        TOTAL FREE ENERGY PREDICTED BY IDOCK:   -6.41 KCAL/MOL
REMARK 923 INTER-LIGAND FREE ENERGY PREDICTED BY IDOCK:   -5.95 KCAL/MOL
REMARK 924 INTRA-LIGAND FREE ENERGY PREDICTED BY IDOCK:   -0.46 KCAL/MOL
REMARK 927      BINDING AFFINITY PREDICTED BY RF-SCORE:    0.00 PKD
ROOT
HETATM    1  C   UNL     1      -5.950  10.284  65.440  1.00  0.00    -0.115 C  
HETATM    2  C   UNL     1      -7.228   9.778  66.087  1.00  0.00    -0.100 C  
ENDROOT
BRANCH   2   3
HETATM    3  N   UNL     1      -8.288  10.787  66.139  1.00  0.00    -0.162 N  
HETATM    4  O   UNL     1      -9.496   9.633  64.530  1.00  0.00    -0.253 OA 
HETATM    5  C   UNL     1      -9.379  10.609  65.269  1.00  0.00    -0.214 C  
BRANCH   3   6
HETATM    6  C   UNL     1      -8.025  12.089  66.757  1.00  0.00    -0.060 C  
HETATM    7  C   UNL     1      -7.904  12.151  68.271  1.00  0.00    -0.153 C  
ENDBRANCH   3   6
BRANCH   5   8
HETATM    8  C   UNL     1     -10.487  11.670  65.254  1.00  0.00    -0.323 C  
HETATM    9  C   UNL     1     -10.193  12.953  64.457  1.00  0.00    -0.334 C  
HETATM   10  C   UNL     1     -11.115  11.928  63.876  1.00  0.00    -0.483 C  
BRANCH   8  11
HETATM   11  C   UNL     1     -11.148  11.914  66.620  1.00  0.00    -0.360 A  
HETATM   12  C   UNL     1     -11.431  13.234  67.025  1.00  0.00    -0.378 A  
HETATM   13  C   UNL     1     -11.797  13.540  68.338  1.00  0.00    -0.408 A  
HETATM   14  C   UNL     1     -11.347  10.903  67.576  1.00  0.00    -0.309 A  
HETATM   15  C   UNL     1     -11.910  12.524  69.280  1.00  0.00    -0.360 A  
HETATM   16  C   UNL     1     -11.708  11.203  68.895  1.00  0.00    -0.406 A  
ENDBRANCH   8  11
BRANCH  10  17
HETATM   17  C   UNL     1     -12.527  12.305  63.600  1.00  0.00    -0.541 C  
HETATM   18  N   UNL     1     -12.587  13.746  63.371  1.00  0.00    -0.989 NA 
HETATM   19  H2  UNL     1     -11.949  14.052  62.637  1.00  0.00     0.000 HD 
HETATM   20  H1  UNL     1     -13.555  14.004  63.182  1.00  0.00     0.000 HD 
ENDBRANCH  10  17
ENDBRANCH   5   8
ENDBRANCH   2   3
TORSDOF 5
ENDMDL
MODEL       24
REMARK 921   NORMALIZED FREE ENERGY PREDICTED BY IDOCK:   -4.65 KCAL/MOL
REMARK 922        TOTAL FREE ENERGY PREDICTED BY IDOCK:   -6.40 KCAL/MOL
REMARK 923 INTER-LIGAND FREE ENERGY PREDICTED BY IDOCK:   -6.42 KCAL/MOL
REMARK 924 INTRA-LIGAND FREE ENERGY PREDICTED BY IDOCK:    0.01 KCAL/MOL
REMARK 927      BINDING AFFINITY PREDICTED BY RF-SCORE:    0.00 PKD
ROOT
HETATM    1  C   UNL     1     -11.721  14.985  71.774  1.00  0.00    -0.452 C  
HETATM    2  C   UNL     1     -12.614  14.184  70.841  1.00  0.00    -0.363 C  
ENDROOT
BRANCH   2   3
HETATM    3  N   UNL     1     -11.923  13.721  69.636  1.00  0.00    -0.324 N  
HETATM    4  O   UNL     1     -12.020  15.854  68.732  1.00  0.00    -0.368 OA 
HETATM    5  C   UNL     1     -11.708  14.670  68.621  1.00  0.00    -0.329 C  
BRANCH   3   6
HETATM    6  C   UNL     1     -11.832  12.286  69.355  1.00  0.00    -0.310 C  
HETATM    7  C   UNL     1     -11.799  11.325  70.532  1.00  0.00    -0.421 C  
ENDBRANCH   3   6
BRANCH   5   8
HETATM    8  C   UNL     1     -11.031  14.214  67.321  1.00  0.00    -0.304 C  
HETATM    9  C   UNL     1     -11.940  13.537  66.281  1.00  0.00    -0.457 C  
HETATM   10  C   UNL     1     -11.501  14.949  66.057  1.00  0.00    -0.275 C  
BRANCH   8  11
HETATM   11  C   UNL     1      -9.676  13.519  67.523  1.00  0.00    -0.228 A  
HETATM   12  C   UNL     1      -8.610  14.237  68.101  1.00  0.00    -0.172 A  
HETATM   13  C   UNL     1      -7.300  13.753  68.086  1.00  0.00    -0.124 A  
HETATM   14  C   UNL     1      -9.375  12.243  67.015  1.00  0.00    -0.205 A  
HETATM   15  C   UNL     1      -7.024  12.520  67.506  1.00  0.00    -0.149 A  
HETATM   16  C   UNL     1      -8.065  11.754  66.991  1.00  0.00    -0.169 A  
ENDBRANCH   8  11
BRANCH  10  17
HETATM   17  C   UNL     1     -10.682  15.267  64.857  1.00  0.00    -0.400 C  
HETATM   18  N   UNL     1     -11.272  16.420  64.184  1.00  0.00    -1.371 NA 
HETATM   19  H2  UNL     1     -11.382  17.221  64.806  1.00  0.00     0.000 HD 
HETATM   20  H1  UNL     1     -10.710  16.637  63.361  1.00  0.00     0.000 HD 
ENDBRANCH  10  17
ENDBRANCH   5   8
ENDBRANCH   2   3
TORSDOF 5
ENDMDL
MODEL       25
REMARK 921   NORMALIZED FREE ENERGY PREDICTED BY IDOCK:   -4.64 KCAL/MOL
REMARK 922        TOTAL FREE ENERGY PREDICTED BY IDOCK:   -6.39 KCAL/MOL
REMARK 923 INTER-LIGAND FREE ENERGY PREDICTED BY IDOCK:   -6.04 KCAL/MOL
REMARK 924 INTRA-LIGAND FREE ENERGY PREDICTED BY IDOCK:   -0.35 KCAL/MOL
REMARK 927      BINDING AFFINITY PREDICTED BY RF-SCORE:    0.00 PKD
ROOT
HETATM    1  C   UNL     1     -11.738  11.840  67.778  1.00  0.00    -0.337 C  
HETATM    2  C   UNL     1     -12.077  13.236  67.284  1.00  0.00    -0.289 C  
ENDROOT
BRANCH   2   3
HETATM    3  N   UNL     1     -10.914  14.123  67.215  1.00  0.00    -0.292 N  
HETATM    4  O   UNL     1     -11.569  15.170  69.178  1.00  0.00    -0.287 OA 
HETATM    5  C   UNL     1     -10.789  15.087  68.232  1.00  0.00    -0.259 C  
BRANCH   3   6
HETATM    6  C   UNL     1     -10.170  14.252  65.960  1.00  0.00    -0.315 C  
HETATM    7  C   UNL     1     -10.874  14.884  64.771  1.00  0.00    -0.382 C  
ENDBRANCH   3   6
BRANCH   5   8
HETATM    8  C   UNL     1      -9.611  16.070  68.170  1.00  0.00    -0.209 C  
HETATM    9  C   UNL     1      -8.561  15.946  69.287  1.00  0.00    -0.247 C  
HETATM   10  C   UNL     1      -8.241  15.419  67.924  1.00  0.00    -0.150 C  
BRANCH   8  11
HETATM   11  C   UNL     1     -10.010  17.515  67.836  1.00  0.00    -0.312 A  
HETATM   12  C   UNL     1     -10.261  17.871  66.495  1.00  0.00    -0.379 A  
HETATM   13  C   UNL     1     -10.383  19.204  66.096  1.00  0.00    -0.561 A  
HETATM   14  C   UNL     1      -9.984  18.563  68.773  1.00  0.00    -0.417 A  
HETATM   15  C   UNL     1     -10.276  20.221  67.037  1.00  0.00    -0.503 A  
HETATM   16  C   UNL     1     -10.100  19.901  68.379  1.00  0.00    -0.557 A  
ENDBRANCH   8  11
BRANCH  10  17
HETATM   17  C   UNL     1      -7.100  16.008  67.175  1.00  0.00    -0.213 C  
HETATM   18  N   UNL     1      -5.917  15.185  67.406  1.00  0.00    -0.334 NA 
HETATM   19  H2  UNL     1      -6.072  14.203  67.175  1.00  0.00     0.000 HD 
HETATM   20  H1  UNL     1      -5.135  15.589  66.893  1.00  0.00     0.000 HD 
ENDBRANCH  10  17
ENDBRANCH   5   8
ENDBRANCH   2   3
TORSDOF 5
ENDMDL
MODEL       26
REMARK 921   NORMALIZED FREE ENERGY PREDICTED BY IDOCK:   -4.63 KCAL/MOL
REMARK 922        TOTAL FREE ENERGY PREDICTED BY IDOCK:   -6.38 KCAL/MOL
REMARK 923 INTER-LIGAND FREE ENERGY PREDICTED BY IDOCK:   -5.96 KCAL/MOL
REMARK 924 INTRA-LIGAND FREE ENERGY PREDICTED BY IDOCK:   -0.42 KCAL/MOL
REMARK 927      BINDING AFFINITY PREDICTED BY RF-SCORE:    0.00 PKD
ROOT
HETATM    1  C   UNL     1     -10.353   8.224  67.562  1.00  0.00    -0.333 C  
HETATM    2  C   UNL     1     -10.127   9.469  68.404  1.00  0.00    -0.175 C  
ENDROOT
BRANCH   2   3
HETATM    3  N   UNL     1      -9.987  10.688  67.605  1.00  0.00    -0.166 N  
HETATM    4  O   UNL     1     -12.217  11.209  67.967  1.00  0.00    -0.584 OA 
HETATM    5  C   UNL     1     -11.141  11.474  67.435  1.00  0.00    -0.282 C  
BRANCH   3   6
HETATM    6  C   UNL     1      -8.830  10.850  66.721  1.00  0.00    -0.145 C  
HETATM    7  C   UNL     1      -7.562  11.453  67.302  1.00  0.00    -0.138 C  
ENDBRANCH   3   6
BRANCH   5   8
HETATM    8  C   UNL     1     -11.049  12.733  66.563  1.00  0.00    -0.321 C  
HETATM    9  C   UNL     1     -10.846  12.505  65.055  1.00  0.00    -0.324 C  
HETATM   10  C   UNL     1     -12.197  12.906  65.557  1.00  0.00    -0.527 C  
BRANCH   8  11
HETATM   11  C   UNL     1     -10.178  13.851  67.155  1.00  0.00    -0.258 A  
HETATM   12  C   UNL     1     -10.357  14.228  68.502  1.00  0.00    -0.244 A  
HETATM   13  C   UNL     1      -9.780  15.387  69.027  1.00  0.00    -0.239 A  
HETATM   14  C   UNL     1      -9.309  14.647  66.388  1.00  0.00    -0.313 A  
HETATM   15  C   UNL     1      -8.988  16.194  68.219  1.00  0.00    -0.189 A  
HETATM   16  C   UNL     1      -8.733  15.812  66.905  1.00  0.00    -0.274 A  
ENDBRANCH   8  11
BRANCH  10  17
HETATM   17  C   UNL     1     -12.786  14.190  65.092  1.00  0.00    -0.364 C  
HETATM   18  N   UNL     1     -12.492  14.348  63.671  1.00  0.00    -1.086 NA 
HETATM   19  H2  UNL     1     -12.803  13.551  63.116  1.00  0.00     0.000 HD 
HETATM   20  H1  UNL     1     -12.895  15.229  63.353  1.00  0.00     0.000 HD 
ENDBRANCH  10  17
ENDBRANCH   5   8
ENDBRANCH   2   3
TORSDOF 5
ENDMDL
MODEL       27
REMARK 921   NORMALIZED FREE ENERGY PREDICTED BY IDOCK:   -4.63 KCAL/MOL
REMARK 922        TOTAL FREE ENERGY PREDICTED BY IDOCK:   -6.38 KCAL/MOL
REMARK 923 INTER-LIGAND FREE ENERGY PREDICTED BY IDOCK:   -5.85 KCAL/MOL
REMARK 924 INTRA-LIGAND FREE ENERGY PREDICTED BY IDOCK:   -0.53 KCAL/MOL
REMARK 927      BINDING AFFINITY PREDICTED BY RF-SCORE:    0.00 PKD
ROOT
HETATM    1  C   UNL     1      -9.996   9.366  70.745  1.00  0.00    -0.358 C  
HETATM    2  C   UNL     1     -10.396   9.492  69.284  1.00  0.00    -0.208 C  
ENDROOT
BRANCH   2   3
HETATM    3  N   UNL     1     -10.225  10.846  68.754  1.00  0.00    -0.188 N  
HETATM    4  O   UNL     1     -12.521  11.072  68.528  1.00  0.00    -0.440 OA 
HETATM    5  C   UNL     1     -11.392  11.534  68.377  1.00  0.00    -0.279 C  
BRANCH   3   6
HETATM    6  C   UNL     1      -8.909  11.281  68.278  1.00  0.00    -0.158 C  
HETATM    7  C   UNL     1      -8.190  10.408  67.263  1.00  0.00    -0.121 C  
ENDBRANCH   3   6
BRANCH   5   8
HETATM    8  C   UNL     1     -11.254  12.937  67.770  1.00  0.00    -0.319 C  
HETATM    9  C   UNL     1     -12.008  14.068  68.489  1.00  0.00    -0.383 C  
HETATM   10  C   UNL     1     -10.527  13.956  68.660  1.00  0.00    -0.249 C  
BRANCH   8  11
HETATM   11  C   UNL     1     -11.366  12.977  66.238  1.00  0.00    -0.354 A  
HETATM   12  C   UNL     1     -11.925  14.112  65.615  1.00  0.00    -0.401 A  
HETATM   13  C   UNL     1     -12.281  14.112  64.264  1.00  0.00    -0.449 A  
HETATM   14  C   UNL     1     -11.091  11.875  65.411  1.00  0.00    -0.360 A  
HETATM   15  C   UNL     1     -12.065  12.977  63.491  1.00  0.00    -0.617 A  
HETATM   16  C   UNL     1     -11.449  11.866  64.058  1.00  0.00    -0.480 A  
ENDBRANCH   8  11
BRANCH  10  17
HETATM   17  C   UNL     1      -9.662  15.077  68.204  1.00  0.00    -0.215 C  
HETATM   18  N   UNL     1     -10.433  16.315  68.272  1.00  0.00    -0.271 NA 
HETATM   19  H2  UNL     1     -10.830  16.478  69.197  1.00  0.00     0.000 HD 
HETATM   20  H1  UNL     1      -9.840  17.083  67.958  1.00  0.00     0.000 HD 
ENDBRANCH  10  17
ENDBRANCH   5   8
ENDBRANCH   2   3
TORSDOF 5
ENDMDL
MODEL       28
REMARK 921   NORMALIZED FREE ENERGY PREDICTED BY IDOCK:   -4.63 KCAL/MOL
REMARK 922        TOTAL FREE ENERGY PREDICTED BY IDOCK:   -6.38 KCAL/MOL
REMARK 923 INTER-LIGAND FREE ENERGY PREDICTED BY IDOCK:   -6.17 KCAL/MOL
REMARK 924 INTRA-LIGAND FREE ENERGY PREDICTED BY IDOCK:   -0.20 KCAL/MOL
REMARK 927      BINDING AFFINITY PREDICTED BY RF-SCORE:    0.00 PKD
ROOT
HETATM    1  C   UNL     1     -11.936  15.969  71.730  1.00  0.00    -0.592 C  
HETATM    2  C   UNL     1     -12.765  15.247  70.681  1.00  0.00    -0.416 C  
ENDROOT
BRANCH   2   3
HETATM    3  N   UNL     1     -11.957  14.458  69.750  1.00  0.00    -0.312 N  
HETATM    4  O   UNL     1     -11.488  16.360  68.510  1.00  0.00    -0.351 OA 
HETATM    5  C   UNL     1     -11.383  15.145  68.665  1.00  0.00    -0.310 C  
BRANCH   3   6
HETATM    6  C   UNL     1     -12.081  12.998  69.735  1.00  0.00    -0.258 C  
HETATM    7  C   UNL     1     -12.651  12.314  70.966  1.00  0.00    -0.352 C  
ENDBRANCH   3   6
BRANCH   5   8
HETATM    8  C   UNL     1     -10.570  14.345  67.638  1.00  0.00    -0.260 C  
HETATM    9  C   UNL     1      -9.102  14.767  67.454  1.00  0.00    -0.202 C  
HETATM   10  C   UNL     1      -9.413  13.525  68.228  1.00  0.00    -0.212 C  
BRANCH   8  11
HETATM   11  C   UNL     1     -11.314  14.061  66.324  1.00  0.00    -0.336 A  
HETATM   12  C   UNL     1     -11.866  12.782  66.104  1.00  0.00    -0.484 A  
HETATM   13  C   UNL     1     -12.331  12.386  64.849  1.00  0.00    -0.475 A  
HETATM   14  C   UNL     1     -11.345  14.956  65.241  1.00  0.00    -0.358 A  
HETATM   15  C   UNL     1     -12.276  13.270  63.778  1.00  0.00    -0.508 A  
HETATM   16  C   UNL     1     -11.805  14.564  63.979  1.00  0.00    -0.178 A  
ENDBRANCH   8  11
BRANCH  10  17
HETATM   17  C   UNL     1      -8.904  12.220  67.730  1.00  0.00    -0.174 C  
HETATM   18  N   UNL     1      -8.163  12.452  66.494  1.00  0.00    -0.397 NA 
HETATM   19  H2  UNL     1      -7.422  13.144  66.606  1.00  0.00     0.000 HD 
HETATM   20  H1  UNL     1      -7.815  11.556  66.152  1.00  0.00     0.000 HD 
ENDBRANCH  10  17
ENDBRANCH   5   8
ENDBRANCH   2   3
TORSDOF 5
ENDMDL
MODEL       29
REMARK 921   NORMALIZED FREE ENERGY PREDICTED BY IDOCK:   -4.61 KCAL/MOL
REMARK 922        TOTAL FREE ENERGY PREDICTED BY IDOCK:   -6.36 KCAL/MOL
REMARK 923 INTER-LIGAND FREE ENERGY PREDICTED BY IDOCK:   -5.99 KCAL/MOL
REMARK 924 INTRA-LIGAND FREE ENERGY PREDICTED BY IDOCK:   -0.37 KCAL/MOL
REMARK 927      BINDING AFFINITY PREDICTED BY RF-SCORE:    0.00 PKD
ROOT
HETATM    1  C   UNL     1      -8.227  10.800  62.337  1.00  0.00    -0.264 C  
HETATM    2  C   UNL     1      -9.567  10.374  62.912  1.00  0.00    -0.295 C  
ENDROOT
BRANCH   2   3
HETATM    3  N   UNL     1      -9.852  10.973  64.217  1.00  0.00    -0.275 N  
HETATM    4  O   UNL     1     -11.138  12.617  63.208  1.00  0.00    -0.411 OA 
HETATM    5  C   UNL     1     -10.644  12.135  64.225  1.00  0.00    -0.345 C  
BRANCH   3   6
HETATM    6  C   UNL     1      -9.032  10.614  65.378  1.00  0.00    -0.189 C  
HETATM    7  C   UNL     1      -9.250   9.252  66.016  1.00  0.00    -0.262 C  
ENDBRANCH   3   6
BRANCH   5   8
HETATM    8  C   UNL     1     -10.925  12.823  65.569  1.00  0.00    -0.310 C  
HETATM    9  C   UNL     1     -12.402  13.096  65.899  1.00  0.00    -0.462 C  
HETATM   10  C   UNL     1     -11.699  11.967  66.583  1.00  0.00    -0.264 C  
BRANCH   8  11
HETATM   11  C   UNL     1      -9.979  13.990  65.892  1.00  0.00    -0.325 A  
HETATM   12  C   UNL     1      -8.874  13.771  66.739  1.00  0.00    -0.156 A  
HETATM   13  C   UNL     1      -8.128  14.828  67.266  1.00  0.00    -0.232 A  
HETATM   14  C   UNL     1     -10.237  15.322  65.522  1.00  0.00    -0.417 A  
HETATM   15  C   UNL     1      -8.457  16.138  66.941  1.00  0.00    -0.264 A  
HETATM   16  C   UNL     1      -9.497  16.385  66.050  1.00  0.00    -0.345 A  
ENDBRANCH   8  11
BRANCH  10  17
HETATM   17  C   UNL     1     -11.557  11.997  68.063  1.00  0.00    -0.342 C  
HETATM   18  N   UNL     1     -12.197  10.808  68.615  1.00  0.00    -0.827 NA 
HETATM   19  H2  UNL     1     -11.839   9.945  68.205  1.00  0.00     0.000 HD 
HETATM   20  H1  UNL     1     -12.100  10.829  69.630  1.00  0.00     0.000 HD 
ENDBRANCH  10  17
ENDBRANCH   5   8
ENDBRANCH   2   3
TORSDOF 5
ENDMDL
MODEL       30
REMARK 921   NORMALIZED FREE ENERGY PREDICTED BY IDOCK:   -4.58 KCAL/MOL
REMARK 922        TOTAL FREE ENERGY PREDICTED BY IDOCK:   -6.32 KCAL/MOL
REMARK 923 INTER-LIGAND FREE ENERGY PREDICTED BY IDOCK:   -5.93 KCAL/MOL
REMARK 924 INTRA-LIGAND FREE ENERGY PREDICTED BY IDOCK:   -0.40 KCAL/MOL
REMARK 927      BINDING AFFINITY PREDICTED BY RF-SCORE:    0.00 PKD
ROOT
HETATM    1  C   UNL     1      -7.148  14.966  69.623  1.00  0.00    -0.179 C  
HETATM    2  C   UNL     1      -8.531  15.550  69.390  1.00  0.00    -0.256 C  
ENDROOT
BRANCH   2   3
HETATM    3  N   UNL     1      -9.139  15.109  68.132  1.00  0.00    -0.173 N  
HETATM    4  O   UNL     1     -10.817  14.016  69.301  1.00  0.00    -0.231 OA 
HETATM    5  C   UNL     1     -10.288  14.304  68.229  1.00  0.00    -0.242 C  
BRANCH   3   6
HETATM    6  C   UNL     1      -8.366  15.169  66.889  1.00  0.00    -0.232 C  
HETATM    7  C   UNL     1      -8.170  16.524  66.231  1.00  0.00    -0.360 C  
ENDBRANCH   3   6
BRANCH   5   8
HETATM    8  C   UNL     1     -10.928  13.779  66.936  1.00  0.00    -0.296 C  
HETATM    9  C   UNL     1     -12.410  14.130  66.717  1.00  0.00    -0.333 C  
HETATM   10  C   UNL     1     -11.363  14.868  65.944  1.00  0.00    -0.306 C  
BRANCH   8  11
HETATM   11  C   UNL     1     -10.566  12.325  66.596  1.00  0.00    -0.257 A  
HETATM   12  C   UNL     1     -11.250  11.274  67.241  1.00  0.00    -0.364 A  
HETATM   13  C   UNL     1     -10.808   9.951  67.166  1.00  0.00    -0.227 A  
HETATM   14  C   UNL     1      -9.472  11.966  65.791  1.00  0.00    -0.210 A  
HETATM   15  C   UNL     1      -9.676   9.640  66.422  1.00  0.00    -0.285 A  
HETATM   16  C   UNL     1      -9.020  10.643  65.715  1.00  0.00    -0.200 A  
ENDBRANCH   8  11
BRANCH  10  17
HETATM   17  C   UNL     1     -11.362  14.770  64.460  1.00  0.00    -0.303 C  
HETATM   18  N   UNL     1     -11.588  16.101  63.906  1.00  0.00    -1.469 NA 
HETATM   19  H2  UNL     1     -10.918  16.788  64.253  1.00  0.00     0.000 HD 
HETATM   20  H1  UNL     1     -11.587  16.033  62.889  1.00  0.00     0.000 HD 
ENDBRANCH  10  17
ENDBRANCH   5   8
ENDBRANCH   2   3
TORSDOF 5
ENDMDL
MODEL       31
REMARK 921   NORMALIZED FREE ENERGY PREDICTED BY IDOCK:   -4.58 KCAL/MOL
REMARK 922        TOTAL FREE ENERGY PREDICTED BY IDOCK:   -6.32 KCAL/MOL
REMARK 923 INTER-LIGAND FREE ENERGY PREDICTED BY IDOCK:   -6.02 KCAL/MOL
REMARK 924 INTRA-LIGAND FREE ENERGY PREDICTED BY IDOCK:   -0.29 KCAL/MOL
REMARK 927      BINDING AFFINITY PREDICTED BY RF-SCORE:    0.00 PKD
ROOT
HETATM    1  C   UNL     1     -11.471  12.644  66.252  1.00  0.00    -0.415 C  
HETATM    2  C   UNL     1     -11.997  14.042  65.973  1.00  0.00    -0.416 C  
ENDROOT
BRANCH   2   3
HETATM    3  N   UNL     1     -11.268  15.087  66.694  1.00  0.00    -0.332 N  
HETATM    4  O   UNL     1     -10.602  16.039  64.687  1.00  0.00    -0.564 OA 
HETATM    5  C   UNL     1     -10.572  16.030  65.916  1.00  0.00    -0.328 C  
BRANCH   3   6
HETATM    6  C   UNL     1     -10.961  14.913  68.116  1.00  0.00    -0.272 C  
HETATM    7  C   UNL     1     -12.051  15.224  69.128  1.00  0.00    -0.266 C  
ENDBRANCH   3   6
BRANCH   5   8
HETATM    8  C   UNL     1      -9.754  17.113  66.633  1.00  0.00    -0.285 C  
HETATM    9  C   UNL     1     -10.173  18.569  66.369  1.00  0.00    -0.449 C  
HETATM   10  C   UNL     1     -10.536  17.930  67.672  1.00  0.00    -0.398 C  
BRANCH   8  11
HETATM   11  C   UNL     1      -8.236  16.878  66.609  1.00  0.00    -0.292 A  
HETATM   12  C   UNL     1      -7.696  15.774  67.299  1.00  0.00    -0.232 A  
HETATM   13  C   UNL     1      -6.323  15.643  67.523  1.00  0.00    -0.181 A  
HETATM   14  C   UNL     1      -7.318  17.796  66.071  1.00  0.00    -0.307 A  
HETATM   15  C   UNL     1      -5.448  16.610  67.043  1.00  0.00    -0.134 A  
HETATM   16  C   UNL     1      -5.942  17.675  66.296  1.00  0.00    -0.255 A  
ENDBRANCH   8  11
BRANCH  10  17
HETATM   17  C   UNL     1     -10.001  18.510  68.932  1.00  0.00    -0.347 C  
HETATM   18  N   UNL     1     -10.471  19.887  69.047  1.00  0.00    -0.555 NA 
HETATM   19  H2  UNL     1     -11.487  19.960  68.983  1.00  0.00     0.000 HD 
HETATM   20  H1  UNL     1     -10.104  20.284  69.911  1.00  0.00     0.000 HD 
ENDBRANCH  10  17
ENDBRANCH   5   8
ENDBRANCH   2   3
TORSDOF 5
ENDMDL
MODEL       32
REMARK 921   NORMALIZED FREE ENERGY PREDICTED BY IDOCK:   -4.56 KCAL/MOL
REMARK 922        TOTAL FREE ENERGY PREDICTED BY IDOCK:   -6.29 KCAL/MOL
REMARK 923 INTER-LIGAND FREE ENERGY PREDICTED BY IDOCK:   -5.80 KCAL/MOL
REMARK 924 INTRA-LIGAND FREE ENERGY PREDICTED BY IDOCK:   -0.49 KCAL/MOL
REMARK 927      BINDING AFFINITY PREDICTED BY RF-SCORE:    0.00 PKD
ROOT
HETATM    1  C   UNL     1      -6.896   9.710  64.973  1.00  0.00    -0.104 C  
HETATM    2  C   UNL     1      -7.519  10.115  66.298  1.00  0.00    -0.112 C  
ENDROOT
BRANCH   2   3
HETATM    3  N   UNL     1      -8.846  10.718  66.151  1.00  0.00    -0.171 N  
HETATM    4  O   UNL     1      -8.125  12.627  67.251  1.00  0.00    -0.176 OA 
HETATM    5  C   UNL     1      -9.030  11.995  66.710  1.00  0.00    -0.198 C  
BRANCH   3   6
HETATM    6  C   UNL     1      -9.994   9.876  65.806  1.00  0.00    -0.277 C  
HETATM    7  C   UNL     1     -10.207   8.595  66.595  1.00  0.00    -0.343 C  
ENDBRANCH   3   6
BRANCH   5   8
HETATM    8  C   UNL     1     -10.419  12.642  66.621  1.00  0.00    -0.261 C  
HETATM    9  C   UNL     1     -10.504  13.974  65.857  1.00  0.00    -0.314 C  
HETATM   10  C   UNL     1     -11.003  12.725  65.203  1.00  0.00    -0.323 C  
BRANCH   8  11
HETATM   11  C   UNL     1     -11.214  12.617  67.936  1.00  0.00    -0.310 A  
HETATM   12  C   UNL     1     -11.543  13.834  68.568  1.00  0.00    -0.373 A  
HETATM   13  C   UNL     1     -12.039  13.876  69.873  1.00  0.00    -0.406 A  
HETATM   14  C   UNL     1     -11.501  11.439  68.647  1.00  0.00    -0.359 A  
HETATM   15  C   UNL     1     -12.240  12.695  70.577  1.00  0.00    -0.383 A  
HETATM   16  C   UNL     1     -11.993  11.474  69.956  1.00  0.00    -0.435 A  
ENDBRANCH   8  11
BRANCH  10  17
HETATM   17  C   UNL     1     -12.439  12.634  64.826  1.00  0.00    -0.484 C  
HETATM   18  N   UNL     1     -13.102  13.873  65.221  1.00  0.00    -0.770 NA 
HETATM   19  H2  UNL     1     -12.647  14.700  64.835  1.00  0.00     0.000 HD 
HETATM   20  H1  UNL     1     -14.086  13.810  64.963  1.00  0.00     0.000 HD 
ENDBRANCH  10  17
ENDBRANCH   5   8
ENDBRANCH   2   3
TORSDOF 5
ENDMDL
MODEL       33
REMARK 921   NORMALIZED FREE ENERGY PREDICTED BY IDOCK:   -4.56 KCAL/MOL
REMARK 922        TOTAL FREE ENERGY PREDICTED BY IDOCK:   -6.29 KCAL/MOL
REMARK 923 INTER-LIGAND FREE ENERGY PREDICTED BY IDOCK:   -6.15 KCAL/MOL
REMARK 924 INTRA-LIGAND FREE ENERGY PREDICTED BY IDOCK:   -0.14 KCAL/MOL
REMARK 927      BINDING AFFINITY PREDICTED BY RF-SCORE:    0.00 PKD
ROOT
HETATM    1  C   UNL     1     -10.194  16.500  65.995  1.00  0.00    -0.372 C  
HETATM    2  C   UNL     1      -9.997  15.113  66.583  1.00  0.00    -0.251 C  
ENDROOT
BRANCH   2   3
HETATM    3  N   UNL     1     -11.004  14.764  67.587  1.00  0.00    -0.282 N  
HETATM    4  O   UNL     1      -9.433  14.998  69.277  1.00  0.00    -0.211 OA 
HETATM    5  C   UNL     1     -10.577  14.713  68.926  1.00  0.00    -0.253 C  
BRANCH   3   6
HETATM    6  C   UNL     1     -12.255  14.124  67.173  1.00  0.00    -0.313 C  
HETATM    7  C   UNL     1     -12.196  13.084  66.067  1.00  0.00    -0.463 C  
ENDBRANCH   3   6
BRANCH   5   8
HETATM    8  C   UNL     1     -11.589  14.302  70.005  1.00  0.00    -0.325 C  
HETATM    9  C   UNL     1     -11.465  15.016  71.362  1.00  0.00    -0.369 C  
HETATM   10  C   UNL     1     -12.565  15.410  70.428  1.00  0.00    -0.433 C  
BRANCH   8  11
HETATM   11  C   UNL     1     -11.825  12.788  70.107  1.00  0.00    -0.326 A  
HETATM   12  C   UNL     1     -12.777  12.297  71.025  1.00  0.00    -0.319 A  
HETATM   13  C   UNL     1     -12.863  10.939  71.343  1.00  0.00    -0.554 A  
HETATM   14  C   UNL     1     -11.031  11.832  69.451  1.00  0.00    -0.185 A  
HETATM   15  C   UNL     1     -12.009  10.029  70.732  1.00  0.00    -0.426 A  
HETATM   16  C   UNL     1     -11.108  10.471  69.768  1.00  0.00    -0.354 A  
ENDBRANCH   8  11
BRANCH  10  17
HETATM   17  C   UNL     1     -13.976  15.233  70.862  1.00  0.00    -0.167 C  
HETATM   18  N   UNL     1     -14.072  15.569  72.280  1.00  0.00    -0.550 NA 
HETATM   19  H2  UNL     1     -13.713  16.501  72.486  1.00  0.00     0.000 HD 
HETATM   20  H1  UNL     1     -15.039  15.447  72.577  1.00  0.00     0.000 HD 
ENDBRANCH  10  17
ENDBRANCH   5   8
ENDBRANCH   2   3
TORSDOF 5
ENDMDL
MODEL       34
REMARK 921   NORMALIZED FREE ENERGY PREDICTED BY IDOCK:   -4.55 KCAL/MOL
REMARK 922        TOTAL FREE ENERGY PREDICTED BY IDOCK:   -6.28 KCAL/MOL
REMARK 923 INTER-LIGAND FREE ENERGY PREDICTED BY IDOCK:   -5.92 KCAL/MOL
REMARK 924 INTRA-LIGAND FREE ENERGY PREDICTED BY IDOCK:   -0.36 KCAL/MOL
REMARK 927      BINDING AFFINITY PREDICTED BY RF-SCORE:    0.00 PKD
ROOT
HETATM    1  C   UNL     1     -10.108   8.788  68.543  1.00  0.00    -0.210 C  
HETATM    2  C   UNL     1      -9.570  10.207  68.470  1.00  0.00    -0.154 C  
ENDROOT
BRANCH   2   3
HETATM    3  N   UNL     1     -10.367  11.083  67.610  1.00  0.00    -0.184 N  
HETATM    4  O   UNL     1      -8.453  11.770  66.496  1.00  0.00    -0.179 OA 
HETATM    5  C   UNL     1      -9.668  11.851  66.661  1.00  0.00    -0.205 C  
BRANCH   3   6
HETATM    6  C   UNL     1     -11.739  11.429  67.993  1.00  0.00    -0.254 C  
HETATM    7  C   UNL     1     -12.016  11.753  69.451  1.00  0.00    -0.361 C  
ENDBRANCH   3   6
BRANCH   5   8
HETATM    8  C   UNL     1     -10.461  12.820  65.773  1.00  0.00    -0.294 C  
HETATM    9  C   UNL     1     -10.192  12.734  64.261  1.00  0.00    -0.352 C  
HETATM   10  C   UNL     1     -11.454  12.149  64.812  1.00  0.00    -0.377 C  
BRANCH   8  11
HETATM   11  C   UNL     1     -10.544  14.254  66.318  1.00  0.00    -0.291 A  
HETATM   12  C   UNL     1      -9.573  15.199  65.929  1.00  0.00    -0.373 A  
HETATM   13  C   UNL     1      -9.447  16.434  66.571  1.00  0.00    -0.296 A  
HETATM   14  C   UNL     1     -11.446  14.652  67.321  1.00  0.00    -0.386 A  
HETATM   15  C   UNL     1     -10.306  16.765  67.612  1.00  0.00    -0.309 A  
HETATM   16  C   UNL     1     -11.321  15.884  67.972  1.00  0.00    -0.284 A  
ENDBRANCH   8  11
BRANCH  10  17
HETATM   17  C   UNL     1     -12.760  12.697  64.358  1.00  0.00    -0.332 C  
HETATM   18  N   UNL     1     -12.508  13.719  63.346  1.00  0.00    -1.072 NA 
HETATM   19  H2  UNL     1     -11.939  13.372  62.574  1.00  0.00     0.000 HD 
HETATM   20  H1  UNL     1     -13.403  14.095  63.036  1.00  0.00     0.000 HD 
ENDBRANCH  10  17
ENDBRANCH   5   8
ENDBRANCH   2   3
TORSDOF 5
ENDMDL
MODEL       35
REMARK 921   NORMALIZED FREE ENERGY PREDICTED BY IDOCK:   -4.54 KCAL/MOL
REMARK 922        TOTAL FREE ENERGY PREDICTED BY IDOCK:   -6.26 KCAL/MOL
REMARK 923 INTER-LIGAND FREE ENERGY PREDICTED BY IDOCK:   -6.05 KCAL/MOL
REMARK 924 INTRA-LIGAND FREE ENERGY PREDICTED BY IDOCK:   -0.22 KCAL/MOL
REMARK 927      BINDING AFFINITY PREDICTED BY RF-SCORE:    0.00 PKD
ROOT
HETATM    1  C   UNL     1     -12.733  10.660  70.007  1.00  0.00    -0.157 C  
HETATM    2  C   UNL     1     -11.473  11.500  69.877  1.00  0.00    -0.260 C  
ENDROOT
BRANCH   2   3
HETATM    3  N   UNL     1     -11.518  12.440  68.755  1.00  0.00    -0.279 N  
HETATM    4  O   UNL     1     -10.008  11.136  67.573  1.00  0.00    -0.178 OA 
HETATM    5  C   UNL     1     -10.698  12.151  67.650  1.00  0.00    -0.220 C  
BRANCH   3   6
HETATM    6  C   UNL     1     -12.069  13.783  68.951  1.00  0.00    -0.313 C  
HETATM    7  C   UNL     1     -11.585  14.589  70.145  1.00  0.00    -0.334 C  
ENDBRANCH   3   6
BRANCH   5   8
HETATM    8  C   UNL     1     -10.678  13.136  66.473  1.00  0.00    -0.288 C  
HETATM    9  C   UNL     1     -10.618  12.517  65.066  1.00  0.00    -0.329 C  
HETATM   10  C   UNL     1     -11.914  13.078  65.562  1.00  0.00    -0.470 C  
BRANCH   8  11
HETATM   11  C   UNL     1      -9.745  14.341  66.672  1.00  0.00    -0.297 A  
HETATM   12  C   UNL     1     -10.134  15.605  66.183  1.00  0.00    -0.333 A  
HETATM   13  C   UNL     1      -9.239  16.675  66.110  1.00  0.00    -0.312 A  
HETATM   14  C   UNL     1      -8.437  14.234  67.176  1.00  0.00    -0.220 A  
HETATM   15  C   UNL     1      -7.930  16.513  66.546  1.00  0.00    -0.345 A  
HETATM   16  C   UNL     1      -7.534  15.300  67.100  1.00  0.00    -0.202 A  
ENDBRANCH   8  11
BRANCH  10  17
HETATM   17  C   UNL     1     -12.532  14.215  64.830  1.00  0.00    -0.401 C  
HETATM   18  N   UNL     1     -12.427  13.958  63.397  1.00  0.00    -1.110 NA 
HETATM   19  H2  UNL     1     -12.826  13.058  63.131  1.00  0.00     0.000 HD 
HETATM   20  H1  UNL     1     -12.851  14.738  62.896  1.00  0.00     0.000 HD 
ENDBRANCH  10  17
ENDBRANCH   5   8
ENDBRANCH   2   3
TORSDOF 5
ENDMDL
MODEL       36
REMARK 921   NORMALIZED FREE ENERGY PREDICTED BY IDOCK:   -4.54 KCAL/MOL
REMARK 922        TOTAL FREE ENERGY PREDICTED BY IDOCK:   -6.26 KCAL/MOL
REMARK 923 INTER-LIGAND FREE ENERGY PREDICTED BY IDOCK:   -5.84 KCAL/MOL
REMARK 924 INTRA-LIGAND FREE ENERGY PREDICTED BY IDOCK:   -0.42 KCAL/MOL
REMARK 927      BINDING AFFINITY PREDICTED BY RF-SCORE:    0.00 PKD
ROOT
HETATM    1  C   UNL     1      -9.659   9.787  69.873  1.00  0.00    -0.269 C  
HETATM    2  C   UNL     1     -10.221   9.576  68.477  1.00  0.00    -0.199 C  
ENDROOT
BRANCH   2   3
HETATM    3  N   UNL     1     -10.086  10.753  67.617  1.00  0.00    -0.172 N  
HETATM    4  O   UNL     1     -12.267  11.381  68.096  1.00  0.00    -0.602 OA 
HETATM    5  C   UNL     1     -11.218  11.578  67.486  1.00  0.00    -0.298 C  
BRANCH   3   6
HETATM    6  C   UNL     1      -8.985  10.830  66.655  1.00  0.00    -0.153 C  
HETATM    7  C   UNL     1      -7.656  11.397  67.129  1.00  0.00    -0.145 C  
ENDBRANCH   3   6
BRANCH   5   8
HETATM    8  C   UNL     1     -11.135  12.795  66.554  1.00  0.00    -0.321 C  
HETATM    9  C   UNL     1     -10.885  12.498  65.066  1.00  0.00    -0.324 C  
HETATM   10  C   UNL     1     -12.259  12.887  65.511  1.00  0.00    -0.527 C  
BRANCH   8  11
HETATM   11  C   UNL     1     -10.308  13.964  67.112  1.00  0.00    -0.265 A  
HETATM   12  C   UNL     1      -9.656  14.838  66.218  1.00  0.00    -0.339 A  
HETATM   13  C   UNL     1      -8.699  15.758  66.653  1.00  0.00    -0.323 A  
HETATM   14  C   UNL     1     -10.023  14.130  68.478  1.00  0.00    -0.235 A  
HETATM   15  C   UNL     1      -8.384  15.844  68.004  1.00  0.00    -0.161 A  
HETATM   16  C   UNL     1      -9.062  15.047  68.920  1.00  0.00    -0.202 A  
ENDBRANCH   8  11
BRANCH  10  17
HETATM   17  C   UNL     1     -12.867  14.130  64.967  1.00  0.00    -0.221 C  
HETATM   18  N   UNL     1     -12.424  14.299  63.587  1.00  0.00    -1.083 NA 
HETATM   19  H2  UNL     1     -12.622  13.481  63.010  1.00  0.00     0.000 HD 
HETATM   20  H1  UNL     1     -12.841  15.151  63.214  1.00  0.00     0.000 HD 
ENDBRANCH  10  17
ENDBRANCH   5   8
ENDBRANCH   2   3
TORSDOF 5
ENDMDL
MODEL       37
REMARK 921   NORMALIZED FREE ENERGY PREDICTED BY IDOCK:   -4.53 KCAL/MOL
REMARK 922        TOTAL FREE ENERGY PREDICTED BY IDOCK:   -6.25 KCAL/MOL
REMARK 923 INTER-LIGAND FREE ENERGY PREDICTED BY IDOCK:   -5.83 KCAL/MOL
REMARK 924 INTRA-LIGAND FREE ENERGY PREDICTED BY IDOCK:   -0.42 KCAL/MOL
REMARK 927      BINDING AFFINITY PREDICTED BY RF-SCORE:    0.00 PKD
ROOT
HETATM    1  C   UNL     1     -12.269  14.695  64.252  1.00  0.00    -0.432 C  
HETATM    2  C   UNL     1     -12.609  14.438  65.710  1.00  0.00    -0.296 C  
ENDROOT
BRANCH   2   3
HETATM    3  N   UNL     1     -11.476  13.928  66.485  1.00  0.00    -0.334 N  
HETATM    4  O   UNL     1     -12.118  11.746  66.031  1.00  0.00    -0.399 OA 
HETATM    5  C   UNL     1     -11.358  12.530  66.595  1.00  0.00    -0.334 C  
BRANCH   3   6
HETATM    6  C   UNL     1     -10.765  14.817  67.407  1.00  0.00    -0.281 C  
HETATM    7  C   UNL     1     -11.564  15.502  68.502  1.00  0.00    -0.379 C  
ENDBRANCH   3   6
BRANCH   5   8
HETATM    8  C   UNL     1     -10.213  11.954  67.440  1.00  0.00    -0.214 C  
HETATM    9  C   UNL     1      -9.206  11.057  66.702  1.00  0.00    -0.182 C  
HETATM   10  C   UNL     1      -8.813  12.456  67.056  1.00  0.00    -0.210 C  
BRANCH   8  11
HETATM   11  C   UNL     1     -10.647  11.419  68.813  1.00  0.00    -0.235 A  
HETATM   12  C   UNL     1      -9.956  10.330  69.381  1.00  0.00    -0.254 A  
HETATM   13  C   UNL     1     -10.447   9.644  70.494  1.00  0.00    -0.367 A  
HETATM   14  C   UNL     1     -11.809  11.846  69.480  1.00  0.00    -0.395 A  
HETATM   15  C   UNL     1     -11.639  10.044  71.084  1.00  0.00    -0.460 A  
HETATM   16  C   UNL     1     -12.309  11.160  70.592  1.00  0.00    -0.482 A  
ENDBRANCH   8  11
BRANCH  10  17
HETATM   17  C   UNL     1      -7.663  12.670  67.975  1.00  0.00    -0.139 C  
HETATM   18  N   UNL     1      -6.453  12.830  67.174  1.00  0.00    -0.442 NA 
HETATM   19  H2  UNL     1      -6.540  13.570  66.477  1.00  0.00     0.000 HD 
HETATM   20  H1  UNL     1      -5.665  12.977  67.805  1.00  0.00     0.000 HD 
ENDBRANCH  10  17
ENDBRANCH   5   8
ENDBRANCH   2   3
TORSDOF 5
ENDMDL
MODEL       38
REMARK 921   NORMALIZED FREE ENERGY PREDICTED BY IDOCK:   -4.52 KCAL/MOL
REMARK 922        TOTAL FREE ENERGY PREDICTED BY IDOCK:   -6.24 KCAL/MOL
REMARK 923 INTER-LIGAND FREE ENERGY PREDICTED BY IDOCK:   -5.95 KCAL/MOL
REMARK 924 INTRA-LIGAND FREE ENERGY PREDICTED BY IDOCK:   -0.29 KCAL/MOL
REMARK 927      BINDING AFFINITY PREDICTED BY RF-SCORE:    0.00 PKD
ROOT
HETATM    1  C   UNL     1     -11.541  11.971  68.326  1.00  0.00    -0.394 C  
HETATM    2  C   UNL     1     -11.846  13.249  67.563  1.00  0.00    -0.358 C  
ENDROOT
BRANCH   2   3
HETATM    3  N   UNL     1     -11.006  14.378  67.971  1.00  0.00    -0.252 N  
HETATM    4  O   UNL     1      -9.903  14.323  65.933  1.00  0.00    -0.303 OA 
HETATM    5  C   UNL     1     -10.031  14.810  67.054  1.00  0.00    -0.238 C  
BRANCH   3   6
HETATM    6  C   UNL     1     -10.926  14.752  69.386  1.00  0.00    -0.265 C  
HETATM    7  C   UNL     1     -12.144  15.398  70.026  1.00  0.00    -0.388 C  
ENDBRANCH   3   6
BRANCH   5   8
HETATM    8  C   UNL     1      -9.097  15.957  67.463  1.00  0.00    -0.204 C  
HETATM    9  C   UNL     1      -8.198  15.702  68.685  1.00  0.00    -0.168 C  
HETATM   10  C   UNL     1      -7.598  15.652  67.315  1.00  0.00    -0.247 C  
BRANCH   8  11
HETATM   11  C   UNL     1      -9.753  17.346  67.442  1.00  0.00    -0.269 A  
HETATM   12  C   UNL     1     -10.118  17.920  66.206  1.00  0.00    -0.351 A  
HETATM   13  C   UNL     1     -10.485  19.263  66.097  1.00  0.00    -0.577 A  
HETATM   14  C   UNL     1      -9.870  18.166  68.577  1.00  0.00    -0.393 A  
HETATM   15  C   UNL     1     -10.517  20.067  67.230  1.00  0.00    -0.505 A  
HETATM   16  C   UNL     1     -10.232  19.514  68.474  1.00  0.00    -0.517 A  
ENDBRANCH   8  11
BRANCH  10  17
HETATM   17  C   UNL     1      -6.525  16.620  66.963  1.00  0.00    -0.196 C  
HETATM   18  N   UNL     1      -5.235  16.018  67.283  1.00  0.00    -0.325 NA 
HETATM   19  H2  UNL     1      -5.104  15.110  66.837  1.00  0.00     0.000 HD 
HETATM   20  H1  UNL     1      -4.499  16.682  67.042  1.00  0.00     0.000 HD 
ENDBRANCH  10  17
ENDBRANCH   5   8
ENDBRANCH   2   3
TORSDOF 5
ENDMDL
MODEL       39
REMARK 921   NORMALIZED FREE ENERGY PREDICTED BY IDOCK:   -4.50 KCAL/MOL
REMARK 922        TOTAL FREE ENERGY PREDICTED BY IDOCK:   -6.21 KCAL/MOL
REMARK 923 INTER-LIGAND FREE ENERGY PREDICTED BY IDOCK:   -5.78 KCAL/MOL
REMARK 924 INTRA-LIGAND FREE ENERGY PREDICTED BY IDOCK:   -0.43 KCAL/MOL
REMARK 927      BINDING AFFINITY PREDICTED BY RF-SCORE:    0.00 PKD
ROOT
HETATM    1  C   UNL     1      -7.372  10.755  68.187  1.00  0.00    -0.088 C  
HETATM    2  C   UNL     1      -7.627  11.539  66.911  1.00  0.00    -0.151 C  
ENDROOT
BRANCH   2   3
HETATM    3  N   UNL     1      -8.982  12.089  66.833  1.00  0.00    -0.194 N  
HETATM    4  O   UNL     1      -8.226  14.126  67.641  1.00  0.00    -0.158 OA 
HETATM    5  C   UNL     1      -9.156  13.416  67.265  1.00  0.00    -0.222 C  
BRANCH   3   6
HETATM    6  C   UNL     1     -10.127  11.186  66.698  1.00  0.00    -0.217 C  
HETATM    7  C   UNL     1     -10.116  10.178  65.561  1.00  0.00    -0.338 C  
ENDBRANCH   3   6
BRANCH   5   8
HETATM    8  C   UNL     1     -10.569  14.014  67.247  1.00  0.00    -0.273 C  
HETATM    9  C   UNL     1     -10.793  15.205  66.299  1.00  0.00    -0.333 C  
HETATM   10  C   UNL     1     -11.319  13.858  65.915  1.00  0.00    -0.314 C  
BRANCH   8  11
HETATM   11  C   UNL     1     -11.202  14.187  68.637  1.00  0.00    -0.291 A  
HETATM   12  C   UNL     1     -11.490  13.045  69.412  1.00  0.00    -0.323 A  
HETATM   13  C   UNL     1     -12.281  13.114  70.561  1.00  0.00    -0.405 A  
HETATM   14  C   UNL     1     -11.667  15.418  69.130  1.00  0.00    -0.364 A  
HETATM   15  C   UNL     1     -12.790  14.338  70.979  1.00  0.00    -0.427 A  
HETATM   16  C   UNL     1     -12.464  15.494  70.277  1.00  0.00    -0.403 A  
ENDBRANCH   8  11
BRANCH  10  17
HETATM   17  C   UNL     1     -12.784  13.681  65.736  1.00  0.00    -0.416 C  
HETATM   18  N   UNL     1     -13.009  12.594  64.789  1.00  0.00    -0.867 NA 
HETATM   19  H2  UNL     1     -12.542  11.730  65.066  1.00  0.00     0.000 HD 
HETATM   20  H1  UNL     1     -14.014  12.473  64.666  1.00  0.00     0.000 HD 
ENDBRANCH  10  17
ENDBRANCH   5   8
ENDBRANCH   2   3
TORSDOF 5
ENDMDL
MODEL       40
REMARK 921   NORMALIZED FREE ENERGY PREDICTED BY IDOCK:   -4.47 KCAL/MOL
REMARK 922        TOTAL FREE ENERGY PREDICTED BY IDOCK:   -6.18 KCAL/MOL
REMARK 923 INTER-LIGAND FREE ENERGY PREDICTED BY IDOCK:   -5.95 KCAL/MOL
REMARK 924 INTRA-LIGAND FREE ENERGY PREDICTED BY IDOCK:   -0.22 KCAL/MOL
REMARK 927      BINDING AFFINITY PREDICTED BY RF-SCORE:    0.00 PKD
ROOT
HETATM    1  C   UNL     1      -8.796  10.319  64.296  1.00  0.00    -0.234 C  
HETATM    2  C   UNL     1     -10.227  10.747  64.575  1.00  0.00    -0.359 C  
ENDROOT
BRANCH   2   3
HETATM    3  N   UNL     1     -10.329  12.107  65.110  1.00  0.00    -0.271 N  
HETATM    4  O   UNL     1     -10.304  11.281  67.276  1.00  0.00    -0.189 OA 
HETATM    5  C   UNL     1     -10.389  12.238  66.509  1.00  0.00    -0.227 C  
BRANCH   3   6
HETATM    6  C   UNL     1     -10.745  13.205  64.234  1.00  0.00    -0.409 C  
HETATM    7  C   UNL     1     -11.961  12.993  63.347  1.00  0.00    -0.592 C  
ENDBRANCH   3   6
BRANCH   5   8
HETATM    8  C   UNL     1     -10.547  13.642  67.109  1.00  0.00    -0.272 C  
HETATM    9  C   UNL     1     -11.917  14.315  66.917  1.00  0.00    -0.467 C  
HETATM   10  C   UNL     1     -11.566  13.743  68.254  1.00  0.00    -0.373 C  
BRANCH   8  11
HETATM   11  C   UNL     1      -9.348  14.572  66.868  1.00  0.00    -0.258 A  
HETATM   12  C   UNL     1      -8.100  14.253  67.441  1.00  0.00    -0.213 A  
HETATM   13  C   UNL     1      -7.046  15.169  67.468  1.00  0.00    -0.225 A  
HETATM   14  C   UNL     1      -9.451  15.823  66.236  1.00  0.00    -0.349 A  
HETATM   15  C   UNL     1      -7.207  16.428  66.902  1.00  0.00    -0.266 A  
HETATM   16  C   UNL     1      -8.401  16.748  66.265  1.00  0.00    -0.353 A  
ENDBRANCH   8  11
BRANCH  10  17
HETATM   17  C   UNL     1     -11.494  14.652  69.429  1.00  0.00    -0.296 C  
HETATM   18  N   UNL     1     -12.852  15.026  69.810  1.00  0.00    -0.600 NA 
HETATM   19  H2  UNL     1     -13.449  14.216  69.978  1.00  0.00     0.000 HD 
HETATM   20  H1  UNL     1     -12.803  15.650  70.616  1.00  0.00     0.000 HD 
ENDBRANCH  10  17
ENDBRANCH   5   8
ENDBRANCH   2   3
TORSDOF 5
ENDMDL
MODEL       41
REMARK 921   NORMALIZED FREE ENERGY PREDICTED BY IDOCK:   -4.42 KCAL/MOL
REMARK 922        TOTAL FREE ENERGY PREDICTED BY IDOCK:   -6.11 KCAL/MOL
REMARK 923 INTER-LIGAND FREE ENERGY PREDICTED BY IDOCK:   -6.45 KCAL/MOL
REMARK 924 INTRA-LIGAND FREE ENERGY PREDICTED BY IDOCK:    0.34 KCAL/MOL
REMARK 927      BINDING AFFINITY PREDICTED BY RF-SCORE:    0.00 PKD
ROOT
HETATM    1  C   UNL     1     -10.494  16.171  65.682  1.00  0.00    -0.402 C  
HETATM    2  C   UNL     1     -10.143  14.694  65.761  1.00  0.00    -0.340 C  
ENDROOT
BRANCH   2   3
HETATM    3  N   UNL     1     -10.937  13.964  66.751  1.00  0.00    -0.296 N  
HETATM    4  O   UNL     1      -9.009  13.371  67.893  1.00  0.00    -0.182 OA 
HETATM    5  C   UNL     1     -10.231  13.307  67.773  1.00  0.00    -0.228 C  
BRANCH   3   6
HETATM    6  C   UNL     1     -12.329  13.615  66.454  1.00  0.00    -0.389 C  
HETATM    7  C   UNL     1     -12.647  13.035  65.086  1.00  0.00    -0.530 C  
ENDBRANCH   3   6
BRANCH   5   8
HETATM    8  C   UNL     1     -11.022  12.488  68.803  1.00  0.00    -0.294 C  
HETATM    9  C   UNL     1     -11.884  11.343  68.245  1.00  0.00    -0.320 C  
HETATM   10  C   UNL     1     -10.592  11.018  68.926  1.00  0.00    -0.239 C  
BRANCH   8  11
HETATM   11  C   UNL     1     -11.715  13.331  69.885  1.00  0.00    -0.330 A  
HETATM   12  C   UNL     1     -12.442  12.684  70.904  1.00  0.00    -0.368 A  
HETATM   13  C   UNL     1     -13.291  13.386  71.764  1.00  0.00    -0.479 A  
HETATM   14  C   UNL     1     -11.807  14.732  69.835  1.00  0.00    -0.364 A  
HETATM   15  C   UNL     1     -13.419  14.764  71.638  1.00  0.00    -0.468 A  
HETATM   16  C   UNL     1     -12.659  15.441  70.689  1.00  0.00    -0.491 A  
ENDBRANCH   8  11
BRANCH  10  17
HETATM   17  C   UNL     1     -10.617  10.185  70.157  1.00  0.00    -0.281 C  
HETATM   18  N   UNL     1     -11.664   9.179  70.017  1.00  0.00    -0.451 NA 
HETATM   19  H2  UNL     1     -11.560   8.621  69.169  1.00  0.00     0.000 HD 
HETATM   20  H1  UNL     1     -11.681   8.608  70.862  1.00  0.00     0.000 HD 
ENDBRANCH  10  17
ENDBRANCH   5   8
ENDBRANCH   2   3
TORSDOF 5
ENDMDL
MODEL       42
REMARK 921   NORMALIZED FREE ENERGY PREDICTED BY IDOCK:   -4.40 KCAL/MOL
REMARK 922        TOTAL FREE ENERGY PREDICTED BY IDOCK:   -6.08 KCAL/MOL
REMARK 923 INTER-LIGAND FREE ENERGY PREDICTED BY IDOCK:   -5.70 KCAL/MOL
REMARK 924 INTRA-LIGAND FREE ENERGY PREDICTED BY IDOCK:   -0.37 KCAL/MOL
REMARK 927      BINDING AFFINITY PREDICTED BY RF-SCORE:    0.00 PKD
ROOT
HETATM    1  C   UNL     1     -12.854  12.092  63.625  1.00  0.00    -0.472 C  
HETATM    2  C   UNL     1     -11.388  12.491  63.601  1.00  0.00    -0.485 C  
ENDROOT
BRANCH   2   3
HETATM    3  N   UNL     1     -10.881  12.904  64.910  1.00  0.00    -0.295 N  
HETATM    4  O   UNL     1     -10.130  10.750  65.324  1.00  0.00    -0.257 OA 
HETATM    5  C   UNL     1     -10.285  11.908  65.705  1.00  0.00    -0.242 C  
BRANCH   3   6
HETATM    6  C   UNL     1     -11.331  14.168  65.500  1.00  0.00    -0.319 C  
HETATM    7  C   UNL     1     -10.837  15.464  64.881  1.00  0.00    -0.445 C  
ENDBRANCH   3   6
BRANCH   5   8
HETATM    8  C   UNL     1      -9.785  12.289  67.106  1.00  0.00    -0.203 C  
HETATM    9  C   UNL     1      -8.324  11.930  67.428  1.00  0.00    -0.163 C  
HETATM   10  C   UNL     1      -8.677  13.352  67.128  1.00  0.00    -0.220 C  
BRANCH   8  11
HETATM   11  C   UNL     1     -10.776  11.978  68.238  1.00  0.00    -0.252 A  
HETATM   12  C   UNL     1     -11.434  13.039  68.892  1.00  0.00    -0.345 A  
HETATM   13  C   UNL     1     -12.148  12.846  70.077  1.00  0.00    -0.357 A  
HETATM   14  C   UNL     1     -10.954  10.694  68.782  1.00  0.00    -0.292 A  
HETATM   15  C   UNL     1     -12.240  11.575  70.631  1.00  0.00    -0.473 A  
HETATM   16  C   UNL     1     -11.663  10.494  69.972  1.00  0.00    -0.394 A  
ENDBRANCH   8  11
BRANCH  10  17
HETATM   17  C   UNL     1      -8.457  14.385  68.175  1.00  0.00    -0.160 C  
HETATM   18  N   UNL     1      -7.732  13.774  69.285  1.00  0.00    -0.330 NA 
HETATM   19  H2  UNL     1      -6.864  13.328  68.987  1.00  0.00     0.000 HD 
HETATM   20  H1  UNL     1      -7.582  14.482  70.003  1.00  0.00     0.000 HD 
ENDBRANCH  10  17
ENDBRANCH   5   8
ENDBRANCH   2   3
TORSDOF 5
ENDMDL
MODEL       43
REMARK 921   NORMALIZED FREE ENERGY PREDICTED BY IDOCK:   -4.39 KCAL/MOL
REMARK 922        TOTAL FREE ENERGY PREDICTED BY IDOCK:   -6.07 KCAL/MOL
REMARK 923 INTER-LIGAND FREE ENERGY PREDICTED BY IDOCK:   -6.07 KCAL/MOL
REMARK 924 INTRA-LIGAND FREE ENERGY PREDICTED BY IDOCK:    0.01 KCAL/MOL
REMARK 927      BINDING AFFINITY PREDICTED BY RF-SCORE:    0.00 PKD
ROOT
HETATM    1  C   UNL     1      -9.880  20.804  67.093  1.00  0.00    -0.402 C  
HETATM    2  C   UNL     1     -10.228  19.644  66.175  1.00  0.00    -0.508 C  
ENDROOT
BRANCH   2   3
HETATM    3  N   UNL     1      -9.809  18.344  66.703  1.00  0.00    -0.334 N  
HETATM    4  O   UNL     1     -11.141  17.258  65.147  1.00  0.00    -0.474 OA 
HETATM    5  C   UNL     1     -10.374  17.203  66.106  1.00  0.00    -0.322 C  
BRANCH   3   6
HETATM    6  C   UNL     1      -9.166  18.265  68.017  1.00  0.00    -0.290 C  
HETATM    7  C   UNL     1      -7.665  18.488  68.095  1.00  0.00    -0.302 C  
ENDBRANCH   3   6
BRANCH   5   8
HETATM    8  C   UNL     1     -10.001  15.822  66.663  1.00  0.00    -0.268 C  
HETATM    9  C   UNL     1      -9.541  14.774  65.634  1.00  0.00    -0.235 C  
HETATM   10  C   UNL     1      -8.521  15.441  66.502  1.00  0.00    -0.248 C  
BRANCH   8  11
HETATM   11  C   UNL     1     -10.974  15.282  67.722  1.00  0.00    -0.312 A  
HETATM   12  C   UNL     1     -11.450  16.147  68.728  1.00  0.00    -0.340 A  
HETATM   13  C   UNL     1     -12.131  15.669  69.850  1.00  0.00    -0.360 A  
HETATM   14  C   UNL     1     -11.302  13.921  67.852  1.00  0.00    -0.320 A  
HETATM   15  C   UNL     1     -12.371  14.307  69.986  1.00  0.00    -0.403 A  
HETATM   16  C   UNL     1     -11.978  13.435  68.976  1.00  0.00    -0.357 A  
ENDBRANCH   8  11
BRANCH  10  17
HETATM   17  C   UNL     1      -7.712  14.608  67.432  1.00  0.00    -0.201 C  
HETATM   18  N   UNL     1      -7.872  13.206  67.058  1.00  0.00    -0.397 NA 
HETATM   19  H2  UNL     1      -7.644  13.034  66.079  1.00  0.00     0.000 HD 
HETATM   20  H1  UNL     1      -7.318  12.636  67.696  1.00  0.00     0.000 HD 
ENDBRANCH  10  17
ENDBRANCH   5   8
ENDBRANCH   2   3
TORSDOF 5
ENDMDL
MODEL       44
REMARK 921   NORMALIZED FREE ENERGY PREDICTED BY IDOCK:   -4.38 KCAL/MOL
REMARK 922        TOTAL FREE ENERGY PREDICTED BY IDOCK:   -6.06 KCAL/MOL
REMARK 923 INTER-LIGAND FREE ENERGY PREDICTED BY IDOCK:   -5.65 KCAL/MOL
REMARK 924 INTRA-LIGAND FREE ENERGY PREDICTED BY IDOCK:   -0.41 KCAL/MOL
REMARK 927      BINDING AFFINITY PREDICTED BY RF-SCORE:    0.00 PKD
ROOT
HETATM    1  C   UNL     1     -12.562  12.057  63.228  1.00  0.00    -0.512 C  
HETATM    2  C   UNL     1     -11.199  12.498  63.736  1.00  0.00    -0.462 C  
ENDROOT
BRANCH   2   3
HETATM    3  N   UNL     1     -11.047  12.345  65.184  1.00  0.00    -0.300 N  
HETATM    4  O   UNL     1     -11.361  14.623  65.481  1.00  0.00    -0.329 OA 
HETATM    5  C   UNL     1     -11.122  13.516  65.959  1.00  0.00    -0.293 C  
BRANCH   3   6
HETATM    6  C   UNL     1     -10.457  11.120  65.729  1.00  0.00    -0.246 C  
HETATM    7  C   UNL     1      -9.561  10.291  64.823  1.00  0.00    -0.369 C  
ENDBRANCH   3   6
BRANCH   5   8
HETATM    8  C   UNL     1     -10.917  13.407  67.477  1.00  0.00    -0.284 C  
HETATM    9  C   UNL     1     -12.094  13.862  68.357  1.00  0.00    -0.327 C  
HETATM   10  C   UNL     1     -11.838  12.398  68.180  1.00  0.00    -0.372 C  
BRANCH   8  11
HETATM   11  C   UNL     1      -9.541  13.884  67.966  1.00  0.00    -0.219 A  
HETATM   12  C   UNL     1      -9.469  14.871  68.970  1.00  0.00    -0.196 A  
HETATM   13  C   UNL     1      -8.271  15.520  69.281  1.00  0.00    -0.255 A  
HETATM   14  C   UNL     1      -8.330  13.513  67.357  1.00  0.00    -0.199 A  
HETATM   15  C   UNL     1      -7.105  15.183  68.605  1.00  0.00    -0.115 A  
HETATM   16  C   UNL     1      -7.128  14.164  67.659  1.00  0.00    -0.199 A  
ENDBRANCH   8  11
BRANCH  10  17
HETATM   17  C   UNL     1     -11.507  11.576  69.374  1.00  0.00    -0.309 C  
HETATM   18  N   UNL     1     -12.547  10.567  69.546  1.00  0.00    -0.662 NA 
HETATM   19  H2  UNL     1     -12.686  10.002  68.708  1.00  0.00     0.000 HD 
HETATM   20  H1  UNL     1     -12.320  10.003  70.365  1.00  0.00     0.000 HD 
ENDBRANCH  10  17
ENDBRANCH   5   8
ENDBRANCH   2   3
TORSDOF 5
ENDMDL
MODEL       45
REMARK 921   NORMALIZED FREE ENERGY PREDICTED BY IDOCK:   -4.36 KCAL/MOL
REMARK 922        TOTAL FREE ENERGY PREDICTED BY IDOCK:   -6.03 KCAL/MOL
REMARK 923 INTER-LIGAND FREE ENERGY PREDICTED BY IDOCK:   -5.74 KCAL/MOL
REMARK 924 INTRA-LIGAND FREE ENERGY PREDICTED BY IDOCK:   -0.29 KCAL/MOL
REMARK 927      BINDING AFFINITY PREDICTED BY RF-SCORE:    0.00 PKD
ROOT
HETATM    1  C   UNL     1      -7.531  19.921  67.307  1.00  0.00    -0.297 C  
HETATM    2  C   UNL     1      -8.463  19.385  68.381  1.00  0.00    -0.353 C  
ENDROOT
BRANCH   2   3
HETATM    3  N   UNL     1      -8.705  17.945  68.269  1.00  0.00    -0.269 N  
HETATM    4  O   UNL     1     -10.867  18.343  67.532  1.00  0.00    -0.408 OA 
HETATM    5  C   UNL     1      -9.987  17.546  67.852  1.00  0.00    -0.312 C  
BRANCH   3   6
HETATM    6  C   UNL     1      -7.803  17.001  68.933  1.00  0.00    -0.224 C  
HETATM    7  C   UNL     1      -6.519  16.612  68.220  1.00  0.00    -0.133 C  
ENDBRANCH   3   6
BRANCH   5   8
HETATM    8  C   UNL     1     -10.298  16.045  67.769  1.00  0.00    -0.279 C  
HETATM    9  C   UNL     1     -10.985  15.561  66.480  1.00  0.00    -0.243 C  
HETATM   10  C   UNL     1      -9.528  15.286  66.678  1.00  0.00    -0.281 C  
BRANCH   8  11
HETATM   11  C   UNL     1     -10.884  15.448  69.057  1.00  0.00    -0.244 A  
HETATM   12  C   UNL     1     -11.471  14.166  69.021  1.00  0.00    -0.322 A  
HETATM   13  C   UNL     1     -12.232  13.674  70.084  1.00  0.00    -0.413 A  
HETATM   14  C   UNL     1     -11.019  16.170  70.255  1.00  0.00    -0.345 A  
HETATM   15  C   UNL     1     -12.411  14.446  71.225  1.00  0.00    -0.432 A  
HETATM   16  C   UNL     1     -11.785  15.685  71.321  1.00  0.00    -0.478 A  
ENDBRANCH   8  11
BRANCH  10  17
HETATM   17  C   UNL     1      -9.064  13.874  66.737  1.00  0.00    -0.223 C  
HETATM   18  N   UNL     1      -9.574  13.169  65.565  1.00  0.00    -0.488 NA 
HETATM   19  H2  UNL     1      -9.320  13.628  64.690  1.00  0.00     0.000 HD 
HETATM   20  H1  UNL     1      -9.255  12.201  65.606  1.00  0.00     0.000 HD 
ENDBRANCH  10  17
ENDBRANCH   5   8
ENDBRANCH   2   3
TORSDOF 5
ENDMDL
MODEL       46
REMARK 921   NORMALIZED FREE ENERGY PREDICTED BY IDOCK:   -4.34 KCAL/MOL
REMARK 922        TOTAL FREE ENERGY PREDICTED BY IDOCK:   -6.01 KCAL/MOL
REMARK 923 INTER-LIGAND FREE ENERGY PREDICTED BY IDOCK:   -6.36 KCAL/MOL
REMARK 924 INTRA-LIGAND FREE ENERGY PREDICTED BY IDOCK:    0.35 KCAL/MOL
REMARK 927      BINDING AFFINITY PREDICTED BY RF-SCORE:    0.00 PKD
ROOT
HETATM    1  C   UNL     1     -10.879  16.851  67.656  1.00  0.00    -0.244 C  
HETATM    2  C   UNL     1     -10.336  15.637  66.922  1.00  0.00    -0.293 C  
ENDROOT
BRANCH   2   3
HETATM    3  N   UNL     1     -10.979  14.385  67.323  1.00  0.00    -0.291 N  
HETATM    4  O   UNL     1      -9.107  13.791  68.555  1.00  0.00    -0.192 OA 
HETATM    5  C   UNL     1     -10.229  13.516  68.135  1.00  0.00    -0.249 C  
BRANCH   3   6
HETATM    6  C   UNL     1     -12.155  13.903  66.593  1.00  0.00    -0.448 C  
HETATM    7  C   UNL     1     -12.186  14.084  65.085  1.00  0.00    -0.446 C  
ENDBRANCH   3   6
BRANCH   5   8
HETATM    8  C   UNL     1     -10.847  12.170  68.537  1.00  0.00    -0.267 C  
HETATM    9  C   UNL     1     -11.286  11.250  67.384  1.00  0.00    -0.370 C  
HETATM   10  C   UNL     1     -10.027  10.936  68.129  1.00  0.00    -0.188 C  
BRANCH   8  11
HETATM   11  C   UNL     1     -11.854  12.255  69.694  1.00  0.00    -0.393 A  
HETATM   12  C   UNL     1     -12.202  13.518  70.216  1.00  0.00    -0.417 A  
HETATM   13  C   UNL     1     -12.910  13.652  71.413  1.00  0.00    -0.442 A  
HETATM   14  C   UNL     1     -12.339  11.131  70.385  1.00  0.00    -0.430 A  
HETATM   15  C   UNL     1     -13.309  12.519  72.112  1.00  0.00    -0.540 A  
HETATM   16  C   UNL     1     -13.044  11.258  71.587  1.00  0.00    -0.513 A  
ENDBRANCH   8  11
BRANCH  10  17
HETATM   17  C   UNL     1      -9.930   9.650  68.869  1.00  0.00    -0.178 C  
HETATM   18  N   UNL     1     -10.790   8.671  68.212  1.00  0.00    -0.455 NA 
HETATM   19  H2  UNL     1     -10.580   8.568  67.219  1.00  0.00     0.000 HD 
HETATM   20  H1  UNL     1     -10.724   7.788  68.719  1.00  0.00     0.000 HD 
ENDBRANCH  10  17
ENDBRANCH   5   8
ENDBRANCH   2   3
TORSDOF 5
ENDMDL
MODEL       47
REMARK 921   NORMALIZED FREE ENERGY PREDICTED BY IDOCK:   -4.34 KCAL/MOL
REMARK 922        TOTAL FREE ENERGY PREDICTED BY IDOCK:   -6.00 KCAL/MOL
REMARK 923 INTER-LIGAND FREE ENERGY PREDICTED BY IDOCK:   -5.74 KCAL/MOL
REMARK 924 INTRA-LIGAND FREE ENERGY PREDICTED BY IDOCK:   -0.25 KCAL/MOL
REMARK 927      BINDING AFFINITY PREDICTED BY RF-SCORE:    0.00 PKD
ROOT
HETATM    1  C   UNL     1     -13.190  11.852  72.055  1.00  0.00    -0.461 C  
HETATM    2  C   UNL     1     -12.896  10.782  71.017  1.00  0.00    -0.385 C  
ENDROOT
BRANCH   2   3
HETATM    3  N   UNL     1     -12.244   9.597  71.578  1.00  0.00    -0.373 N  
HETATM    4  O   UNL     1     -10.365   9.986  70.277  1.00  0.00    -0.273 OA 
HETATM    5  C   UNL     1     -10.962   9.285  71.092  1.00  0.00    -0.339 C  
BRANCH   3   6
HETATM    6  C   UNL     1     -13.042   8.595  72.289  1.00  0.00    -0.372 C  
HETATM    7  C   UNL     1     -13.947   7.687  71.472  1.00  0.00    -0.500 C  
ENDBRANCH   3   6
BRANCH   5   8
HETATM    8  C   UNL     1     -10.264   8.023  71.617  1.00  0.00    -0.256 C  
HETATM    9  C   UNL     1      -8.989   8.245  72.448  1.00  0.00    -0.297 C  
HETATM   10  C   UNL     1     -10.260   7.878  73.146  1.00  0.00    -0.358 C  
BRANCH   8  11
HETATM   11  C   UNL     1     -10.159   6.884  70.591  1.00  0.00    -0.208 A  
HETATM   12  C   UNL     1      -8.958   6.152  70.492  1.00  0.00    -0.148 A  
HETATM   13  C   UNL     1      -8.711   5.281  69.427  1.00  0.00    -0.109 A  
HETATM   14  C   UNL     1     -11.139   6.623  69.618  1.00  0.00    -0.390 A  
HETATM   15  C   UNL     1      -9.673   5.104  68.440  1.00  0.00    -0.200 A  
HETATM   16  C   UNL     1     -10.896   5.757  68.546  1.00  0.00    -0.257 A  
ENDBRANCH   8  11
BRANCH  10  17
HETATM   17  C   UNL     1     -10.316   6.608  73.918  1.00  0.00    -0.360 C  
HETATM   18  N   UNL     1     -11.347   5.755  73.336  1.00  0.00    -0.459 NA 
HETATM   19  H2  UNL     1     -11.209   5.600  72.337  1.00  0.00     0.000 HD 
HETATM   20  H1  UNL     1     -11.386   4.885  73.866  1.00  0.00     0.000 HD 
ENDBRANCH  10  17
ENDBRANCH   5   8
ENDBRANCH   2   3
TORSDOF 5
ENDMDL
MODEL       48
REMARK 921   NORMALIZED FREE ENERGY PREDICTED BY IDOCK:   -4.33 KCAL/MOL
REMARK 922        TOTAL FREE ENERGY PREDICTED BY IDOCK:   -5.99 KCAL/MOL
REMARK 923 INTER-LIGAND FREE ENERGY PREDICTED BY IDOCK:   -5.85 KCAL/MOL
REMARK 924 INTRA-LIGAND FREE ENERGY PREDICTED BY IDOCK:   -0.14 KCAL/MOL
REMARK 927      BINDING AFFINITY PREDICTED BY RF-SCORE:    0.00 PKD
ROOT
HETATM    1  C   UNL     1      -7.832  17.789  66.433  1.00  0.00    -0.312 C  
HETATM    2  C   UNL     1      -7.606  16.316  66.729  1.00  0.00    -0.250 C  
ENDROOT
BRANCH   2   3
HETATM    3  N   UNL     1      -8.847  15.583  66.989  1.00  0.00    -0.213 N  
HETATM    4  O   UNL     1      -7.672  13.587  67.101  1.00  0.00    -0.111 OA 
HETATM    5  C   UNL     1      -8.744  14.188  67.130  1.00  0.00    -0.224 C  
BRANCH   3   6
HETATM    6  C   UNL     1     -10.139  16.218  66.715  1.00  0.00    -0.278 C  
HETATM    7  C   UNL     1     -10.602  16.308  65.270  1.00  0.00    -0.357 C  
ENDBRANCH   3   6
BRANCH   5   8
HETATM    8  C   UNL     1     -10.028  13.376  67.354  1.00  0.00    -0.230 C  
HETATM    9  C   UNL     1      -9.975  12.309  68.461  1.00  0.00    -0.175 C  
HETATM   10  C   UNL     1     -10.698  13.593  68.719  1.00  0.00    -0.265 C  
BRANCH   8  11
HETATM   11  C   UNL     1     -10.717  12.911  66.062  1.00  0.00    -0.296 A  
HETATM   12  C   UNL     1      -9.929  12.501  64.967  1.00  0.00    -0.198 A  
HETATM   13  C   UNL     1     -10.475  12.306  63.697  1.00  0.00    -0.483 A  
HETATM   14  C   UNL     1     -12.100  13.022  65.837  1.00  0.00    -0.503 A  
HETATM   15  C   UNL     1     -11.836  12.498  63.491  1.00  0.00    -0.616 A  
HETATM   16  C   UNL     1     -12.653  12.834  64.566  1.00  0.00    -0.463 A  
ENDBRANCH   8  11
BRANCH  10  17
HETATM   17  C   UNL     1     -12.156  13.552  69.010  1.00  0.00    -0.291 C  
HETATM   18  N   UNL     1     -12.562  14.853  69.532  1.00  0.00    -0.584 NA 
HETATM   19  H2  UNL     1     -12.308  15.621  68.910  1.00  0.00     0.000 HD 
HETATM   20  H1  UNL     1     -13.562  14.825  69.731  1.00  0.00     0.000 HD 
ENDBRANCH  10  17
ENDBRANCH   5   8
ENDBRANCH   2   3
TORSDOF 5
ENDMDL
MODEL       49
REMARK 921   NORMALIZED FREE ENERGY PREDICTED BY IDOCK:   -4.32 KCAL/MOL
REMARK 922        TOTAL FREE ENERGY PREDICTED BY IDOCK:   -5.98 KCAL/MOL
REMARK 923 INTER-LIGAND FREE ENERGY PREDICTED BY IDOCK:   -5.76 KCAL/MOL
REMARK 924 INTRA-LIGAND FREE ENERGY PREDICTED BY IDOCK:   -0.22 KCAL/MOL
REMARK 927      BINDING AFFINITY PREDICTED BY RF-SCORE:    0.00 PKD
ROOT
HETATM    1  C   UNL     1      -9.232   9.207  68.279  1.00  0.00    -0.135 C  
HETATM    2  C   UNL     1      -9.372  10.549  68.978  1.00  0.00    -0.196 C  
ENDROOT
BRANCH   2   3
HETATM    3  N   UNL     1     -10.269  11.472  68.280  1.00  0.00    -0.190 N  
HETATM    4  O   UNL     1      -8.480  12.846  67.748  1.00  0.00    -0.159 OA 
HETATM    5  C   UNL     1      -9.688  12.624  67.721  1.00  0.00    -0.206 C  
BRANCH   3   6
HETATM    6  C   UNL     1     -11.715  11.394  68.509  1.00  0.00    -0.318 C  
HETATM    7  C   UNL     1     -12.202  10.959  69.881  1.00  0.00    -0.408 C  
ENDBRANCH   3   6
BRANCH   5   8
HETATM    8  C   UNL     1     -10.601  13.642  67.025  1.00  0.00    -0.274 C  
HETATM    9  C   UNL     1     -11.664  14.320  67.907  1.00  0.00    -0.394 C  
HETATM   10  C   UNL     1     -10.444  15.090  67.514  1.00  0.00    -0.256 C  
BRANCH   8  11
HETATM   11  C   UNL     1     -11.116  13.194  65.648  1.00  0.00    -0.296 A  
HETATM   12  C   UNL     1     -12.505  13.095  65.428  1.00  0.00    -0.535 A  
HETATM   13  C   UNL     1     -13.030  12.465  64.297  1.00  0.00    -0.257 A  
HETATM   14  C   UNL     1     -10.279  12.715  64.626  1.00  0.00    -0.319 A  
HETATM   15  C   UNL     1     -12.173  11.932  63.341  1.00  0.00    -0.561 A  
HETATM   16  C   UNL     1     -10.798  12.077  63.493  1.00  0.00    -0.509 A  
ENDBRANCH   8  11
BRANCH  10  17
HETATM   17  C   UNL     1     -10.603  16.325  66.701  1.00  0.00    -0.252 C  
HETATM   18  N   UNL     1      -9.516  16.384  65.729  1.00  0.00    -0.499 NA 
HETATM   19  H2  UNL     1      -9.458  15.543  65.155  1.00  0.00     0.000 HD 
HETATM   20  H1  UNL     1      -9.625  17.231  65.172  1.00  0.00     0.000 HD 
ENDBRANCH  10  17
ENDBRANCH   5   8
ENDBRANCH   2   3
TORSDOF 5
ENDMDL
MODEL       50
REMARK 921   NORMALIZED FREE ENERGY PREDICTED BY IDOCK:   -4.32 KCAL/MOL
REMARK 922        TOTAL FREE ENERGY PREDICTED BY IDOCK:   -5.98 KCAL/MOL
REMARK 923 INTER-LIGAND FREE ENERGY PREDICTED BY IDOCK:   -5.68 KCAL/MOL
REMARK 924 INTRA-LIGAND FREE ENERGY PREDICTED BY IDOCK:   -0.30 KCAL/MOL
REMARK 927      BINDING AFFINITY PREDICTED BY RF-SCORE:    0.00 PKD
ROOT
HETATM    1  C   UNL     1     -12.055  10.313  71.286  1.00  0.00    -0.479 C  
HETATM    2  C   UNL     1     -12.610  10.818  69.964  1.00  0.00    -0.181 C  
ENDROOT
BRANCH   2   3
HETATM    3  N   UNL     1     -11.568  11.176  69.000  1.00  0.00    -0.295 N  
HETATM    4  O   UNL     1     -12.170  13.410  69.144  1.00  0.00    -0.292 OA 
HETATM    5  C   UNL     1     -11.469  12.533  68.644  1.00  0.00    -0.306 C  
BRANCH   3   6
HETATM    6  C   UNL     1     -10.953  10.135  68.173  1.00  0.00    -0.259 C  
HETATM    7  C   UNL     1      -9.707   9.442  68.700  1.00  0.00    -0.160 C  
ENDBRANCH   3   6
BRANCH   5   8
HETATM    8  C   UNL     1     -10.423  12.943  67.599  1.00  0.00    -0.228 C  
HETATM    9  C   UNL     1      -9.672  14.259  67.866  1.00  0.00    -0.222 C  
HETATM   10  C   UNL     1      -8.973  12.958  68.108  1.00  0.00    -0.202 C  
BRANCH   8  11
HETATM   11  C   UNL     1     -10.878  12.761  66.142  1.00  0.00    -0.303 A  
HETATM   12  C   UNL     1     -12.076  13.368  65.712  1.00  0.00    -0.481 A  
HETATM   13  C   UNL     1     -12.668  13.043  64.489  1.00  0.00    -0.318 A  
HETATM   14  C   UNL     1     -10.253  11.885  65.238  1.00  0.00    -0.309 A  
HETATM   15  C   UNL     1     -12.063  12.114  63.651  1.00  0.00    -0.648 A  
HETATM   16  C   UNL     1     -10.844  11.552  64.014  1.00  0.00    -0.453 A  
ENDBRANCH   8  11
BRANCH  10  17
HETATM   17  C   UNL     1      -7.752  12.639  67.321  1.00  0.00    -0.140 C  
HETATM   18  N   UNL     1      -7.009  13.875  67.097  1.00  0.00    -0.403 NA 
HETATM   19  H2  UNL     1      -6.798  14.368  67.965  1.00  0.00     0.000 HD 
HETATM   20  H1  UNL     1      -6.172  13.657  66.557  1.00  0.00     0.000 HD 
ENDBRANCH  10  17
ENDBRANCH   5   8
ENDBRANCH   2   3
TORSDOF 5
ENDMDL
MODEL       51
REMARK 921   NORMALIZED FREE ENERGY PREDICTED BY IDOCK:   -4.31 KCAL/MOL
REMARK 922        TOTAL FREE ENERGY PREDICTED BY IDOCK:   -5.97 KCAL/MOL
REMARK 923 INTER-LIGAND FREE ENERGY PREDICTED BY IDOCK:   -5.48 KCAL/MOL
REMARK 924 INTRA-LIGAND FREE ENERGY PREDICTED BY IDOCK:   -0.49 KCAL/MOL
REMARK 927      BINDING AFFINITY PREDICTED BY RF-SCORE:    0.00 PKD
ROOT
HETATM    1  C   UNL     1     -12.510  12.119  63.514  1.00  0.00    -0.666 C  
HETATM    2  C   UNL     1     -11.103  12.257  64.070  1.00  0.00    -0.386 C  
ENDROOT
BRANCH   2   3
HETATM    3  N   UNL     1     -11.076  12.618  65.488  1.00  0.00    -0.286 N  
HETATM    4  O   UNL     1     -10.438  14.781  64.950  1.00  0.00    -0.412 OA 
HETATM    5  C   UNL     1     -10.690  13.933  65.803  1.00  0.00    -0.289 C  
BRANCH   3   6
HETATM    6  C   UNL     1     -11.059  11.565  66.507  1.00  0.00    -0.282 C  
HETATM    7  C   UNL     1      -9.993  10.487  66.407  1.00  0.00    -0.271 C  
ENDBRANCH   3   6
BRANCH   5   8
HETATM    8  C   UNL     1     -10.600  14.338  67.281  1.00  0.00    -0.278 C  
HETATM    9  C   UNL     1     -11.515  15.491  67.729  1.00  0.00    -0.247 C  
HETATM   10  C   UNL     1     -11.878  14.088  68.097  1.00  0.00    -0.402 C  
BRANCH   8  11
HETATM   11  C   UNL     1      -9.168  14.419  67.830  1.00  0.00    -0.192 A  
HETATM   12  C   UNL     1      -8.834  15.438  68.745  1.00  0.00    -0.196 A  
HETATM   13  C   UNL     1      -7.509  15.717  69.088  1.00  0.00    -0.201 A  
HETATM   14  C   UNL     1      -8.108  13.630  67.349  1.00  0.00    -0.184 A  
HETATM   15  C   UNL     1      -6.478  14.967  68.535  1.00  0.00    -0.094 A  
HETATM   16  C   UNL     1      -6.778  13.908  67.684  1.00  0.00    -0.189 A  
ENDBRANCH   8  11
BRANCH  10  17
HETATM   17  C   UNL     1     -11.956  13.718  69.535  1.00  0.00    -0.345 C  
HETATM   18  N   UNL     1     -12.914  14.603  70.191  1.00  0.00    -0.559 NA 
HETATM   19  H2  UNL     1     -13.827  14.597  69.736  1.00  0.00     0.000 HD 
HETATM   20  H1  UNL     1     -12.967  14.349  71.177  1.00  0.00     0.000 HD 
ENDBRANCH  10  17
ENDBRANCH   5   8
ENDBRANCH   2   3
TORSDOF 5
ENDMDL
MODEL       52
REMARK 921   NORMALIZED FREE ENERGY PREDICTED BY IDOCK:   -4.31 KCAL/MOL
REMARK 922        TOTAL FREE ENERGY PREDICTED BY IDOCK:   -5.96 KCAL/MOL
REMARK 923 INTER-LIGAND FREE ENERGY PREDICTED BY IDOCK:   -5.62 KCAL/MOL
REMARK 924 INTRA-LIGAND FREE ENERGY PREDICTED BY IDOCK:   -0.34 KCAL/MOL
REMARK 927      BINDING AFFINITY PREDICTED BY RF-SCORE:    0.00 PKD
ROOT
HETATM    1  C   UNL     1     -12.403  15.440  69.742  1.00  0.00    -0.288 C  
HETATM    2  C   UNL     1     -11.145  14.640  70.034  1.00  0.00    -0.164 C  
ENDROOT
BRANCH   2   3
HETATM    3  N   UNL     1     -10.657  13.889  68.875  1.00  0.00    -0.236 N  
HETATM    4  O   UNL     1     -12.001  12.088  69.449  1.00  0.00    -0.301 OA 
HETATM    5  C   UNL     1     -11.154  12.583  68.709  1.00  0.00    -0.270 C  
BRANCH   3   6
HETATM    6  C   UNL     1      -9.441  14.325  68.184  1.00  0.00    -0.204 C  
HETATM    7  C   UNL     1      -9.579  15.348  67.069  1.00  0.00    -0.227 C  
ENDBRANCH   3   6
BRANCH   5   8
HETATM    8  C   UNL     1     -10.630  11.743  67.535  1.00  0.00    -0.247 C  
HETATM    9  C   UNL     1      -9.177  11.250  67.645  1.00  0.00    -0.156 C  
HETATM   10  C   UNL     1     -10.296  10.285  67.885  1.00  0.00    -0.234 C  
BRANCH   8  11
HETATM   11  C   UNL     1     -11.009  12.287  66.149  1.00  0.00    -0.328 A  
HETATM   12  C   UNL     1     -12.285  12.852  65.953  1.00  0.00    -0.469 A  
HETATM   13  C   UNL     1     -12.779  13.135  64.677  1.00  0.00    -0.326 A  
HETATM   14  C   UNL     1     -10.213  12.111  65.004  1.00  0.00    -0.312 A  
HETATM   15  C   UNL     1     -11.995  12.877  63.559  1.00  0.00    -0.629 A  
HETATM   16  C   UNL     1     -10.703  12.387  63.722  1.00  0.00    -0.492 A  
ENDBRANCH   8  11
BRANCH  10  17
HETATM   17  C   UNL     1     -10.431   9.104  66.992  1.00  0.00    -0.240 C  
HETATM   18  N   UNL     1     -11.018   8.008  67.757  1.00  0.00    -0.497 NA 
HETATM   19  H2  UNL     1     -11.900   8.267  68.199  1.00  0.00     0.000 HD 
HETATM   20  H1  UNL     1     -11.110   7.198  67.144  1.00  0.00     0.000 HD 
ENDBRANCH  10  17
ENDBRANCH   5   8
ENDBRANCH   2   3
TORSDOF 5
ENDMDL
MODEL       53
REMARK 921   NORMALIZED FREE ENERGY PREDICTED BY IDOCK:   -4.28 KCAL/MOL
REMARK 922        TOTAL FREE ENERGY PREDICTED BY IDOCK:   -5.93 KCAL/MOL
REMARK 923 INTER-LIGAND FREE ENERGY PREDICTED BY IDOCK:   -5.70 KCAL/MOL
REMARK 924 INTRA-LIGAND FREE ENERGY PREDICTED BY IDOCK:   -0.24 KCAL/MOL
REMARK 927      BINDING AFFINITY PREDICTED BY RF-SCORE:    0.00 PKD
ROOT
HETATM    1  C   UNL     1     -12.643  15.163  71.480  1.00  0.00    -0.425 C  
HETATM    2  C   UNL     1     -12.651  13.843  70.727  1.00  0.00    -0.354 C  
ENDROOT
BRANCH   2   3
HETATM    3  N   UNL     1     -11.724  13.819  69.594  1.00  0.00    -0.302 N  
HETATM    4  O   UNL     1     -12.033  11.533  69.359  1.00  0.00    -0.311 OA 
HETATM    5  C   UNL     1     -11.473  12.568  69.003  1.00  0.00    -0.304 C  
BRANCH   3   6
HETATM    6  C   UNL     1     -10.824  14.953  69.365  1.00  0.00    -0.264 C  
HETATM    7  C   UNL     1     -11.361  16.152  68.602  1.00  0.00    -0.365 C  
ENDBRANCH   3   6
BRANCH   5   8
HETATM    8  C   UNL     1     -10.469  12.492  67.844  1.00  0.00    -0.226 C  
HETATM    9  C   UNL     1      -8.986  12.668  68.214  1.00  0.00    -0.176 C  
HETATM   10  C   UNL     1      -9.503  11.299  67.906  1.00  0.00    -0.179 C  
BRANCH   8  11
HETATM   11  C   UNL     1     -10.900  13.255  66.582  1.00  0.00    -0.289 A  
HETATM   12  C   UNL     1     -10.003  14.163  65.984  1.00  0.00    -0.340 A  
HETATM   13  C   UNL     1     -10.413  15.061  64.995  1.00  0.00    -0.415 A  
HETATM   14  C   UNL     1     -12.207  13.226  66.067  1.00  0.00    -0.483 A  
HETATM   15  C   UNL     1     -11.734  15.059  64.562  1.00  0.00    -0.372 A  
HETATM   16  C   UNL     1     -12.626  14.126  65.081  1.00  0.00    -0.426 A  
ENDBRANCH   8  11
BRANCH  10  17
HETATM   17  C   UNL     1      -8.932  10.558  66.750  1.00  0.00    -0.137 C  
HETATM   18  N   UNL     1      -7.746  11.269  66.283  1.00  0.00    -0.328 NA 
HETATM   19  H2  UNL     1      -7.063  11.421  67.025  1.00  0.00     0.000 HD 
HETATM   20  H1  UNL     1      -7.354  10.760  65.490  1.00  0.00     0.000 HD 
ENDBRANCH  10  17
ENDBRANCH   5   8
ENDBRANCH   2   3
TORSDOF 5
ENDMDL
MODEL       54
REMARK 921   NORMALIZED FREE ENERGY PREDICTED BY IDOCK:   -4.27 KCAL/MOL
REMARK 922        TOTAL FREE ENERGY PREDICTED BY IDOCK:   -5.92 KCAL/MOL
REMARK 923 INTER-LIGAND FREE ENERGY PREDICTED BY IDOCK:   -5.72 KCAL/MOL
REMARK 924 INTRA-LIGAND FREE ENERGY PREDICTED BY IDOCK:   -0.20 KCAL/MOL
REMARK 927      BINDING AFFINITY PREDICTED BY RF-SCORE:    0.00 PKD
ROOT
HETATM    1  C   UNL     1     -11.381  12.579  67.064  1.00  0.00    -0.386 C  
HETATM    2  C   UNL     1     -12.027  13.953  67.112  1.00  0.00    -0.420 C  
ENDROOT
BRANCH   2   3
HETATM    3  N   UNL     1     -11.086  15.043  66.844  1.00  0.00    -0.330 N  
HETATM    4  O   UNL     1     -11.603  16.020  68.883  1.00  0.00    -0.372 OA 
HETATM    5  C   UNL     1     -10.987  16.051  67.819  1.00  0.00    -0.307 C  
BRANCH   3   6
HETATM    6  C   UNL     1     -10.597  15.264  65.481  1.00  0.00    -0.373 C  
HETATM    7  C   UNL     1     -11.612  15.294  64.351  1.00  0.00    -0.265 C  
ENDBRANCH   3   6
BRANCH   5   8
HETATM    8  C   UNL     1     -10.049  17.238  67.555  1.00  0.00    -0.315 C  
HETATM    9  C   UNL     1     -10.370  18.098  66.320  1.00  0.00    -0.407 C  
HETATM   10  C   UNL     1     -10.708  18.620  67.681  1.00  0.00    -0.428 C  
BRANCH   8  11
HETATM   11  C   UNL     1      -8.557  16.917  67.730  1.00  0.00    -0.208 A  
HETATM   12  C   UNL     1      -7.634  17.372  66.766  1.00  0.00    -0.263 A  
HETATM   13  C   UNL     1      -6.316  16.911  66.733  1.00  0.00    -0.239 A  
HETATM   14  C   UNL     1      -8.062  16.049  68.718  1.00  0.00    -0.212 A  
HETATM   15  C   UNL     1      -5.878  15.993  67.680  1.00  0.00    -0.174 A  
HETATM   16  C   UNL     1      -6.744  15.579  68.687  1.00  0.00    -0.107 A  
ENDBRANCH   8  11
BRANCH  10  17
HETATM   17  C   UNL     1     -10.060  19.873  68.152  1.00  0.00    -0.441 C  
HETATM   18  N   UNL     1     -10.257  19.984  69.594  1.00  0.00    -0.474 NA 
HETATM   19  H2  UNL     1      -9.930  19.161  70.099  1.00  0.00     0.000 HD 
HETATM   20  H1  UNL     1      -9.813  20.844  69.916  1.00  0.00     0.000 HD 
ENDBRANCH  10  17
ENDBRANCH   5   8
ENDBRANCH   2   3
TORSDOF 5
ENDMDL
MODEL       55
REMARK 921   NORMALIZED FREE ENERGY PREDICTED BY IDOCK:   -4.26 KCAL/MOL
REMARK 922        TOTAL FREE ENERGY PREDICTED BY IDOCK:   -5.90 KCAL/MOL
REMARK 923 INTER-LIGAND FREE ENERGY PREDICTED BY IDOCK:   -5.69 KCAL/MOL
REMARK 924 INTRA-LIGAND FREE ENERGY PREDICTED BY IDOCK:   -0.22 KCAL/MOL
REMARK 927      BINDING AFFINITY PREDICTED BY RF-SCORE:    0.00 PKD
ROOT
HETATM    1  C   UNL     1      -8.095  20.102  67.626  1.00  0.00    -0.334 C  
HETATM    2  C   UNL     1      -8.578  19.174  66.524  1.00  0.00    -0.322 C  
ENDROOT
BRANCH   2   3
HETATM    3  N   UNL     1      -8.818  17.805  66.987  1.00  0.00    -0.245 N  
HETATM    4  O   UNL     1     -11.031  18.325  67.445  1.00  0.00    -0.328 OA 
HETATM    5  C   UNL     1     -10.109  17.511  67.461  1.00  0.00    -0.326 C  
BRANCH   3   6
HETATM    6  C   UNL     1      -7.683  16.935  67.308  1.00  0.00    -0.169 C  
HETATM    7  C   UNL     1      -6.436  17.037  66.446  1.00  0.00    -0.176 C  
ENDBRANCH   3   6
BRANCH   5   8
HETATM    8  C   UNL     1     -10.389  16.102  68.002  1.00  0.00    -0.271 C  
HETATM    9  C   UNL     1      -9.729  15.745  69.345  1.00  0.00    -0.286 C  
HETATM   10  C   UNL     1     -11.190  16.063  69.313  1.00  0.00    -0.346 C  
BRANCH   8  11
HETATM   11  C   UNL     1     -10.311  14.991  66.945  1.00  0.00    -0.266 A  
HETATM   12  C   UNL     1     -10.985  15.156  65.717  1.00  0.00    -0.350 A  
HETATM   13  C   UNL     1     -11.159  14.096  64.824  1.00  0.00    -0.393 A  
HETATM   14  C   UNL     1      -9.736  13.731  67.185  1.00  0.00    -0.244 A  
HETATM   15  C   UNL     1     -10.644  12.842  65.128  1.00  0.00    -0.324 A  
HETATM   16  C   UNL     1      -9.912  12.664  66.297  1.00  0.00    -0.266 A  
ENDBRANCH   8  11
BRANCH  10  17
HETATM   17  C   UNL     1     -12.163  15.018  69.727  1.00  0.00    -0.285 C  
HETATM   18  N   UNL     1     -13.172  15.636  70.582  1.00  0.00    -0.755 NA 
HETATM   19  H2  UNL     1     -13.623  16.437  70.139  1.00  0.00     0.000 HD 
HETATM   20  H1  UNL     1     -13.840  14.919  70.867  1.00  0.00     0.000 HD 
ENDBRANCH  10  17
ENDBRANCH   5   8
ENDBRANCH   2   3
TORSDOF 5
ENDMDL
MODEL       56
REMARK 921   NORMALIZED FREE ENERGY PREDICTED BY IDOCK:   -4.26 KCAL/MOL
REMARK 922        TOTAL FREE ENERGY PREDICTED BY IDOCK:   -5.90 KCAL/MOL
REMARK 923 INTER-LIGAND FREE ENERGY PREDICTED BY IDOCK:   -5.69 KCAL/MOL
REMARK 924 INTRA-LIGAND FREE ENERGY PREDICTED BY IDOCK:   -0.21 KCAL/MOL
REMARK 927      BINDING AFFINITY PREDICTED BY RF-SCORE:    0.00 PKD
ROOT
HETATM    1  C   UNL     1      -6.921  11.458  66.804  1.00  0.00    -0.128 C  
HETATM    2  C   UNL     1      -7.275  12.158  68.105  1.00  0.00    -0.096 C  
ENDROOT
BRANCH   2   3
HETATM    3  N   UNL     1      -8.435  13.043  67.987  1.00  0.00    -0.172 N  
HETATM    4  O   UNL     1      -9.833  11.346  68.724  1.00  0.00    -0.205 OA 
HETATM    5  C   UNL     1      -9.690  12.493  68.307  1.00  0.00    -0.220 C  
BRANCH   3   6
HETATM    6  C   UNL     1      -8.333  14.278  67.206  1.00  0.00    -0.204 C  
HETATM    7  C   UNL     1      -7.173  15.216  67.497  1.00  0.00    -0.227 C  
ENDBRANCH   3   6
BRANCH   5   8
HETATM    8  C   UNL     1     -10.938  13.373  68.148  1.00  0.00    -0.277 C  
HETATM    9  C   UNL     1     -12.009  13.240  69.244  1.00  0.00    -0.354 C  
HETATM   10  C   UNL     1     -11.117  14.441  69.238  1.00  0.00    -0.300 C  
BRANCH   8  11
HETATM   11  C   UNL     1     -11.501  13.422  66.719  1.00  0.00    -0.376 A  
HETATM   12  C   UNL     1     -11.685  12.220  66.007  1.00  0.00    -0.451 A  
HETATM   13  C   UNL     1     -11.953  12.208  64.636  1.00  0.00    -0.398 A  
HETATM   14  C   UNL     1     -11.697  14.616  66.004  1.00  0.00    -0.306 A  
HETATM   15  C   UNL     1     -12.065  13.407  63.942  1.00  0.00    -0.514 A  
HETATM   16  C   UNL     1     -11.960  14.612  64.629  1.00  0.00    -0.472 A  
ENDBRANCH   8  11
BRANCH  10  17
HETATM   17  C   UNL     1     -11.725  15.788  69.070  1.00  0.00    -0.396 C  
HETATM   18  N   UNL     1     -12.716  15.984  70.124  1.00  0.00    -0.593 NA 
HETATM   19  H2  UNL     1     -12.329  15.843  71.057  1.00  0.00     0.000 HD 
HETATM   20  H1  UNL     1     -13.133  16.908  70.008  1.00  0.00     0.000 HD 
ENDBRANCH  10  17
ENDBRANCH   5   8
ENDBRANCH   2   3
TORSDOF 5
ENDMDL
MODEL       57
REMARK 921   NORMALIZED FREE ENERGY PREDICTED BY IDOCK:   -4.24 KCAL/MOL
REMARK 922        TOTAL FREE ENERGY PREDICTED BY IDOCK:   -5.87 KCAL/MOL
REMARK 923 INTER-LIGAND FREE ENERGY PREDICTED BY IDOCK:   -5.64 KCAL/MOL
REMARK 924 INTRA-LIGAND FREE ENERGY PREDICTED BY IDOCK:   -0.23 KCAL/MOL
REMARK 927      BINDING AFFINITY PREDICTED BY RF-SCORE:    0.00 PKD
ROOT
HETATM    1  C   UNL     1     -10.485  11.787  63.409  1.00  0.00    -0.485 C  
HETATM    2  C   UNL     1     -11.444  12.850  63.918  1.00  0.00    -0.446 C  
ENDROOT
BRANCH   2   3
HETATM    3  N   UNL     1     -10.970  13.523  65.128  1.00  0.00    -0.308 N  
HETATM    4  O   UNL     1     -12.148  12.026  66.450  1.00  0.00    -0.610 OA 
HETATM    5  C   UNL     1     -11.429  13.019  66.358  1.00  0.00    -0.341 C  
BRANCH   3   6
HETATM    6  C   UNL     1     -10.390  14.866  65.036  1.00  0.00    -0.370 C  
HETATM    7  C   UNL     1     -11.274  15.995  64.535  1.00  0.00    -0.309 C  
ENDBRANCH   3   6
BRANCH   5   8
HETATM    8  C   UNL     1     -10.996  13.727  67.650  1.00  0.00    -0.278 C  
HETATM    9  C   UNL     1     -11.670  15.078  67.945  1.00  0.00    -0.310 C  
HETATM   10  C   UNL     1     -12.099  13.866  68.710  1.00  0.00    -0.344 C  
BRANCH   8  11
HETATM   11  C   UNL     1      -9.481  13.708  67.904  1.00  0.00    -0.213 A  
HETATM   12  C   UNL     1      -8.846  14.873  68.382  1.00  0.00    -0.178 A  
HETATM   13  C   UNL     1      -7.455  15.000  68.398  1.00  0.00    -0.113 A  
HETATM   14  C   UNL     1      -8.646  12.640  67.535  1.00  0.00    -0.185 A  
HETATM   15  C   UNL     1      -6.658  13.952  67.954  1.00  0.00    -0.167 A  
HETATM   16  C   UNL     1      -7.252  12.763  67.544  1.00  0.00    -0.154 A  
ENDBRANCH   8  11
BRANCH  10  17
HETATM   17  C   UNL     1     -11.920  13.845  70.186  1.00  0.00    -0.332 C  
HETATM   18  N   UNL     1     -12.096  12.475  70.657  1.00  0.00    -0.498 NA 
HETATM   19  H2  UNL     1     -11.482  11.815  70.179  1.00  0.00     0.000 HD 
HETATM   20  H1  UNL     1     -11.974  12.461  71.669  1.00  0.00     0.000 HD 
ENDBRANCH  10  17
ENDBRANCH   5   8
ENDBRANCH   2   3
TORSDOF 5
ENDMDL
MODEL       58
REMARK 921   NORMALIZED FREE ENERGY PREDICTED BY IDOCK:   -4.24 KCAL/MOL
REMARK 922        TOTAL FREE ENERGY PREDICTED BY IDOCK:   -5.87 KCAL/MOL
REMARK 923 INTER-LIGAND FREE ENERGY PREDICTED BY IDOCK:   -5.60 KCAL/MOL
REMARK 924 INTRA-LIGAND FREE ENERGY PREDICTED BY IDOCK:   -0.27 KCAL/MOL
REMARK 927      BINDING AFFINITY PREDICTED BY RF-SCORE:    0.00 PKD
ROOT
HETATM    1  C   UNL     1     -10.114   8.671  69.464  1.00  0.00    -0.203 C  
HETATM    2  C   UNL     1      -9.687  10.101  69.748  1.00  0.00    -0.196 C  
ENDROOT
BRANCH   2   3
HETATM    3  N   UNL     1     -10.379  11.086  68.913  1.00  0.00    -0.199 N  
HETATM    4  O   UNL     1      -8.348  12.012  68.284  1.00  0.00    -0.153 OA 
HETATM    5  C   UNL     1      -9.577  12.026  68.241  1.00  0.00    -0.204 C  
BRANCH   3   6
HETATM    6  C   UNL     1     -11.814  11.317  69.097  1.00  0.00    -0.355 C  
HETATM    7  C   UNL     1     -12.329  11.542  70.509  1.00  0.00    -0.432 C  
ENDBRANCH   3   6
BRANCH   5   8
HETATM    8  C   UNL     1     -10.264  13.107  67.396  1.00  0.00    -0.232 C  
HETATM    9  C   UNL     1     -11.059  14.173  68.169  1.00  0.00    -0.276 C  
HETATM   10  C   UNL     1      -9.721  14.529  67.602  1.00  0.00    -0.215 C  
BRANCH   8  11
HETATM   11  C   UNL     1     -10.977  12.573  66.144  1.00  0.00    -0.318 A  
HETATM   12  C   UNL     1     -10.264  11.764  65.235  1.00  0.00    -0.307 A  
HETATM   13  C   UNL     1     -10.770  11.455  63.970  1.00  0.00    -0.450 A  
HETATM   14  C   UNL     1     -12.266  12.975  65.754  1.00  0.00    -0.511 A  
HETATM   15  C   UNL     1     -12.017  11.933  63.586  1.00  0.00    -0.578 A  
HETATM   16  C   UNL     1     -12.776  12.673  64.487  1.00  0.00    -0.439 A  
ENDBRANCH   8  11
BRANCH  10  17
HETATM   17  C   UNL     1      -9.636  15.604  66.578  1.00  0.00    -0.270 C  
HETATM   18  N   UNL     1     -10.031  16.866  67.196  1.00  0.00    -0.268 NA 
HETATM   19  H2  UNL     1      -9.489  17.079  68.033  1.00  0.00     0.000 HD 
HETATM   20  H1  UNL     1      -9.973  17.603  66.493  1.00  0.00     0.000 HD 
ENDBRANCH  10  17
ENDBRANCH   5   8
ENDBRANCH   2   3
TORSDOF 5
ENDMDL
MODEL       59
REMARK 921   NORMALIZED FREE ENERGY PREDICTED BY IDOCK:   -4.24 KCAL/MOL
REMARK 922        TOTAL FREE ENERGY PREDICTED BY IDOCK:   -5.87 KCAL/MOL
REMARK 923 INTER-LIGAND FREE ENERGY PREDICTED BY IDOCK:   -5.88 KCAL/MOL
REMARK 924 INTRA-LIGAND FREE ENERGY PREDICTED BY IDOCK:    0.01 KCAL/MOL
REMARK 927      BINDING AFFINITY PREDICTED BY RF-SCORE:    0.00 PKD
ROOT
HETATM    1  C   UNL     1     -10.128   9.100  71.547  1.00  0.00    -0.381 C  
HETATM    2  C   UNL     1     -10.572   9.089  70.094  1.00  0.00    -0.224 C  
ENDROOT
BRANCH   2   3
HETATM    3  N   UNL     1     -10.350  10.366  69.413  1.00  0.00    -0.225 N  
HETATM    4  O   UNL     1     -12.629  10.602  69.062  1.00  0.00    -0.232 OA 
HETATM    5  C   UNL     1     -11.485  11.023  68.906  1.00  0.00    -0.296 C  
BRANCH   3   6
HETATM    6  C   UNL     1      -9.006  10.718  68.945  1.00  0.00    -0.153 C  
HETATM    7  C   UNL     1      -8.104   9.600  68.450  1.00  0.00    -0.104 C  
ENDBRANCH   3   6
BRANCH   5   8
HETATM    8  C   UNL     1     -11.291  12.340  68.141  1.00  0.00    -0.349 C  
HETATM    9  C   UNL     1     -10.294  12.306  66.970  1.00  0.00    -0.237 C  
HETATM   10  C   UNL     1     -11.762  12.311  66.679  1.00  0.00    -0.417 C  
BRANCH   8  11
HETATM   11  C   UNL     1     -11.170  13.581  69.038  1.00  0.00    -0.314 A  
HETATM   12  C   UNL     1     -12.144  13.816  70.029  1.00  0.00    -0.416 A  
HETATM   13  C   UNL     1     -12.231  15.036  70.704  1.00  0.00    -0.381 A  
HETATM   14  C   UNL     1     -10.225  14.601  68.827  1.00  0.00    -0.242 A  
HETATM   15  C   UNL     1     -11.328  16.052  70.417  1.00  0.00    -0.405 A  
HETATM   16  C   UNL     1     -10.310  15.827  69.495  1.00  0.00    -0.272 A  
ENDBRANCH   8  11
BRANCH  10  17
HETATM   17  C   UNL     1     -12.339  13.445  65.909  1.00  0.00    -0.437 C  
HETATM   18  N   UNL     1     -13.111  12.905  64.794  1.00  0.00    -0.796 NA 
HETATM   19  H2  UNL     1     -13.819  12.236  65.096  1.00  0.00     0.000 HD 
HETATM   20  H1  UNL     1     -13.506  13.683  64.266  1.00  0.00     0.000 HD 
ENDBRANCH  10  17
ENDBRANCH   5   8
ENDBRANCH   2   3
TORSDOF 5
ENDMDL
MODEL       60
REMARK 921   NORMALIZED FREE ENERGY PREDICTED BY IDOCK:   -4.22 KCAL/MOL
REMARK 922        TOTAL FREE ENERGY PREDICTED BY IDOCK:   -5.85 KCAL/MOL
REMARK 923 INTER-LIGAND FREE ENERGY PREDICTED BY IDOCK:   -5.41 KCAL/MOL
REMARK 924 INTRA-LIGAND FREE ENERGY PREDICTED BY IDOCK:   -0.44 KCAL/MOL
REMARK 927      BINDING AFFINITY PREDICTED BY RF-SCORE:    0.00 PKD
ROOT
HETATM    1  C   UNL     1      -6.469   6.668  73.273  1.00  0.00    -0.064 C  
HETATM    2  C   UNL     1      -7.560   7.725  73.315  1.00  0.00    -0.118 C  
ENDROOT
BRANCH   2   3
HETATM    3  N   UNL     1      -8.644   7.474  72.363  1.00  0.00    -0.118 N  
HETATM    4  O   UNL     1      -8.193   9.477  71.286  1.00  0.00    -0.276 OA 
HETATM    5  C   UNL     1      -8.881   8.464  71.393  1.00  0.00    -0.181 C  
BRANCH   3   6
HETATM    6  C   UNL     1      -9.656   6.457  72.663  1.00  0.00    -0.147 C  
HETATM    7  C   UNL     1     -10.247   6.424  74.062  1.00  0.00    -0.349 C  
ENDBRANCH   3   6
BRANCH   5   8
HETATM    8  C   UNL     1     -10.041   8.264  70.407  1.00  0.00    -0.199 C  
HETATM    9  C   UNL     1      -9.665   8.204  68.917  1.00  0.00    -0.156 C  
HETATM   10  C   UNL     1     -10.007   6.937  69.634  1.00  0.00    -0.179 C  
BRANCH   8  11
HETATM   11  C   UNL     1     -11.285   9.112  70.711  1.00  0.00    -0.336 A  
HETATM   12  C   UNL     1     -11.376  10.418  70.186  1.00  0.00    -0.397 A  
HETATM   13  C   UNL     1     -12.349  11.321  70.621  1.00  0.00    -0.477 A  
HETATM   14  C   UNL     1     -12.282   8.728  71.624  1.00  0.00    -0.399 A  
HETATM   15  C   UNL     1     -13.274  10.933  71.583  1.00  0.00    -0.471 A  
HETATM   16  C   UNL     1     -13.256   9.629  72.068  1.00  0.00    -0.546 A  
ENDBRANCH   8  11
BRANCH  10  17
HETATM   17  C   UNL     1     -11.179   6.145  69.177  1.00  0.00    -0.339 C  
HETATM   18  N   UNL     1     -11.350   6.353  67.742  1.00  0.00    -0.655 NA 
HETATM   19  H2  UNL     1     -10.504   6.142  67.213  1.00  0.00     0.000 HD 
HETATM   20  H1  UNL     1     -12.154   5.810  67.429  1.00  0.00     0.000 HD 
ENDBRANCH  10  17
ENDBRANCH   5   8
ENDBRANCH   2   3
TORSDOF 5
ENDMDL
MODEL       61
REMARK 921   NORMALIZED FREE ENERGY PREDICTED BY IDOCK:   -4.21 KCAL/MOL
REMARK 922        TOTAL FREE ENERGY PREDICTED BY IDOCK:   -5.84 KCAL/MOL
REMARK 923 INTER-LIGAND FREE ENERGY PREDICTED BY IDOCK:   -5.51 KCAL/MOL
REMARK 924 INTRA-LIGAND FREE ENERGY PREDICTED BY IDOCK:   -0.33 KCAL/MOL
REMARK 927      BINDING AFFINITY PREDICTED BY RF-SCORE:    0.00 PKD
ROOT
HETATM    1  C   UNL     1     -12.871  11.715  63.306  1.00  0.00    -0.073 C  
HETATM    2  C   UNL     1     -12.278  13.105  63.462  1.00  0.00    -0.476 C  
ENDROOT
BRANCH   2   3
HETATM    3  N   UNL     1     -11.487  13.262  64.684  1.00  0.00    -0.328 N  
HETATM    4  O   UNL     1     -13.211  14.457  65.672  1.00  0.00    -0.465 OA 
HETATM    5  C   UNL     1     -12.070  14.002  65.729  1.00  0.00    -0.427 C  
BRANCH   3   6
HETATM    6  C   UNL     1     -10.044  13.012  64.655  1.00  0.00    -0.230 C  
HETATM    7  C   UNL     1      -9.558  11.589  64.874  1.00  0.00    -0.212 C  
ENDBRANCH   3   6
BRANCH   5   8
HETATM    8  C   UNL     1     -11.255  14.233  67.008  1.00  0.00    -0.332 C  
HETATM    9  C   UNL     1     -11.924  13.810  68.328  1.00  0.00    -0.392 C  
HETATM   10  C   UNL     1     -10.843  12.952  67.750  1.00  0.00    -0.248 C  
BRANCH   8  11
HETATM   11  C   UNL     1     -10.544  15.593  67.069  1.00  0.00    -0.311 A  
HETATM   12  C   UNL     1     -10.681  16.394  68.221  1.00  0.00    -0.337 A  
HETATM   13  C   UNL     1     -10.271  17.729  68.244  1.00  0.00    -0.382 A  
HETATM   14  C   UNL     1      -9.886  16.174  65.971  1.00  0.00    -0.375 A  
HETATM   15  C   UNL     1      -9.693  18.296  67.114  1.00  0.00    -0.307 A  
HETATM   16  C   UNL     1      -9.479  17.512  65.985  1.00  0.00    -0.095 A  
ENDBRANCH   8  11
BRANCH  10  17
HETATM   17  C   UNL     1      -9.596  12.741  68.533  1.00  0.00    -0.110 C  
HETATM   18  N   UNL     1      -9.569  11.359  69.001  1.00  0.00    -0.408 NA 
HETATM   19  H2  UNL     1      -9.673  10.686  68.241  1.00  0.00     0.000 HD 
HETATM   20  H1  UNL     1      -8.714  11.215  69.538  1.00  0.00     0.000 HD 
ENDBRANCH  10  17
ENDBRANCH   5   8
ENDBRANCH   2   3
TORSDOF 5
ENDMDL
MODEL       62
REMARK 921   NORMALIZED FREE ENERGY PREDICTED BY IDOCK:   -4.21 KCAL/MOL
REMARK 922        TOTAL FREE ENERGY PREDICTED BY IDOCK:   -5.83 KCAL/MOL
REMARK 923 INTER-LIGAND FREE ENERGY PREDICTED BY IDOCK:   -5.47 KCAL/MOL
REMARK 924 INTRA-LIGAND FREE ENERGY PREDICTED BY IDOCK:   -0.36 KCAL/MOL
REMARK 927      BINDING AFFINITY PREDICTED BY RF-SCORE:    0.00 PKD
ROOT
HETATM    1  C   UNL     1      -8.325  10.574  63.829  1.00  0.00    -0.101 C  
HETATM    2  C   UNL     1      -9.790  10.477  64.221  1.00  0.00    -0.338 C  
ENDROOT
BRANCH   2   3
HETATM    3  N   UNL     1     -10.129  11.287  65.392  1.00  0.00    -0.250 N  
HETATM    4  O   UNL     1     -10.327  13.173  64.058  1.00  0.00    -0.396 OA 
HETATM    5  C   UNL     1     -10.350  12.659  65.174  1.00  0.00    -0.292 C  
BRANCH   3   6
HETATM    6  C   UNL     1      -9.853  10.775  66.737  1.00  0.00    -0.193 C  
HETATM    7  C   UNL     1     -10.602   9.537  67.200  1.00  0.00    -0.295 C  
ENDBRANCH   3   6
BRANCH   5   8
HETATM    8  C   UNL     1     -10.659  13.554  66.382  1.00  0.00    -0.283 C  
HETATM    9  C   UNL     1     -12.048  14.214  66.405  1.00  0.00    -0.475 C  
HETATM   10  C   UNL     1     -11.783  13.041  67.295  1.00  0.00    -0.429 C  
BRANCH   8  11
HETATM   11  C   UNL     1      -9.509  14.490  66.787  1.00  0.00    -0.284 A  
HETATM   12  C   UNL     1      -9.634  15.876  66.562  1.00  0.00    -0.291 A  
HETATM   13  C   UNL     1      -8.544  16.743  66.675  1.00  0.00    -0.287 A  
HETATM   14  C   UNL     1      -8.255  14.032  67.226  1.00  0.00    -0.187 A  
HETATM   15  C   UNL     1      -7.298  16.246  67.037  1.00  0.00    -0.264 A  
HETATM   16  C   UNL     1      -7.158  14.894  67.335  1.00  0.00    -0.194 A  
ENDBRANCH   8  11
BRANCH  10  17
HETATM   17  C   UNL     1     -11.882  13.219  68.768  1.00  0.00    -0.334 C  
HETATM   18  N   UNL     1     -12.406  14.554  69.041  1.00  0.00    -0.579 NA 
HETATM   19  H2  UNL     1     -13.290  14.732  68.565  1.00  0.00     0.000 HD 
HETATM   20  H1  UNL     1     -12.474  14.675  70.051  1.00  0.00     0.000 HD 
ENDBRANCH  10  17
ENDBRANCH   5   8
ENDBRANCH   2   3
TORSDOF 5
ENDMDL
MODEL       63
REMARK 921   NORMALIZED FREE ENERGY PREDICTED BY IDOCK:   -4.19 KCAL/MOL
REMARK 922        TOTAL FREE ENERGY PREDICTED BY IDOCK:   -5.82 KCAL/MOL
REMARK 923 INTER-LIGAND FREE ENERGY PREDICTED BY IDOCK:   -5.72 KCAL/MOL
REMARK 924 INTRA-LIGAND FREE ENERGY PREDICTED BY IDOCK:   -0.09 KCAL/MOL
REMARK 927      BINDING AFFINITY PREDICTED BY RF-SCORE:    0.00 PKD
ROOT
HETATM    1  C   UNL     1      -7.730   6.616  68.893  1.00  0.00    -0.109 C  
HETATM    2  C   UNL     1      -8.821   7.665  68.755  1.00  0.00    -0.131 C  
ENDROOT
BRANCH   2   3
HETATM    3  N   UNL     1      -9.550   7.906  70.002  1.00  0.00    -0.168 N  
HETATM    4  O   UNL     1     -11.395   6.775  69.168  1.00  0.00    -0.211 OA 
HETATM    5  C   UNL     1     -10.870   7.423  70.071  1.00  0.00    -0.252 C  
BRANCH   3   6
HETATM    6  C   UNL     1      -9.073   8.926  70.940  1.00  0.00    -0.230 C  
HETATM    7  C   UNL     1      -7.907   8.574  71.849  1.00  0.00    -0.157 C  
ENDBRANCH   3   6
BRANCH   5   8
HETATM    8  C   UNL     1     -11.687   7.698  71.341  1.00  0.00    -0.310 C  
HETATM    9  C   UNL     1     -11.828   9.174  71.754  1.00  0.00    -0.453 C  
HETATM   10  C   UNL     1     -12.989   8.481  71.113  1.00  0.00    -0.076 C  
BRANCH   8  11
HETATM   11  C   UNL     1     -11.387   6.743  72.506  1.00  0.00    -0.292 A  
HETATM   12  C   UNL     1     -10.621   7.202  73.597  1.00  0.00    -0.375 A  
HETATM   13  C   UNL     1     -10.109   6.327  74.558  1.00  0.00    -0.353 A  
HETATM   14  C   UNL     1     -11.694   5.371  72.483  1.00  0.00    -0.176 A  
HETATM   15  C   UNL     1     -10.367   4.965  74.463  1.00  0.00    -0.324 A  
HETATM   16  C   UNL     1     -11.180   4.489  73.439  1.00  0.00    -0.404 A  
ENDBRANCH   8  11
BRANCH  10  17
HETATM   17  C   UNL     1     -14.255   8.341  71.879  1.00  0.00    -0.454 C  
HETATM   18  N   UNL     1     -14.062   8.918  73.205  1.00  0.00    -1.248 NA 
HETATM   19  H2  UNL     1     -13.733   9.883  73.168  1.00  0.00     0.000 HD 
HETATM   20  H1  UNL     1     -14.931   8.822  73.731  1.00  0.00     0.000 HD 
ENDBRANCH  10  17
ENDBRANCH   5   8
ENDBRANCH   2   3
TORSDOF 5
ENDMDL
MODEL       64
REMARK 921   NORMALIZED FREE ENERGY PREDICTED BY IDOCK:   -4.18 KCAL/MOL
REMARK 922        TOTAL FREE ENERGY PREDICTED BY IDOCK:   -5.79 KCAL/MOL
REMARK 923 INTER-LIGAND FREE ENERGY PREDICTED BY IDOCK:   -5.43 KCAL/MOL
REMARK 924 INTRA-LIGAND FREE ENERGY PREDICTED BY IDOCK:   -0.37 KCAL/MOL
REMARK 927      BINDING AFFINITY PREDICTED BY RF-SCORE:    0.00 PKD
ROOT
HETATM    1  C   UNL     1      -7.499  11.347  68.971  1.00  0.00    -0.093 C  
HETATM    2  C   UNL     1      -8.830  10.779  68.508  1.00  0.00    -0.149 C  
ENDROOT
BRANCH   2   3
HETATM    3  N   UNL     1      -9.367   9.760  69.412  1.00  0.00    -0.189 N  
HETATM    4  O   UNL     1     -11.532  10.405  68.889  1.00  0.00    -0.244 OA 
HETATM    5  C   UNL     1     -10.766   9.694  69.537  1.00  0.00    -0.232 C  
BRANCH   3   6
HETATM    6  C   UNL     1      -8.493   9.137  70.409  1.00  0.00    -0.199 C  
HETATM    7  C   UNL     1      -7.674   7.927  69.990  1.00  0.00    -0.089 C  
ENDBRANCH   3   6
BRANCH   5   8
HETATM    8  C   UNL     1     -11.369   8.673  70.512  1.00  0.00    -0.241 C  
HETATM    9  C   UNL     1     -11.219   8.990  72.010  1.00  0.00    -0.379 C  
HETATM   10  C   UNL     1     -12.546   9.197  71.350  1.00  0.00    -0.390 C  
BRANCH   8  11
HETATM   11  C   UNL     1     -11.089   7.207  70.147  1.00  0.00    -0.301 A  
HETATM   12  C   UNL     1     -10.782   6.286  71.169  1.00  0.00    -0.301 A  
HETATM   13  C   UNL     1     -10.281   5.013  70.889  1.00  0.00    -0.287 A  
HETATM   14  C   UNL     1     -10.959   6.749  68.825  1.00  0.00    -0.267 A  
HETATM   15  C   UNL     1     -10.091   4.618  69.570  1.00  0.00    -0.212 A  
HETATM   16  C   UNL     1     -10.452   5.477  68.537  1.00  0.00    -0.234 A  
ENDBRANCH   8  11
BRANCH  10  17
HETATM   17  C   UNL     1     -13.716   8.414  71.825  1.00  0.00    -0.393 C  
HETATM   18  N   UNL     1     -14.055   8.857  73.174  1.00  0.00    -1.225 NA 
HETATM   19  H2  UNL     1     -14.210   9.863  73.228  1.00  0.00     0.000 HD 
HETATM   20  H1  UNL     1     -14.858   8.319  73.500  1.00  0.00     0.000 HD 
ENDBRANCH  10  17
ENDBRANCH   5   8
ENDBRANCH   2   3
TORSDOF 5
ENDMDL
MODEL       65
REMARK 921   NORMALIZED FREE ENERGY PREDICTED BY IDOCK:   -4.17 KCAL/MOL
REMARK 922        TOTAL FREE ENERGY PREDICTED BY IDOCK:   -5.78 KCAL/MOL
REMARK 923 INTER-LIGAND FREE ENERGY PREDICTED BY IDOCK:   -5.98 KCAL/MOL
REMARK 924 INTRA-LIGAND FREE ENERGY PREDICTED BY IDOCK:    0.20 KCAL/MOL
REMARK 927      BINDING AFFINITY PREDICTED BY RF-SCORE:    0.00 PKD
ROOT
HETATM    1  C   UNL     1     -12.288  12.272  64.414  1.00  0.00    -0.493 C  
HETATM    2  C   UNL     1     -10.890  12.856  64.303  1.00  0.00    -0.397 C  
ENDROOT
BRANCH   2   3
HETATM    3  N   UNL     1     -10.528  13.706  65.439  1.00  0.00    -0.311 N  
HETATM    4  O   UNL     1     -11.656  15.495  64.487  1.00  0.00    -0.399 OA 
HETATM    5  C   UNL     1     -10.958  15.045  65.394  1.00  0.00    -0.373 C  
BRANCH   3   6
HETATM    6  C   UNL     1      -9.456  13.292  66.347  1.00  0.00    -0.217 C  
HETATM    7  C   UNL     1      -9.491  11.877  66.899  1.00  0.00    -0.205 C  
ENDBRANCH   3   6
BRANCH   5   8
HETATM    8  C   UNL     1     -10.558  15.983  66.540  1.00  0.00    -0.284 C  
HETATM    9  C   UNL     1      -9.085  16.427  66.575  1.00  0.00    -0.308 C  
HETATM   10  C   UNL     1     -10.126  17.391  66.101  1.00  0.00    -0.309 C  
BRANCH   8  11
HETATM   11  C   UNL     1     -11.131  15.590  67.910  1.00  0.00    -0.321 A  
HETATM   12  C   UNL     1     -10.564  16.137  69.080  1.00  0.00    -0.273 A  
HETATM   13  C   UNL     1     -10.868  15.639  70.349  1.00  0.00    -0.358 A  
HETATM   14  C   UNL     1     -12.093  14.581  68.088  1.00  0.00    -0.232 A  
HETATM   15  C   UNL     1     -11.767  14.588  70.484  1.00  0.00    -0.338 A  
HETATM   16  C   UNL     1     -12.398  14.074  69.356  1.00  0.00    -0.247 A  
ENDBRANCH   8  11
BRANCH  10  17
HETATM   17  C   UNL     1     -10.329  18.658  66.852  1.00  0.00    -0.402 C  
HETATM   18  N   UNL     1     -10.476  19.748  65.893  1.00  0.00    -0.519 NA 
HETATM   19  H2  UNL     1     -11.216  19.574  65.212  1.00  0.00     0.000 HD 
HETATM   20  H1  UNL     1     -10.616  20.617  66.408  1.00  0.00     0.000 HD 
ENDBRANCH  10  17
ENDBRANCH   5   8
ENDBRANCH   2   3
TORSDOF 5
ENDMDL
MODEL       66
REMARK 921   NORMALIZED FREE ENERGY PREDICTED BY IDOCK:   -4.16 KCAL/MOL
REMARK 922        TOTAL FREE ENERGY PREDICTED BY IDOCK:   -5.77 KCAL/MOL
REMARK 923 INTER-LIGAND FREE ENERGY PREDICTED BY IDOCK:   -5.88 KCAL/MOL
REMARK 924 INTRA-LIGAND FREE ENERGY PREDICTED BY IDOCK:    0.11 KCAL/MOL
REMARK 927      BINDING AFFINITY PREDICTED BY RF-SCORE:    0.00 PKD
ROOT
HETATM    1  C   UNL     1      -7.928  17.356  66.861  1.00  0.00    -0.257 C  
HETATM    2  C   UNL     1      -8.175  16.813  68.258  1.00  0.00    -0.204 C  
ENDROOT
BRANCH   2   3
HETATM    3  N   UNL     1      -9.542  16.328  68.455  1.00  0.00    -0.215 N  
HETATM    4  O   UNL     1      -8.735  14.271  69.158  1.00  0.00    -0.005 OA 
HETATM    5  C   UNL     1      -9.689  14.999  68.890  1.00  0.00    -0.224 C  
BRANCH   3   6
HETATM    6  C   UNL     1     -10.665  17.050  67.851  1.00  0.00    -0.348 C  
HETATM    7  C   UNL     1     -10.755  18.550  68.072  1.00  0.00    -0.271 C  
ENDBRANCH   3   6
BRANCH   5   8
HETATM    8  C   UNL     1     -11.106  14.435  69.061  1.00  0.00    -0.282 C  
HETATM    9  C   UNL     1     -11.954  14.325  67.782  1.00  0.00    -0.384 C  
HETATM   10  C   UNL     1     -11.351  13.086  68.366  1.00  0.00    -0.326 C  
BRANCH   8  11
HETATM   11  C   UNL     1     -11.866  14.988  70.276  1.00  0.00    -0.355 A  
HETATM   12  C   UNL     1     -11.157  15.281  71.459  1.00  0.00    -0.272 A  
HETATM   13  C   UNL     1     -11.812  15.548  72.664  1.00  0.00    -0.575 A  
HETATM   14  C   UNL     1     -13.267  15.072  70.342  1.00  0.00    -0.147 A  
HETATM   15  C   UNL     1     -13.201  15.547  72.713  1.00  0.00    -0.605 A  
HETATM   16  C   UNL     1     -13.930  15.332  71.547  1.00  0.00    -0.627 A  
ENDBRANCH   8  11
BRANCH  10  17
HETATM   17  C   UNL     1     -12.252  11.998  68.832  1.00  0.00     0.020 C  
HETATM   18  N   UNL     1     -11.939  10.785  68.083  1.00  0.00    -0.801 NA 
HETATM   19  H2  UNL     1     -10.954  10.530  68.144  1.00  0.00     0.000 HD 
HETATM   20  H1  UNL     1     -12.557  10.039  68.402  1.00  0.00     0.000 HD 
ENDBRANCH  10  17
ENDBRANCH   5   8
ENDBRANCH   2   3
TORSDOF 5
ENDMDL
MODEL       67
REMARK 921   NORMALIZED FREE ENERGY PREDICTED BY IDOCK:   -4.16 KCAL/MOL
REMARK 922        TOTAL FREE ENERGY PREDICTED BY IDOCK:   -5.77 KCAL/MOL
REMARK 923 INTER-LIGAND FREE ENERGY PREDICTED BY IDOCK:   -6.10 KCAL/MOL
REMARK 924 INTRA-LIGAND FREE ENERGY PREDICTED BY IDOCK:    0.33 KCAL/MOL
REMARK 927      BINDING AFFINITY PREDICTED BY RF-SCORE:    0.00 PKD
ROOT
HETATM    1  C   UNL     1     -10.365  12.621  63.972  1.00  0.00    -0.414 C  
HETATM    2  C   UNL     1     -10.415  13.882  64.817  1.00  0.00    -0.429 C  
ENDROOT
BRANCH   2   3
HETATM    3  N   UNL     1     -10.370  13.615  66.256  1.00  0.00    -0.287 N  
HETATM    4  O   UNL     1     -12.687  13.596  66.348  1.00  0.00    -0.300 OA 
HETATM    5  C   UNL     1     -11.604  13.520  66.925  1.00  0.00    -0.363 C  
BRANCH   3   6
HETATM    6  C   UNL     1      -9.127  13.836  66.999  1.00  0.00    -0.246 C  
HETATM    7  C   UNL     1      -8.136  12.689  67.096  1.00  0.00    -0.141 C  
ENDBRANCH   3   6
BRANCH   5   8
HETATM    8  C   UNL     1     -11.600  13.291  68.443  1.00  0.00    -0.372 C  
HETATM    9  C   UNL     1     -10.729  14.247  69.274  1.00  0.00    -0.194 C  
HETATM   10  C   UNL     1     -12.213  14.432  69.269  1.00  0.00    -0.274 C  
BRANCH   8  11
HETATM   11  C   UNL     1     -11.494  11.816  68.859  1.00  0.00    -0.357 A  
HETATM   12  C   UNL     1     -11.700  11.462  70.208  1.00  0.00    -0.397 A  
HETATM   13  C   UNL     1     -11.379  10.193  70.695  1.00  0.00    -0.433 A  
HETATM   14  C   UNL     1     -11.040  10.799  68.002  1.00  0.00    -0.359 A  
HETATM   15  C   UNL     1     -10.859   9.232  69.836  1.00  0.00    -0.252 A  
HETATM   16  C   UNL     1     -10.711   9.527  68.485  1.00  0.00    -0.222 A  
ENDBRANCH   8  11
BRANCH  10  17
HETATM   17  C   UNL     1     -12.960  14.301  70.548  1.00  0.00    -0.201 C  
HETATM   18  N   UNL     1     -13.684  15.544  70.793  1.00  0.00    -0.859 NA 
HETATM   19  H2  UNL     1     -14.288  15.805  70.013  1.00  0.00     0.000 HD 
HETATM   20  H1  UNL     1     -14.196  15.454  71.670  1.00  0.00     0.000 HD 
ENDBRANCH  10  17
ENDBRANCH   5   8
ENDBRANCH   2   3
TORSDOF 5
ENDMDL
MODEL       68
REMARK 921   NORMALIZED FREE ENERGY PREDICTED BY IDOCK:   -4.15 KCAL/MOL
REMARK 922        TOTAL FREE ENERGY PREDICTED BY IDOCK:   -5.76 KCAL/MOL
REMARK 923 INTER-LIGAND FREE ENERGY PREDICTED BY IDOCK:   -5.41 KCAL/MOL
REMARK 924 INTRA-LIGAND FREE ENERGY PREDICTED BY IDOCK:   -0.35 KCAL/MOL
REMARK 927      BINDING AFFINITY PREDICTED BY RF-SCORE:    0.00 PKD
ROOT
HETATM    1  C   UNL     1      -7.829  10.361  68.024  1.00  0.00    -0.104 C  
HETATM    2  C   UNL     1      -8.526  10.888  69.267  1.00  0.00     0.007 C  
ENDROOT
BRANCH   2   3
HETATM    3  N   UNL     1      -9.627  10.035  69.717  1.00  0.00    -0.229 N  
HETATM    4  O   UNL     1      -8.258   9.077  71.325  1.00  0.00    -0.224 OA 
HETATM    5  C   UNL     1      -9.348   9.132  70.759  1.00  0.00    -0.264 C  
BRANCH   3   6
HETATM    6  C   UNL     1     -10.808   9.860  68.867  1.00  0.00    -0.210 C  
HETATM    7  C   UNL     1     -11.829  10.984  68.818  1.00  0.00    -0.352 C  
ENDBRANCH   3   6
BRANCH   5   8
HETATM    8  C   UNL     1     -10.461   8.184  71.227  1.00  0.00    -0.254 C  
HETATM    9  C   UNL     1     -10.731   8.145  72.741  1.00  0.00    -0.391 C  
HETATM   10  C   UNL     1     -11.681   8.879  71.849  1.00  0.00    -0.439 C  
BRANCH   8  11
HETATM   11  C   UNL     1     -10.441   6.803  70.554  1.00  0.00    -0.238 A  
HETATM   12  C   UNL     1     -10.143   5.662  71.326  1.00  0.00    -0.261 A  
HETATM   13  C   UNL     1      -9.868   4.425  70.738  1.00  0.00    -0.273 A  
HETATM   14  C   UNL     1     -10.543   6.616  69.164  1.00  0.00    -0.280 A  
HETATM   15  C   UNL     1      -9.902   4.292  69.355  1.00  0.00    -0.205 A  
HETATM   16  C   UNL     1     -10.262   5.381  68.569  1.00  0.00    -0.237 A  
ENDBRANCH   8  11
BRANCH  10  17
HETATM   17  C   UNL     1     -13.095   8.426  71.775  1.00  0.00    -0.351 C  
HETATM   18  N   UNL     1     -13.799   8.904  72.961  1.00  0.00    -1.107 NA 
HETATM   19  H2  UNL     1     -13.718   9.914  73.083  1.00  0.00     0.000 HD 
HETATM   20  H1  UNL     1     -14.769   8.593  72.910  1.00  0.00     0.000 HD 
ENDBRANCH  10  17
ENDBRANCH   5   8
ENDBRANCH   2   3
TORSDOF 5
ENDMDL
MODEL       69
REMARK 921   NORMALIZED FREE ENERGY PREDICTED BY IDOCK:   -4.14 KCAL/MOL
REMARK 922        TOTAL FREE ENERGY PREDICTED BY IDOCK:   -5.75 KCAL/MOL
REMARK 923 INTER-LIGAND FREE ENERGY PREDICTED BY IDOCK:   -5.54 KCAL/MOL
REMARK 924 INTRA-LIGAND FREE ENERGY PREDICTED BY IDOCK:   -0.21 KCAL/MOL
REMARK 927      BINDING AFFINITY PREDICTED BY RF-SCORE:    0.00 PKD
ROOT
HETATM    1  C   UNL     1      -6.076  14.656  67.752  1.00  0.00    -0.136 C  
HETATM    2  C   UNL     1      -7.469  15.230  67.954  1.00  0.00    -0.144 C  
ENDROOT
BRANCH   2   3
HETATM    3  N   UNL     1      -8.534  14.331  67.504  1.00  0.00    -0.174 N  
HETATM    4  O   UNL     1     -10.118  15.980  67.885  1.00  0.00    -0.235 OA 
HETATM    5  C   UNL     1      -9.848  14.830  67.547  1.00  0.00    -0.218 C  
BRANCH   3   6
HETATM    6  C   UNL     1      -8.279  12.891  67.407  1.00  0.00    -0.187 C  
HETATM    7  C   UNL     1      -8.002  12.124  68.689  1.00  0.00    -0.063 C  
ENDBRANCH   3   6
BRANCH   5   8
HETATM    8  C   UNL     1     -10.999  13.903  67.132  1.00  0.00    -0.298 C  
HETATM    9  C   UNL     1     -12.099  14.531  66.259  1.00  0.00    -0.311 C  
HETATM   10  C   UNL     1     -11.092  13.625  65.624  1.00  0.00    -0.300 C  
BRANCH   8  11
HETATM   11  C   UNL     1     -11.526  13.003  68.260  1.00  0.00    -0.347 A  
HETATM   12  C   UNL     1     -11.864  13.578  69.502  1.00  0.00    -0.392 A  
HETATM   13  C   UNL     1     -12.109  12.797  70.634  1.00  0.00    -0.316 A  
HETATM   14  C   UNL     1     -11.542  11.599  68.189  1.00  0.00    -0.389 A  
HETATM   15  C   UNL     1     -12.042  11.411  70.548  1.00  0.00    -0.487 A  
HETATM   16  C   UNL     1     -11.782  10.811  69.320  1.00  0.00    -0.374 A  
ENDBRANCH   8  11
BRANCH  10  17
HETATM   17  C   UNL     1     -11.558  12.370  64.978  1.00  0.00    -0.345 C  
HETATM   18  N   UNL     1     -12.917  12.577  64.487  1.00  0.00    -0.823 NA 
HETATM   19  H2  UNL     1     -12.991  13.386  63.869  1.00  0.00     0.000 HD 
HETATM   20  H1  UNL     1     -13.237  11.716  64.044  1.00  0.00     0.000 HD 
ENDBRANCH  10  17
ENDBRANCH   5   8
ENDBRANCH   2   3
TORSDOF 5
ENDMDL
MODEL       70
REMARK 921   NORMALIZED FREE ENERGY PREDICTED BY IDOCK:   -4.13 KCAL/MOL
REMARK 922        TOTAL FREE ENERGY PREDICTED BY IDOCK:   -5.74 KCAL/MOL
REMARK 923 INTER-LIGAND FREE ENERGY PREDICTED BY IDOCK:   -5.45 KCAL/MOL
REMARK 924 INTRA-LIGAND FREE ENERGY PREDICTED BY IDOCK:   -0.28 KCAL/MOL
REMARK 927      BINDING AFFINITY PREDICTED BY RF-SCORE:    0.00 PKD
ROOT
HETATM    1  C   UNL     1     -10.060   5.026  66.908  1.00  0.00    -0.261 C  
HETATM    2  C   UNL     1     -10.873   6.278  67.190  1.00  0.00    -0.381 C  
ENDROOT
BRANCH   2   3
HETATM    3  N   UNL     1     -10.290   7.122  68.235  1.00  0.00    -0.188 N  
HETATM    4  O   UNL     1     -11.654   6.131  69.828  1.00  0.00    -0.405 OA 
HETATM    5  C   UNL     1     -10.801   6.967  69.537  1.00  0.00    -0.252 C  
BRANCH   3   6
HETATM    6  C   UNL     1      -9.524   8.315  67.866  1.00  0.00    -0.146 C  
HETATM    7  C   UNL     1     -10.122   9.260  66.836  1.00  0.00    -0.324 C  
ENDBRANCH   3   6
BRANCH   5   8
HETATM    8  C   UNL     1     -10.252   7.867  70.653  1.00  0.00    -0.199 C  
HETATM    9  C   UNL     1      -9.613   7.151  71.854  1.00  0.00    -0.161 C  
HETATM   10  C   UNL     1      -8.729   7.805  70.841  1.00  0.00    -0.137 C  
BRANCH   8  11
HETATM   11  C   UNL     1     -11.173   9.037  71.032  1.00  0.00    -0.361 A  
HETATM   12  C   UNL     1     -12.103   8.874  72.079  1.00  0.00    -0.442 A  
HETATM   13  C   UNL     1     -13.125   9.798  72.308  1.00  0.00    -0.445 A  
HETATM   14  C   UNL     1     -11.263  10.226  70.288  1.00  0.00    -0.395 A  
HETATM   15  C   UNL     1     -13.232  10.926  71.504  1.00  0.00    -0.420 A  
HETATM   16  C   UNL     1     -12.288  11.153  70.508  1.00  0.00    -0.454 A  
ENDBRANCH   8  11
BRANCH  10  17
HETATM   17  C   UNL     1      -7.841   8.917  71.272  1.00  0.00    -0.125 C  
HETATM   18  N   UNL     1      -7.918   9.985  70.279  1.00  0.00    -0.358 NA 
HETATM   19  H2  UNL     1      -8.876  10.292  70.109  1.00  0.00     0.000 HD 
HETATM   20  H1  UNL     1      -7.309  10.747  70.575  1.00  0.00     0.000 HD 
ENDBRANCH  10  17
ENDBRANCH   5   8
ENDBRANCH   2   3
TORSDOF 5
ENDMDL
MODEL       71
REMARK 921   NORMALIZED FREE ENERGY PREDICTED BY IDOCK:   -4.13 KCAL/MOL
REMARK 922        TOTAL FREE ENERGY PREDICTED BY IDOCK:   -5.73 KCAL/MOL
REMARK 923 INTER-LIGAND FREE ENERGY PREDICTED BY IDOCK:   -5.50 KCAL/MOL
REMARK 924 INTRA-LIGAND FREE ENERGY PREDICTED BY IDOCK:   -0.23 KCAL/MOL
REMARK 927      BINDING AFFINITY PREDICTED BY RF-SCORE:    0.00 PKD
ROOT
HETATM    1  C   UNL     1     -13.161  10.234  71.254  1.00  0.00    -0.492 C  
HETATM    2  C   UNL     1     -12.441  11.571  71.194  1.00  0.00    -0.337 C  
ENDROOT
BRANCH   2   3
HETATM    3  N   UNL     1     -11.689  11.766  69.953  1.00  0.00    -0.326 N  
HETATM    4  O   UNL     1     -12.476  13.941  69.791  1.00  0.00    -0.311 OA 
HETATM    5  C   UNL     1     -11.819  13.015  69.320  1.00  0.00    -0.316 C  
BRANCH   3   6
HETATM    6  C   UNL     1     -11.172  10.605  69.224  1.00  0.00    -0.273 C  
HETATM    7  C   UNL     1      -9.789  10.089  69.585  1.00  0.00    -0.261 C  
ENDBRANCH   3   6
BRANCH   5   8
HETATM    8  C   UNL     1     -11.088  13.244  67.990  1.00  0.00    -0.282 C  
HETATM    9  C   UNL     1     -11.398  12.246  66.861  1.00  0.00    -0.392 C  
HETATM   10  C   UNL     1     -11.998  13.616  66.809  1.00  0.00    -0.458 C  
BRANCH   8  11
HETATM   11  C   UNL     1      -9.597  13.586  68.138  1.00  0.00    -0.215 A  
HETATM   12  C   UNL     1      -9.223  14.779  68.789  1.00  0.00    -0.196 A  
HETATM   13  C   UNL     1      -7.915  15.267  68.740  1.00  0.00    -0.158 A  
HETATM   14  C   UNL     1      -8.569  12.857  67.516  1.00  0.00    -0.188 A  
HETATM   15  C   UNL     1      -6.937  14.560  68.051  1.00  0.00    -0.149 A  
HETATM   16  C   UNL     1      -7.258  13.343  67.458  1.00  0.00    -0.163 A  
ENDBRANCH   8  11
BRANCH  10  17
HETATM   17  C   UNL     1     -11.655  14.509  65.671  1.00  0.00    -0.344 C  
HETATM   18  N   UNL     1     -12.720  14.422  64.676  1.00  0.00    -0.643 NA 
HETATM   19  H2  UNL     1     -13.640  14.624  65.069  1.00  0.00     0.000 HD 
HETATM   20  H1  UNL     1     -12.485  15.034  63.895  1.00  0.00     0.000 HD 
ENDBRANCH  10  17
ENDBRANCH   5   8
ENDBRANCH   2   3
TORSDOF 5
ENDMDL
MODEL       72
REMARK 921   NORMALIZED FREE ENERGY PREDICTED BY IDOCK:   -4.12 KCAL/MOL
REMARK 922        TOTAL FREE ENERGY PREDICTED BY IDOCK:   -5.72 KCAL/MOL
REMARK 923 INTER-LIGAND FREE ENERGY PREDICTED BY IDOCK:   -5.38 KCAL/MOL
REMARK 924 INTRA-LIGAND FREE ENERGY PREDICTED BY IDOCK:   -0.34 KCAL/MOL
REMARK 927      BINDING AFFINITY PREDICTED BY RF-SCORE:    0.00 PKD
ROOT
HETATM    1  C   UNL     1     -10.295   8.794  66.532  1.00  0.00    -0.254 C  
HETATM    2  C   UNL     1      -9.655   7.991  67.652  1.00  0.00    -0.151 C  
ENDROOT
BRANCH   2   3
HETATM    3  N   UNL     1     -10.455   7.970  68.877  1.00  0.00    -0.213 N  
HETATM    4  O   UNL     1      -9.767  10.123  69.392  1.00  0.00    -0.207 OA 
HETATM    5  C   UNL     1     -10.401   9.114  69.693  1.00  0.00    -0.219 C  
BRANCH   3   6
HETATM    6  C   UNL     1     -10.947   6.694  69.404  1.00  0.00    -0.309 C  
HETATM    7  C   UNL     1      -9.926   5.664  69.857  1.00  0.00    -0.268 C  
ENDBRANCH   3   6
BRANCH   5   8
HETATM    8  C   UNL     1     -11.186   9.113  71.013  1.00  0.00    -0.380 C  
HETATM    9  C   UNL     1     -11.855  10.441  71.408  1.00  0.00    -0.312 C  
HETATM   10  C   UNL     1     -12.699   9.333  70.862  1.00  0.00    -0.124 C  
BRANCH   8  11
HETATM   11  C   UNL     1     -10.477   8.394  72.171  1.00  0.00    -0.396 A  
HETATM   12  C   UNL     1      -9.071   8.437  72.254  1.00  0.00    -0.313 A  
HETATM   13  C   UNL     1      -8.358   7.611  73.126  1.00  0.00    -0.184 A  
HETATM   14  C   UNL     1     -11.138   7.547  73.078  1.00  0.00    -0.413 A  
HETATM   15  C   UNL     1      -9.039   6.729  73.956  1.00  0.00    -0.209 A  
HETATM   16  C   UNL     1     -10.430   6.713  73.950  1.00  0.00    -0.351 A  
ENDBRANCH   8  11
BRANCH  10  17
HETATM   17  C   UNL     1     -13.770   8.755  71.718  1.00  0.00    -0.419 C  
HETATM   18  N   UNL     1     -14.228   7.509  71.111  1.00  0.00    -0.655 NA 
HETATM   19  H2  UNL     1     -13.466   6.853  70.941  1.00  0.00     0.000 HD 
HETATM   20  H1  UNL     1     -14.962   7.114  71.697  1.00  0.00     0.000 HD 
ENDBRANCH  10  17
ENDBRANCH   5   8
ENDBRANCH   2   3
TORSDOF 5
ENDMDL
MODEL       73
REMARK 921   NORMALIZED FREE ENERGY PREDICTED BY IDOCK:   -4.10 KCAL/MOL
REMARK 922        TOTAL FREE ENERGY PREDICTED BY IDOCK:   -5.70 KCAL/MOL
REMARK 923 INTER-LIGAND FREE ENERGY PREDICTED BY IDOCK:   -5.95 KCAL/MOL
REMARK 924 INTRA-LIGAND FREE ENERGY PREDICTED BY IDOCK:    0.25 KCAL/MOL
REMARK 927      BINDING AFFINITY PREDICTED BY RF-SCORE:    0.00 PKD
ROOT
HETATM    1  C   UNL     1     -12.711  12.006  63.521  1.00  0.00    -0.567 C  
HETATM    2  C   UNL     1     -11.922  13.236  63.938  1.00  0.00    -0.483 C  
ENDROOT
BRANCH   2   3
HETATM    3  N   UNL     1     -11.368  13.135  65.289  1.00  0.00    -0.292 N  
HETATM    4  O   UNL     1     -10.890  15.404  65.288  1.00  0.00    -0.358 OA 
HETATM    5  C   UNL     1     -10.845  14.313  65.853  1.00  0.00    -0.300 C  
BRANCH   3   6
HETATM    6  C   UNL     1     -11.020  11.821  65.837  1.00  0.00    -0.304 C  
HETATM    7  C   UNL     1     -10.013  10.972  65.079  1.00  0.00    -0.340 C  
ENDBRANCH   3   6
BRANCH   5   8
HETATM    8  C   UNL     1     -10.208  14.239  67.247  1.00  0.00    -0.252 C  
HETATM    9  C   UNL     1      -8.969  13.338  67.384  1.00  0.00    -0.215 C  
HETATM   10  C   UNL     1      -8.790  14.823  67.340  1.00  0.00    -0.203 C  
BRANCH   8  11
HETATM   11  C   UNL     1     -11.218  14.104  68.398  1.00  0.00    -0.289 A  
HETATM   12  C   UNL     1     -11.858  15.257  68.895  1.00  0.00    -0.344 A  
HETATM   13  C   UNL     1     -12.589  15.239  70.086  1.00  0.00    -0.334 A  
HETATM   14  C   UNL     1     -11.430  12.909  69.107  1.00  0.00    -0.360 A  
HETATM   15  C   UNL     1     -12.715  14.056  70.804  1.00  0.00    -0.396 A  
HETATM   16  C   UNL     1     -12.155  12.885  70.303  1.00  0.00    -0.377 A  
ENDBRANCH   8  11
BRANCH  10  17
HETATM   17  C   UNL     1      -8.187  15.510  68.513  1.00  0.00    -0.148 C  
HETATM   18  N   UNL     1      -8.026  14.537  69.589  1.00  0.00    -0.389 NA 
HETATM   19  H2  UNL     1      -7.493  13.718  69.299  1.00  0.00     0.000 HD 
HETATM   20  H1  UNL     1      -7.613  15.009  70.394  1.00  0.00     0.000 HD 
ENDBRANCH  10  17
ENDBRANCH   5   8
ENDBRANCH   2   3
TORSDOF 5
ENDMDL
MODEL       74
REMARK 921   NORMALIZED FREE ENERGY PREDICTED BY IDOCK:   -4.09 KCAL/MOL
REMARK 922        TOTAL FREE ENERGY PREDICTED BY IDOCK:   -5.68 KCAL/MOL
REMARK 923 INTER-LIGAND FREE ENERGY PREDICTED BY IDOCK:   -5.67 KCAL/MOL
REMARK 924 INTRA-LIGAND FREE ENERGY PREDICTED BY IDOCK:   -0.01 KCAL/MOL
REMARK 927      BINDING AFFINITY PREDICTED BY RF-SCORE:    0.00 PKD
ROOT
HETATM    1  C   UNL     1      -6.882   7.502  72.039  1.00  0.00    -0.062 C  
HETATM    2  C   UNL     1      -8.044   6.532  72.165  1.00  0.00    -0.106 C  
ENDROOT
BRANCH   2   3
HETATM    3  N   UNL     1      -9.212   6.926  71.374  1.00  0.00    -0.156 N  
HETATM    4  O   UNL     1     -10.095   8.055  73.197  1.00  0.00    -0.307 OA 
HETATM    5  C   UNL     1     -10.202   7.679  72.031  1.00  0.00    -0.197 C  
BRANCH   3   6
HETATM    6  C   UNL     1      -9.505   6.236  70.115  1.00  0.00    -0.159 C  
HETATM    7  C   UNL     1      -8.550   6.434  68.950  1.00  0.00    -0.123 C  
ENDBRANCH   3   6
BRANCH   5   8
HETATM    8  C   UNL     1     -11.465   8.069  71.252  1.00  0.00    -0.299 C  
HETATM    9  C   UNL     1     -12.203   6.926  70.533  1.00  0.00    -0.253 C  
HETATM   10  C   UNL     1     -12.771   7.476  71.803  1.00  0.00    -0.360 C  
BRANCH   8  11
HETATM   11  C   UNL     1     -11.325   9.352  70.419  1.00  0.00    -0.295 A  
HETATM   12  C   UNL     1     -11.803  10.571  70.941  1.00  0.00    -0.455 A  
HETATM   13  C   UNL     1     -11.930  11.714  70.147  1.00  0.00    -0.441 A  
HETATM   14  C   UNL     1     -10.889   9.365  69.083  1.00  0.00    -0.176 A  
HETATM   15  C   UNL     1     -11.562  11.671  68.808  1.00  0.00    -0.374 A  
HETATM   16  C   UNL     1     -11.019  10.504  68.280  1.00  0.00    -0.314 A  
ENDBRANCH   8  11
BRANCH  10  17
HETATM   17  C   UNL     1     -14.116   8.109  71.774  1.00  0.00    -0.439 C  
HETATM   18  N   UNL     1     -14.287   8.892  72.994  1.00  0.00    -1.154 NA 
HETATM   19  H2  UNL     1     -13.538   9.571  73.132  1.00  0.00     0.000 HD 
HETATM   20  H1  UNL     1     -15.210   9.326  72.975  1.00  0.00     0.000 HD 
ENDBRANCH  10  17
ENDBRANCH   5   8
ENDBRANCH   2   3
TORSDOF 5
ENDMDL
MODEL       75
REMARK 921   NORMALIZED FREE ENERGY PREDICTED BY IDOCK:   -4.08 KCAL/MOL
REMARK 922        TOTAL FREE ENERGY PREDICTED BY IDOCK:   -5.67 KCAL/MOL
REMARK 923 INTER-LIGAND FREE ENERGY PREDICTED BY IDOCK:   -5.31 KCAL/MOL
REMARK 924 INTRA-LIGAND FREE ENERGY PREDICTED BY IDOCK:   -0.36 KCAL/MOL
REMARK 927      BINDING AFFINITY PREDICTED BY RF-SCORE:    0.00 PKD
ROOT
HETATM    1  C   UNL     1      -5.254  14.912  68.833  1.00  0.00    -0.092 C  
HETATM    2  C   UNL     1      -5.985  16.213  69.118  1.00  0.00    -0.134 C  
ENDROOT
BRANCH   2   3
HETATM    3  N   UNL     1      -7.058  16.494  68.163  1.00  0.00    -0.141 N  
HETATM    4  O   UNL     1      -8.560  15.297  69.463  1.00  0.00    -0.246 OA 
HETATM    5  C   UNL     1      -8.321  15.940  68.443  1.00  0.00    -0.174 C  
BRANCH   3   6
HETATM    6  C   UNL     1      -6.729  16.972  66.817  1.00  0.00    -0.230 C  
HETATM    7  C   UNL     1      -6.000  18.299  66.686  1.00  0.00    -0.181 C  
ENDBRANCH   3   6
BRANCH   5   8
HETATM    8  C   UNL     1      -9.461  16.168  67.441  1.00  0.00    -0.227 C  
HETATM    9  C   UNL     1      -9.300  15.503  66.063  1.00  0.00    -0.379 C  
HETATM   10  C   UNL     1     -10.243  14.903  67.056  1.00  0.00    -0.256 C  
BRANCH   8  11
HETATM   11  C   UNL     1      -9.978  17.614  67.387  1.00  0.00    -0.321 A  
HETATM   12  C   UNL     1     -10.253  18.204  66.137  1.00  0.00    -0.372 A  
HETATM   13  C   UNL     1     -10.485  19.575  66.003  1.00  0.00    -0.611 A  
HETATM   14  C   UNL     1     -10.043  18.456  68.511  1.00  0.00    -0.413 A  
HETATM   15  C   UNL     1     -10.467  20.393  67.127  1.00  0.00    -0.192 A  
HETATM   16  C   UNL     1     -10.269  19.831  68.384  1.00  0.00    -0.568 A  
ENDBRANCH   8  11
BRANCH  10  17
HETATM   17  C   UNL     1     -11.689  14.821  66.718  1.00  0.00    -0.298 C  
HETATM   18  N   UNL     1     -12.451  14.702  67.957  1.00  0.00    -0.472 NA 
HETATM   19  H2  UNL     1     -12.245  15.452  68.617  1.00  0.00     0.000 HD 
HETATM   20  H1  UNL     1     -13.442  14.645  67.724  1.00  0.00     0.000 HD 
ENDBRANCH  10  17
ENDBRANCH   5   8
ENDBRANCH   2   3
TORSDOF 5
ENDMDL
MODEL       76
REMARK 921   NORMALIZED FREE ENERGY PREDICTED BY IDOCK:   -4.04 KCAL/MOL
REMARK 922        TOTAL FREE ENERGY PREDICTED BY IDOCK:   -5.62 KCAL/MOL
REMARK 923 INTER-LIGAND FREE ENERGY PREDICTED BY IDOCK:   -5.33 KCAL/MOL
REMARK 924 INTRA-LIGAND FREE ENERGY PREDICTED BY IDOCK:   -0.29 KCAL/MOL
REMARK 927      BINDING AFFINITY PREDICTED BY RF-SCORE:    0.00 PKD
ROOT
HETATM    1  C   UNL     1      -7.384   7.155  67.823  1.00  0.00    -0.097 C  
HETATM    2  C   UNL     1      -8.439   8.136  68.306  1.00  0.00    -0.130 C  
ENDROOT
BRANCH   2   3
HETATM    3  N   UNL     1      -9.457   7.515  69.156  1.00  0.00    -0.150 N  
HETATM    4  O   UNL     1      -8.442   8.390  71.049  1.00  0.00    -0.120 OA 
HETATM    5  C   UNL     1      -9.325   7.699  70.545  1.00  0.00    -0.163 C  
BRANCH   3   6
HETATM    6  C   UNL     1     -10.307   6.451  68.617  1.00  0.00    -0.199 C  
HETATM    7  C   UNL     1     -10.995   6.690  67.283  1.00  0.00    -0.456 C  
ENDBRANCH   3   6
BRANCH   5   8
HETATM    8  C   UNL     1     -10.342   7.023  71.475  1.00  0.00    -0.218 C  
HETATM    9  C   UNL     1     -10.345   5.485  71.478  1.00  0.00    -0.282 C  
HETATM   10  C   UNL     1      -9.725   6.216  72.627  1.00  0.00    -0.164 C  
BRANCH   8  11
HETATM   11  C   UNL     1     -11.741   7.657  71.449  1.00  0.00    -0.310 A  
HETATM   12  C   UNL     1     -11.880   9.037  71.701  1.00  0.00    -0.431 A  
HETATM   13  C   UNL     1     -13.126   9.622  71.935  1.00  0.00    -0.530 A  
HETATM   14  C   UNL     1     -12.929   6.911  71.349  1.00  0.00    -0.339 A  
HETATM   15  C   UNL     1     -14.275   8.841  71.905  1.00  0.00    -0.467 A  
HETATM   16  C   UNL     1     -14.180   7.490  71.589  1.00  0.00    -0.592 A  
ENDBRANCH   8  11
BRANCH  10  17
HETATM   17  C   UNL     1     -10.295   6.033  73.988  1.00  0.00    -0.291 C  
HETATM   18  N   UNL     1     -11.156   4.854  73.977  1.00  0.00    -0.387 NA 
HETATM   19  H2  UNL     1     -10.674   4.021  73.639  1.00  0.00     0.000 HD 
HETATM   20  H1  UNL     1     -11.547   4.729  74.910  1.00  0.00     0.000 HD 
ENDBRANCH  10  17
ENDBRANCH   5   8
ENDBRANCH   2   3
TORSDOF 5
ENDMDL
MODEL       77
REMARK 921   NORMALIZED FREE ENERGY PREDICTED BY IDOCK:   -4.03 KCAL/MOL
REMARK 922        TOTAL FREE ENERGY PREDICTED BY IDOCK:   -5.60 KCAL/MOL
REMARK 923 INTER-LIGAND FREE ENERGY PREDICTED BY IDOCK:   -5.32 KCAL/MOL
REMARK 924 INTRA-LIGAND FREE ENERGY PREDICTED BY IDOCK:   -0.28 KCAL/MOL
REMARK 927      BINDING AFFINITY PREDICTED BY RF-SCORE:    0.00 PKD
ROOT
HETATM    1  C   UNL     1     -13.062  11.987  71.812  1.00  0.00    -0.460 C  
HETATM    2  C   UNL     1     -13.107  10.561  71.288  1.00  0.00    -0.383 C  
ENDROOT
BRANCH   2   3
HETATM    3  N   UNL     1     -11.795  10.056  70.879  1.00  0.00    -0.339 N  
HETATM    4  O   UNL     1     -12.209  10.689  68.687  1.00  0.00    -0.386 OA 
HETATM    5  C   UNL     1     -11.472  10.156  69.513  1.00  0.00    -0.168 C  
BRANCH   3   6
HETATM    6  C   UNL     1     -11.055   9.150  71.762  1.00  0.00    -0.367 C  
HETATM    7  C   UNL     1     -11.767   7.909  72.275  1.00  0.00    -0.408 C  
ENDBRANCH   3   6
BRANCH   5   8
HETATM    8  C   UNL     1     -10.127   9.592  69.034  1.00  0.00    -0.201 C  
HETATM    9  C   UNL     1      -9.290  10.508  68.125  1.00  0.00    -0.150 C  
HETATM   10  C   UNL     1      -8.891  10.340  69.557  1.00  0.00    -0.166 C  
BRANCH   8  11
HETATM   11  C   UNL     1     -10.182   8.127  68.575  1.00  0.00    -0.233 A  
HETATM   12  C   UNL     1     -10.574   7.830  67.254  1.00  0.00    -0.376 A  
HETATM   13  C   UNL     1     -10.881   6.529  66.850  1.00  0.00    -0.427 A  
HETATM   14  C   UNL     1     -10.020   7.035  69.445  1.00  0.00    -0.165 A  
HETATM   15  C   UNL     1     -10.784   5.481  67.758  1.00  0.00    -0.186 A  
HETATM   16  C   UNL     1     -10.331   5.729  69.049  1.00  0.00    -0.313 A  
ENDBRANCH   8  11
BRANCH  10  17
HETATM   17  C   UNL     1      -7.563   9.750  69.870  1.00  0.00    -0.152 C  
HETATM   18  N   UNL     1      -6.710  10.796  70.427  1.00  0.00    -0.441 NA 
HETATM   19  H2  UNL     1      -7.132  11.259  71.232  1.00  0.00     0.000 HD 
HETATM   20  H1  UNL     1      -5.798  10.391  70.641  1.00  0.00     0.000 HD 
ENDBRANCH  10  17
ENDBRANCH   5   8
ENDBRANCH   2   3
TORSDOF 5
ENDMDL
MODEL       78
REMARK 921   NORMALIZED FREE ENERGY PREDICTED BY IDOCK:   -4.02 KCAL/MOL
REMARK 922        TOTAL FREE ENERGY PREDICTED BY IDOCK:   -5.60 KCAL/MOL
REMARK 923 INTER-LIGAND FREE ENERGY PREDICTED BY IDOCK:   -5.73 KCAL/MOL
REMARK 924 INTRA-LIGAND FREE ENERGY PREDICTED BY IDOCK:    0.13 KCAL/MOL
REMARK 927      BINDING AFFINITY PREDICTED BY RF-SCORE:    0.00 PKD
ROOT
HETATM    1  C   UNL     1     -10.733  17.010  67.409  1.00  0.00    -0.240 C  
HETATM    2  C   UNL     1     -10.700  16.610  65.944  1.00  0.00    -0.175 C  
ENDROOT
BRANCH   2   3
HETATM    3  N   UNL     1     -10.480  15.176  65.742  1.00  0.00    -0.315 N  
HETATM    4  O   UNL     1     -12.769  14.814  65.659  1.00  0.00    -0.092 OA 
HETATM    5  C   UNL     1     -11.625  14.365  65.642  1.00  0.00    -0.347 C  
BRANCH   3   6
HETATM    6  C   UNL     1      -9.168  14.593  66.033  1.00  0.00    -0.103 C  
HETATM    7  C   UNL     1      -8.638  14.694  67.454  1.00  0.00    -0.212 C  
ENDBRANCH   3   6
BRANCH   5   8
HETATM    8  C   UNL     1     -11.438  12.850  65.480  1.00  0.00    -0.361 C  
HETATM    9  C   UNL     1     -12.377  12.150  64.483  1.00  0.00    -0.395 C  
HETATM   10  C   UNL     1     -10.956  12.404  64.092  1.00  0.00    -0.416 C  
BRANCH   8  11
HETATM   11  C   UNL     1     -11.244  12.091  66.802  1.00  0.00    -0.376 A  
HETATM   12  C   UNL     1     -10.749  10.772  66.776  1.00  0.00    -0.291 A  
HETATM   13  C   UNL     1     -10.782   9.949  67.904  1.00  0.00    -0.316 A  
HETATM   14  C   UNL     1     -11.685  12.575  68.046  1.00  0.00    -0.410 A  
HETATM   15  C   UNL     1     -11.296  10.434  69.101  1.00  0.00    -0.286 A  
HETATM   16  C   UNL     1     -11.726  11.755  69.179  1.00  0.00    -0.388 A  
ENDBRANCH   8  11
BRANCH  10  17
HETATM   17  C   UNL     1     -10.075  11.245  63.787  1.00  0.00    -0.361 C  
HETATM   18  N   UNL     1      -9.029  11.685  62.870  1.00  0.00    -0.645 NA 
HETATM   19  H2  UNL     1      -8.510  12.488  63.225  1.00  0.00     0.000 HD 
HETATM   20  H1  UNL     1      -8.425  10.890  62.661  1.00  0.00     0.000 HD 
ENDBRANCH  10  17
ENDBRANCH   5   8
ENDBRANCH   2   3
TORSDOF 5
ENDMDL
MODEL       79
REMARK 921   NORMALIZED FREE ENERGY PREDICTED BY IDOCK:   -4.02 KCAL/MOL
REMARK 922        TOTAL FREE ENERGY PREDICTED BY IDOCK:   -5.59 KCAL/MOL
REMARK 923 INTER-LIGAND FREE ENERGY PREDICTED BY IDOCK:   -5.47 KCAL/MOL
REMARK 924 INTRA-LIGAND FREE ENERGY PREDICTED BY IDOCK:   -0.12 KCAL/MOL
REMARK 927      BINDING AFFINITY PREDICTED BY RF-SCORE:    0.00 PKD
ROOT
HETATM    1  C   UNL     1     -13.251  11.857  71.994  1.00  0.00    -0.461 C  
HETATM    2  C   UNL     1     -12.644  11.055  70.854  1.00  0.00    -0.391 C  
ENDROOT
BRANCH   2   3
HETATM    3  N   UNL     1     -12.195   9.723  71.262  1.00  0.00    -0.347 N  
HETATM    4  O   UNL     1     -10.783   9.613  69.426  1.00  0.00    -0.217 OA 
HETATM    5  C   UNL     1     -11.262   9.083  70.426  1.00  0.00    -0.241 C  
BRANCH   3   6
HETATM    6  C   UNL     1     -12.970   8.961  72.244  1.00  0.00    -0.419 C  
HETATM    7  C   UNL     1     -14.309   8.387  71.812  1.00  0.00    -0.558 C  
ENDBRANCH   3   6
BRANCH   5   8
HETATM    8  C   UNL     1     -10.802   7.664  70.790  1.00  0.00    -0.246 C  
HETATM    9  C   UNL     1     -11.767   6.522  70.428  1.00  0.00    -0.439 C  
HETATM   10  C   UNL     1     -10.548   6.741  69.589  1.00  0.00    -0.267 C  
BRANCH   8  11
HETATM   11  C   UNL     1     -10.174   7.541  72.187  1.00  0.00    -0.238 A  
HETATM   12  C   UNL     1      -9.028   8.301  72.499  1.00  0.00    -0.305 A  
HETATM   13  C   UNL     1      -8.271   8.056  73.646  1.00  0.00    -0.284 A  
HETATM   14  C   UNL     1     -10.576   6.586  73.137  1.00  0.00    -0.290 A  
HETATM   15  C   UNL     1      -8.653   7.051  74.528  1.00  0.00    -0.224 A  
HETATM   16  C   UNL     1      -9.819   6.331  74.285  1.00  0.00    -0.297 A  
ENDBRANCH   8  11
BRANCH  10  17
HETATM   17  C   UNL     1      -9.532   5.659  69.500  1.00  0.00    -0.136 C  
HETATM   18  N   UNL     1      -8.395   6.152  68.729  1.00  0.00    -0.111 NA 
HETATM   19  H2  UNL     1      -8.012   7.019  69.108  1.00  0.00     0.000 HD 
HETATM   20  H1  UNL     1      -7.698   5.410  68.668  1.00  0.00     0.000 HD 
ENDBRANCH  10  17
ENDBRANCH   5   8
ENDBRANCH   2   3
TORSDOF 5
ENDMDL
MODEL       80
REMARK 921   NORMALIZED FREE ENERGY PREDICTED BY IDOCK:   -4.01 KCAL/MOL
REMARK 922        TOTAL FREE ENERGY PREDICTED BY IDOCK:   -5.58 KCAL/MOL
REMARK 923 INTER-LIGAND FREE ENERGY PREDICTED BY IDOCK:   -5.59 KCAL/MOL
REMARK 924 INTRA-LIGAND FREE ENERGY PREDICTED BY IDOCK:    0.01 KCAL/MOL
REMARK 927      BINDING AFFINITY PREDICTED BY RF-SCORE:    0.00 PKD
ROOT
HETATM    1  C   UNL     1     -10.996  14.895  67.607  1.00  0.00    -0.300 C  
HETATM    2  C   UNL     1     -11.074  13.546  68.303  1.00  0.00    -0.261 C  
ENDROOT
BRANCH   2   3
HETATM    3  N   UNL     1     -10.357  12.487  67.590  1.00  0.00    -0.216 N  
HETATM    4  O   UNL     1     -12.103  11.012  67.982  1.00  0.00    -0.615 OA 
HETATM    5  C   UNL     1     -10.982  11.229  67.524  1.00  0.00    -0.265 C  
BRANCH   3   6
HETATM    6  C   UNL     1      -8.923  12.629  67.326  1.00  0.00    -0.194 C  
HETATM    7  C   UNL     1      -8.039  13.166  68.439  1.00  0.00    -0.130 C  
ENDBRANCH   3   6
BRANCH   5   8
HETATM    8  C   UNL     1     -10.243  10.077  66.830  1.00  0.00    -0.299 C  
HETATM    9  C   UNL     1      -8.974   9.562  67.531  1.00  0.00    -0.133 C  
HETATM   10  C   UNL     1     -10.231   8.754  67.611  1.00  0.00    -0.298 C  
BRANCH   8  11
HETATM   11  C   UNL     1     -10.101  10.241  65.309  1.00  0.00    -0.359 A  
HETATM   12  C   UNL     1      -9.025   9.619  64.644  1.00  0.00    -0.274 A  
HETATM   13  C   UNL     1      -8.700   9.926  63.320  1.00  0.00    -0.227 A  
HETATM   14  C   UNL     1     -10.893  11.116  64.546  1.00  0.00    -0.320 A  
HETATM   15  C   UNL     1      -9.458  10.854  62.618  1.00  0.00    -0.324 A  
HETATM   16  C   UNL     1     -10.570  11.433  63.222  1.00  0.00    -0.374 A  
ENDBRANCH   8  11
BRANCH  10  17
HETATM   17  C   UNL     1     -10.243   7.383  67.036  1.00  0.00    -0.287 C  
HETATM   18  N   UNL     1     -11.533   6.767  67.334  1.00  0.00    -0.716 NA 
HETATM   19  H2  UNL     1     -12.320   7.332  67.015  1.00  0.00     0.000 HD 
HETATM   20  H1  UNL     1     -11.541   5.826  66.940  1.00  0.00     0.000 HD 
ENDBRANCH  10  17
ENDBRANCH   5   8
ENDBRANCH   2   3
TORSDOF 5
ENDMDL
MODEL       81
REMARK 921   NORMALIZED FREE ENERGY PREDICTED BY IDOCK:   -3.99 KCAL/MOL
REMARK 922        TOTAL FREE ENERGY PREDICTED BY IDOCK:   -5.55 KCAL/MOL
REMARK 923 INTER-LIGAND FREE ENERGY PREDICTED BY IDOCK:   -5.32 KCAL/MOL
REMARK 924 INTRA-LIGAND FREE ENERGY PREDICTED BY IDOCK:   -0.22 KCAL/MOL
REMARK 927      BINDING AFFINITY PREDICTED BY RF-SCORE:    0.00 PKD
ROOT
HETATM    1  C   UNL     1      -8.778  11.113  62.454  1.00  0.00    -0.328 C  
HETATM    2  C   UNL     1      -9.622  10.387  63.488  1.00  0.00    -0.310 C  
ENDROOT
BRANCH   2   3
HETATM    3  N   UNL     1     -10.008  11.236  64.617  1.00  0.00    -0.262 N  
HETATM    4  O   UNL     1      -8.103  10.600  65.776  1.00  0.00    -0.159 OA 
HETATM    5  C   UNL     1      -9.157  11.230  65.737  1.00  0.00    -0.203 C  
BRANCH   3   6
HETATM    6  C   UNL     1     -11.383  11.730  64.720  1.00  0.00    -0.249 C  
HETATM    7  C   UNL     1     -12.006  12.376  63.494  1.00  0.00    -0.627 C  
ENDBRANCH   3   6
BRANCH   5   8
HETATM    8  C   UNL     1      -9.551  12.068  66.962  1.00  0.00    -0.200 C  
HETATM    9  C   UNL     1      -8.525  13.114  67.431  1.00  0.00    -0.201 C  
HETATM   10  C   UNL     1      -9.740  13.567  66.684  1.00  0.00    -0.281 C  
BRANCH   8  11
HETATM   11  C   UNL     1     -10.195  11.261  68.100  1.00  0.00    -0.196 A  
HETATM   12  C   UNL     1     -11.563  11.443  68.388  1.00  0.00    -0.385 A  
HETATM   13  C   UNL     1     -12.145  10.935  69.552  1.00  0.00    -0.380 A  
HETATM   14  C   UNL     1      -9.463  10.458  68.992  1.00  0.00    -0.205 A  
HETATM   15  C   UNL     1     -11.374  10.209  70.453  1.00  0.00    -0.401 A  
HETATM   16  C   UNL     1     -10.038   9.951  70.162  1.00  0.00    -0.309 A  
ENDBRANCH   8  11
BRANCH  10  17
HETATM   17  C   UNL     1     -10.699  14.481  67.359  1.00  0.00    -0.282 C  
HETATM   18  N   UNL     1     -11.887  14.609  66.520  1.00  0.00    -0.348 NA 
HETATM   19  H2  UNL     1     -12.302  13.706  66.290  1.00  0.00     0.000 HD 
HETATM   20  H1  UNL     1     -12.544  15.236  66.982  1.00  0.00     0.000 HD 
ENDBRANCH  10  17
ENDBRANCH   5   8
ENDBRANCH   2   3
TORSDOF 5
ENDMDL
MODEL       82
REMARK 921   NORMALIZED FREE ENERGY PREDICTED BY IDOCK:   -3.98 KCAL/MOL
REMARK 922        TOTAL FREE ENERGY PREDICTED BY IDOCK:   -5.53 KCAL/MOL
REMARK 923 INTER-LIGAND FREE ENERGY PREDICTED BY IDOCK:   -5.13 KCAL/MOL
REMARK 924 INTRA-LIGAND FREE ENERGY PREDICTED BY IDOCK:   -0.40 KCAL/MOL
REMARK 927      BINDING AFFINITY PREDICTED BY RF-SCORE:    0.00 PKD
ROOT
HETATM    1  C   UNL     1     -11.591  11.764  63.167  1.00  0.00    -0.182 C  
HETATM    2  C   UNL     1     -10.468  12.307  64.033  1.00  0.00    -0.399 C  
ENDROOT
BRANCH   2   3
HETATM    3  N   UNL     1     -10.791  12.311  65.462  1.00  0.00    -0.273 N  
HETATM    4  O   UNL     1      -8.949  10.974  65.905  1.00  0.00    -0.186 OA 
HETATM    5  C   UNL     1      -9.950  11.565  66.306  1.00  0.00    -0.220 C  
BRANCH   3   6
HETATM    6  C   UNL     1     -12.123  12.729  65.906  1.00  0.00    -0.426 C  
HETATM    7  C   UNL     1     -12.486  14.201  65.798  1.00  0.00    -0.490 C  
ENDBRANCH   3   6
BRANCH   5   8
HETATM    8  C   UNL     1     -10.283  11.502  67.804  1.00  0.00    -0.200 C  
HETATM    9  C   UNL     1     -11.407  10.534  68.211  1.00  0.00    -0.332 C  
HETATM   10  C   UNL     1      -9.984  10.152  68.474  1.00  0.00    -0.177 C  
BRANCH   8  11
HETATM   11  C   UNL     1     -10.347  12.871  68.496  1.00  0.00    -0.239 A  
HETATM   12  C   UNL     1     -11.500  13.223  69.228  1.00  0.00    -0.345 A  
HETATM   13  C   UNL     1     -11.724  14.529  69.668  1.00  0.00    -0.356 A  
HETATM   14  C   UNL     1      -9.384  13.879  68.314  1.00  0.00    -0.209 A  
HETATM   15  C   UNL     1     -10.786  15.520  69.404  1.00  0.00    -0.261 A  
HETATM   16  C   UNL     1      -9.605  15.191  68.748  1.00  0.00    -0.219 A  
ENDBRANCH   8  11
BRANCH  10  17
HETATM   17  C   UNL     1      -9.545   9.935  69.878  1.00  0.00    -0.227 C  
HETATM   18  N   UNL     1     -10.684  10.163  70.762  1.00  0.00    -0.388 NA 
HETATM   19  H2  UNL     1     -11.492   9.593  70.513  1.00  0.00     0.000 HD 
HETATM   20  H1  UNL     1     -10.382  10.014  71.724  1.00  0.00     0.000 HD 
ENDBRANCH  10  17
ENDBRANCH   5   8
ENDBRANCH   2   3
TORSDOF 5
ENDMDL
MODEL       83
REMARK 921   NORMALIZED FREE ENERGY PREDICTED BY IDOCK:   -3.97 KCAL/MOL
REMARK 922        TOTAL FREE ENERGY PREDICTED BY IDOCK:   -5.53 KCAL/MOL
REMARK 923 INTER-LIGAND FREE ENERGY PREDICTED BY IDOCK:   -5.19 KCAL/MOL
REMARK 924 INTRA-LIGAND FREE ENERGY PREDICTED BY IDOCK:   -0.34 KCAL/MOL
REMARK 927      BINDING AFFINITY PREDICTED BY RF-SCORE:    0.00 PKD
ROOT
HETATM    1  C   UNL     1      -7.697   9.984  67.599  1.00  0.00    -0.091 C  
HETATM    2  C   UNL     1      -7.775   8.529  68.032  1.00  0.00    -0.103 C  
ENDROOT
BRANCH   2   3
HETATM    3  N   UNL     1      -8.558   8.331  69.253  1.00  0.00    -0.136 N  
HETATM    4  O   UNL     1     -10.425   7.782  67.993  1.00  0.00    -0.207 OA 
HETATM    5  C   UNL     1      -9.910   7.979  69.092  1.00  0.00    -0.178 C  
BRANCH   3   6
HETATM    6  C   UNL     1      -8.066   8.860  70.527  1.00  0.00    -0.135 C  
HETATM    7  C   UNL     1      -6.986   8.080  71.259  1.00  0.00    -0.056 C  
ENDBRANCH   3   6
BRANCH   5   8
HETATM    8  C   UNL     1     -10.779   7.812  70.346  1.00  0.00    -0.238 C  
HETATM    9  C   UNL     1     -11.705   6.583  70.374  1.00  0.00    -0.439 C  
HETATM   10  C   UNL     1     -10.454   6.573  71.195  1.00  0.00    -0.257 C  
BRANCH   8  11
HETATM   11  C   UNL     1     -11.438   9.110  70.837  1.00  0.00    -0.357 A  
HETATM   12  C   UNL     1     -12.427   9.046  71.840  1.00  0.00    -0.454 A  
HETATM   13  C   UNL     1     -13.232  10.144  72.153  1.00  0.00    -0.463 A  
HETATM   14  C   UNL     1     -11.233  10.361  70.232  1.00  0.00    -0.395 A  
HETATM   15  C   UNL     1     -13.054  11.347  71.480  1.00  0.00    -0.438 A  
HETATM   16  C   UNL     1     -12.039  11.464  70.536  1.00  0.00    -0.487 A  
ENDBRANCH   8  11
BRANCH  10  17
HETATM   17  C   UNL     1     -10.565   6.456  72.673  1.00  0.00    -0.224 C  
HETATM   18  N   UNL     1     -11.751   5.666  72.989  1.00  0.00    -0.535 NA 
HETATM   19  H2  UNL     1     -11.752   4.758  72.523  1.00  0.00     0.000 HD 
HETATM   20  H1  UNL     1     -11.826   5.586  74.003  1.00  0.00     0.000 HD 
ENDBRANCH  10  17
ENDBRANCH   5   8
ENDBRANCH   2   3
TORSDOF 5
ENDMDL
MODEL       84
REMARK 921   NORMALIZED FREE ENERGY PREDICTED BY IDOCK:   -3.96 KCAL/MOL
REMARK 922        TOTAL FREE ENERGY PREDICTED BY IDOCK:   -5.52 KCAL/MOL
REMARK 923 INTER-LIGAND FREE ENERGY PREDICTED BY IDOCK:   -5.17 KCAL/MOL
REMARK 924 INTRA-LIGAND FREE ENERGY PREDICTED BY IDOCK:   -0.35 KCAL/MOL
REMARK 927      BINDING AFFINITY PREDICTED BY RF-SCORE:    0.00 PKD
ROOT
HETATM    1  C   UNL     1      -8.320   5.325  67.411  1.00  0.00    -0.106 C  
HETATM    2  C   UNL     1      -8.853   6.736  67.590  1.00  0.00    -0.117 C  
ENDROOT
BRANCH   2   3
HETATM    3  N   UNL     1      -9.152   7.068  68.985  1.00  0.00    -0.136 N  
HETATM    4  O   UNL     1     -11.355   6.404  68.695  1.00  0.00    -0.313 OA 
HETATM    5  C   UNL     1     -10.478   6.878  69.414  1.00  0.00    -0.217 C  
BRANCH   3   6
HETATM    6  C   UNL     1      -8.229   7.913  69.746  1.00  0.00    -0.121 C  
HETATM    7  C   UNL     1      -6.843   7.368  70.051  1.00  0.00    -0.055 C  
ENDBRANCH   3   6
BRANCH   5   8
HETATM    8  C   UNL     1     -10.845   7.261  70.855  1.00  0.00    -0.262 C  
HETATM    9  C   UNL     1     -11.265   6.106  71.780  1.00  0.00    -0.338 C  
HETATM   10  C   UNL     1      -9.901   6.701  71.930  1.00  0.00    -0.174 C  
BRANCH   8  11
HETATM   11  C   UNL     1     -11.723   8.515  70.973  1.00  0.00    -0.310 A  
HETATM   12  C   UNL     1     -11.322   9.703  70.327  1.00  0.00    -0.311 A  
HETATM   13  C   UNL     1     -11.935  10.930  70.593  1.00  0.00    -0.467 A  
HETATM   14  C   UNL     1     -12.835   8.606  71.827  1.00  0.00    -0.397 A  
HETATM   15  C   UNL     1     -12.983  10.998  71.503  1.00  0.00    -0.553 A  
HETATM   16  C   UNL     1     -13.450   9.833  72.103  1.00  0.00    -0.491 A  
ENDBRANCH   8  11
BRANCH  10  17
HETATM   17  C   UNL     1      -9.537   7.351  73.218  1.00  0.00    -0.232 C  
HETATM   18  N   UNL     1     -10.615   7.122  74.174  1.00  0.00    -0.564 NA 
HETATM   19  H2  UNL     1     -10.837   6.132  74.284  1.00  0.00     0.000 HD 
HETATM   20  H1  UNL     1     -10.365   7.568  75.057  1.00  0.00     0.000 HD 
ENDBRANCH  10  17
ENDBRANCH   5   8
ENDBRANCH   2   3
TORSDOF 5
ENDMDL
MODEL       85
REMARK 921   NORMALIZED FREE ENERGY PREDICTED BY IDOCK:   -3.94 KCAL/MOL
REMARK 922        TOTAL FREE ENERGY PREDICTED BY IDOCK:   -5.49 KCAL/MOL
REMARK 923 INTER-LIGAND FREE ENERGY PREDICTED BY IDOCK:   -5.00 KCAL/MOL
REMARK 924 INTRA-LIGAND FREE ENERGY PREDICTED BY IDOCK:   -0.49 KCAL/MOL
REMARK 927      BINDING AFFINITY PREDICTED BY RF-SCORE:    0.00 PKD
ROOT
HETATM    1  C   UNL     1      -9.190   9.940  64.289  1.00  0.00    -0.317 C  
HETATM    2  C   UNL     1     -10.159  10.519  65.306  1.00  0.00    -0.300 C  
ENDROOT
BRANCH   2   3
HETATM    3  N   UNL     1      -9.647  10.483  66.677  1.00  0.00    -0.168 N  
HETATM    4  O   UNL     1     -10.847   8.545  67.099  1.00  0.00    -0.216 OA 
HETATM    5  C   UNL     1     -10.102   9.437  67.499  1.00  0.00    -0.215 C  
BRANCH   3   6
HETATM    6  C   UNL     1      -9.030  11.680  67.255  1.00  0.00    -0.169 C  
HETATM    7  C   UNL     1      -9.748  13.009  67.088  1.00  0.00    -0.230 C  
ENDBRANCH   3   6
BRANCH   5   8
HETATM    8  C   UNL     1      -9.628   9.391  68.958  1.00  0.00    -0.164 C  
HETATM    9  C   UNL     1      -8.901   8.109  69.399  1.00  0.00    -0.143 C  
HETATM   10  C   UNL     1      -8.103   9.347  69.140  1.00  0.00    -0.107 C  
BRANCH   8  11
HETATM   11  C   UNL     1     -10.655   9.915  69.974  1.00  0.00    -0.335 A  
HETATM   12  C   UNL     1     -11.018   9.107  71.070  1.00  0.00    -0.375 A  
HETATM   13  C   UNL     1     -12.113   9.414  71.882  1.00  0.00    -0.427 A  
HETATM   14  C   UNL     1     -11.388  11.101  69.794  1.00  0.00    -0.354 A  
HETATM   15  C   UNL     1     -12.864  10.555  71.629  1.00  0.00    -0.581 A  
HETATM   16  C   UNL     1     -12.489  11.412  70.600  1.00  0.00    -0.419 A  
ENDBRANCH   8  11
BRANCH  10  17
HETATM   17  C   UNL     1      -7.324   9.947  70.256  1.00  0.00    -0.157 C  
HETATM   18  N   UNL     1      -7.471   9.099  71.434  1.00  0.00    -0.320 NA 
HETATM   19  H2  UNL     1      -7.212   8.129  71.254  1.00  0.00     0.000 HD 
HETATM   20  H1  UNL     1      -6.937   9.511  72.199  1.00  0.00     0.000 HD 
ENDBRANCH  10  17
ENDBRANCH   5   8
ENDBRANCH   2   3
TORSDOF 5
ENDMDL
MODEL       86
REMARK 921   NORMALIZED FREE ENERGY PREDICTED BY IDOCK:   -3.94 KCAL/MOL
REMARK 922        TOTAL FREE ENERGY PREDICTED BY IDOCK:   -5.48 KCAL/MOL
REMARK 923 INTER-LIGAND FREE ENERGY PREDICTED BY IDOCK:   -5.34 KCAL/MOL
REMARK 924 INTRA-LIGAND FREE ENERGY PREDICTED BY IDOCK:   -0.15 KCAL/MOL
REMARK 927      BINDING AFFINITY PREDICTED BY RF-SCORE:    0.00 PKD
ROOT
HETATM    1  C   UNL     1      -6.085   7.177  71.566  1.00  0.00    -0.037 C  
HETATM    2  C   UNL     1      -7.272   7.168  72.514  1.00  0.00    -0.072 C  
ENDROOT
BRANCH   2   3
HETATM    3  N   UNL     1      -8.540   6.864  71.849  1.00  0.00    -0.119 N  
HETATM    4  O   UNL     1      -9.371   8.950  72.428  1.00  0.00    -0.342 OA 
HETATM    5  C   UNL     1      -9.541   7.850  71.904  1.00  0.00    -0.173 C  
BRANCH   3   6
HETATM    6  C   UNL     1      -8.869   5.477  71.509  1.00  0.00    -0.136 C  
HETATM    7  C   UNL     1      -8.403   4.938  70.167  1.00  0.00    -0.081 C  
ENDBRANCH   3   6
BRANCH   5   8
HETATM    8  C   UNL     1     -10.903   7.551  71.263  1.00  0.00    -0.253 C  
HETATM    9  C   UNL     1     -11.682   6.358  71.842  1.00  0.00    -0.378 C  
HETATM   10  C   UNL     1     -12.110   7.748  72.192  1.00  0.00    -0.346 C  
BRANCH   8  11
HETATM   11  C   UNL     1     -10.909   7.624  69.728  1.00  0.00    -0.222 A  
HETATM   12  C   UNL     1     -11.209   6.465  68.983  1.00  0.00    -0.402 A  
HETATM   13  C   UNL     1     -10.993   6.399  67.604  1.00  0.00    -0.441 A  
HETATM   14  C   UNL     1     -10.472   8.746  69.003  1.00  0.00    -0.220 A  
HETATM   15  C   UNL     1     -10.486   7.503  66.928  1.00  0.00    -0.385 A  
HETATM   16  C   UNL     1     -10.248   8.684  67.623  1.00  0.00    -0.300 A  
ENDBRANCH   8  11
BRANCH  10  17
HETATM   17  C   UNL     1     -13.470   8.202  71.797  1.00  0.00    -0.350 C  
HETATM   18  N   UNL     1     -14.184   8.627  72.997  1.00  0.00    -1.079 NA 
HETATM   19  H2  UNL     1     -13.674   9.334  73.527  1.00  0.00     0.000 HD 
HETATM   20  H1  UNL     1     -15.117   8.938  72.726  1.00  0.00     0.000 HD 
ENDBRANCH  10  17
ENDBRANCH   5   8
ENDBRANCH   2   3
TORSDOF 5
ENDMDL
MODEL       87
REMARK 921   NORMALIZED FREE ENERGY PREDICTED BY IDOCK:   -3.94 KCAL/MOL
REMARK 922        TOTAL FREE ENERGY PREDICTED BY IDOCK:   -5.48 KCAL/MOL
REMARK 923 INTER-LIGAND FREE ENERGY PREDICTED BY IDOCK:   -5.06 KCAL/MOL
REMARK 924 INTRA-LIGAND FREE ENERGY PREDICTED BY IDOCK:   -0.42 KCAL/MOL
REMARK 927      BINDING AFFINITY PREDICTED BY RF-SCORE:    0.00 PKD
ROOT
HETATM    1  C   UNL     1      -7.869   6.630  67.005  1.00  0.00    -0.108 C  
HETATM    2  C   UNL     1      -8.721   7.336  65.964  1.00  0.00    -0.151 C  
ENDROOT
BRANCH   2   3
HETATM    3  N   UNL     1      -8.728   8.792  66.115  1.00  0.00    -0.150 N  
HETATM    4  O   UNL     1     -10.826   8.703  67.099  1.00  0.00    -0.212 OA 
HETATM    5  C   UNL     1      -9.879   9.367  66.684  1.00  0.00    -0.245 C  
BRANCH   3   6
HETATM    6  C   UNL     1      -7.777   9.608  65.356  1.00  0.00    -0.117 C  
HETATM    7  C   UNL     1      -7.482   9.213  63.918  1.00  0.00    -0.110 C  
ENDBRANCH   3   6
BRANCH   5   8
HETATM    8  C   UNL     1      -9.948  10.895  66.815  1.00  0.00    -0.245 C  
HETATM    9  C   UNL     1     -10.115  11.451  68.239  1.00  0.00    -0.204 C  
HETATM   10  C   UNL     1      -8.776  11.531  67.578  1.00  0.00    -0.145 C  
BRANCH   8  11
HETATM   11  C   UNL     1     -10.831  11.581  65.762  1.00  0.00    -0.319 A  
HETATM   12  C   UNL     1     -10.554  11.387  64.393  1.00  0.00    -0.403 A  
HETATM   13  C   UNL     1     -11.153  12.167  63.401  1.00  0.00    -0.495 A  
HETATM   14  C   UNL     1     -11.816  12.534  66.077  1.00  0.00    -0.478 A  
HETATM   15  C   UNL     1     -12.067  13.154  63.753  1.00  0.00    -0.563 A  
HETATM   16  C   UNL     1     -12.416  13.322  65.089  1.00  0.00    -0.525 A  
ENDBRANCH   8  11
BRANCH  10  17
HETATM   17  C   UNL     1      -8.174  12.868  67.330  1.00  0.00    -0.176 C  
HETATM   18  N   UNL     1      -6.770  12.687  66.976  1.00  0.00    -0.418 NA 
HETATM   19  H2  UNL     1      -6.644  12.049  66.190  1.00  0.00     0.000 HD 
HETATM   20  H1  UNL     1      -6.358  13.604  66.806  1.00  0.00     0.000 HD 
ENDBRANCH  10  17
ENDBRANCH   5   8
ENDBRANCH   2   3
TORSDOF 5
ENDMDL
MODEL       88
REMARK 921   NORMALIZED FREE ENERGY PREDICTED BY IDOCK:   -3.92 KCAL/MOL
REMARK 922        TOTAL FREE ENERGY PREDICTED BY IDOCK:   -5.46 KCAL/MOL
REMARK 923 INTER-LIGAND FREE ENERGY PREDICTED BY IDOCK:   -5.36 KCAL/MOL
REMARK 924 INTRA-LIGAND FREE ENERGY PREDICTED BY IDOCK:   -0.10 KCAL/MOL
REMARK 927      BINDING AFFINITY PREDICTED BY RF-SCORE:    0.00 PKD
ROOT
HETATM    1  C   UNL     1     -11.966  15.830  72.110  1.00  0.00    -0.580 C  
HETATM    2  C   UNL     1     -12.382  15.716  70.653  1.00  0.00    -0.413 C  
ENDROOT
BRANCH   2   3
HETATM    3  N   UNL     1     -11.326  15.181  69.792  1.00  0.00    -0.266 N  
HETATM    4  O   UNL     1     -10.538  17.324  69.388  1.00  0.00    -0.300 OA 
HETATM    5  C   UNL     1     -10.468  16.114  69.182  1.00  0.00    -0.265 C  
BRANCH   3   6
HETATM    6  C   UNL     1     -11.422  13.808  69.290  1.00  0.00    -0.293 C  
HETATM    7  C   UNL     1     -12.046  12.756  70.192  1.00  0.00    -0.370 C  
ENDBRANCH   3   6
BRANCH   5   8
HETATM    8  C   UNL     1      -9.379  15.597  68.231  1.00  0.00    -0.192 C  
HETATM    9  C   UNL     1      -8.054  16.379  68.225  1.00  0.00    -0.171 C  
HETATM   10  C   UNL     1      -8.120  15.059  68.926  1.00  0.00    -0.176 C  
BRANCH   8  11
HETATM   11  C   UNL     1      -9.890  15.209  66.835  1.00  0.00    -0.243 A  
HETATM   12  C   UNL     1     -10.552  16.174  66.049  1.00  0.00    -0.303 A  
HETATM   13  C   UNL     1     -11.251  15.826  64.890  1.00  0.00    -0.358 A  
HETATM   14  C   UNL     1      -9.882  13.892  66.345  1.00  0.00    -0.304 A  
HETATM   15  C   UNL     1     -11.288  14.501  64.474  1.00  0.00    -0.323 A  
HETATM   16  C   UNL     1     -10.584  13.536  65.188  1.00  0.00    -0.364 A  
ENDBRANCH   8  11
BRANCH  10  17
HETATM   17  C   UNL     1      -7.250  13.949  68.453  1.00  0.00    -0.110 C  
HETATM   18  N   UNL     1      -6.380  14.457  67.398  1.00  0.00    -0.326 NA 
HETATM   19  H2  UNL     1      -5.846  15.275  67.691  1.00  0.00     0.000 HD 
HETATM   20  H1  UNL     1      -5.785  13.696  67.073  1.00  0.00     0.000 HD 
ENDBRANCH  10  17
ENDBRANCH   5   8
ENDBRANCH   2   3
TORSDOF 5
ENDMDL
MODEL       89
REMARK 921   NORMALIZED FREE ENERGY PREDICTED BY IDOCK:   -3.90 KCAL/MOL
REMARK 922        TOTAL FREE ENERGY PREDICTED BY IDOCK:   -5.43 KCAL/MOL
REMARK 923 INTER-LIGAND FREE ENERGY PREDICTED BY IDOCK:   -5.86 KCAL/MOL
REMARK 924 INTRA-LIGAND FREE ENERGY PREDICTED BY IDOCK:    0.42 KCAL/MOL
REMARK 927      BINDING AFFINITY PREDICTED BY RF-SCORE:    0.00 PKD
ROOT
HETATM    1  C   UNL     1      -9.565  10.978  63.973  1.00  0.00    -0.310 C  
HETATM    2  C   UNL     1     -10.698  10.884  64.981  1.00  0.00    -0.146 C  
ENDROOT
BRANCH   2   3
HETATM    3  N   UNL     1     -10.446  11.649  66.204  1.00  0.00    -0.239 N  
HETATM    4  O   UNL     1     -12.517  12.674  66.017  1.00  0.00    -0.555 OA 
HETATM    5  C   UNL     1     -11.446  12.551  66.608  1.00  0.00    -0.359 C  
BRANCH   3   6
HETATM    6  C   UNL     1      -9.082  11.754  66.730  1.00  0.00    -0.194 C  
HETATM    7  C   UNL     1      -8.555  10.617  67.589  1.00  0.00    -0.118 C  
ENDBRANCH   3   6
BRANCH   5   8
HETATM    8  C   UNL     1     -11.201  13.409  67.857  1.00  0.00    -0.303 C  
HETATM    9  C   UNL     1      -9.836  14.115  67.941  1.00  0.00    -0.224 C  
HETATM   10  C   UNL     1     -11.050  14.914  67.586  1.00  0.00    -0.315 C  
BRANCH   8  11
HETATM   11  C   UNL     1     -11.657  12.758  69.171  1.00  0.00    -0.373 A  
HETATM   12  C   UNL     1     -11.761  11.355  69.248  1.00  0.00    -0.404 A  
HETATM   13  C   UNL     1     -12.398  10.720  70.317  1.00  0.00    -0.423 A  
HETATM   14  C   UNL     1     -12.139  13.488  70.272  1.00  0.00    -0.425 A  
HETATM   15  C   UNL     1     -12.932  11.476  71.353  1.00  0.00    -0.450 A  
HETATM   16  C   UNL     1     -12.783  12.859  71.343  1.00  0.00    -0.366 A  
ENDBRANCH   8  11
BRANCH  10  17
HETATM   17  C   UNL     1     -11.469  16.024  68.483  1.00  0.00    -0.357 C  
HETATM   18  N   UNL     1     -10.276  16.602  69.094  1.00  0.00    -0.296 NA 
HETATM   19  H2  UNL     1      -9.585  16.896  68.404  1.00  0.00     0.000 HD 
HETATM   20  H1  UNL     1     -10.563  17.363  69.709  1.00  0.00     0.000 HD 
ENDBRANCH  10  17
ENDBRANCH   5   8
ENDBRANCH   2   3
TORSDOF 5
ENDMDL
MODEL       90
REMARK 921   NORMALIZED FREE ENERGY PREDICTED BY IDOCK:   -3.89 KCAL/MOL
REMARK 922        TOTAL FREE ENERGY PREDICTED BY IDOCK:   -5.42 KCAL/MOL
REMARK 923 INTER-LIGAND FREE ENERGY PREDICTED BY IDOCK:   -5.49 KCAL/MOL
REMARK 924 INTRA-LIGAND FREE ENERGY PREDICTED BY IDOCK:    0.07 KCAL/MOL
REMARK 927      BINDING AFFINITY PREDICTED BY RF-SCORE:    0.00 PKD
ROOT
HETATM    1  C   UNL     1      -7.366  10.989  68.896  1.00  0.00    -0.111 C  
HETATM    2  C   UNL     1      -7.810  11.495  67.533  1.00  0.00    -0.133 C  
ENDROOT
BRANCH   2   3
HETATM    3  N   UNL     1      -9.154  12.075  67.543  1.00  0.00    -0.171 N  
HETATM    4  O   UNL     1      -8.360  13.955  68.643  1.00  0.00    -0.152 OA 
HETATM    5  C   UNL     1      -9.303  13.326  68.169  1.00  0.00    -0.220 C  
BRANCH   3   6
HETATM    6  C   UNL     1     -10.317  11.223  67.280  1.00  0.00    -0.201 C  
HETATM    7  C   UNL     1     -10.071   9.793  66.827  1.00  0.00    -0.295 C  
ENDBRANCH   3   6
BRANCH   5   8
HETATM    8  C   UNL     1     -10.705  13.946  68.246  1.00  0.00    -0.261 C  
HETATM    9  C   UNL     1     -11.726  13.214  69.135  1.00  0.00    -0.376 C  
HETATM   10  C   UNL     1     -11.100  14.478  69.632  1.00  0.00    -0.264 C  
BRANCH   8  11
HETATM   11  C   UNL     1     -11.266  14.413  66.894  1.00  0.00    -0.340 A  
HETATM   12  C   UNL     1     -12.450  13.829  66.399  1.00  0.00    -0.404 A  
HETATM   13  C   UNL     1     -12.874  14.026  65.082  1.00  0.00    -0.368 A  
HETATM   14  C   UNL     1     -10.581  15.283  66.029  1.00  0.00    -0.327 A  
HETATM   15  C   UNL     1     -12.130  14.832  64.228  1.00  0.00    -0.415 A  
HETATM   16  C   UNL     1     -10.996  15.479  64.707  1.00  0.00    -0.416 A  
ENDBRANCH   8  11
BRANCH  10  17
HETATM   17  C   UNL     1     -11.971  15.649  69.919  1.00  0.00    -0.360 C  
HETATM   18  N   UNL     1     -13.274  15.161  70.359  1.00  0.00    -0.679 NA 
HETATM   19  H2  UNL     1     -13.206  14.521  71.150  1.00  0.00     0.000 HD 
HETATM   20  H1  UNL     1     -13.872  15.964  70.555  1.00  0.00     0.000 HD 
ENDBRANCH  10  17
ENDBRANCH   5   8
ENDBRANCH   2   3
TORSDOF 5
ENDMDL
MODEL       91
REMARK 921   NORMALIZED FREE ENERGY PREDICTED BY IDOCK:   -3.89 KCAL/MOL
REMARK 922        TOTAL FREE ENERGY PREDICTED BY IDOCK:   -5.42 KCAL/MOL
REMARK 923 INTER-LIGAND FREE ENERGY PREDICTED BY IDOCK:   -5.20 KCAL/MOL
REMARK 924 INTRA-LIGAND FREE ENERGY PREDICTED BY IDOCK:   -0.22 KCAL/MOL
REMARK 927      BINDING AFFINITY PREDICTED BY RF-SCORE:    0.00 PKD
ROOT
HETATM    1  C   UNL     1     -12.421  10.804  69.892  1.00  0.00    -0.277 C  
HETATM    2  C   UNL     1     -11.035  10.348  69.471  1.00  0.00    -0.262 C  
ENDROOT
BRANCH   2   3
HETATM    3  N   UNL     1     -10.542  11.029  68.272  1.00  0.00    -0.177 N  
HETATM    4  O   UNL     1     -11.020   9.160  66.986  1.00  0.00    -0.098 OA 
HETATM    5  C   UNL     1     -10.563  10.298  67.071  1.00  0.00    -0.239 C  
BRANCH   3   6
HETATM    6  C   UNL     1      -9.718  12.233  68.405  1.00  0.00    -0.191 C  
HETATM    7  C   UNL     1     -10.422  13.570  68.568  1.00  0.00    -0.250 C  
ENDBRANCH   3   6
BRANCH   5   8
HETATM    8  C   UNL     1     -10.009  10.958  65.800  1.00  0.00    -0.299 C  
HETATM    9  C   UNL     1      -8.478  11.076  65.706  1.00  0.00    -0.119 C  
HETATM   10  C   UNL     1      -9.180  10.028  64.900  1.00  0.00    -0.291 C  
BRANCH   8  11
HETATM   11  C   UNL     1     -10.768  12.219  65.359  1.00  0.00    -0.320 A  
HETATM   12  C   UNL     1     -10.042  13.336  64.897  1.00  0.00    -0.247 A  
HETATM   13  C   UNL     1     -10.645  14.583  64.718  1.00  0.00    -0.401 A  
HETATM   14  C   UNL     1     -12.150  12.394  65.539  1.00  0.00    -0.417 A  
HETATM   15  C   UNL     1     -12.000  14.742  64.979  1.00  0.00    -0.318 A  
HETATM   16  C   UNL     1     -12.759  13.643  65.368  1.00  0.00    -0.500 A  
ENDBRANCH   8  11
BRANCH  10  17
HETATM   17  C   UNL     1      -9.087  10.079  63.417  1.00  0.00    -0.273 C  
HETATM   18  N   UNL     1     -10.407  10.394  62.880  1.00  0.00    -0.521 NA 
HETATM   19  H2  UNL     1     -10.797  11.249  63.277  1.00  0.00     0.000 HD 
HETATM   20  H1  UNL     1     -10.343  10.429  61.862  1.00  0.00     0.000 HD 
ENDBRANCH  10  17
ENDBRANCH   5   8
ENDBRANCH   2   3
TORSDOF 5
ENDMDL
MODEL       92
REMARK 921   NORMALIZED FREE ENERGY PREDICTED BY IDOCK:   -3.86 KCAL/MOL
REMARK 922        TOTAL FREE ENERGY PREDICTED BY IDOCK:   -5.39 KCAL/MOL
REMARK 923 INTER-LIGAND FREE ENERGY PREDICTED BY IDOCK:   -5.08 KCAL/MOL
REMARK 924 INTRA-LIGAND FREE ENERGY PREDICTED BY IDOCK:   -0.30 KCAL/MOL
REMARK 927      BINDING AFFINITY PREDICTED BY RF-SCORE:    0.00 PKD
ROOT
HETATM    1  C   UNL     1      -6.571   9.781  70.739  1.00  0.00    -0.089 C  
HETATM    2  C   UNL     1      -6.840   8.300  70.945  1.00  0.00    -0.044 C  
ENDROOT
BRANCH   2   3
HETATM    3  N   UNL     1      -8.228   8.011  71.310  1.00  0.00    -0.103 N  
HETATM    4  O   UNL     1      -8.726   7.498  69.104  1.00  0.00    -0.135 OA 
HETATM    5  C   UNL     1      -9.097   7.640  70.268  1.00  0.00    -0.149 C  
BRANCH   3   6
HETATM    6  C   UNL     1      -8.754   8.473  72.598  1.00  0.00    -0.139 C  
HETATM    7  C   UNL     1      -8.525   7.599  73.820  1.00  0.00    -0.260 C  
ENDBRANCH   3   6
BRANCH   5   8
HETATM    8  C   UNL     1     -10.572   7.378  70.600  1.00  0.00    -0.234 C  
HETATM    9  C   UNL     1     -11.245   6.220  69.842  1.00  0.00    -0.498 C  
HETATM   10  C   UNL     1     -10.851   6.024  71.272  1.00  0.00    -0.331 C  
BRANCH   8  11
HETATM   11  C   UNL     1     -11.432   8.646  70.708  1.00  0.00    -0.293 A  
HETATM   12  C   UNL     1     -11.091   9.780  69.943  1.00  0.00    -0.293 A  
HETATM   13  C   UNL     1     -11.672  11.029  70.176  1.00  0.00    -0.442 A  
HETATM   14  C   UNL     1     -12.460   8.808  71.653  1.00  0.00    -0.392 A  
HETATM   15  C   UNL     1     -12.631  11.172  71.172  1.00  0.00    -0.513 A  
HETATM   16  C   UNL     1     -13.043  10.057  71.895  1.00  0.00    -0.563 A  
ENDBRANCH   8  11
BRANCH  10  17
HETATM   17  C   UNL     1     -11.908   5.733  72.277  1.00  0.00    -0.153 C  
HETATM   18  N   UNL     1     -11.295   5.045  73.409  1.00  0.00    -0.451 NA 
HETATM   19  H2  UNL     1     -10.511   5.565  73.805  1.00  0.00     0.000 HD 
HETATM   20  H1  UNL     1     -12.020   4.845  74.098  1.00  0.00     0.000 HD 
ENDBRANCH  10  17
ENDBRANCH   5   8
ENDBRANCH   2   3
TORSDOF 5
ENDMDL
MODEL       93
REMARK 921   NORMALIZED FREE ENERGY PREDICTED BY IDOCK:   -3.86 KCAL/MOL
REMARK 922        TOTAL FREE ENERGY PREDICTED BY IDOCK:   -5.38 KCAL/MOL
REMARK 923 INTER-LIGAND FREE ENERGY PREDICTED BY IDOCK:   -5.18 KCAL/MOL
REMARK 924 INTRA-LIGAND FREE ENERGY PREDICTED BY IDOCK:   -0.20 KCAL/MOL
REMARK 927      BINDING AFFINITY PREDICTED BY RF-SCORE:    0.00 PKD
ROOT
HETATM    1  C   UNL     1     -10.854  19.456  67.130  1.00  0.00    -0.561 C  
HETATM    2  C   UNL     1     -10.111  18.480  66.234  1.00  0.00    -0.398 C  
ENDROOT
BRANCH   2   3
HETATM    3  N   UNL     1     -10.047  17.125  66.785  1.00  0.00    -0.293 N  
HETATM    4  O   UNL     1      -8.229  17.720  68.095  1.00  0.00    -0.243 OA 
HETATM    5  C   UNL     1      -9.017  16.861  67.706  1.00  0.00    -0.225 C  
BRANCH   3   6
HETATM    6  C   UNL     1     -10.754  16.031  66.114  1.00  0.00    -0.244 C  
HETATM    7  C   UNL     1     -11.055  16.174  64.632  1.00  0.00    -0.310 C  
ENDBRANCH   3   6
BRANCH   5   8
HETATM    8  C   UNL     1      -8.883  15.440  68.270  1.00  0.00    -0.176 C  
HETATM    9  C   UNL     1      -8.373  14.365  67.295  1.00  0.00    -0.228 C  
HETATM   10  C   UNL     1      -7.444  14.905  68.336  1.00  0.00    -0.115 C  
BRANCH   8  11
HETATM   11  C   UNL     1     -10.065  14.991  69.142  1.00  0.00    -0.245 A  
HETATM   12  C   UNL     1     -10.622  13.710  68.946  1.00  0.00    -0.211 A  
HETATM   13  C   UNL     1     -11.838  13.339  69.524  1.00  0.00    -0.388 A  
HETATM   14  C   UNL     1     -10.743  15.845  70.029  1.00  0.00    -0.343 A  
HETATM   15  C   UNL     1     -12.523  14.236  70.335  1.00  0.00    -0.426 A  
HETATM   16  C   UNL     1     -11.965  15.481  70.607  1.00  0.00    -0.416 A  
ENDBRANCH   8  11
BRANCH  10  17
HETATM   17  C   UNL     1      -6.887  13.977  69.355  1.00  0.00    -0.083 C  
HETATM   18  N   UNL     1      -7.208  12.608  68.962  1.00  0.00    -0.270 NA 
HETATM   19  H2  UNL     1      -6.892  12.388  68.017  1.00  0.00     0.000 HD 
HETATM   20  H1  UNL     1      -6.826  11.972  69.661  1.00  0.00     0.000 HD 
ENDBRANCH  10  17
ENDBRANCH   5   8
ENDBRANCH   2   3
TORSDOF 5
ENDMDL
MODEL       94
REMARK 921   NORMALIZED FREE ENERGY PREDICTED BY IDOCK:   -3.85 KCAL/MOL
REMARK 922        TOTAL FREE ENERGY PREDICTED BY IDOCK:   -5.37 KCAL/MOL
REMARK 923 INTER-LIGAND FREE ENERGY PREDICTED BY IDOCK:   -4.96 KCAL/MOL
REMARK 924 INTRA-LIGAND FREE ENERGY PREDICTED BY IDOCK:   -0.41 KCAL/MOL
REMARK 927      BINDING AFFINITY PREDICTED BY RF-SCORE:    0.00 PKD
ROOT
HETATM    1  C   UNL     1     -11.284  11.350  67.643  1.00  0.00    -0.346 C  
HETATM    2  C   UNL     1     -11.025  11.185  69.131  1.00  0.00    -0.242 C  
ENDROOT
BRANCH   2   3
HETATM    3  N   UNL     1     -10.757   9.798  69.519  1.00  0.00    -0.223 N  
HETATM    4  O   UNL     1     -12.366   9.930  71.183  1.00  0.00    -0.320 OA 
HETATM    5  C   UNL     1     -11.492   9.288  70.604  1.00  0.00    -0.274 C  
BRANCH   3   6
HETATM    6  C   UNL     1      -9.530   9.139  69.066  1.00  0.00    -0.152 C  
HETATM    7  C   UNL     1      -8.213   9.875  69.245  1.00  0.00    -0.138 C  
ENDBRANCH   3   6
BRANCH   5   8
HETATM    8  C   UNL     1     -11.207   7.855  71.075  1.00  0.00    -0.288 C  
HETATM    9  C   UNL     1     -12.381   6.864  70.992  1.00  0.00    -0.401 C  
HETATM   10  C   UNL     1     -11.286   6.787  69.974  1.00  0.00    -0.396 C  
BRANCH   8  11
HETATM   11  C   UNL     1     -10.398   7.767  72.378  1.00  0.00    -0.311 A  
HETATM   12  C   UNL     1      -9.118   8.356  72.438  1.00  0.00    -0.326 A  
HETATM   13  C   UNL     1      -8.239   8.102  73.494  1.00  0.00    -0.276 A  
HETATM   14  C   UNL     1     -10.786   6.987  73.481  1.00  0.00    -0.289 A  
HETATM   15  C   UNL     1      -8.626   7.264  74.532  1.00  0.00    -0.230 A  
HETATM   16  C   UNL     1      -9.908   6.724  74.539  1.00  0.00    -0.263 A  
ENDBRANCH   8  11
BRANCH  10  17
HETATM   17  C   UNL     1     -10.475   5.544  69.883  1.00  0.00    -0.316 C  
HETATM   18  N   UNL     1     -10.262   5.231  68.473  1.00  0.00    -0.165 NA 
HETATM   19  H2  UNL     1      -9.847   6.008  67.959  1.00  0.00     0.000 HD 
HETATM   20  H1  UNL     1      -9.706   4.379  68.411  1.00  0.00     0.000 HD 
ENDBRANCH  10  17
ENDBRANCH   5   8
ENDBRANCH   2   3
TORSDOF 5
ENDMDL
MODEL       95
REMARK 921   NORMALIZED FREE ENERGY PREDICTED BY IDOCK:   -3.84 KCAL/MOL
REMARK 922        TOTAL FREE ENERGY PREDICTED BY IDOCK:   -5.36 KCAL/MOL
REMARK 923 INTER-LIGAND FREE ENERGY PREDICTED BY IDOCK:   -4.89 KCAL/MOL
REMARK 924 INTRA-LIGAND FREE ENERGY PREDICTED BY IDOCK:   -0.47 KCAL/MOL
REMARK 927      BINDING AFFINITY PREDICTED BY RF-SCORE:    0.00 PKD
ROOT
HETATM    1  C   UNL     1      -8.907   9.409  62.537  1.00  0.00    -0.243 C  
HETATM    2  C   UNL     1      -8.483  10.669  63.272  1.00  0.00    -0.119 C  
ENDROOT
BRANCH   2   3
HETATM    3  N   UNL     1      -9.326  10.974  64.430  1.00  0.00    -0.209 N  
HETATM    4  O   UNL     1      -7.672  10.210  65.864  1.00  0.00    -0.115 OA 
HETATM    5  C   UNL     1      -8.803  10.663  65.698  1.00  0.00    -0.186 C  
BRANCH   3   6
HETATM    6  C   UNL     1     -10.761  11.205  64.244  1.00  0.00    -0.333 C  
HETATM    7  C   UNL     1     -11.199  12.505  63.592  1.00  0.00    -0.545 C  
ENDBRANCH   3   6
BRANCH   5   8
HETATM    8  C   UNL     1      -9.675  10.919  66.935  1.00  0.00    -0.210 C  
HETATM    9  C   UNL     1     -10.767   9.876  67.227  1.00  0.00    -0.304 C  
HETATM   10  C   UNL     1      -9.523   9.882  68.057  1.00  0.00    -0.147 C  
BRANCH   8  11
HETATM   11  C   UNL     1     -10.135  12.376  67.093  1.00  0.00    -0.221 A  
HETATM   12  C   UNL     1     -11.482  12.645  67.411  1.00  0.00    -0.397 A  
HETATM   13  C   UNL     1     -12.017  13.933  67.326  1.00  0.00    -0.446 A  
HETATM   14  C   UNL     1      -9.327  13.483  66.781  1.00  0.00    -0.262 A  
HETATM   15  C   UNL     1     -11.209  14.995  66.939  1.00  0.00    -0.323 A  
HETATM   16  C   UNL     1      -9.858  14.775  66.689  1.00  0.00    -0.270 A  
ENDBRANCH   8  11
BRANCH  10  17
HETATM   17  C   UNL     1      -9.635  10.132  69.519  1.00  0.00    -0.221 C  
HETATM   18  N   UNL     1      -8.294  10.123  70.095  1.00  0.00    -0.337 NA 
HETATM   19  H2  UNL     1      -7.665  10.780  69.633  1.00  0.00     0.000 HD 
HETATM   20  H1  UNL     1      -8.371  10.294  71.098  1.00  0.00     0.000 HD 
ENDBRANCH  10  17
ENDBRANCH   5   8
ENDBRANCH   2   3
TORSDOF 5
ENDMDL
MODEL       96
REMARK 921   NORMALIZED FREE ENERGY PREDICTED BY IDOCK:   -3.84 KCAL/MOL
REMARK 922        TOTAL FREE ENERGY PREDICTED BY IDOCK:   -5.35 KCAL/MOL
REMARK 923 INTER-LIGAND FREE ENERGY PREDICTED BY IDOCK:   -5.51 KCAL/MOL
REMARK 924 INTRA-LIGAND FREE ENERGY PREDICTED BY IDOCK:    0.15 KCAL/MOL
REMARK 927      BINDING AFFINITY PREDICTED BY RF-SCORE:    0.00 PKD
ROOT
HETATM    1  C   UNL     1     -12.679  14.430  70.839  1.00  0.00    -0.425 C  
HETATM    2  C   UNL     1     -11.197  14.493  70.510  1.00  0.00    -0.036 C  
ENDROOT
BRANCH   2   3
HETATM    3  N   UNL     1     -10.931  14.815  69.107  1.00  0.00    -0.257 N  
HETATM    4  O   UNL     1      -8.886  15.743  69.683  1.00  0.00    -0.232 OA 
HETATM    5  C   UNL     1      -9.725  15.481  68.824  1.00  0.00    -0.213 C  
BRANCH   3   6
HETATM    6  C   UNL     1     -12.028  14.803  68.136  1.00  0.00    -0.230 C  
HETATM    7  C   UNL     1     -12.360  13.491  67.445  1.00  0.00    -0.131 C  
ENDBRANCH   3   6
BRANCH   5   8
HETATM    8  C   UNL     1      -9.430  15.881  67.372  1.00  0.00    -0.220 C  
HETATM    9  C   UNL     1      -8.304  15.105  66.666  1.00  0.00    -0.162 C  
HETATM   10  C   UNL     1      -9.728  14.792  66.330  1.00  0.00    -0.326 C  
BRANCH   8  11
HETATM   11  C   UNL     1      -9.402  17.397  67.126  1.00  0.00    -0.246 A  
HETATM   12  C   UNL     1     -10.585  18.146  67.291  1.00  0.00    -0.384 A  
HETATM   13  C   UNL     1     -10.688  19.468  66.850  1.00  0.00    -0.576 A  
HETATM   14  C   UNL     1      -8.296  18.074  66.584  1.00  0.00    -0.284 A  
HETATM   15  C   UNL     1      -9.598  20.084  66.247  1.00  0.00    -0.516 A  
HETATM   16  C   UNL     1      -8.394  19.396  66.135  1.00  0.00    -0.310 A  
ENDBRANCH   8  11
BRANCH  10  17
HETATM   17  C   UNL     1     -10.201  15.002  64.936  1.00  0.00    -0.225 C  
HETATM   18  N   UNL     1     -10.138  13.727  64.227  1.00  0.00    -0.734 NA 
HETATM   19  H2  UNL     1     -10.650  12.987  64.707  1.00  0.00     0.000 HD 
HETATM   20  H1  UNL     1     -10.462  13.871  63.271  1.00  0.00     0.000 HD 
ENDBRANCH  10  17
ENDBRANCH   5   8
ENDBRANCH   2   3
TORSDOF 5
ENDMDL
MODEL       97
REMARK 921   NORMALIZED FREE ENERGY PREDICTED BY IDOCK:   -3.83 KCAL/MOL
REMARK 922        TOTAL FREE ENERGY PREDICTED BY IDOCK:   -5.35 KCAL/MOL
REMARK 923 INTER-LIGAND FREE ENERGY PREDICTED BY IDOCK:   -5.00 KCAL/MOL
REMARK 924 INTRA-LIGAND FREE ENERGY PREDICTED BY IDOCK:   -0.35 KCAL/MOL
REMARK 927      BINDING AFFINITY PREDICTED BY RF-SCORE:    0.00 PKD
ROOT
HETATM    1  C   UNL     1      -9.996  10.131  66.751  1.00  0.00    -0.266 C  
HETATM    2  C   UNL     1      -9.025   9.120  67.337  1.00  0.00    -0.117 C  
ENDROOT
BRANCH   2   3
HETATM    3  N   UNL     1      -9.309   8.790  68.735  1.00  0.00    -0.141 N  
HETATM    4  O   UNL     1     -10.680   7.043  68.069  1.00  0.00    -0.210 OA 
HETATM    5  C   UNL     1     -10.196   7.724  68.970  1.00  0.00    -0.208 C  
BRANCH   3   6
HETATM    6  C   UNL     1      -9.007   9.763  69.789  1.00  0.00    -0.221 C  
HETATM    7  C   UNL     1      -7.571  10.235  69.939  1.00  0.00    -0.153 C  
ENDBRANCH   3   6
BRANCH   5   8
HETATM    8  C   UNL     1     -10.560   7.378  70.421  1.00  0.00    -0.238 C  
HETATM    9  C   UNL     1     -10.350   5.914  70.845  1.00  0.00    -0.288 C  
HETATM   10  C   UNL     1      -9.373   6.953  71.300  1.00  0.00    -0.164 C  
BRANCH   8  11
HETATM   11  C   UNL     1     -11.882   7.992  70.905  1.00  0.00    -0.236 A  
HETATM   12  C   UNL     1     -11.908   9.339  71.321  1.00  0.00    -0.415 A  
HETATM   13  C   UNL     1     -13.003   9.881  71.997  1.00  0.00    -0.518 A  
HETATM   14  C   UNL     1     -13.053   7.243  71.117  1.00  0.00    -0.291 A  
HETATM   15  C   UNL     1     -14.116   9.091  72.259  1.00  0.00    -0.485 A  
HETATM   16  C   UNL     1     -14.152   7.779  71.799  1.00  0.00    -0.519 A  
ENDBRANCH   8  11
BRANCH  10  17
HETATM   17  C   UNL     1      -9.214   7.202  72.757  1.00  0.00    -0.139 C  
HETATM   18  N   UNL     1      -8.653   8.537  72.941  1.00  0.00    -0.387 NA 
HETATM   19  H2  UNL     1      -9.204   9.260  72.479  1.00  0.00     0.000 HD 
HETATM   20  H1  UNL     1      -8.543   8.708  73.941  1.00  0.00     0.000 HD 
ENDBRANCH  10  17
ENDBRANCH   5   8
ENDBRANCH   2   3
TORSDOF 5
ENDMDL
MODEL       98
REMARK 921   NORMALIZED FREE ENERGY PREDICTED BY IDOCK:   -3.83 KCAL/MOL
REMARK 922        TOTAL FREE ENERGY PREDICTED BY IDOCK:   -5.34 KCAL/MOL
REMARK 923 INTER-LIGAND FREE ENERGY PREDICTED BY IDOCK:   -4.83 KCAL/MOL
REMARK 924 INTRA-LIGAND FREE ENERGY PREDICTED BY IDOCK:   -0.51 KCAL/MOL
REMARK 927      BINDING AFFINITY PREDICTED BY RF-SCORE:    0.00 PKD
ROOT
HETATM    1  C   UNL     1     -10.322   5.415  70.036  1.00  0.00    -0.366 C  
HETATM    2  C   UNL     1     -11.199   6.577  69.602  1.00  0.00    -0.384 C  
ENDROOT
BRANCH   2   3
HETATM    3  N   UNL     1     -10.441   7.684  69.015  1.00  0.00    -0.214 N  
HETATM    4  O   UNL     1     -11.159   7.081  66.894  1.00  0.00    -0.359 OA 
HETATM    5  C   UNL     1     -10.482   7.812  67.615  1.00  0.00    -0.239 C  
BRANCH   3   6
HETATM    6  C   UNL     1      -9.399   8.351  69.800  1.00  0.00    -0.158 C  
HETATM    7  C   UNL     1      -9.831   9.306  70.901  1.00  0.00    -0.363 C  
ENDBRANCH   3   6
BRANCH   5   8
HETATM    8  C   UNL     1      -9.661   8.929  66.955  1.00  0.00    -0.232 C  
HETATM    9  C   UNL     1      -8.140   8.706  66.887  1.00  0.00    -0.098 C  
HETATM   10  C   UNL     1      -8.960   8.527  65.648  1.00  0.00    -0.209 C  
BRANCH   8  11
HETATM   11  C   UNL     1     -10.073  10.348  67.372  1.00  0.00    -0.237 A  
HETATM   12  C   UNL     1      -9.076  11.289  67.703  1.00  0.00    -0.149 A  
HETATM   13  C   UNL     1      -9.384  12.503  68.321  1.00  0.00    -0.193 A  
HETATM   14  C   UNL     1     -11.405  10.733  67.605  1.00  0.00    -0.328 A  
HETATM   15  C   UNL     1     -10.707  12.819  68.607  1.00  0.00    -0.273 A  
HETATM   16  C   UNL     1     -11.720  11.945  68.228  1.00  0.00    -0.385 A  
ENDBRANCH   8  11
BRANCH  10  17
HETATM   17  C   UNL     1      -8.695   9.404  64.477  1.00  0.00    -0.203 C  
HETATM   18  N   UNL     1      -9.966   9.940  64.001  1.00  0.00    -0.442 NA 
HETATM   19  H2  UNL     1     -10.490  10.417  64.736  1.00  0.00     0.000 HD 
HETATM   20  H1  UNL     1      -9.785  10.542  63.198  1.00  0.00     0.000 HD 
ENDBRANCH  10  17
ENDBRANCH   5   8
ENDBRANCH   2   3
TORSDOF 5
ENDMDL
MODEL       99
REMARK 921   NORMALIZED FREE ENERGY PREDICTED BY IDOCK:   -3.82 KCAL/MOL
REMARK 922        TOTAL FREE ENERGY PREDICTED BY IDOCK:   -5.33 KCAL/MOL
REMARK 923 INTER-LIGAND FREE ENERGY PREDICTED BY IDOCK:   -5.67 KCAL/MOL
REMARK 924 INTRA-LIGAND FREE ENERGY PREDICTED BY IDOCK:    0.33 KCAL/MOL
REMARK 927      BINDING AFFINITY PREDICTED BY RF-SCORE:    0.00 PKD
ROOT
HETATM    1  C   UNL     1     -10.094  20.146  68.054  1.00  0.00    -0.519 C  
HETATM    2  C   UNL     1     -11.029  19.198  67.321  1.00  0.00    -0.319 C  
ENDROOT
BRANCH   2   3
HETATM    3  N   UNL     1     -10.558  17.812  67.315  1.00  0.00    -0.349 N  
HETATM    4  O   UNL     1     -11.047  17.631  65.056  1.00  0.00    -0.716 OA 
HETATM    5  C   UNL     1     -10.650  17.114  66.098  1.00  0.00    -0.201 C  
BRANCH   3   6
HETATM    6  C   UNL     1     -10.387  17.096  68.582  1.00  0.00    -0.359 C  
HETATM    7  C   UNL     1     -11.604  16.422  69.194  1.00  0.00    -0.117 C  
ENDBRANCH   3   6
BRANCH   5   8
HETATM    8  C   UNL     1     -10.213  15.642  66.061  1.00  0.00    -0.354 C  
HETATM    9  C   UNL     1     -11.237  14.615  66.574  1.00  0.00    -0.346 C  
HETATM   10  C   UNL     1     -11.019  14.755  65.100  1.00  0.00    -0.403 C  
BRANCH   8  11
HETATM   11  C   UNL     1      -8.776  15.396  66.544  1.00  0.00    -0.335 A  
HETATM   12  C   UNL     1      -8.481  14.222  67.266  1.00  0.00    -0.226 A  
HETATM   13  C   UNL     1      -7.268  14.056  67.940  1.00  0.00    -0.164 A  
HETATM   14  C   UNL     1      -7.752  16.355  66.451  1.00  0.00    -0.249 A  
HETATM   15  C   UNL     1      -6.306  15.057  67.892  1.00  0.00    -0.179 A  
HETATM   16  C   UNL     1      -6.537  16.197  67.128  1.00  0.00    -0.208 A  
ENDBRANCH   8  11
BRANCH  10  17
HETATM   17  C   UNL     1     -10.511  13.586  64.333  1.00  0.00    -0.346 C  
HETATM   18  N   UNL     1     -10.479  12.427  65.220  1.00  0.00    -0.279 NA 
HETATM   19  H2  UNL     1     -11.382  12.245  65.659  1.00  0.00     0.000 HD 
HETATM   20  H1  UNL     1     -10.131  11.626  64.694  1.00  0.00     0.000 HD 
ENDBRANCH  10  17
ENDBRANCH   5   8
ENDBRANCH   2   3
TORSDOF 5
ENDMDL
MODEL      100
REMARK 921   NORMALIZED FREE ENERGY PREDICTED BY IDOCK:   -3.81 KCAL/MOL
REMARK 922        TOTAL FREE ENERGY PREDICTED BY IDOCK:   -5.32 KCAL/MOL
REMARK 923 INTER-LIGAND FREE ENERGY PREDICTED BY IDOCK:   -5.26 KCAL/MOL
REMARK 924 INTRA-LIGAND FREE ENERGY PREDICTED BY IDOCK:   -0.05 KCAL/MOL
REMARK 927      BINDING AFFINITY PREDICTED BY RF-SCORE:    0.00 PKD
ROOT
HETATM    1  C   UNL     1     -11.300  10.197  70.836  1.00  0.00    -0.420 C  
HETATM    2  C   UNL     1     -11.821  10.608  69.469  1.00  0.00    -0.273 C  
ENDROOT
BRANCH   2   3
HETATM    3  N   UNL     1     -10.798  10.556  68.422  1.00  0.00    -0.222 N  
HETATM    4  O   UNL     1     -12.045  11.995  67.099  1.00  0.00    -0.587 OA 
HETATM    5  C   UNL     1     -11.050  11.288  67.248  1.00  0.00    -0.305 C  
BRANCH   3   6
HETATM    6  C   UNL     1      -9.787   9.495  68.444  1.00  0.00    -0.158 C  
HETATM    7  C   UNL     1     -10.243   8.066  68.200  1.00  0.00    -0.251 C  
ENDBRANCH   3   6
BRANCH   5   8
HETATM    8  C   UNL     1     -10.027  11.220  66.106  1.00  0.00    -0.268 C  
HETATM    9  C   UNL     1      -9.982   9.905  65.308  1.00  0.00    -0.320 C  
HETATM   10  C   UNL     1     -10.636  11.105  64.700  1.00  0.00    -0.386 C  
BRANCH   8  11
HETATM   11  C   UNL     1      -8.645  11.790  66.459  1.00  0.00    -0.148 A  
HETATM   12  C   UNL     1      -7.499  10.990  66.275  1.00  0.00    -0.105 A  
HETATM   13  C   UNL     1      -6.256  11.351  66.801  1.00  0.00    -0.141 A  
HETATM   14  C   UNL     1      -8.458  13.019  67.115  1.00  0.00    -0.176 A  
HETATM   15  C   UNL     1      -6.122  12.537  67.512  1.00  0.00    -0.154 A  
HETATM   16  C   UNL     1      -7.217  13.384  67.649  1.00  0.00    -0.167 A  
ENDBRANCH   8  11
BRANCH  10  17
HETATM   17  C   UNL     1     -10.078  11.669  63.442  1.00  0.00    -0.440 C  
HETATM   18  N   UNL     1     -10.135  10.640  62.408  1.00  0.00    -0.744 NA 
HETATM   19  H2  UNL     1     -11.074  10.261  62.284  1.00  0.00     0.000 HD 
HETATM   20  H1  UNL     1      -9.752  11.027  61.545  1.00  0.00     0.000 HD 
ENDBRANCH  10  17
ENDBRANCH   5   8
ENDBRANCH   2   3
TORSDOF 5
ENDMDL
MODEL      101
REMARK 921   NORMALIZED FREE ENERGY PREDICTED BY IDOCK:   -3.80 KCAL/MOL
REMARK 922        TOTAL FREE ENERGY PREDICTED BY IDOCK:   -5.31 KCAL/MOL
REMARK 923 INTER-LIGAND FREE ENERGY PREDICTED BY IDOCK:   -4.87 KCAL/MOL
REMARK 924 INTRA-LIGAND FREE ENERGY PREDICTED BY IDOCK:   -0.44 KCAL/MOL
REMARK 927      BINDING AFFINITY PREDICTED BY RF-SCORE:    0.00 PKD
ROOT
HETATM    1  C   UNL     1      -9.400   3.732  67.645  1.00  0.00    -0.240 C  
HETATM    2  C   UNL     1      -9.168   5.078  66.979  1.00  0.00    -0.120 C  
ENDROOT
BRANCH   2   3
HETATM    3  N   UNL     1      -9.257   6.205  67.910  1.00  0.00    -0.117 N  
HETATM    4  O   UNL     1     -11.227   6.907  66.910  1.00  0.00    -0.353 OA 
HETATM    5  C   UNL     1     -10.344   7.082  67.747  1.00  0.00    -0.202 C  
BRANCH   3   6
HETATM    6  C   UNL     1      -8.078   6.605  68.684  1.00  0.00    -0.119 C  
HETATM    7  C   UNL     1      -7.849   5.946  70.034  1.00  0.00    -0.100 C  
ENDBRANCH   3   6
BRANCH   5   8
HETATM    8  C   UNL     1     -10.447   8.304  68.670  1.00  0.00    -0.199 C  
HETATM    9  C   UNL     1      -9.347   9.369  68.515  1.00  0.00    -0.139 C  
HETATM   10  C   UNL     1     -10.707   9.636  67.950  1.00  0.00    -0.302 C  
BRANCH   8  11
HETATM   11  C   UNL     1     -10.800   7.969  70.127  1.00  0.00    -0.242 A  
HETATM   12  C   UNL     1     -10.217   8.719  71.169  1.00  0.00    -0.316 A  
HETATM   13  C   UNL     1     -10.300   8.314  72.504  1.00  0.00    -0.401 A  
HETATM   14  C   UNL     1     -11.553   6.844  70.503  1.00  0.00    -0.396 A  
HETATM   15  C   UNL     1     -10.988   7.153  72.834  1.00  0.00    -0.359 A  
HETATM   16  C   UNL     1     -11.635   6.430  71.837  1.00  0.00    -0.367 A  
ENDBRANCH   8  11
BRANCH  10  17
HETATM   17  C   UNL     1     -11.489  10.789  68.469  1.00  0.00    -0.292 C  
HETATM   18  N   UNL     1     -11.783  11.689  67.359  1.00  0.00    -0.606 NA 
HETATM   19  H2  UNL     1     -12.251  11.216  66.585  1.00  0.00     0.000 HD 
HETATM   20  H1  UNL     1     -12.319  12.480  67.715  1.00  0.00     0.000 HD 
ENDBRANCH  10  17
ENDBRANCH   5   8
ENDBRANCH   2   3
TORSDOF 5
ENDMDL
MODEL      102
REMARK 921   NORMALIZED FREE ENERGY PREDICTED BY IDOCK:   -3.79 KCAL/MOL
REMARK 922        TOTAL FREE ENERGY PREDICTED BY IDOCK:   -5.30 KCAL/MOL
REMARK 923 INTER-LIGAND FREE ENERGY PREDICTED BY IDOCK:   -4.99 KCAL/MOL
REMARK 924 INTRA-LIGAND FREE ENERGY PREDICTED BY IDOCK:   -0.31 KCAL/MOL
REMARK 927      BINDING AFFINITY PREDICTED BY RF-SCORE:    0.00 PKD
ROOT
HETATM    1  C   UNL     1     -14.338   8.403  71.682  1.00  0.00    -0.536 C  
HETATM    2  C   UNL     1     -13.191   9.050  72.441  1.00  0.00    -0.447 C  
ENDROOT
BRANCH   2   3
HETATM    3  N   UNL     1     -11.873   8.655  71.941  1.00  0.00    -0.325 N  
HETATM    4  O   UNL     1     -11.951  10.333  70.343  1.00  0.00    -0.276 OA 
HETATM    5  C   UNL     1     -11.367   9.375  70.844  1.00  0.00    -0.319 C  
BRANCH   3   6
HETATM    6  C   UNL     1     -11.318   7.348  72.303  1.00  0.00    -0.281 C  
HETATM    7  C   UNL     1     -10.631   7.210  73.651  1.00  0.00    -0.375 C  
ENDBRANCH   3   6
BRANCH   5   8
HETATM    8  C   UNL     1     -10.010   8.960  70.257  1.00  0.00    -0.214 C  
HETATM    9  C   UNL     1      -8.957  10.074  70.123  1.00  0.00    -0.049 C  
HETATM   10  C   UNL     1      -8.825   9.075  71.228  1.00  0.00    -0.259 C  
BRANCH   8  11
HETATM   11  C   UNL     1     -10.105   8.031  69.037  1.00  0.00    -0.206 A  
HETATM   12  C   UNL     1     -10.059   8.585  67.741  1.00  0.00    -0.266 A  
HETATM   13  C   UNL     1     -10.384   7.836  66.608  1.00  0.00    -0.262 A  
HETATM   14  C   UNL     1     -10.401   6.660  69.128  1.00  0.00    -0.220 A  
HETATM   15  C   UNL     1     -10.748   6.501  66.740  1.00  0.00    -0.344 A  
HETATM   16  C   UNL     1     -10.734   5.906  67.997  1.00  0.00    -0.332 A  
ENDBRANCH   8  11
BRANCH  10  17
HETATM   17  C   UNL     1      -7.623   8.201  71.270  1.00  0.00    -0.083 C  
HETATM   18  N   UNL     1      -6.651   8.791  72.185  1.00  0.00    -0.192 NA 
HETATM   19  H2  UNL     1      -7.041   8.964  73.111  1.00  0.00     0.000 HD 
HETATM   20  H1  UNL     1      -5.826   8.192  72.212  1.00  0.00     0.000 HD 
ENDBRANCH  10  17
ENDBRANCH   5   8
ENDBRANCH   2   3
TORSDOF 5
ENDMDL
MODEL      103
REMARK 921   NORMALIZED FREE ENERGY PREDICTED BY IDOCK:   -3.78 KCAL/MOL
REMARK 922        TOTAL FREE ENERGY PREDICTED BY IDOCK:   -5.28 KCAL/MOL
REMARK 923 INTER-LIGAND FREE ENERGY PREDICTED BY IDOCK:   -5.44 KCAL/MOL
REMARK 924 INTRA-LIGAND FREE ENERGY PREDICTED BY IDOCK:    0.16 KCAL/MOL
REMARK 927      BINDING AFFINITY PREDICTED BY RF-SCORE:    0.00 PKD
ROOT
HETATM    1  C   UNL     1     -10.569   6.665  69.416  1.00  0.00    -0.279 C  
HETATM    2  C   UNL     1      -9.531   7.590  68.802  1.00  0.00    -0.148 C  
ENDROOT
BRANCH   2   3
HETATM    3  N   UNL     1      -9.868   9.008  68.941  1.00  0.00    -0.171 N  
HETATM    4  O   UNL     1     -11.124   8.924  66.994  1.00  0.00     0.065 OA 
HETATM    5  C   UNL     1     -10.665   9.575  67.931  1.00  0.00    -0.228 C  
BRANCH   3   6
HETATM    6  C   UNL     1      -9.090   9.855  69.849  1.00  0.00    -0.210 C  
HETATM    7  C   UNL     1      -8.289   9.180  70.950  1.00  0.00    -0.231 C  
ENDBRANCH   3   6
BRANCH   5   8
HETATM    8  C   UNL     1     -11.000  11.071  68.012  1.00  0.00    -0.312 C  
HETATM    9  C   UNL     1      -9.853  12.044  67.689  1.00  0.00    -0.191 C  
HETATM   10  C   UNL     1     -10.928  11.821  66.674  1.00  0.00    -0.342 C  
BRANCH   8  11
HETATM   11  C   UNL     1     -11.837  11.467  69.238  1.00  0.00    -0.417 A  
HETATM   12  C   UNL     1     -11.827  12.806  69.678  1.00  0.00    -0.384 A  
HETATM   13  C   UNL     1     -12.360  13.180  70.915  1.00  0.00    -0.393 A  
HETATM   14  C   UNL     1     -12.496  10.537  70.061  1.00  0.00    -0.243 A  
HETATM   15  C   UNL     1     -12.937  12.221  71.739  1.00  0.00    -0.431 A  
HETATM   16  C   UNL     1     -13.026  10.903  71.303  1.00  0.00    -0.492 A  
ENDBRANCH   8  11
BRANCH  10  17
HETATM   17  C   UNL     1     -11.772  12.972  66.254  1.00  0.00    -0.387 C  
HETATM   18  N   UNL     1     -12.613  12.549  65.139  1.00  0.00    -0.650 NA 
HETATM   19  H2  UNL     1     -13.165  11.719  65.358  1.00  0.00     0.000 HD 
HETATM   20  H1  UNL     1     -13.191  13.339  64.852  1.00  0.00     0.000 HD 
ENDBRANCH  10  17
ENDBRANCH   5   8
ENDBRANCH   2   3
TORSDOF 5
ENDMDL
MODEL      104
REMARK 921   NORMALIZED FREE ENERGY PREDICTED BY IDOCK:   -3.77 KCAL/MOL
REMARK 922        TOTAL FREE ENERGY PREDICTED BY IDOCK:   -5.27 KCAL/MOL
REMARK 923 INTER-LIGAND FREE ENERGY PREDICTED BY IDOCK:   -4.92 KCAL/MOL
REMARK 924 INTRA-LIGAND FREE ENERGY PREDICTED BY IDOCK:   -0.35 KCAL/MOL
REMARK 927      BINDING AFFINITY PREDICTED BY RF-SCORE:    0.00 PKD
ROOT
HETATM    1  C   UNL     1     -10.350  19.626  65.714  1.00  0.00    -0.506 C  
HETATM    2  C   UNL     1     -11.057  19.180  66.983  1.00  0.00    -0.091 C  
ENDROOT
BRANCH   2   3
HETATM    3  N   UNL     1     -10.278  18.222  67.771  1.00  0.00    -0.365 N  
HETATM    4  O   UNL     1     -11.271  16.455  66.645  1.00  0.00     0.059 OA 
HETATM    5  C   UNL     1     -10.505  16.857  67.518  1.00  0.00    -0.328 C  
BRANCH   3   6
HETATM    6  C   UNL     1      -9.618  18.659  69.004  1.00  0.00    -0.228 C  
HETATM    7  C   UNL     1      -8.315  19.432  68.884  1.00  0.00    -0.335 C  
ENDBRANCH   3   6
BRANCH   5   8
HETATM    8  C   UNL     1      -9.746  15.819  68.357  1.00  0.00    -0.203 C  
HETATM    9  C   UNL     1      -8.898  14.801  67.576  1.00  0.00    -0.197 C  
HETATM   10  C   UNL     1      -8.216  15.928  68.286  1.00  0.00    -0.152 C  
BRANCH   8  11
HETATM   11  C   UNL     1     -10.567  15.209  69.503  1.00  0.00    -0.277 A  
HETATM   12  C   UNL     1     -11.218  13.974  69.306  1.00  0.00    -0.304 A  
HETATM   13  C   UNL     1     -12.170  13.490  70.207  1.00  0.00    -0.417 A  
HETATM   14  C   UNL     1     -10.849  15.887  70.702  1.00  0.00    -0.234 A  
HETATM   15  C   UNL     1     -12.482  14.224  71.346  1.00  0.00    -0.437 A  
HETATM   16  C   UNL     1     -11.805  15.411  71.606  1.00  0.00    -0.468 A  
ENDBRANCH   8  11
BRANCH  10  17
HETATM   17  C   UNL     1      -7.252  15.614  69.374  1.00  0.00    -0.212 C  
HETATM   18  N   UNL     1      -6.335  16.740  69.521  1.00  0.00    -0.224 NA 
HETATM   19  H2  UNL     1      -6.821  17.624  69.672  1.00  0.00     0.000 HD 
HETATM   20  H1  UNL     1      -5.674  16.525  70.267  1.00  0.00     0.000 HD 
ENDBRANCH  10  17
ENDBRANCH   5   8
ENDBRANCH   2   3
TORSDOF 5
ENDMDL
MODEL      105
REMARK 921   NORMALIZED FREE ENERGY PREDICTED BY IDOCK:   -3.77 KCAL/MOL
REMARK 922        TOTAL FREE ENERGY PREDICTED BY IDOCK:   -5.27 KCAL/MOL
REMARK 923 INTER-LIGAND FREE ENERGY PREDICTED BY IDOCK:   -5.09 KCAL/MOL
REMARK 924 INTRA-LIGAND FREE ENERGY PREDICTED BY IDOCK:   -0.18 KCAL/MOL
REMARK 927      BINDING AFFINITY PREDICTED BY RF-SCORE:    0.00 PKD
ROOT
HETATM    1  C   UNL     1      -7.697   6.630  68.104  1.00  0.00    -0.105 C  
HETATM    2  C   UNL     1      -8.729   7.725  68.322  1.00  0.00    -0.127 C  
ENDROOT
BRANCH   2   3
HETATM    3  N   UNL     1      -9.850   7.301  69.164  1.00  0.00    -0.164 N  
HETATM    4  O   UNL     1      -8.677   7.908  71.070  1.00  0.00    -0.128 OA 
HETATM    5  C   UNL     1      -9.681   7.421  70.555  1.00  0.00    -0.175 C  
BRANCH   3   6
HETATM    6  C   UNL     1     -10.897   6.443  68.605  1.00  0.00    -0.314 C  
HETATM    7  C   UNL     1     -11.131   6.483  67.104  1.00  0.00    -0.434 C  
ENDBRANCH   3   6
BRANCH   5   8
HETATM    8  C   UNL     1     -10.813   6.941  71.475  1.00  0.00    -0.257 C  
HETATM    9  C   UNL     1     -11.362   7.974  72.474  1.00  0.00    -0.469 C  
HETATM   10  C   UNL     1     -12.163   7.641  71.255  1.00  0.00    -0.339 C  
BRANCH   8  11
HETATM   11  C   UNL     1     -10.595   5.542  72.070  1.00  0.00    -0.284 A  
HETATM   12  C   UNL     1      -9.812   4.605  71.365  1.00  0.00    -0.264 A  
HETATM   13  C   UNL     1      -9.779   3.255  71.721  1.00  0.00    -0.237 A  
HETATM   14  C   UNL     1     -11.265   5.071  73.212  1.00  0.00    -0.411 A  
HETATM   15  C   UNL     1     -10.516   2.807  72.811  1.00  0.00    -0.218 A  
HETATM   16  C   UNL     1     -11.241   3.719  73.571  1.00  0.00    -0.299 A  
ENDBRANCH   8  11
BRANCH  10  17
HETATM   17  C   UNL     1     -13.512   7.039  71.423  1.00  0.00    -0.233 C  
HETATM   18  N   UNL     1     -14.311   7.920  72.270  1.00  0.00    -0.628 NA 
HETATM   19  H2  UNL     1     -14.350   8.875  71.914  1.00  0.00     0.000 HD 
HETATM   20  H1  UNL     1     -15.237   7.507  72.385  1.00  0.00     0.000 HD 
ENDBRANCH  10  17
ENDBRANCH   5   8
ENDBRANCH   2   3
TORSDOF 5
ENDMDL
MODEL      106
REMARK 921   NORMALIZED FREE ENERGY PREDICTED BY IDOCK:   -3.76 KCAL/MOL
REMARK 922        TOTAL FREE ENERGY PREDICTED BY IDOCK:   -5.26 KCAL/MOL
REMARK 923 INTER-LIGAND FREE ENERGY PREDICTED BY IDOCK:   -4.99 KCAL/MOL
REMARK 924 INTRA-LIGAND FREE ENERGY PREDICTED BY IDOCK:   -0.27 KCAL/MOL
REMARK 927      BINDING AFFINITY PREDICTED BY RF-SCORE:    0.00 PKD
ROOT
HETATM    1  C   UNL     1      -6.904   5.455  73.223  1.00  0.00    -0.079 C  
HETATM    2  C   UNL     1      -8.374   5.074  73.277  1.00  0.00    -0.107 C  
ENDROOT
BRANCH   2   3
HETATM    3  N   UNL     1      -9.193   5.797  72.303  1.00  0.00    -0.145 N  
HETATM    4  O   UNL     1     -10.083   7.112  73.993  1.00  0.00    -0.329 OA 
HETATM    5  C   UNL     1     -10.046   6.796  72.806  1.00  0.00    -0.178 C  
BRANCH   3   6
HETATM    6  C   UNL     1      -9.399   5.237  70.965  1.00  0.00    -0.150 C  
HETATM    7  C   UNL     1      -9.755   3.764  70.852  1.00  0.00    -0.248 C  
ENDBRANCH   3   6
BRANCH   5   8
HETATM    8  C   UNL     1     -10.960   7.544  71.824  1.00  0.00    -0.268 C  
HETATM    9  C   UNL     1     -12.102   6.726  71.198  1.00  0.00    -0.422 C  
HETATM   10  C   UNL     1     -12.415   7.701  72.289  1.00  0.00    -0.184 C  
BRANCH   8  11
HETATM   11  C   UNL     1     -10.215   8.450  70.832  1.00  0.00    -0.234 A  
HETATM   12  C   UNL     1     -10.596   8.449  69.474  1.00  0.00    -0.217 A  
HETATM   13  C   UNL     1      -9.812   9.052  68.488  1.00  0.00    -0.184 A  
HETATM   14  C   UNL     1      -9.055   9.173  71.161  1.00  0.00    -0.275 A  
HETATM   15  C   UNL     1      -8.630   9.693  68.838  1.00  0.00    -0.127 A  
HETATM   16  C   UNL     1      -8.263   9.775  70.177  1.00  0.00    -0.202 A  
ENDBRANCH   8  11
BRANCH  10  17
HETATM   17  C   UNL     1     -13.324   8.842  71.997  1.00  0.00    -0.413 C  
HETATM   18  N   UNL     1     -14.150   9.091  73.174  1.00  0.00    -1.223 NA 
HETATM   19  H2  UNL     1     -13.596   9.238  74.017  1.00  0.00     0.000 HD 
HETATM   20  H1  UNL     1     -14.773   9.873  72.973  1.00  0.00     0.000 HD 
ENDBRANCH  10  17
ENDBRANCH   5   8
ENDBRANCH   2   3
TORSDOF 5
ENDMDL
MODEL      107
REMARK 921   NORMALIZED FREE ENERGY PREDICTED BY IDOCK:   -3.74 KCAL/MOL
REMARK 922        TOTAL FREE ENERGY PREDICTED BY IDOCK:   -5.23 KCAL/MOL
REMARK 923 INTER-LIGAND FREE ENERGY PREDICTED BY IDOCK:   -4.93 KCAL/MOL
REMARK 924 INTRA-LIGAND FREE ENERGY PREDICTED BY IDOCK:   -0.30 KCAL/MOL
REMARK 927      BINDING AFFINITY PREDICTED BY RF-SCORE:    0.00 PKD
ROOT
HETATM    1  C   UNL     1     -11.778  12.446  67.744  1.00  0.00    -0.413 C  
HETATM    2  C   UNL     1     -10.889  12.356  68.973  1.00  0.00    -0.148 C  
ENDROOT
BRANCH   2   3
HETATM    3  N   UNL     1     -11.044  11.098  69.706  1.00  0.00    -0.236 N  
HETATM    4  O   UNL     1      -8.962  10.387  68.973  1.00  0.00    -0.161 OA 
HETATM    5  C   UNL     1      -9.998  10.164  69.598  1.00  0.00    -0.232 C  
BRANCH   3   6
HETATM    6  C   UNL     1     -12.369  10.689  70.179  1.00  0.00    -0.295 C  
HETATM    7  C   UNL     1     -12.917  11.346  71.435  1.00  0.00    -0.468 C  
ENDBRANCH   3   6
BRANCH   5   8
HETATM    8  C   UNL     1     -10.143   8.812  70.310  1.00  0.00    -0.214 C  
HETATM    9  C   UNL     1      -9.082   8.485  71.374  1.00  0.00    -0.266 C  
HETATM   10  C   UNL     1     -10.450   8.904  71.812  1.00  0.00    -0.431 C  
BRANCH   8  11
HETATM   11  C   UNL     1     -10.484   7.639  69.378  1.00  0.00    -0.220 A  
HETATM   12  C   UNL     1     -10.147   6.327  69.766  1.00  0.00    -0.217 A  
HETATM   13  C   UNL     1     -10.202   5.256  68.871  1.00  0.00    -0.248 A  
HETATM   14  C   UNL     1     -10.974   7.805  68.070  1.00  0.00     0.072 A  
HETATM   15  C   UNL     1     -10.618   5.467  67.562  1.00  0.00    -0.252 A  
HETATM   16  C   UNL     1     -11.026   6.737  67.167  1.00  0.00    -0.458 A  
ENDBRANCH   8  11
BRANCH  10  17
HETATM   17  C   UNL     1     -11.272   7.957  72.611  1.00  0.00    -0.398 C  
HETATM   18  N   UNL     1     -10.427   7.366  73.644  1.00  0.00    -0.347 NA 
HETATM   19  H2  UNL     1      -9.967   8.069  74.223  1.00  0.00     0.000 HD 
HETATM   20  H1  UNL     1     -10.991   6.716  74.192  1.00  0.00     0.000 HD 
ENDBRANCH  10  17
ENDBRANCH   5   8
ENDBRANCH   2   3
TORSDOF 5
ENDMDL
MODEL      108
REMARK 921   NORMALIZED FREE ENERGY PREDICTED BY IDOCK:   -3.74 KCAL/MOL
REMARK 922        TOTAL FREE ENERGY PREDICTED BY IDOCK:   -5.23 KCAL/MOL
REMARK 923 INTER-LIGAND FREE ENERGY PREDICTED BY IDOCK:   -4.77 KCAL/MOL
REMARK 924 INTRA-LIGAND FREE ENERGY PREDICTED BY IDOCK:   -0.46 KCAL/MOL
REMARK 927      BINDING AFFINITY PREDICTED BY RF-SCORE:    0.00 PKD
ROOT
HETATM    1  C   UNL     1     -10.644   8.664  71.589  1.00  0.00    -0.374 C  
HETATM    2  C   UNL     1     -10.127   7.256  71.345  1.00  0.00    -0.187 C  
ENDROOT
BRANCH   2   3
HETATM    3  N   UNL     1      -9.561   7.073  70.007  1.00  0.00    -0.164 N  
HETATM    4  O   UNL     1     -11.523   6.067  69.290  1.00  0.00    -0.345 OA 
HETATM    5  C   UNL     1     -10.370   6.424  69.057  1.00  0.00    -0.199 C  
BRANCH   3   6
HETATM    6  C   UNL     1      -8.115   7.196  69.805  1.00  0.00    -0.129 C  
HETATM    7  C   UNL     1      -7.546   8.574  69.510  1.00  0.00    -0.089 C  
ENDBRANCH   3   6
BRANCH   5   8
HETATM    8  C   UNL     1      -9.795   6.167  67.657  1.00  0.00    -0.131 C  
HETATM    9  C   UNL     1      -8.582   5.225  67.580  1.00  0.00    -0.104 C  
HETATM   10  C   UNL     1      -9.926   4.718  67.162  1.00  0.00    -0.224 C  
BRANCH   8  11
HETATM   11  C   UNL     1      -9.675   7.424  66.782  1.00  0.00    -0.271 A  
HETATM   12  C   UNL     1      -8.658   7.493  65.807  1.00  0.00    -0.158 A  
HETATM   13  C   UNL     1      -8.340   8.687  65.157  1.00  0.00    -0.178 A  
HETATM   14  C   UNL     1     -10.421   8.595  66.999  1.00  0.00    -0.354 A  
HETATM   15  C   UNL     1      -9.048   9.847  65.451  1.00  0.00    -0.241 A  
HETATM   16  C   UNL     1     -10.104   9.796  66.355  1.00  0.00    -0.313 A  
ENDBRANCH   8  11
BRANCH  10  17
HETATM   17  C   UNL     1     -10.123   4.274  65.757  1.00  0.00    -0.212 C  
HETATM   18  N   UNL     1     -11.448   4.697  65.317  1.00  0.00    -1.096 NA 
HETATM   19  H2  UNL     1     -11.599   5.699  65.435  1.00  0.00     0.000 HD 
HETATM   20  H1  UNL     1     -11.583   4.392  64.353  1.00  0.00     0.000 HD 
ENDBRANCH  10  17
ENDBRANCH   5   8
ENDBRANCH   2   3
TORSDOF 5
ENDMDL
MODEL      109
REMARK 921   NORMALIZED FREE ENERGY PREDICTED BY IDOCK:   -3.73 KCAL/MOL
REMARK 922        TOTAL FREE ENERGY PREDICTED BY IDOCK:   -5.22 KCAL/MOL
REMARK 923 INTER-LIGAND FREE ENERGY PREDICTED BY IDOCK:   -4.92 KCAL/MOL
REMARK 924 INTRA-LIGAND FREE ENERGY PREDICTED BY IDOCK:   -0.30 KCAL/MOL
REMARK 927      BINDING AFFINITY PREDICTED BY RF-SCORE:    0.00 PKD
ROOT
HETATM    1  C   UNL     1     -14.394   8.309  71.819  1.00  0.00    -0.574 C  
HETATM    2  C   UNL     1     -13.208   8.947  72.523  1.00  0.00    -0.382 C  
ENDROOT
BRANCH   2   3
HETATM    3  N   UNL     1     -11.959   8.835  71.766  1.00  0.00    -0.324 N  
HETATM    4  O   UNL     1     -11.465   6.837  72.835  1.00  0.00    -0.196 OA 
HETATM    5  C   UNL     1     -11.145   7.722  72.044  1.00  0.00    -0.269 C  
BRANCH   3   6
HETATM    6  C   UNL     1     -11.419  10.008  71.075  1.00  0.00    -0.383 C  
HETATM    7  C   UNL     1     -12.361  10.826  70.207  1.00  0.00    -0.423 C  
ENDBRANCH   3   6
BRANCH   5   8
HETATM    8  C   UNL     1      -9.803   7.593  71.309  1.00  0.00    -0.187 C  
HETATM    9  C   UNL     1      -8.725   8.629  71.672  1.00  0.00    -0.270 C  
HETATM   10  C   UNL     1      -8.609   7.237  72.207  1.00  0.00    -0.131 C  
BRANCH   8  11
HETATM   11  C   UNL     1      -9.930   7.315  69.804  1.00  0.00    -0.183 A  
HETATM   12  C   UNL     1      -9.158   8.066  68.894  1.00  0.00    -0.144 A  
HETATM   13  C   UNL     1      -9.403   8.038  67.519  1.00  0.00    -0.171 A  
HETATM   14  C   UNL     1     -10.898   6.458  69.252  1.00  0.00    -0.387 A  
HETATM   15  C   UNL     1     -10.420   7.237  67.013  1.00  0.00    -0.398 A  
HETATM   16  C   UNL     1     -11.153   6.429  67.876  1.00  0.00    -0.370 A  
ENDBRANCH   8  11
BRANCH  10  17
HETATM   17  C   UNL     1      -7.427   6.417  71.829  1.00  0.00    -0.093 C  
HETATM   18  N   UNL     1      -6.273   7.301  71.694  1.00  0.00    -0.037 NA 
HETATM   19  H2  UNL     1      -6.109   7.860  72.531  1.00  0.00     0.000 HD 
HETATM   20  H1  UNL     1      -5.463   6.738  71.435  1.00  0.00     0.000 HD 
ENDBRANCH  10  17
ENDBRANCH   5   8
ENDBRANCH   2   3
TORSDOF 5
ENDMDL
MODEL      110
REMARK 921   NORMALIZED FREE ENERGY PREDICTED BY IDOCK:   -3.72 KCAL/MOL
REMARK 922        TOTAL FREE ENERGY PREDICTED BY IDOCK:   -5.20 KCAL/MOL
REMARK 923 INTER-LIGAND FREE ENERGY PREDICTED BY IDOCK:   -5.10 KCAL/MOL
REMARK 924 INTRA-LIGAND FREE ENERGY PREDICTED BY IDOCK:   -0.10 KCAL/MOL
REMARK 927      BINDING AFFINITY PREDICTED BY RF-SCORE:    0.00 PKD
ROOT
HETATM    1  C   UNL     1      -5.691  12.437  68.878  1.00  0.00    -0.064 C  
HETATM    2  C   UNL     1      -7.037  11.876  68.449  1.00  0.00    -0.086 C  
ENDROOT
BRANCH   2   3
HETATM    3  N   UNL     1      -8.073  12.902  68.316  1.00  0.00    -0.149 N  
HETATM    4  O   UNL     1      -9.617  11.292  67.682  1.00  0.00    -0.168 OA 
HETATM    5  C   UNL     1      -9.342  12.472  67.887  1.00  0.00    -0.200 C  
BRANCH   3   6
HETATM    6  C   UNL     1      -7.694  14.315  68.246  1.00  0.00    -0.136 C  
HETATM    7  C   UNL     1      -7.731  15.132  69.526  1.00  0.00    -0.197 C  
ENDBRANCH   3   6
BRANCH   5   8
HETATM    8  C   UNL     1     -10.443  13.523  67.687  1.00  0.00    -0.239 C  
HETATM    9  C   UNL     1     -10.167  14.607  66.632  1.00  0.00    -0.275 C  
HETATM   10  C   UNL     1     -11.115  13.497  66.306  1.00  0.00    -0.308 C  
BRANCH   8  11
HETATM   11  C   UNL     1     -11.057  14.054  68.992  1.00  0.00    -0.296 A  
HETATM   12  C   UNL     1     -11.550  13.140  69.946  1.00  0.00    -0.255 A  
HETATM   13  C   UNL     1     -12.334  13.553  71.026  1.00  0.00    -0.422 A  
HETATM   14  C   UNL     1     -11.309  15.415  69.233  1.00  0.00    -0.323 A  
HETATM   15  C   UNL     1     -12.629  14.901  71.192  1.00  0.00    -0.404 A  
HETATM   16  C   UNL     1     -12.098  15.836  70.309  1.00  0.00    -0.371 A  
ENDBRANCH   8  11
BRANCH  10  17
HETATM   17  C   UNL     1     -12.533  13.828  66.001  1.00  0.00    -0.445 C  
HETATM   18  N   UNL     1     -12.982  12.978  64.903  1.00  0.00    -0.768 NA 
HETATM   19  H2  UNL     1     -12.844  11.986  65.094  1.00  0.00     0.000 HD 
HETATM   20  H1  UNL     1     -13.954  13.205  64.694  1.00  0.00     0.000 HD 
ENDBRANCH  10  17
ENDBRANCH   5   8
ENDBRANCH   2   3
TORSDOF 5
ENDMDL
MODEL      111
REMARK 921   NORMALIZED FREE ENERGY PREDICTED BY IDOCK:   -3.72 KCAL/MOL
REMARK 922        TOTAL FREE ENERGY PREDICTED BY IDOCK:   -5.20 KCAL/MOL
REMARK 923 INTER-LIGAND FREE ENERGY PREDICTED BY IDOCK:   -5.63 KCAL/MOL
REMARK 924 INTRA-LIGAND FREE ENERGY PREDICTED BY IDOCK:    0.43 KCAL/MOL
REMARK 927      BINDING AFFINITY PREDICTED BY RF-SCORE:    0.00 PKD
ROOT
HETATM    1  C   UNL     1      -8.764  14.781  66.934  1.00  0.00    -0.264 C  
HETATM    2  C   UNL     1      -9.528  14.564  68.230  1.00  0.00    -0.207 C  
ENDROOT
BRANCH   2   3
HETATM    3  N   UNL     1     -10.201  13.266  68.291  1.00  0.00    -0.246 N  
HETATM    4  O   UNL     1      -8.153  12.180  68.321  1.00  0.00    -0.153 OA 
HETATM    5  C   UNL     1      -9.381  12.123  68.303  1.00  0.00    -0.198 C  
BRANCH   3   6
HETATM    6  C   UNL     1     -11.624  13.165  67.954  1.00  0.00    -0.336 C  
HETATM    7  C   UNL     1     -12.151  14.016  66.811  1.00  0.00    -0.480 C  
ENDBRANCH   3   6
BRANCH   5   8
HETATM    8  C   UNL     1     -10.047  10.741  68.316  1.00  0.00    -0.187 C  
HETATM    9  C   UNL     1     -11.142  10.502  67.262  1.00  0.00    -0.284 C  
HETATM   10  C   UNL     1      -9.791   9.889  67.063  1.00  0.00    -0.241 C  
BRANCH   8  11
HETATM   11  C   UNL     1     -10.397  10.220  69.719  1.00  0.00    -0.287 A  
HETATM   12  C   UNL     1      -9.460   9.430  70.417  1.00  0.00    -0.319 A  
HETATM   13  C   UNL     1      -9.805   8.728  71.574  1.00  0.00    -0.371 A  
HETATM   14  C   UNL     1     -11.672  10.346  70.297  1.00  0.00    -0.406 A  
HETATM   15  C   UNL     1     -11.097   8.813  72.077  1.00  0.00    -0.441 A  
HETATM   16  C   UNL     1     -12.025   9.640  71.453  1.00  0.00    -0.480 A  
ENDBRANCH   8  11
BRANCH  10  17
HETATM   17  C   UNL     1      -9.674   8.408  67.004  1.00  0.00    -0.206 C  
HETATM   18  N   UNL     1     -10.998   7.829  67.208  1.00  0.00    -0.524 NA 
HETATM   19  H2  UNL     1     -11.690   8.193  66.553  1.00  0.00     0.000 HD 
HETATM   20  H1  UNL     1     -10.918   6.813  67.168  1.00  0.00     0.000 HD 
ENDBRANCH  10  17
ENDBRANCH   5   8
ENDBRANCH   2   3
TORSDOF 5
ENDMDL
MODEL      112
REMARK 921   NORMALIZED FREE ENERGY PREDICTED BY IDOCK:   -3.72 KCAL/MOL
REMARK 922        TOTAL FREE ENERGY PREDICTED BY IDOCK:   -5.20 KCAL/MOL
REMARK 923 INTER-LIGAND FREE ENERGY PREDICTED BY IDOCK:   -5.06 KCAL/MOL
REMARK 924 INTRA-LIGAND FREE ENERGY PREDICTED BY IDOCK:   -0.14 KCAL/MOL
REMARK 927      BINDING AFFINITY PREDICTED BY RF-SCORE:    0.00 PKD
ROOT
HETATM    1  C   UNL     1      -9.921   8.242  70.502  1.00  0.00    -0.198 C  
HETATM    2  C   UNL     1     -10.936   8.897  69.580  1.00  0.00    -0.123 C  
ENDROOT
BRANCH   2   3
HETATM    3  N   UNL     1     -10.393   9.217  68.259  1.00  0.00    -0.209 N  
HETATM    4  O   UNL     1      -9.984  11.398  68.931  1.00  0.00    -0.198 OA 
HETATM    5  C   UNL     1      -9.968  10.542  68.050  1.00  0.00    -0.155 C  
BRANCH   3   6
HETATM    6  C   UNL     1     -10.656   8.325  67.127  1.00  0.00    -0.270 C  
HETATM    7  C   UNL     1      -9.709   7.158  66.899  1.00  0.00    -0.242 C  
ENDBRANCH   3   6
BRANCH   5   8
HETATM    8  C   UNL     1      -9.439  10.932  66.663  1.00  0.00    -0.204 C  
HETATM    9  C   UNL     1      -8.158  11.784  66.637  1.00  0.00    -0.094 C  
HETATM   10  C   UNL     1      -8.073  10.329  66.300  1.00  0.00    -0.129 C  
BRANCH   8  11
HETATM   11  C   UNL     1     -10.524  11.394  65.678  1.00  0.00    -0.316 A  
HETATM   12  C   UNL     1     -10.300  11.266  64.292  1.00  0.00    -0.399 A  
HETATM   13  C   UNL     1     -11.126  11.885  63.351  1.00  0.00    -0.463 A  
HETATM   14  C   UNL     1     -11.677  12.096  66.069  1.00  0.00    -0.388 A  
HETATM   15  C   UNL     1     -12.216  12.636  63.774  1.00  0.00    -0.600 A  
HETATM   16  C   UNL     1     -12.506  12.723  65.132  1.00  0.00    -0.565 A  
ENDBRANCH   8  11
BRANCH  10  17
HETATM   17  C   UNL     1      -7.610   9.930  64.945  1.00  0.00    -0.135 C  
HETATM   18  N   UNL     1      -6.361  10.629  64.656  1.00  0.00    -0.369 NA 
HETATM   19  H2  UNL     1      -5.652  10.475  65.373  1.00  0.00     0.000 HD 
HETATM   20  H1  UNL     1      -6.044  10.355  63.727  1.00  0.00     0.000 HD 
ENDBRANCH  10  17
ENDBRANCH   5   8
ENDBRANCH   2   3
TORSDOF 5
ENDMDL
MODEL      113
REMARK 921   NORMALIZED FREE ENERGY PREDICTED BY IDOCK:   -3.71 KCAL/MOL
REMARK 922        TOTAL FREE ENERGY PREDICTED BY IDOCK:   -5.19 KCAL/MOL
REMARK 923 INTER-LIGAND FREE ENERGY PREDICTED BY IDOCK:   -5.42 KCAL/MOL
REMARK 924 INTRA-LIGAND FREE ENERGY PREDICTED BY IDOCK:    0.23 KCAL/MOL
REMARK 927      BINDING AFFINITY PREDICTED BY RF-SCORE:    0.00 PKD
ROOT
HETATM    1  C   UNL     1      -9.468   9.689  70.533  1.00  0.00    -0.243 C  
HETATM    2  C   UNL     1      -9.987   9.406  69.133  1.00  0.00    -0.182 C  
ENDROOT
BRANCH   2   3
HETATM    3  N   UNL     1     -10.683  10.547  68.535  1.00  0.00    -0.208 N  
HETATM    4  O   UNL     1      -8.654  11.505  67.947  1.00  0.00    -0.133 OA 
HETATM    5  C   UNL     1      -9.881  11.566  67.989  1.00  0.00    -0.188 C  
BRANCH   3   6
HETATM    6  C   UNL     1     -12.093  10.789  68.852  1.00  0.00    -0.037 C  
HETATM    7  C   UNL     1     -12.577  10.468  70.256  1.00  0.00    -0.306 C  
ENDBRANCH   3   6
BRANCH   5   8
HETATM    8  C   UNL     1     -10.570  12.804  67.396  1.00  0.00    -0.241 C  
HETATM    9  C   UNL     1     -10.003  13.327  66.065  1.00  0.00    -0.297 C  
HETATM   10  C   UNL     1     -11.289  12.564  66.060  1.00  0.00    -0.386 C  
BRANCH   8  11
HETATM   11  C   UNL     1     -10.889  13.902  68.422  1.00  0.00    -0.269 A  
HETATM   12  C   UNL     1      -9.939  14.914  68.670  1.00  0.00    -0.224 A  
HETATM   13  C   UNL     1     -10.059  15.788  69.753  1.00  0.00    -0.277 A  
HETATM   14  C   UNL     1     -12.018  13.876  69.260  1.00  0.00    -0.402 A  
HETATM   15  C   UNL     1     -11.149  15.686  70.609  1.00  0.00    -0.382 A  
HETATM   16  C   UNL     1     -12.141  14.745  70.350  1.00  0.00    -0.381 A  
ENDBRANCH   8  11
BRANCH  10  17
HETATM   17  C   UNL     1     -12.525  13.239  65.583  1.00  0.00    -0.451 C  
HETATM   18  N   UNL     1     -13.158  12.392  64.577  1.00  0.00    -0.815 NA 
HETATM   19  H2  UNL     1     -13.335  11.447  64.916  1.00  0.00     0.000 HD 
HETATM   20  H1  UNL     1     -14.006  12.856  64.250  1.00  0.00     0.000 HD 
ENDBRANCH  10  17
ENDBRANCH   5   8
ENDBRANCH   2   3
TORSDOF 5
ENDMDL
MODEL      114
REMARK 921   NORMALIZED FREE ENERGY PREDICTED BY IDOCK:   -3.71 KCAL/MOL
REMARK 922        TOTAL FREE ENERGY PREDICTED BY IDOCK:   -5.19 KCAL/MOL
REMARK 923 INTER-LIGAND FREE ENERGY PREDICTED BY IDOCK:   -4.91 KCAL/MOL
REMARK 924 INTRA-LIGAND FREE ENERGY PREDICTED BY IDOCK:   -0.28 KCAL/MOL
REMARK 927      BINDING AFFINITY PREDICTED BY RF-SCORE:    0.00 PKD
ROOT
HETATM    1  C   UNL     1     -10.942  11.570  65.478  1.00  0.00    -0.290 C  
HETATM    2  C   UNL     1      -9.765  12.521  65.615  1.00  0.00    -0.158 C  
ENDROOT
BRANCH   2   3
HETATM    3  N   UNL     1      -9.882  13.422  66.764  1.00  0.00    -0.258 N  
HETATM    4  O   UNL     1     -11.460  14.693  65.636  1.00  0.00    -0.340 OA 
HETATM    5  C   UNL     1     -10.763  14.510  66.632  1.00  0.00    -0.305 C  
BRANCH   3   6
HETATM    6  C   UNL     1      -8.853  13.410  67.806  1.00  0.00    -0.199 C  
HETATM    7  C   UNL     1      -8.349  12.064  68.302  1.00  0.00    -0.163 C  
ENDBRANCH   3   6
BRANCH   5   8
HETATM    8  C   UNL     1     -10.877  15.507  67.794  1.00  0.00    -0.309 C  
HETATM    9  C   UNL     1     -12.263  15.632  68.451  1.00  0.00     0.249 C  
HETATM   10  C   UNL     1     -11.185  14.873  69.159  1.00  0.00    -0.293 C  
BRANCH   8  11
HETATM   11  C   UNL     1     -10.172  16.849  67.549  1.00  0.00    -0.295 A  
HETATM   12  C   UNL     1     -10.811  18.046  67.933  1.00  0.00    -0.227 A  
HETATM   13  C   UNL     1     -10.344  19.296  67.520  1.00  0.00    -0.542 A  
HETATM   14  C   UNL     1      -8.983  16.977  66.810  1.00  0.00    -0.267 A  
HETATM   15  C   UNL     1      -9.208  19.384  66.724  1.00  0.00    -0.387 A  
HETATM   16  C   UNL     1      -8.513  18.226  66.388  1.00  0.00    -0.266 A  
ENDBRANCH   8  11
BRANCH  10  17
HETATM   17  C   UNL     1     -10.721  15.354  70.487  1.00  0.00    -0.261 C  
HETATM   18  N   UNL     1     -11.715  16.279  71.021  1.00  0.00    -0.599 NA 
HETATM   19  H2  UNL     1     -12.650  15.871  71.057  1.00  0.00     0.000 HD 
HETATM   20  H1  UNL     1     -11.396  16.609  71.931  1.00  0.00     0.000 HD 
ENDBRANCH  10  17
ENDBRANCH   5   8
ENDBRANCH   2   3
TORSDOF 5
ENDMDL
MODEL      115
REMARK 921   NORMALIZED FREE ENERGY PREDICTED BY IDOCK:   -3.70 KCAL/MOL
REMARK 922        TOTAL FREE ENERGY PREDICTED BY IDOCK:   -5.18 KCAL/MOL
REMARK 923 INTER-LIGAND FREE ENERGY PREDICTED BY IDOCK:   -4.84 KCAL/MOL
REMARK 924 INTRA-LIGAND FREE ENERGY PREDICTED BY IDOCK:   -0.34 KCAL/MOL
REMARK 927      BINDING AFFINITY PREDICTED BY RF-SCORE:    0.00 PKD
ROOT
HETATM    1  C   UNL     1      -7.731  10.171  67.058  1.00  0.00    -0.096 C  
HETATM    2  C   UNL     1      -7.920  11.525  66.393  1.00  0.00    -0.046 C  
ENDROOT
BRANCH   2   3
HETATM    3  N   UNL     1      -8.858  12.393  67.107  1.00  0.00    -0.190 N  
HETATM    4  O   UNL     1     -10.125  12.645  65.182  1.00  0.00    -0.281 OA 
HETATM    5  C   UNL     1      -9.927  12.923  66.363  1.00  0.00    -0.267 C  
BRANCH   3   6
HETATM    6  C   UNL     1      -8.472  12.980  68.393  1.00  0.00    -0.118 C  
HETATM    7  C   UNL     1      -7.316  13.967  68.412  1.00  0.00    -0.115 C  
ENDBRANCH   3   6
BRANCH   5   8
HETATM    8  C   UNL     1     -10.905  13.878  67.061  1.00  0.00    -0.288 C  
HETATM    9  C   UNL     1     -12.402  13.598  66.845  1.00  0.00    -0.309 C  
HETATM   10  C   UNL     1     -11.771  13.230  68.151  1.00  0.00    -0.397 C  
BRANCH   8  11
HETATM   11  C   UNL     1     -10.520  15.362  66.962  1.00  0.00    -0.295 A  
HETATM   12  C   UNL     1     -10.302  16.100  68.143  1.00  0.00    -0.269 A  
HETATM   13  C   UNL     1     -10.195  17.493  68.133  1.00  0.00    -0.359 A  
HETATM   14  C   UNL     1     -10.527  16.087  65.757  1.00  0.00    -0.391 A  
HETATM   15  C   UNL     1     -10.284  18.186  66.932  1.00  0.00    -0.380 A  
HETATM   16  C   UNL     1     -10.427  17.482  65.741  1.00  0.00    -0.212 A  
ENDBRANCH   8  11
BRANCH  10  17
HETATM   17  C   UNL     1     -12.264  13.877  69.396  1.00  0.00    -0.292 C  
HETATM   18  N   UNL     1     -11.889  13.043  70.533  1.00  0.00    -0.537 NA 
HETATM   19  H2  UNL     1     -10.888  12.849  70.563  1.00  0.00     0.000 HD 
HETATM   20  H1  UNL     1     -12.227  13.486  71.387  1.00  0.00     0.000 HD 
ENDBRANCH  10  17
ENDBRANCH   5   8
ENDBRANCH   2   3
TORSDOF 5
ENDMDL
MODEL      116
REMARK 921   NORMALIZED FREE ENERGY PREDICTED BY IDOCK:   -3.70 KCAL/MOL
REMARK 922        TOTAL FREE ENERGY PREDICTED BY IDOCK:   -5.18 KCAL/MOL
REMARK 923 INTER-LIGAND FREE ENERGY PREDICTED BY IDOCK:   -5.10 KCAL/MOL
REMARK 924 INTRA-LIGAND FREE ENERGY PREDICTED BY IDOCK:   -0.08 KCAL/MOL
REMARK 927      BINDING AFFINITY PREDICTED BY RF-SCORE:    0.00 PKD
ROOT
HETATM    1  C   UNL     1     -12.463  10.672  71.258  1.00  0.00    -0.515 C  
HETATM    2  C   UNL     1     -12.336   9.397  72.074  1.00  0.00    -0.345 C  
ENDROOT
BRANCH   2   3
HETATM    3  N   UNL     1     -11.292   8.497  71.580  1.00  0.00    -0.275 N  
HETATM    4  O   UNL     1     -12.891   6.919  71.007  1.00  0.00    -0.333 OA 
HETATM    5  C   UNL     1     -11.709   7.247  71.088  1.00  0.00    -0.303 C  
BRANCH   3   6
HETATM    6  C   UNL     1      -9.894   8.729  71.954  1.00  0.00    -0.324 C  
HETATM    7  C   UNL     1      -9.375   8.083  73.227  1.00  0.00    -0.344 C  
ENDBRANCH   3   6
BRANCH   5   8
HETATM    8  C   UNL     1     -10.642   6.254  70.607  1.00  0.00    -0.301 C  
HETATM    9  C   UNL     1     -10.667   5.898  69.110  1.00  0.00    -0.394 C  
HETATM   10  C   UNL     1      -9.618   6.836  69.619  1.00  0.00    -0.150 C  
BRANCH   8  11
HETATM   11  C   UNL     1     -10.431   5.051  71.538  1.00  0.00    -0.225 A  
HETATM   12  C   UNL     1      -9.866   3.867  71.021  1.00  0.00    -0.219 A  
HETATM   13  C   UNL     1      -9.876   2.670  71.741  1.00  0.00    -0.223 A  
HETATM   14  C   UNL     1     -10.919   4.995  72.855  1.00  0.00    -0.342 A  
HETATM   15  C   UNL     1     -10.436   2.630  73.012  1.00  0.00    -0.244 A  
HETATM   16  C   UNL     1     -10.937   3.798  73.580  1.00  0.00    -0.339 A  
ENDBRANCH   8  11
BRANCH  10  17
HETATM   17  C   UNL     1      -8.187   6.451  69.494  1.00  0.00    -0.118 C  
HETATM   18  N   UNL     1      -7.876   6.275  68.079  1.00  0.00    -0.103 NA 
HETATM   19  H2  UNL     1      -8.111   7.096  67.521  1.00  0.00     0.000 HD 
HETATM   20  H1  UNL     1      -6.895   6.011  67.993  1.00  0.00     0.000 HD 
ENDBRANCH  10  17
ENDBRANCH   5   8
ENDBRANCH   2   3
TORSDOF 5
ENDMDL
MODEL      117
REMARK 921   NORMALIZED FREE ENERGY PREDICTED BY IDOCK:   -3.69 KCAL/MOL
REMARK 922        TOTAL FREE ENERGY PREDICTED BY IDOCK:   -5.16 KCAL/MOL
REMARK 923 INTER-LIGAND FREE ENERGY PREDICTED BY IDOCK:   -4.84 KCAL/MOL
REMARK 924 INTRA-LIGAND FREE ENERGY PREDICTED BY IDOCK:   -0.32 KCAL/MOL
REMARK 927      BINDING AFFINITY PREDICTED BY RF-SCORE:    0.00 PKD
ROOT
HETATM    1  C   UNL     1     -10.558  17.454  68.113  1.00  0.00    -0.376 C  
HETATM    2  C   UNL     1     -11.377  16.175  68.128  1.00  0.00    -0.270 C  
ENDROOT
BRANCH   2   3
HETATM    3  N   UNL     1     -10.948  15.203  67.120  1.00  0.00    -0.322 N  
HETATM    4  O   UNL     1     -11.361  13.460  68.592  1.00  0.00    -0.249 OA 
HETATM    5  C   UNL     1     -10.960  13.848  67.497  1.00  0.00    -0.276 C  
BRANCH   3   6
HETATM    6  C   UNL     1     -10.182  15.652  65.955  1.00  0.00    -0.351 C  
HETATM    7  C   UNL     1     -10.935  16.318  64.815  1.00  0.00    -0.288 C  
ENDBRANCH   3   6
BRANCH   5   8
HETATM    8  C   UNL     1     -10.470  12.801  66.488  1.00  0.00    -0.276 C  
HETATM    9  C   UNL     1     -11.500  11.749  66.042  1.00  0.00    -0.281 C  
HETATM   10  C   UNL     1     -11.148  12.866  65.111  1.00  0.00    -0.321 C  
BRANCH   8  11
HETATM   11  C   UNL     1      -9.077  12.229  66.794  1.00  0.00    -0.211 A  
HETATM   12  C   UNL     1      -8.881  10.833  66.763  1.00  0.00    -0.147 A  
HETATM   13  C   UNL     1      -7.720  10.241  67.267  1.00  0.00    -0.095 A  
HETATM   14  C   UNL     1      -8.007  13.007  67.268  1.00  0.00    -0.143 A  
HETATM   15  C   UNL     1      -6.712  11.035  67.800  1.00  0.00    -0.064 A  
HETATM   16  C   UNL     1      -6.844  12.419  67.780  1.00  0.00    -0.113 A  
ENDBRANCH   8  11
BRANCH  10  17
HETATM   17  C   UNL     1     -10.528  12.540  63.799  1.00  0.00    -0.419 C  
HETATM   18  N   UNL     1     -10.789  11.136  63.498  1.00  0.00    -0.640 NA 
HETATM   19  H2  UNL     1     -11.783  10.908  63.528  1.00  0.00     0.000 HD 
HETATM   20  H1  UNL     1     -10.364  10.913  62.598  1.00  0.00     0.000 HD 
ENDBRANCH  10  17
ENDBRANCH   5   8
ENDBRANCH   2   3
TORSDOF 5
ENDMDL
MODEL      118
REMARK 921   NORMALIZED FREE ENERGY PREDICTED BY IDOCK:   -3.67 KCAL/MOL
REMARK 922        TOTAL FREE ENERGY PREDICTED BY IDOCK:   -5.14 KCAL/MOL
REMARK 923 INTER-LIGAND FREE ENERGY PREDICTED BY IDOCK:   -5.50 KCAL/MOL
REMARK 924 INTRA-LIGAND FREE ENERGY PREDICTED BY IDOCK:    0.36 KCAL/MOL
REMARK 927      BINDING AFFINITY PREDICTED BY RF-SCORE:    0.00 PKD
ROOT
HETATM    1  C   UNL     1     -11.992  14.343  71.515  1.00  0.00    -0.300 C  
HETATM    2  C   UNL     1     -12.624  13.325  70.580  1.00  0.00    -0.189 C  
ENDROOT
BRANCH   2   3
HETATM    3  N   UNL     1     -11.808  13.045  69.397  1.00  0.00    -0.322 N  
HETATM    4  O   UNL     1     -12.733  14.866  68.299  1.00  0.00     0.422 OA 
HETATM    5  C   UNL     1     -11.983  13.892  68.288  1.00  0.00    -0.357 C  
BRANCH   3   6
HETATM    6  C   UNL     1     -11.164  11.737  69.249  1.00  0.00    -0.256 C  
HETATM    7  C   UNL     1     -11.490  10.659  70.269  1.00  0.00    -0.422 C  
ENDBRANCH   3   6
BRANCH   5   8
HETATM    8  C   UNL     1     -11.184  13.603  67.009  1.00  0.00    -0.328 C  
HETATM    9  C   UNL     1     -10.986  12.120  66.651  1.00  0.00    -0.325 C  
HETATM   10  C   UNL     1     -11.987  12.928  65.886  1.00  0.00    -0.504 C  
BRANCH   8  11
HETATM   11  C   UNL     1      -9.925  14.467  66.840  1.00  0.00    -0.261 A  
HETATM   12  C   UNL     1      -8.700  14.014  67.371  1.00  0.00    -0.212 A  
HETATM   13  C   UNL     1      -7.585  14.850  67.470  1.00  0.00    -0.218 A  
HETATM   14  C   UNL     1      -9.945  15.774  66.324  1.00  0.00    -0.315 A  
HETATM   15  C   UNL     1      -7.661  16.163  67.020  1.00  0.00    -0.256 A  
HETATM   16  C   UNL     1      -8.834  16.619  66.425  1.00  0.00    -0.337 A  
ENDBRANCH   8  11
BRANCH  10  17
HETATM   17  C   UNL     1     -11.796  13.113  64.423  1.00  0.00    -0.388 C  
HETATM   18  N   UNL     1     -12.387  14.390  64.036  1.00  0.00    -0.931 NA 
HETATM   19  H2  UNL     1     -12.022  15.172  64.580  1.00  0.00     0.000 HD 
HETATM   20  H1  UNL     1     -12.256  14.517  63.032  1.00  0.00     0.000 HD 
ENDBRANCH  10  17
ENDBRANCH   5   8
ENDBRANCH   2   3
TORSDOF 5
ENDMDL
MODEL      119
REMARK 921   NORMALIZED FREE ENERGY PREDICTED BY IDOCK:   -3.67 KCAL/MOL
REMARK 922        TOTAL FREE ENERGY PREDICTED BY IDOCK:   -5.13 KCAL/MOL
REMARK 923 INTER-LIGAND FREE ENERGY PREDICTED BY IDOCK:   -4.86 KCAL/MOL
REMARK 924 INTRA-LIGAND FREE ENERGY PREDICTED BY IDOCK:   -0.28 KCAL/MOL
REMARK 927      BINDING AFFINITY PREDICTED BY RF-SCORE:    0.00 PKD
ROOT
HETATM    1  C   UNL     1     -12.229  14.678  71.540  1.00  0.00    -0.416 C  
HETATM    2  C   UNL     1     -12.540  15.212  70.152  1.00  0.00    -0.279 C  
ENDROOT
BRANCH   2   3
HETATM    3  N   UNL     1     -11.365  15.274  69.280  1.00  0.00    -0.277 N  
HETATM    4  O   UNL     1     -10.610  17.161  70.396  1.00  0.00     0.234 OA 
HETATM    5  C   UNL     1     -10.471  16.338  69.493  1.00  0.00    -0.299 C  
BRANCH   3   6
HETATM    6  C   UNL     1     -11.347  14.515  68.027  1.00  0.00    -0.306 C  
HETATM    7  C   UNL     1     -11.552  13.011  68.096  1.00  0.00    -0.379 C  
ENDBRANCH   3   6
BRANCH   5   8
HETATM    8  C   UNL     1      -9.252  16.469  68.568  1.00  0.00    -0.230 C  
HETATM    9  C   UNL     1      -7.873  16.341  69.238  1.00  0.00    -0.179 C  
HETATM   10  C   UNL     1      -8.404  15.195  68.436  1.00  0.00    -0.154 C  
BRANCH   8  11
HETATM   11  C   UNL     1      -9.354  17.609  67.544  1.00  0.00    -0.248 A  
HETATM   12  C   UNL     1      -8.536  18.748  67.694  1.00  0.00    -0.292 A  
HETATM   13  C   UNL     1      -8.750  19.912  66.952  1.00  0.00    -0.408 A  
HETATM   14  C   UNL     1     -10.337  17.666  66.542  1.00  0.00    -0.337 A  
HETATM   15  C   UNL     1      -9.781  19.962  66.022  1.00  0.00    -0.469 A  
HETATM   16  C   UNL     1     -10.561  18.831  65.799  1.00  0.00    -0.321 A  
ENDBRANCH   8  11
BRANCH  10  17
HETATM   17  C   UNL     1      -7.653  14.749  67.233  1.00  0.00    -0.165 C  
HETATM   18  N   UNL     1      -7.628  13.290  67.216  1.00  0.00    -0.333 NA 
HETATM   19  H2  UNL     1      -8.562  12.882  67.267  1.00  0.00     0.000 HD 
HETATM   20  H1  UNL     1      -7.113  12.984  66.391  1.00  0.00     0.000 HD 
ENDBRANCH  10  17
ENDBRANCH   5   8
ENDBRANCH   2   3
TORSDOF 5
ENDMDL
MODEL      120
REMARK 921   NORMALIZED FREE ENERGY PREDICTED BY IDOCK:   -3.66 KCAL/MOL
REMARK 922        TOTAL FREE ENERGY PREDICTED BY IDOCK:   -5.13 KCAL/MOL
REMARK 923 INTER-LIGAND FREE ENERGY PREDICTED BY IDOCK:   -4.95 KCAL/MOL
REMARK 924 INTRA-LIGAND FREE ENERGY PREDICTED BY IDOCK:   -0.18 KCAL/MOL
REMARK 927      BINDING AFFINITY PREDICTED BY RF-SCORE:    0.00 PKD
ROOT
HETATM    1  C   UNL     1     -12.097  13.165  70.098  1.00  0.00    -0.392 C  
HETATM    2  C   UNL     1     -12.185  11.957  69.180  1.00  0.00    -0.082 C  
ENDROOT
BRANCH   2   3
HETATM    3  N   UNL     1     -11.452  12.133  67.925  1.00  0.00    -0.305 N  
HETATM    4  O   UNL     1     -10.747   9.925  68.002  1.00  0.00    -0.224 OA 
HETATM    5  C   UNL     1     -10.733  11.022  67.447  1.00  0.00    -0.257 C  
BRANCH   3   6
HETATM    6  C   UNL     1     -11.165  13.482  67.431  1.00  0.00    -0.295 C  
HETATM    7  C   UNL     1     -12.128  14.099  66.431  1.00  0.00    -0.475 C  
ENDBRANCH   3   6
BRANCH   5   8
HETATM    8  C   UNL     1      -9.910  11.178  66.161  1.00  0.00    -0.265 C  
HETATM    9  C   UNL     1     -10.154  10.128  65.064  1.00  0.00    -0.305 C  
HETATM   10  C   UNL     1     -10.732  11.498  64.904  1.00  0.00    -0.357 C  
BRANCH   8  11
HETATM   11  C   UNL     1      -8.429  11.514  66.394  1.00  0.00    -0.138 A  
HETATM   12  C   UNL     1      -7.441  10.579  66.021  1.00  0.00    -0.137 A  
HETATM   13  C   UNL     1      -6.111  10.712  66.426  1.00  0.00    -0.100 A  
HETATM   14  C   UNL     1      -7.993  12.640  67.113  1.00  0.00    -0.123 A  
HETATM   15  C   UNL     1      -5.727  11.799  67.202  1.00  0.00    -0.131 A  
HETATM   16  C   UNL     1      -6.663  12.776  67.527  1.00  0.00    -0.154 A  
ENDBRANCH   8  11
BRANCH  10  17
HETATM   17  C   UNL     1     -10.302  12.331  63.749  1.00  0.00    -0.435 C  
HETATM   18  N   UNL     1     -11.491  12.872  63.098  1.00  0.00    -0.771 NA 
HETATM   19  H2  UNL     1     -12.093  13.382  63.745  1.00  0.00     0.000 HD 
HETATM   20  H1  UNL     1     -11.195  13.443  62.306  1.00  0.00     0.000 HD 
ENDBRANCH  10  17
ENDBRANCH   5   8
ENDBRANCH   2   3
TORSDOF 5
ENDMDL
MODEL      121
REMARK 921   NORMALIZED FREE ENERGY PREDICTED BY IDOCK:   -3.66 KCAL/MOL
REMARK 922        TOTAL FREE ENERGY PREDICTED BY IDOCK:   -5.13 KCAL/MOL
REMARK 923 INTER-LIGAND FREE ENERGY PREDICTED BY IDOCK:   -5.14 KCAL/MOL
REMARK 924 INTRA-LIGAND FREE ENERGY PREDICTED BY IDOCK:    0.01 KCAL/MOL
REMARK 927      BINDING AFFINITY PREDICTED BY RF-SCORE:    0.00 PKD
ROOT
HETATM    1  C   UNL     1      -9.683   9.127  70.472  1.00  0.00    -0.287 C  
HETATM    2  C   UNL     1     -10.584   9.110  69.248  1.00  0.00    -0.216 C  
ENDROOT
BRANCH   2   3
HETATM    3  N   UNL     1     -10.773  10.434  68.653  1.00  0.00    -0.204 N  
HETATM    4  O   UNL     1      -9.842   9.697  66.661  1.00  0.00    -0.195 OA 
HETATM    5  C   UNL     1     -10.323  10.608  67.332  1.00  0.00    -0.219 C  
BRANCH   3   6
HETATM    6  C   UNL     1     -11.039  11.589  69.514  1.00  0.00    -0.191 C  
HETATM    7  C   UNL     1     -12.246  11.532  70.437  1.00  0.00    -0.442 C  
ENDBRANCH   3   6
BRANCH   5   8
HETATM    8  C   UNL     1     -10.456  11.995  66.687  1.00  0.00    -0.247 C  
HETATM    9  C   UNL     1     -11.093  12.037  65.287  1.00  0.00    -0.367 C  
HETATM   10  C   UNL     1     -11.902  12.468  66.470  1.00  0.00    -0.434 C  
BRANCH   8  11
HETATM   11  C   UNL     1      -9.216  12.888  66.844  1.00  0.00    -0.234 A  
HETATM   12  C   UNL     1      -7.991  12.308  67.229  1.00  0.00    -0.177 A  
HETATM   13  C   UNL     1      -6.899  13.085  67.625  1.00  0.00    -0.155 A  
HETATM   14  C   UNL     1      -9.259  14.292  66.783  1.00  0.00    -0.282 A  
HETATM   15  C   UNL     1      -7.000  14.471  67.627  1.00  0.00    -0.204 A  
HETATM   16  C   UNL     1      -8.172  15.076  67.184  1.00  0.00    -0.251 A  
ENDBRANCH   8  11
BRANCH  10  17
HETATM   17  C   UNL     1     -12.397  13.869  66.531  1.00  0.00    -0.404 C  
HETATM   18  N   UNL     1     -13.430  14.042  65.516  1.00  0.00    -0.627 NA 
HETATM   19  H2  UNL     1     -14.182  13.357  65.602  1.00  0.00     0.000 HD 
HETATM   20  H1  UNL     1     -13.769  15.002  65.558  1.00  0.00     0.000 HD 
ENDBRANCH  10  17
ENDBRANCH   5   8
ENDBRANCH   2   3
TORSDOF 5
ENDMDL
MODEL      122
REMARK 921   NORMALIZED FREE ENERGY PREDICTED BY IDOCK:   -3.65 KCAL/MOL
REMARK 922        TOTAL FREE ENERGY PREDICTED BY IDOCK:   -5.12 KCAL/MOL
REMARK 923 INTER-LIGAND FREE ENERGY PREDICTED BY IDOCK:   -4.96 KCAL/MOL
REMARK 924 INTRA-LIGAND FREE ENERGY PREDICTED BY IDOCK:   -0.16 KCAL/MOL
REMARK 927      BINDING AFFINITY PREDICTED BY RF-SCORE:    0.00 PKD
ROOT
HETATM    1  C   UNL     1     -10.499  18.736  66.051  1.00  0.00    -0.483 C  
HETATM    2  C   UNL     1      -9.759  17.416  66.190  1.00  0.00    -0.217 C  
ENDROOT
BRANCH   2   3
HETATM    3  N   UNL     1     -10.498  16.421  66.970  1.00  0.00    -0.301 N  
HETATM    4  O   UNL     1      -9.108  16.783  68.790  1.00  0.00    -0.251 OA 
HETATM    5  C   UNL     1     -10.042  16.170  68.276  1.00  0.00    -0.232 C  
BRANCH   3   6
HETATM    6  C   UNL     1     -11.385  15.475  66.289  1.00  0.00    -0.004 C  
HETATM    7  C   UNL     1     -10.894  14.829  65.003  1.00  0.00    -0.440 C  
ENDBRANCH   3   6
BRANCH   5   8
HETATM    8  C   UNL     1     -10.756  15.098  69.110  1.00  0.00    -0.253 C  
HETATM    9  C   UNL     1     -10.632  15.227  70.638  1.00  0.00    -0.135 C  
HETATM   10  C   UNL     1     -11.915  15.619  69.975  1.00  0.00    -0.384 C  
BRANCH   8  11
HETATM   11  C   UNL     1     -10.583  13.665  68.582  1.00  0.00    -0.260 A  
HETATM   12  C   UNL     1      -9.308  13.233  68.162  1.00  0.00    -0.220 A  
HETATM   13  C   UNL     1      -9.130  12.045  67.450  1.00  0.00    -0.178 A  
HETATM   14  C   UNL     1     -11.658  12.794  68.335  1.00  0.00    -0.365 A  
HETATM   15  C   UNL     1     -10.226  11.243  67.155  1.00  0.00    -0.235 A  
HETATM   16  C   UNL     1     -11.487  11.605  67.617  1.00  0.00    -0.373 A  
ENDBRANCH   8  11
BRANCH  10  17
HETATM   17  C   UNL     1     -13.160  14.886  70.327  1.00  0.00    -0.073 C  
HETATM   18  N   UNL     1     -13.823  15.594  71.417  1.00  0.00    -0.552 NA 
HETATM   19  H2  UNL     1     -13.995  16.576  71.199  1.00  0.00     0.000 HD 
HETATM   20  H1  UNL     1     -14.677  15.091  71.658  1.00  0.00     0.000 HD 
ENDBRANCH  10  17
ENDBRANCH   5   8
ENDBRANCH   2   3
TORSDOF 5
ENDMDL
MODEL      123
REMARK 921   NORMALIZED FREE ENERGY PREDICTED BY IDOCK:   -3.65 KCAL/MOL
REMARK 922        TOTAL FREE ENERGY PREDICTED BY IDOCK:   -5.11 KCAL/MOL
REMARK 923 INTER-LIGAND FREE ENERGY PREDICTED BY IDOCK:   -5.06 KCAL/MOL
REMARK 924 INTRA-LIGAND FREE ENERGY PREDICTED BY IDOCK:   -0.05 KCAL/MOL
REMARK 927      BINDING AFFINITY PREDICTED BY RF-SCORE:    0.00 PKD
ROOT
HETATM    1  C   UNL     1      -8.225   8.629  66.578  1.00  0.00    -0.107 C  
HETATM    2  C   UNL     1      -9.581   9.020  67.141  1.00  0.00    -0.167 C  
ENDROOT
BRANCH   2   3
HETATM    3  N   UNL     1      -9.918   8.313  68.377  1.00  0.00    -0.184 N  
HETATM    4  O   UNL     1      -9.270  10.151  69.633  1.00  0.00    -0.214 OA 
HETATM    5  C   UNL     1      -9.683   8.994  69.585  1.00  0.00    -0.172 C  
BRANCH   3   6
HETATM    6  C   UNL     1     -10.101   6.859  68.358  1.00  0.00    -0.168 C  
HETATM    7  C   UNL     1     -11.006   6.265  67.292  1.00  0.00    -0.455 C  
ENDBRANCH   3   6
BRANCH   5   8
HETATM    8  C   UNL     1      -9.975   8.269  70.906  1.00  0.00    -0.223 C  
HETATM    9  C   UNL     1      -9.220   6.949  71.141  1.00  0.00    -0.154 C  
HETATM   10  C   UNL     1      -8.782   8.180  71.870  1.00  0.00    -0.206 C  
BRANCH   8  11
HETATM   11  C   UNL     1     -11.463   8.221  71.286  1.00  0.00    -0.314 A  
HETATM   12  C   UNL     1     -12.200   7.044  71.047  1.00  0.00    -0.419 A  
HETATM   13  C   UNL     1     -13.594   7.015  71.137  1.00  0.00    -0.149 A  
HETATM   14  C   UNL     1     -12.190   9.345  71.716  1.00  0.00    -0.465 A  
HETATM   15  C   UNL     1     -14.289   8.165  71.490  1.00  0.00    -0.534 A  
HETATM   16  C   UNL     1     -13.587   9.324  71.803  1.00  0.00    -0.465 A  
ENDBRANCH   8  11
BRANCH  10  17
HETATM   17  C   UNL     1      -8.838   8.194  73.356  1.00  0.00    -0.253 C  
HETATM   18  N   UNL     1      -7.563   8.688  73.865  1.00  0.00    -0.413 NA 
HETATM   19  H2  UNL     1      -7.311   9.597  73.474  1.00  0.00     0.000 HD 
HETATM   20  H1  UNL     1      -7.601   8.698  74.884  1.00  0.00     0.000 HD 
ENDBRANCH  10  17
ENDBRANCH   5   8
ENDBRANCH   2   3
TORSDOF 5
ENDMDL
MODEL      124
REMARK 921   NORMALIZED FREE ENERGY PREDICTED BY IDOCK:   -3.64 KCAL/MOL
REMARK 922        TOTAL FREE ENERGY PREDICTED BY IDOCK:   -5.09 KCAL/MOL
REMARK 923 INTER-LIGAND FREE ENERGY PREDICTED BY IDOCK:   -4.67 KCAL/MOL
REMARK 924 INTRA-LIGAND FREE ENERGY PREDICTED BY IDOCK:   -0.42 KCAL/MOL
REMARK 927      BINDING AFFINITY PREDICTED BY RF-SCORE:    0.00 PKD
ROOT
HETATM    1  C   UNL     1      -9.667  20.022  66.177  1.00  0.00    -0.517 C  
HETATM    2  C   UNL     1     -10.836  19.145  66.593  1.00  0.00    -0.277 C  
ENDROOT
BRANCH   2   3
HETATM    3  N   UNL     1     -10.432  17.792  66.981  1.00  0.00    -0.343 N  
HETATM    4  O   UNL     1     -10.221  18.464  69.190  1.00  0.00    -0.326 OA 
HETATM    5  C   UNL     1     -10.116  17.586  68.336  1.00  0.00    -0.358 C  
BRANCH   3   6
HETATM    6  C   UNL     1     -10.001  16.838  65.956  1.00  0.00    -0.313 C  
HETATM    7  C   UNL     1     -11.023  16.381  64.928  1.00  0.00    -0.277 C  
ENDBRANCH   3   6
BRANCH   5   8
HETATM    8  C   UNL     1      -9.640  16.195  68.776  1.00  0.00    -0.235 C  
HETATM    9  C   UNL     1     -10.387  15.562  69.963  1.00  0.00    -0.315 C  
HETATM   10  C   UNL     1     -10.667  15.069  68.578  1.00  0.00    -0.244 C  
BRANCH   8  11
HETATM   11  C   UNL     1      -8.113  16.038  68.835  1.00  0.00    -0.218 A  
HETATM   12  C   UNL     1      -7.553  15.017  69.630  1.00  0.00    -0.140 A  
HETATM   13  C   UNL     1      -6.188  14.974  69.922  1.00  0.00    -0.155 A  
HETATM   14  C   UNL     1      -7.216  16.960  68.268  1.00  0.00    -0.186 A  
HETATM   15  C   UNL     1      -5.339  15.947  69.408  1.00  0.00    -0.113 A  
HETATM   16  C   UNL     1      -5.848  16.926  68.561  1.00  0.00    -0.135 A  
ENDBRANCH   8  11
BRANCH  10  17
HETATM   17  C   UNL     1     -10.376  13.649  68.247  1.00  0.00    -0.251 C  
HETATM   18  N   UNL     1     -10.699  13.424  66.841  1.00  0.00    -0.272 NA 
HETATM   19  H2  UNL     1     -10.220  14.077  66.221  1.00  0.00     0.000 HD 
HETATM   20  H1  UNL     1     -10.500  12.450  66.615  1.00  0.00     0.000 HD 
ENDBRANCH  10  17
ENDBRANCH   5   8
ENDBRANCH   2   3
TORSDOF 5
ENDMDL
MODEL      125
REMARK 921   NORMALIZED FREE ENERGY PREDICTED BY IDOCK:   -3.63 KCAL/MOL
REMARK 922        TOTAL FREE ENERGY PREDICTED BY IDOCK:   -5.09 KCAL/MOL
REMARK 923 INTER-LIGAND FREE ENERGY PREDICTED BY IDOCK:   -5.01 KCAL/MOL
REMARK 924 INTRA-LIGAND FREE ENERGY PREDICTED BY IDOCK:   -0.08 KCAL/MOL
REMARK 927      BINDING AFFINITY PREDICTED BY RF-SCORE:    0.00 PKD
ROOT
HETATM    1  C   UNL     1     -10.140   4.903  66.524  1.00  0.00    -0.285 C  
HETATM    2  C   UNL     1     -10.940   6.174  66.758  1.00  0.00    -0.245 C  
ENDROOT
BRANCH   2   3
HETATM    3  N   UNL     1     -10.456   6.959  67.895  1.00  0.00    -0.194 N  
HETATM    4  O   UNL     1     -10.161   8.806  66.524  1.00  0.00    -0.288 OA 
HETATM    5  C   UNL     1     -10.062   8.283  67.633  1.00  0.00    -0.209 C  
BRANCH   3   6
HETATM    6  C   UNL     1     -10.037   6.280  69.124  1.00  0.00    -0.168 C  
HETATM    7  C   UNL     1     -11.111   5.863  70.115  1.00  0.00    -0.395 C  
ENDBRANCH   3   6
BRANCH   5   8
HETATM    8  C   UNL     1      -9.502   9.125  68.788  1.00  0.00    -0.147 C  
HETATM    9  C   UNL     1      -8.256   8.566  69.497  1.00  0.00    -0.116 C  
HETATM   10  C   UNL     1      -8.102   9.707  68.541  1.00  0.00    -0.104 C  
BRANCH   8  11
HETATM   11  C   UNL     1     -10.571   9.687  69.738  1.00  0.00    -0.267 A  
HETATM   12  C   UNL     1     -10.753   9.090  71.002  1.00  0.00    -0.339 A  
HETATM   13  C   UNL     1     -11.858   9.387  71.805  1.00  0.00    -0.452 A  
HETATM   14  C   UNL     1     -11.503  10.670  69.363  1.00  0.00    -0.356 A  
HETATM   15  C   UNL     1     -12.803  10.308  71.370  1.00  0.00    -0.544 A  
HETATM   16  C   UNL     1     -12.614  10.967  70.159  1.00  0.00    -0.281 A  
ENDBRANCH   8  11
BRANCH  10  17
HETATM   17  C   UNL     1      -7.577  11.003  69.047  1.00  0.00    -0.134 C  
HETATM   18  N   UNL     1      -6.934  10.772  70.337  1.00  0.00    -0.483 NA 
HETATM   19  H2  UNL     1      -6.215  10.050  70.292  1.00  0.00     0.000 HD 
HETATM   20  H1  UNL     1      -6.574  11.661  70.684  1.00  0.00     0.000 HD 
ENDBRANCH  10  17
ENDBRANCH   5   8
ENDBRANCH   2   3
TORSDOF 5
ENDMDL
MODEL      126
REMARK 921   NORMALIZED FREE ENERGY PREDICTED BY IDOCK:   -3.61 KCAL/MOL
REMARK 922        TOTAL FREE ENERGY PREDICTED BY IDOCK:   -5.06 KCAL/MOL
REMARK 923 INTER-LIGAND FREE ENERGY PREDICTED BY IDOCK:   -5.02 KCAL/MOL
REMARK 924 INTRA-LIGAND FREE ENERGY PREDICTED BY IDOCK:   -0.04 KCAL/MOL
REMARK 927      BINDING AFFINITY PREDICTED BY RF-SCORE:    0.00 PKD
ROOT
HETATM    1  C   UNL     1     -11.872  12.312  69.737  1.00  0.00    -0.388 C  
HETATM    2  C   UNL     1     -11.778  13.051  68.413  1.00  0.00    -0.351 C  
ENDROOT
BRANCH   2   3
HETATM    3  N   UNL     1     -11.215  14.396  68.542  1.00  0.00    -0.253 N  
HETATM    4  O   UNL     1      -9.982  14.090  66.602  1.00  0.00    -0.263 OA 
HETATM    5  C   UNL     1     -10.284  14.793  67.564  1.00  0.00    -0.233 C  
BRANCH   3   6
HETATM    6  C   UNL     1     -11.312  15.108  69.819  1.00  0.00    -0.285 C  
HETATM    7  C   UNL     1     -12.661  15.682  70.219  1.00  0.00    -0.319 C  
ENDBRANCH   3   6
BRANCH   5   8
HETATM    8  C   UNL     1      -9.631  16.176  67.690  1.00  0.00    -0.222 C  
HETATM    9  C   UNL     1      -9.448  16.965  66.382  1.00  0.00    -0.306 C  
HETATM   10  C   UNL     1     -10.544  17.356  67.322  1.00  0.00    -0.284 C  
BRANCH   8  11
HETATM   11  C   UNL     1      -8.416  16.219  68.628  1.00  0.00    -0.221 A  
HETATM   12  C   UNL     1      -7.586  17.359  68.633  1.00  0.00    -0.265 A  
HETATM   13  C   UNL     1      -6.343  17.364  69.269  1.00  0.00    -0.244 A  
HETATM   14  C   UNL     1      -7.976  15.116  69.379  1.00  0.00    -0.205 A  
HETATM   15  C   UNL     1      -5.903  16.228  69.939  1.00  0.00    -0.187 A  
HETATM   16  C   UNL     1      -6.729  15.111  70.015  1.00  0.00    -0.129 A  
ENDBRANCH   8  11
BRANCH  10  17
HETATM   17  C   UNL     1     -10.525  18.715  67.924  1.00  0.00    -0.385 C  
HETATM   18  N   UNL     1     -10.712  19.697  66.860  1.00  0.00    -0.480 NA 
HETATM   19  H2  UNL     1     -11.555  19.524  66.312  1.00  0.00     0.000 HD 
HETATM   20  H1  UNL     1     -10.699  20.629  67.273  1.00  0.00     0.000 HD 
ENDBRANCH  10  17
ENDBRANCH   5   8
ENDBRANCH   2   3
TORSDOF 5
ENDMDL
MODEL      127
REMARK 921   NORMALIZED FREE ENERGY PREDICTED BY IDOCK:   -3.60 KCAL/MOL
REMARK 922        TOTAL FREE ENERGY PREDICTED BY IDOCK:   -5.05 KCAL/MOL
REMARK 923 INTER-LIGAND FREE ENERGY PREDICTED BY IDOCK:   -4.68 KCAL/MOL
REMARK 924 INTRA-LIGAND FREE ENERGY PREDICTED BY IDOCK:   -0.37 KCAL/MOL
REMARK 927      BINDING AFFINITY PREDICTED BY RF-SCORE:    0.00 PKD
ROOT
HETATM    1  C   UNL     1     -10.990   5.929  66.924  1.00  0.00    -0.304 C  
HETATM    2  C   UNL     1      -9.533   6.330  67.089  1.00  0.00    -0.124 C  
ENDROOT
BRANCH   2   3
HETATM    3  N   UNL     1      -9.364   7.671  67.652  1.00  0.00    -0.141 N  
HETATM    4  O   UNL     1      -8.845   6.763  69.721  1.00  0.00    -0.140 OA 
HETATM    5  C   UNL     1      -9.041   7.752  69.018  1.00  0.00    -0.144 C  
BRANCH   3   6
HETATM    6  C   UNL     1      -9.894   8.834  66.934  1.00  0.00    -0.229 C  
HETATM    7  C   UNL     1      -9.153   9.311  65.696  1.00  0.00    -0.268 C  
ENDBRANCH   3   6
BRANCH   5   8
HETATM    8  C   UNL     1      -8.904   9.140  69.659  1.00  0.00    -0.152 C  
HETATM    9  C   UNL     1      -7.640   9.380  70.502  1.00  0.00    -0.162 C  
HETATM   10  C   UNL     1      -7.729   9.980  69.135  1.00  0.00    -0.104 C  
BRANCH   8  11
HETATM   11  C   UNL     1     -10.197   9.675  70.294  1.00  0.00    -0.333 A  
HETATM   12  C   UNL     1     -10.750   9.004  71.404  1.00  0.00    -0.401 A  
HETATM   13  C   UNL     1     -12.038   9.285  71.869  1.00  0.00    -0.440 A  
HETATM   14  C   UNL     1     -10.966  10.710  69.735  1.00  0.00    -0.340 A  
HETATM   15  C   UNL     1     -12.802  10.263  71.244  1.00  0.00    -0.522 A  
HETATM   16  C   UNL     1     -12.258  10.993  70.192  1.00  0.00    -0.424 A  
ENDBRANCH   8  11
BRANCH  10  17
HETATM   17  C   UNL     1      -7.688  11.459  68.994  1.00  0.00    -0.064 C  
HETATM   18  N   UNL     1      -6.852  12.004  70.059  1.00  0.00    -0.383 NA 
HETATM   19  H2  UNL     1      -5.921  11.587  70.078  1.00  0.00     0.000 HD 
HETATM   20  H1  UNL     1      -6.824  13.019  69.962  1.00  0.00     0.000 HD 
ENDBRANCH  10  17
ENDBRANCH   5   8
ENDBRANCH   2   3
TORSDOF 5
ENDMDL
MODEL      128
REMARK 921   NORMALIZED FREE ENERGY PREDICTED BY IDOCK:   -3.59 KCAL/MOL
REMARK 922        TOTAL FREE ENERGY PREDICTED BY IDOCK:   -5.04 KCAL/MOL
REMARK 923 INTER-LIGAND FREE ENERGY PREDICTED BY IDOCK:   -5.15 KCAL/MOL
REMARK 924 INTRA-LIGAND FREE ENERGY PREDICTED BY IDOCK:    0.11 KCAL/MOL
REMARK 927      BINDING AFFINITY PREDICTED BY RF-SCORE:    0.00 PKD
ROOT
HETATM    1  C   UNL     1     -13.804  15.004  71.165  1.00  0.00    -0.468 C  
HETATM    2  C   UNL     1     -12.579  14.112  71.281  1.00  0.00    -0.363 C  
ENDROOT
BRANCH   2   3
HETATM    3  N   UNL     1     -11.727  14.144  70.090  1.00  0.00    -0.288 N  
HETATM    4  O   UNL     1     -11.087  16.319  70.579  1.00  0.00    -0.348 OA 
HETATM    5  C   UNL     1     -11.042  15.345  69.831  1.00  0.00    -0.293 C  
BRANCH   3   6
HETATM    6  C   UNL     1     -11.905  13.138  69.040  1.00  0.00    -0.313 C  
HETATM    7  C   UNL     1     -11.508  11.704  69.347  1.00  0.00    -0.372 C  
ENDBRANCH   3   6
BRANCH   5   8
HETATM    8  C   UNL     1     -10.178  15.438  68.565  1.00  0.00    -0.219 C  
HETATM    9  C   UNL     1     -10.890  15.153  67.232  1.00  0.00    -0.316 C  
HETATM   10  C   UNL     1     -10.568  16.567  67.600  1.00  0.00    -0.321 C  
BRANCH   8  11
HETATM   11  C   UNL     1      -8.794  14.783  68.694  1.00  0.00    -0.180 A  
HETATM   12  C   UNL     1      -8.562  13.531  68.088  1.00  0.00    -0.173 A  
HETATM   13  C   UNL     1      -7.422  12.774  68.371  1.00  0.00    -0.124 A  
HETATM   14  C   UNL     1      -7.774  15.281  69.523  1.00  0.00    -0.212 A  
HETATM   15  C   UNL     1      -6.469  13.263  69.256  1.00  0.00    -0.107 A  
HETATM   16  C   UNL     1      -6.632  14.526  69.815  1.00  0.00    -0.158 A  
ENDBRANCH   8  11
BRANCH  10  17
HETATM   17  C   UNL     1      -9.650  17.346  66.727  1.00  0.00    -0.277 C  
HETATM   18  N   UNL     1     -10.418  17.886  65.610  1.00  0.00    -0.619 NA 
HETATM   19  H2  UNL     1     -11.224  18.431  65.916  1.00  0.00     0.000 HD 
HETATM   20  H1  UNL     1      -9.788  18.420  65.011  1.00  0.00     0.000 HD 
ENDBRANCH  10  17
ENDBRANCH   5   8
ENDBRANCH   2   3
TORSDOF 5
ENDMDL
MODEL      129
REMARK 921   NORMALIZED FREE ENERGY PREDICTED BY IDOCK:   -3.59 KCAL/MOL
REMARK 922        TOTAL FREE ENERGY PREDICTED BY IDOCK:   -5.03 KCAL/MOL
REMARK 923 INTER-LIGAND FREE ENERGY PREDICTED BY IDOCK:   -4.89 KCAL/MOL
REMARK 924 INTRA-LIGAND FREE ENERGY PREDICTED BY IDOCK:   -0.15 KCAL/MOL
REMARK 927      BINDING AFFINITY PREDICTED BY RF-SCORE:    0.00 PKD
ROOT
HETATM    1  C   UNL     1     -10.650  19.412  66.383  1.00  0.00    -0.558 C  
HETATM    2  C   UNL     1      -9.516  18.423  66.172  1.00  0.00    -0.156 C  
ENDROOT
BRANCH   2   3
HETATM    3  N   UNL     1      -9.798  17.096  66.723  1.00  0.00    -0.272 N  
HETATM    4  O   UNL     1      -9.307  17.855  68.859  1.00  0.00    -0.252 OA 
HETATM    5  C   UNL     1      -9.623  16.933  68.109  1.00  0.00    -0.255 C  
BRANCH   3   6
HETATM    6  C   UNL     1      -9.860  15.935  65.832  1.00  0.00    -0.351 C  
HETATM    7  C   UNL     1     -11.161  15.669  65.092  1.00  0.00    -0.357 C  
ENDBRANCH   3   6
BRANCH   5   8
HETATM    8  C   UNL     1      -9.858  15.545  68.720  1.00  0.00    -0.217 C  
HETATM    9  C   UNL     1     -10.420  15.517  70.153  1.00  0.00    -0.317 C  
HETATM   10  C   UNL     1     -11.330  15.208  69.006  1.00  0.00    -0.307 C  
BRANCH   8  11
HETATM   11  C   UNL     1      -8.723  14.541  68.468  1.00  0.00    -0.177 A  
HETATM   12  C   UNL     1      -7.389  14.997  68.449  1.00  0.00    -0.112 A  
HETATM   13  C   UNL     1      -6.343  14.195  67.986  1.00  0.00    -0.154 A  
HETATM   14  C   UNL     1      -8.939  13.205  68.090  1.00  0.00    -0.195 A  
HETATM   15  C   UNL     1      -6.602  12.903  67.546  1.00  0.00    -0.160 A  
HETATM   16  C   UNL     1      -7.897  12.398  67.620  1.00  0.00    -0.163 A  
ENDBRANCH   8  11
BRANCH  10  17
HETATM   17  C   UNL     1     -11.964  13.864  68.933  1.00  0.00    -0.358 C  
HETATM   18  N   UNL     1     -11.817  13.210  70.230  1.00  0.00    -0.525 NA 
HETATM   19  H2  UNL     1     -12.184  13.775  70.996  1.00  0.00     0.000 HD 
HETATM   20  H1  UNL     1     -12.251  12.289  70.179  1.00  0.00     0.000 HD 
ENDBRANCH  10  17
ENDBRANCH   5   8
ENDBRANCH   2   3
TORSDOF 5
ENDMDL
MODEL      130
REMARK 921   NORMALIZED FREE ENERGY PREDICTED BY IDOCK:   -3.57 KCAL/MOL
REMARK 922        TOTAL FREE ENERGY PREDICTED BY IDOCK:   -5.01 KCAL/MOL
REMARK 923 INTER-LIGAND FREE ENERGY PREDICTED BY IDOCK:   -4.78 KCAL/MOL
REMARK 924 INTRA-LIGAND FREE ENERGY PREDICTED BY IDOCK:   -0.23 KCAL/MOL
REMARK 927      BINDING AFFINITY PREDICTED BY RF-SCORE:    0.00 PKD
ROOT
HETATM    1  C   UNL     1      -9.033   8.674  70.927  1.00  0.00    -0.227 C  
HETATM    2  C   UNL     1      -9.123   8.660  69.411  1.00  0.00    -0.149 C  
ENDROOT
BRANCH   2   3
HETATM    3  N   UNL     1      -9.294   9.994  68.830  1.00  0.00    -0.164 N  
HETATM    4  O   UNL     1     -10.883   9.172  67.355  1.00  0.00    -0.243 OA 
HETATM    5  C   UNL     1     -10.204  10.112  67.765  1.00  0.00    -0.191 C  
BRANCH   3   6
HETATM    6  C   UNL     1      -8.289  11.031  69.079  1.00  0.00    -0.085 C  
HETATM    7  C   UNL     1      -6.841  10.723  68.737  1.00  0.00    -0.067 C  
ENDBRANCH   3   6
BRANCH   5   8
HETATM    8  C   UNL     1     -10.377  11.482  67.095  1.00  0.00    -0.248 C  
HETATM    9  C   UNL     1      -9.196  11.976  66.240  1.00  0.00    -0.208 C  
HETATM   10  C   UNL     1     -10.420  11.448  65.559  1.00  0.00    -0.322 C  
BRANCH   8  11
HETATM   11  C   UNL     1     -10.992  12.558  68.002  1.00  0.00    -0.266 A  
HETATM   12  C   UNL     1     -10.514  13.882  67.927  1.00  0.00    -0.242 A  
HETATM   13  C   UNL     1     -10.851  14.843  68.883  1.00  0.00    -0.253 A  
HETATM   14  C   UNL     1     -11.904  12.273  69.034  1.00  0.00    -0.358 A  
HETATM   15  C   UNL     1     -11.695  14.508  69.935  1.00  0.00    -0.354 A  
HETATM   16  C   UNL     1     -12.240  13.230  69.998  1.00  0.00    -0.345 A  
ENDBRANCH   8  11
BRANCH  10  17
HETATM   17  C   UNL     1     -11.197  12.354  64.672  1.00  0.00    -0.312 C  
HETATM   18  N   UNL     1     -10.262  13.215  63.954  1.00  0.00    -0.744 NA 
HETATM   19  H2  UNL     1      -9.553  12.685  63.447  1.00  0.00     0.000 HD 
HETATM   20  H1  UNL     1     -10.796  13.836  63.346  1.00  0.00     0.000 HD 
ENDBRANCH  10  17
ENDBRANCH   5   8
ENDBRANCH   2   3
TORSDOF 5
ENDMDL
MODEL      131
REMARK 921   NORMALIZED FREE ENERGY PREDICTED BY IDOCK:   -3.56 KCAL/MOL
REMARK 922        TOTAL FREE ENERGY PREDICTED BY IDOCK:   -5.00 KCAL/MOL
REMARK 923 INTER-LIGAND FREE ENERGY PREDICTED BY IDOCK:   -4.61 KCAL/MOL
REMARK 924 INTRA-LIGAND FREE ENERGY PREDICTED BY IDOCK:   -0.39 KCAL/MOL
REMARK 927      BINDING AFFINITY PREDICTED BY RF-SCORE:    0.00 PKD
ROOT
HETATM    1  C   UNL     1      -8.866  18.490  68.903  1.00  0.00    -0.186 C  
HETATM    2  C   UNL     1     -10.288  17.959  68.845  1.00  0.00    -0.268 C  
ENDROOT
BRANCH   2   3
HETATM    3  N   UNL     1     -10.446  16.833  67.921  1.00  0.00    -0.322 N  
HETATM    4  O   UNL     1     -10.782  15.389  69.703  1.00  0.00    -0.240 OA 
HETATM    5  C   UNL     1     -10.664  15.567  68.493  1.00  0.00    -0.259 C  
BRANCH   3   6
HETATM    6  C   UNL     1     -10.001  16.964  66.531  1.00  0.00    -0.301 C  
HETATM    7  C   UNL     1     -10.750  17.929  65.627  1.00  0.00    -0.055 C  
ENDBRANCH   3   6
BRANCH   5   8
HETATM    8  C   UNL     1     -10.785  14.352  67.562  1.00  0.00    -0.271 C  
HETATM    9  C   UNL     1     -12.091  13.545  67.660  1.00  0.00    -0.321 C  
HETATM   10  C   UNL     1     -11.887  14.463  66.497  1.00  0.00    -0.406 C  
BRANCH   8  11
HETATM   11  C   UNL     1      -9.516  13.491  67.477  1.00  0.00    -0.222 A  
HETATM   12  C   UNL     1      -8.252  14.114  67.535  1.00  0.00    -0.196 A  
HETATM   13  C   UNL     1      -7.077  13.429  67.218  1.00  0.00     0.004 A  
HETATM   14  C   UNL     1      -9.529  12.117  67.180  1.00  0.00    -0.190 A  
HETATM   15  C   UNL     1      -7.133  12.089  66.854  1.00  0.00    -0.033 A  
HETATM   16  C   UNL     1      -8.356  11.426  66.857  1.00  0.00    -0.159 A  
ENDBRANCH   8  11
BRANCH  10  17
HETATM   17  C   UNL     1     -11.857  13.890  65.125  1.00  0.00    -0.362 C  
HETATM   18  N   UNL     1     -12.842  12.816  65.049  1.00  0.00    -0.821 NA 
HETATM   19  H2  UNL     1     -13.775  13.120  65.326  1.00  0.00     0.000 HD 
HETATM   20  H1  UNL     1     -12.821  12.423  64.108  1.00  0.00     0.000 HD 
ENDBRANCH  10  17
ENDBRANCH   5   8
ENDBRANCH   2   3
TORSDOF 5
ENDMDL
MODEL      132
REMARK 921   NORMALIZED FREE ENERGY PREDICTED BY IDOCK:   -3.55 KCAL/MOL
REMARK 922        TOTAL FREE ENERGY PREDICTED BY IDOCK:   -4.99 KCAL/MOL
REMARK 923 INTER-LIGAND FREE ENERGY PREDICTED BY IDOCK:   -4.67 KCAL/MOL
REMARK 924 INTRA-LIGAND FREE ENERGY PREDICTED BY IDOCK:   -0.32 KCAL/MOL
REMARK 927      BINDING AFFINITY PREDICTED BY RF-SCORE:    0.00 PKD
ROOT
HETATM    1  C   UNL     1     -13.185   9.937  71.237  1.00  0.00    -0.465 C  
HETATM    2  C   UNL     1     -12.505   9.029  72.247  1.00  0.00    -0.357 C  
ENDROOT
BRANCH   2   3
HETATM    3  N   UNL     1     -11.378   8.282  71.684  1.00  0.00    -0.258 N  
HETATM    4  O   UNL     1     -12.532   6.289  71.962  1.00  0.00    -0.306 OA 
HETATM    5  C   UNL     1     -11.510   6.883  71.623  1.00  0.00    -0.275 C  
BRANCH   3   6
HETATM    6  C   UNL     1     -10.063   8.918  71.576  1.00  0.00    -0.324 C  
HETATM    7  C   UNL     1      -9.708   9.612  70.272  1.00  0.00    -0.314 C  
ENDBRANCH   3   6
BRANCH   5   8
HETATM    8  C   UNL     1     -10.333   6.057  71.086  1.00  0.00    -0.267 C  
HETATM    9  C   UNL     1      -9.084   5.989  71.982  1.00  0.00    -0.144 C  
HETATM   10  C   UNL     1      -9.995   4.805  71.909  1.00  0.00    -0.252 C  
BRANCH   8  11
HETATM   11  C   UNL     1     -10.029   6.281  69.597  1.00  0.00    -0.201 A  
HETATM   12  C   UNL     1     -11.091   6.294  68.669  1.00  0.00    -0.409 A  
HETATM   13  C   UNL     1     -10.868   6.244  67.291  1.00  0.00    -0.457 A  
HETATM   14  C   UNL     1      -8.728   6.314  69.067  1.00  0.00    -0.125 A  
HETATM   15  C   UNL     1      -9.568   6.200  66.802  1.00  0.00    -0.174 A  
HETATM   16  C   UNL     1      -8.497   6.258  67.688  1.00  0.00    -0.116 A  
ENDBRANCH   8  11
BRANCH  10  17
HETATM   17  C   UNL     1      -9.461   3.517  71.390  1.00  0.00    -0.156 C  
HETATM   18  N   UNL     1      -8.455   3.022  72.323  1.00  0.00    -0.073 NA 
HETATM   19  H2  UNL     1      -8.810   2.942  73.276  1.00  0.00     0.000 HD 
HETATM   20  H1  UNL     1      -8.089   2.139  71.967  1.00  0.00     0.000 HD 
ENDBRANCH  10  17
ENDBRANCH   5   8
ENDBRANCH   2   3
TORSDOF 5
ENDMDL
MODEL      133
REMARK 921   NORMALIZED FREE ENERGY PREDICTED BY IDOCK:   -3.55 KCAL/MOL
REMARK 922        TOTAL FREE ENERGY PREDICTED BY IDOCK:   -4.99 KCAL/MOL
REMARK 923 INTER-LIGAND FREE ENERGY PREDICTED BY IDOCK:   -4.91 KCAL/MOL
REMARK 924 INTRA-LIGAND FREE ENERGY PREDICTED BY IDOCK:   -0.07 KCAL/MOL
REMARK 927      BINDING AFFINITY PREDICTED BY RF-SCORE:    0.00 PKD
ROOT
HETATM    1  C   UNL     1      -9.468  19.103  66.431  1.00  0.00    -0.390 C  
HETATM    2  C   UNL     1     -10.263  17.830  66.191  1.00  0.00    -0.339 C  
ENDROOT
BRANCH   2   3
HETATM    3  N   UNL     1      -9.759  16.683  66.948  1.00  0.00    -0.245 N  
HETATM    4  O   UNL     1     -11.385  15.321  66.012  1.00  0.00    -0.286 OA 
HETATM    5  C   UNL     1     -10.442  15.464  66.787  1.00  0.00    -0.299 C  
BRANCH   3   6
HETATM    6  C   UNL     1      -8.866  16.900  68.089  1.00  0.00    -0.223 C  
HETATM    7  C   UNL     1      -7.368  16.926  67.833  1.00  0.00    -0.176 C  
ENDBRANCH   3   6
BRANCH   5   8
HETATM    8  C   UNL     1      -9.976  14.249  67.602  1.00  0.00    -0.225 C  
HETATM    9  C   UNL     1      -9.736  12.951  66.811  1.00  0.00    -0.246 C  
HETATM   10  C   UNL     1      -8.560  13.754  67.269  1.00  0.00    -0.221 C  
BRANCH   8  11
HETATM   11  C   UNL     1     -10.725  14.051  68.928  1.00  0.00    -0.265 A  
HETATM   12  C   UNL     1     -11.265  12.785  69.235  1.00  0.00    -0.252 A  
HETATM   13  C   UNL     1     -12.159  12.601  70.292  1.00  0.00    -0.372 A  
HETATM   14  C   UNL     1     -11.053  15.104  69.799  1.00  0.00    -0.295 A  
HETATM   15  C   UNL     1     -12.523  13.681  71.088  1.00  0.00    -0.442 A  
HETATM   16  C   UNL     1     -11.952  14.928  70.856  1.00  0.00    -0.374 A  
ENDBRANCH   8  11
BRANCH  10  17
HETATM   17  C   UNL     1      -7.590  13.138  68.213  1.00  0.00    -0.139 C  
HETATM   18  N   UNL     1      -7.790  11.692  68.205  1.00  0.00    -0.125 NA 
HETATM   19  H2  UNL     1      -7.730  11.294  67.267  1.00  0.00     0.000 HD 
HETATM   20  H1  UNL     1      -7.125  11.269  68.852  1.00  0.00     0.000 HD 
ENDBRANCH  10  17
ENDBRANCH   5   8
ENDBRANCH   2   3
TORSDOF 5
ENDMDL
MODEL      134
REMARK 921   NORMALIZED FREE ENERGY PREDICTED BY IDOCK:   -3.53 KCAL/MOL
REMARK 922        TOTAL FREE ENERGY PREDICTED BY IDOCK:   -4.96 KCAL/MOL
REMARK 923 INTER-LIGAND FREE ENERGY PREDICTED BY IDOCK:   -4.73 KCAL/MOL
REMARK 924 INTRA-LIGAND FREE ENERGY PREDICTED BY IDOCK:   -0.23 KCAL/MOL
REMARK 927      BINDING AFFINITY PREDICTED BY RF-SCORE:    0.00 PKD
ROOT
HETATM    1  C   UNL     1     -11.706  15.503  69.265  1.00  0.00    -0.380 C  
HETATM    2  C   UNL     1     -10.802  15.194  68.083  1.00  0.00    -0.266 C  
ENDROOT
BRANCH   2   3
HETATM    3  N   UNL     1     -10.777  13.772  67.733  1.00  0.00    -0.244 N  
HETATM    4  O   UNL     1      -8.462  13.825  67.595  1.00  0.00    -0.157 OA 
HETATM    5  C   UNL     1      -9.516  13.202  67.480  1.00  0.00    -0.212 C  
BRANCH   3   6
HETATM    6  C   UNL     1     -12.004  13.109  67.287  1.00  0.00    -0.335 C  
HETATM    7  C   UNL     1     -12.778  13.732  66.137  1.00  0.00    -0.335 C  
ENDBRANCH   3   6
BRANCH   5   8
HETATM    8  C   UNL     1      -9.448  11.727  67.061  1.00  0.00    -0.191 C  
HETATM    9  C   UNL     1      -8.567  10.812  67.928  1.00  0.00    -0.125 C  
HETATM   10  C   UNL     1     -10.054  10.741  68.071  1.00  0.00    -0.198 C  
BRANCH   8  11
HETATM   11  C   UNL     1      -9.292  11.505  65.549  1.00  0.00    -0.203 A  
HETATM   12  C   UNL     1     -10.109  12.228  64.656  1.00  0.00    -0.275 A  
HETATM   13  C   UNL     1     -10.192  11.898  63.301  1.00  0.00    -0.428 A  
HETATM   14  C   UNL     1      -8.487  10.496  64.992  1.00  0.00    -0.166 A  
HETATM   15  C   UNL     1      -9.439  10.844  62.797  1.00  0.00    -0.359 A  
HETATM   16  C   UNL     1      -8.569  10.157  63.637  1.00  0.00    -0.199 A  
ENDBRANCH   8  11
BRANCH  10  17
HETATM   17  C   UNL     1     -10.747   9.463  67.759  1.00  0.00    -0.229 C  
HETATM   18  N   UNL     1     -10.810   8.660  68.976  1.00  0.00    -0.429 NA 
HETATM   19  H2  UNL     1     -11.243   9.160  69.753  1.00  0.00     0.000 HD 
HETATM   20  H1  UNL     1     -11.285   7.783  68.762  1.00  0.00     0.000 HD 
ENDBRANCH  10  17
ENDBRANCH   5   8
ENDBRANCH   2   3
TORSDOF 5
ENDMDL
MODEL      135
REMARK 921   NORMALIZED FREE ENERGY PREDICTED BY IDOCK:   -3.52 KCAL/MOL
REMARK 922        TOTAL FREE ENERGY PREDICTED BY IDOCK:   -4.95 KCAL/MOL
REMARK 923 INTER-LIGAND FREE ENERGY PREDICTED BY IDOCK:   -4.77 KCAL/MOL
REMARK 924 INTRA-LIGAND FREE ENERGY PREDICTED BY IDOCK:   -0.18 KCAL/MOL
REMARK 927      BINDING AFFINITY PREDICTED BY RF-SCORE:    0.00 PKD
ROOT
HETATM    1  C   UNL     1     -11.474  14.994  68.451  1.00  0.00    -0.340 C  
HETATM    2  C   UNL     1     -10.689  14.633  67.201  1.00  0.00    -0.292 C  
ENDROOT
BRANCH   2   3
HETATM    3  N   UNL     1     -10.722  13.202  66.893  1.00  0.00    -0.262 N  
HETATM    4  O   UNL     1      -8.405  13.118  66.932  1.00  0.00    -0.129 OA 
HETATM    5  C   UNL     1      -9.482  12.553  66.753  1.00  0.00    -0.231 C  
BRANCH   3   6
HETATM    6  C   UNL     1     -11.950  12.597  66.372  1.00  0.00    -0.357 C  
HETATM    7  C   UNL     1     -12.689  13.320  65.259  1.00  0.00    -0.474 C  
ENDBRANCH   3   6
BRANCH   5   8
HETATM    8  C   UNL     1      -9.470  11.064  66.380  1.00  0.00    -0.218 C  
HETATM    9  C   UNL     1     -10.044  10.703  64.999  1.00  0.00    -0.388 C  
HETATM   10  C   UNL     1      -8.561  10.702  65.195  1.00  0.00    -0.173 C  
BRANCH   8  11
HETATM   11  C   UNL     1      -9.912  10.124  67.513  1.00  0.00    -0.231 A  
HETATM   12  C   UNL     1      -9.580  10.444  68.845  1.00  0.00    -0.197 A  
HETATM   13  C   UNL     1      -9.732   9.523  69.884  1.00  0.00    -0.252 A  
HETATM   14  C   UNL     1     -10.496   8.865  67.292  1.00  0.00    -0.348 A  
HETATM   15  C   UNL     1     -10.242   8.257  69.619  1.00  0.00    -0.209 A  
HETATM   16  C   UNL     1     -10.646   7.935  68.327  1.00  0.00    -0.163 A  
ENDBRANCH   8  11
BRANCH  10  17
HETATM   17  C   UNL     1      -7.811   9.433  65.007  1.00  0.00    -0.115 C  
HETATM   18  N   UNL     1      -8.641   8.512  64.236  1.00  0.00    -0.390 NA 
HETATM   19  H2  UNL     1      -8.956   8.915  63.354  1.00  0.00     0.000 HD 
HETATM   20  H1  UNL     1      -8.126   7.642  64.107  1.00  0.00     0.000 HD 
ENDBRANCH  10  17
ENDBRANCH   5   8
ENDBRANCH   2   3
TORSDOF 5
ENDMDL
MODEL      136
REMARK 921   NORMALIZED FREE ENERGY PREDICTED BY IDOCK:   -3.50 KCAL/MOL
REMARK 922        TOTAL FREE ENERGY PREDICTED BY IDOCK:   -4.93 KCAL/MOL
REMARK 923 INTER-LIGAND FREE ENERGY PREDICTED BY IDOCK:   -4.45 KCAL/MOL
REMARK 924 INTRA-LIGAND FREE ENERGY PREDICTED BY IDOCK:   -0.48 KCAL/MOL
REMARK 927      BINDING AFFINITY PREDICTED BY RF-SCORE:    0.00 PKD
ROOT
HETATM    1  C   UNL     1      -7.106   4.741  73.804  1.00  0.00    -0.077 C  
HETATM    2  C   UNL     1      -8.414   5.301  74.336  1.00  0.00    -0.106 C  
ENDROOT
BRANCH   2   3
HETATM    3  N   UNL     1      -9.367   5.643  73.278  1.00  0.00    -0.136 N  
HETATM    4  O   UNL     1      -8.865   7.893  73.521  1.00  0.00    -0.221 OA 
HETATM    5  C   UNL     1      -9.524   7.008  72.980  1.00  0.00    -0.150 C  
BRANCH   3   6
HETATM    6  C   UNL     1     -10.370   4.661  72.857  1.00  0.00    -0.187 C  
HETATM    7  C   UNL     1      -9.941   3.565  71.896  1.00  0.00    -0.212 C  
ENDBRANCH   3   6
BRANCH   5   8
HETATM    8  C   UNL     1     -10.551   7.413  71.912  1.00  0.00    -0.233 C  
HETATM    9  C   UNL     1     -12.032   7.259  72.298  1.00  0.00    -0.259 C  
HETATM   10  C   UNL     1     -11.421   8.624  72.281  1.00  0.00    -0.423 C  
BRANCH   8  11
HETATM   11  C   UNL     1     -10.214   6.928  70.494  1.00  0.00    -0.209 A  
HETATM   12  C   UNL     1      -8.913   7.121  69.988  1.00  0.00    -0.142 A  
HETATM   13  C   UNL     1      -8.612   6.931  68.637  1.00  0.00    -0.123 A  
HETATM   14  C   UNL     1     -11.176   6.440  69.593  1.00  0.00    -0.483 A  
HETATM   15  C   UNL     1      -9.605   6.521  67.756  1.00  0.00    -0.125 A  
HETATM   16  C   UNL     1     -10.883   6.253  68.237  1.00  0.00    -0.397 A  
ENDBRANCH   8  11
BRANCH  10  17
HETATM   17  C   UNL     1     -11.965   9.645  71.346  1.00  0.00    -0.399 C  
HETATM   18  N   UNL     1     -13.311   9.241  70.950  1.00  0.00    -0.564 NA 
HETATM   19  H2  UNL     1     -13.922   9.078  71.751  1.00  0.00     0.000 HD 
HETATM   20  H1  UNL     1     -13.684   9.941  70.309  1.00  0.00     0.000 HD 
ENDBRANCH  10  17
ENDBRANCH   5   8
ENDBRANCH   2   3
TORSDOF 5
ENDMDL
MODEL      137
REMARK 921   NORMALIZED FREE ENERGY PREDICTED BY IDOCK:   -3.50 KCAL/MOL
REMARK 922        TOTAL FREE ENERGY PREDICTED BY IDOCK:   -4.92 KCAL/MOL
REMARK 923 INTER-LIGAND FREE ENERGY PREDICTED BY IDOCK:   -4.62 KCAL/MOL
REMARK 924 INTRA-LIGAND FREE ENERGY PREDICTED BY IDOCK:   -0.30 KCAL/MOL
REMARK 927      BINDING AFFINITY PREDICTED BY RF-SCORE:    0.00 PKD
ROOT
HETATM    1  C   UNL     1     -11.835  12.941  69.832  1.00  0.00    -0.373 C  
HETATM    2  C   UNL     1     -11.882  11.424  69.754  1.00  0.00    -0.364 C  
ENDROOT
BRANCH   2   3
HETATM    3  N   UNL     1     -10.704  10.843  69.105  1.00  0.00    -0.214 N  
HETATM    4  O   UNL     1     -11.631  11.240  67.017  1.00  0.00    -0.496 OA 
HETATM    5  C   UNL     1     -10.717  10.783  67.700  1.00  0.00    -0.258 C  
BRANCH   3   6
HETATM    6  C   UNL     1      -9.774  10.023  69.885  1.00  0.00    -0.203 C  
HETATM    7  C   UNL     1     -10.343   8.880  70.709  1.00  0.00    -0.283 C  
ENDBRANCH   3   6
BRANCH   5   8
HETATM    8  C   UNL     1      -9.524  10.135  66.983  1.00  0.00    -0.197 C  
HETATM    9  C   UNL     1      -9.150  10.727  65.613  1.00  0.00    -0.215 C  
HETATM   10  C   UNL     1      -8.305  11.052  66.803  1.00  0.00    -0.147 C  
BRANCH   8  11
HETATM   11  C   UNL     1      -9.513   8.600  67.031  1.00  0.00    -0.221 A  
HETATM   12  C   UNL     1     -10.717   7.893  66.836  1.00  0.00    -0.219 A  
HETATM   13  C   UNL     1     -10.824   6.528  67.110  1.00  0.00    -0.472 A  
HETATM   14  C   UNL     1      -8.394   7.844  67.423  1.00  0.00    -0.123 A  
HETATM   15  C   UNL     1      -9.717   5.825  67.570  1.00  0.00    -0.128 A  
HETATM   16  C   UNL     1      -8.495   6.477  67.705  1.00  0.00    -0.117 A  
ENDBRANCH   8  11
BRANCH  10  17
HETATM   17  C   UNL     1      -6.875  10.641  66.805  1.00  0.00    -0.108 C  
HETATM   18  N   UNL     1      -6.095  11.670  66.124  1.00  0.00    -0.479 NA 
HETATM   19  H2  UNL     1      -6.236  12.597  66.525  1.00  0.00     0.000 HD 
HETATM   20  H1  UNL     1      -5.115  11.387  66.126  1.00  0.00     0.000 HD 
ENDBRANCH  10  17
ENDBRANCH   5   8
ENDBRANCH   2   3
TORSDOF 5
ENDMDL
MODEL      138
REMARK 921   NORMALIZED FREE ENERGY PREDICTED BY IDOCK:   -3.48 KCAL/MOL
REMARK 922        TOTAL FREE ENERGY PREDICTED BY IDOCK:   -4.90 KCAL/MOL
REMARK 923 INTER-LIGAND FREE ENERGY PREDICTED BY IDOCK:   -4.54 KCAL/MOL
REMARK 924 INTRA-LIGAND FREE ENERGY PREDICTED BY IDOCK:   -0.36 KCAL/MOL
REMARK 927      BINDING AFFINITY PREDICTED BY RF-SCORE:    0.00 PKD
ROOT
HETATM    1  C   UNL     1      -5.827  20.900  68.478  1.00  0.00    -0.384 C  
HETATM    2  C   UNL     1      -6.943  20.209  69.244  1.00  0.00    -0.133 C  
ENDROOT
BRANCH   2   3
HETATM    3  N   UNL     1      -7.428  18.994  68.586  1.00  0.00    -0.314 N  
HETATM    4  O   UNL     1      -6.164  17.684  70.022  1.00  0.00    -0.191 OA 
HETATM    5  C   UNL     1      -6.928  17.769  69.062  1.00  0.00    -0.236 C  
BRANCH   3   6
HETATM    6  C   UNL     1      -8.068  19.084  67.271  1.00  0.00    -0.262 C  
HETATM    7  C   UNL     1      -9.417  19.777  67.176  1.00  0.00    -0.471 C  
ENDBRANCH   3   6
BRANCH   5   8
HETATM    8  C   UNL     1      -7.372  16.475  68.367  1.00  0.00    -0.179 C  
HETATM    9  C   UNL     1      -6.673  16.140  67.038  1.00  0.00    -0.183 C  
HETATM   10  C   UNL     1      -6.289  15.389  68.274  1.00  0.00    -0.123 C  
BRANCH   8  11
HETATM   11  C   UNL     1      -8.892  16.252  68.354  1.00  0.00    -0.202 A  
HETATM   12  C   UNL     1      -9.576  16.078  69.575  1.00  0.00    -0.200 A  
HETATM   13  C   UNL     1     -10.898  15.631  69.622  1.00  0.00    -0.287 A  
HETATM   14  C   UNL     1      -9.636  16.048  67.179  1.00  0.00    -0.224 A  
HETATM   15  C   UNL     1     -11.582  15.364  68.441  1.00  0.00    -0.368 A  
HETATM   16  C   UNL     1     -10.959  15.594  67.219  1.00  0.00    -0.275 A  
ENDBRANCH   8  11
BRANCH  10  17
HETATM   17  C   UNL     1      -6.500  13.918  68.316  1.00  0.00    -0.111 C  
HETATM   18  N   UNL     1      -6.836  13.458  66.972  1.00  0.00    -0.393 NA 
HETATM   19  H2  UNL     1      -6.140  13.734  66.279  1.00  0.00     0.000 HD 
HETATM   20  H1  UNL     1      -6.981  12.449  67.001  1.00  0.00     0.000 HD 
ENDBRANCH  10  17
ENDBRANCH   5   8
ENDBRANCH   2   3
TORSDOF 5
ENDMDL
MODEL      139
REMARK 921   NORMALIZED FREE ENERGY PREDICTED BY IDOCK:   -3.48 KCAL/MOL
REMARK 922        TOTAL FREE ENERGY PREDICTED BY IDOCK:   -4.89 KCAL/MOL
REMARK 923 INTER-LIGAND FREE ENERGY PREDICTED BY IDOCK:   -4.45 KCAL/MOL
REMARK 924 INTRA-LIGAND FREE ENERGY PREDICTED BY IDOCK:   -0.44 KCAL/MOL
REMARK 927      BINDING AFFINITY PREDICTED BY RF-SCORE:    0.00 PKD
ROOT
HETATM    1  C   UNL     1     -10.796  13.429  67.942  1.00  0.00    -0.263 C  
HETATM    2  C   UNL     1     -10.855  12.122  67.169  1.00  0.00    -0.244 C  
ENDROOT
BRANCH   2   3
HETATM    3  N   UNL     1     -10.327  10.983  67.921  1.00  0.00    -0.180 N  
HETATM    4  O   UNL     1     -12.399  10.644  68.905  1.00  0.00    -0.358 OA 
HETATM    5  C   UNL     1     -11.215  10.333  68.797  1.00  0.00    -0.206 C  
BRANCH   3   6
HETATM    6  C   UNL     1      -8.879  10.801  68.047  1.00  0.00    -0.132 C  
HETATM    7  C   UNL     1      -8.113  10.287  66.839  1.00  0.00    -0.119 C  
ENDBRANCH   3   6
BRANCH   5   8
HETATM    8  C   UNL     1     -10.689   9.164  69.643  1.00  0.00    -0.236 C  
HETATM    9  C   UNL     1      -9.777   9.536  70.825  1.00  0.00    -0.289 C  
HETATM   10  C   UNL     1     -11.195   9.139  71.093  1.00  0.00    -0.395 C  
BRANCH   8  11
HETATM   11  C   UNL     1     -10.201   7.960  68.824  1.00  0.00    -0.218 A  
HETATM   12  C   UNL     1      -9.017   7.297  69.207  1.00  0.00    -0.135 A  
HETATM   13  C   UNL     1      -8.392   6.365  68.375  1.00  0.00    -0.116 A  
HETATM   14  C   UNL     1     -10.778   7.566  67.604  1.00  0.00    -0.266 A  
HETATM   15  C   UNL     1      -8.948   6.054  67.141  1.00  0.00    -0.114 A  
HETATM   16  C   UNL     1     -10.154   6.637  66.764  1.00  0.00    -0.240 A  
ENDBRANCH   8  11
BRANCH  10  17
HETATM   17  C   UNL     1     -11.460   7.932  71.920  1.00  0.00    -0.280 C  
HETATM   18  N   UNL     1     -12.551   8.231  72.842  1.00  0.00    -0.659 NA 
HETATM   19  H2  UNL     1     -13.386   8.569  72.363  1.00  0.00     0.000 HD 
HETATM   20  H1  UNL     1     -12.733   7.404  73.409  1.00  0.00     0.000 HD 
ENDBRANCH  10  17
ENDBRANCH   5   8
ENDBRANCH   2   3
TORSDOF 5
ENDMDL
MODEL      140
REMARK 921   NORMALIZED FREE ENERGY PREDICTED BY IDOCK:   -3.47 KCAL/MOL
REMARK 922        TOTAL FREE ENERGY PREDICTED BY IDOCK:   -4.88 KCAL/MOL
REMARK 923 INTER-LIGAND FREE ENERGY PREDICTED BY IDOCK:   -4.73 KCAL/MOL
REMARK 924 INTRA-LIGAND FREE ENERGY PREDICTED BY IDOCK:   -0.15 KCAL/MOL
REMARK 927      BINDING AFFINITY PREDICTED BY RF-SCORE:    0.00 PKD
ROOT
HETATM    1  C   UNL     1      -8.493   9.597  69.393  1.00  0.00    -0.156 C  
HETATM    2  C   UNL     1      -9.255   9.308  68.111  1.00  0.00    -0.130 C  
ENDROOT
BRANCH   2   3
HETATM    3  N   UNL     1      -9.265  10.438  67.179  1.00  0.00    -0.142 N  
HETATM    4  O   UNL     1     -11.578  10.550  67.304  1.00  0.00    -0.327 OA 
HETATM    5  C   UNL     1     -10.523  10.960  66.826  1.00  0.00    -0.251 C  
BRANCH   3   6
HETATM    6  C   UNL     1      -8.078  10.726  66.370  1.00  0.00    -0.153 C  
HETATM    7  C   UNL     1      -7.009  11.629  66.963  1.00  0.00    -0.144 C  
ENDBRANCH   3   6
BRANCH   5   8
HETATM    8  C   UNL     1     -10.581  12.112  65.813  1.00  0.00    -0.295 C  
HETATM    9  C   UNL     1      -9.934  11.847  64.442  1.00  0.00    -0.260 C  
HETATM   10  C   UNL     1     -11.425  11.828  64.561  1.00  0.00    -0.322 C  
BRANCH   8  11
HETATM   11  C   UNL     1     -10.261  13.493  66.405  1.00  0.00    -0.291 A  
HETATM   12  C   UNL     1     -10.890  13.894  67.602  1.00  0.00    -0.264 A  
HETATM   13  C   UNL     1     -10.836  15.214  68.057  1.00  0.00    -0.284 A  
HETATM   14  C   UNL     1      -9.493  14.464  65.740  1.00  0.00    -0.130 A  
HETATM   15  C   UNL     1     -10.131  16.168  67.333  1.00  0.00    -0.257 A  
HETATM   16  C   UNL     1      -9.440  15.789  66.186  1.00  0.00    -0.375 A  
ENDBRANCH   8  11
BRANCH  10  17
HETATM   17  C   UNL     1     -12.222  12.814  63.785  1.00  0.00    -0.489 C  
HETATM   18  N   UNL     1     -13.187  12.089  62.964  1.00  0.00    -0.459 NA 
HETATM   19  H2  UNL     1     -13.772  11.459  63.513  1.00  0.00     0.000 HD 
HETATM   20  H1  UNL     1     -13.733  12.766  62.431  1.00  0.00     0.000 HD 
ENDBRANCH  10  17
ENDBRANCH   5   8
ENDBRANCH   2   3
TORSDOF 5
ENDMDL
MODEL      141
REMARK 921   NORMALIZED FREE ENERGY PREDICTED BY IDOCK:   -3.46 KCAL/MOL
REMARK 922        TOTAL FREE ENERGY PREDICTED BY IDOCK:   -4.87 KCAL/MOL
REMARK 923 INTER-LIGAND FREE ENERGY PREDICTED BY IDOCK:   -4.41 KCAL/MOL
REMARK 924 INTRA-LIGAND FREE ENERGY PREDICTED BY IDOCK:   -0.47 KCAL/MOL
REMARK 927      BINDING AFFINITY PREDICTED BY RF-SCORE:    0.00 PKD
ROOT
HETATM    1  C   UNL     1      -9.425   3.911  66.583  1.00  0.00    -0.217 C  
HETATM    2  C   UNL     1      -9.450   5.104  65.642  1.00  0.00    -0.115 C  
ENDROOT
BRANCH   2   3
HETATM    3  N   UNL     1      -9.066   6.359  66.291  1.00  0.00    -0.155 N  
HETATM    4  O   UNL     1     -11.280   6.779  66.837  1.00  0.00    -0.375 OA 
HETATM    5  C   UNL     1     -10.103   7.136  66.837  1.00  0.00    -0.238 C  
BRANCH   3   6
HETATM    6  C   UNL     1      -7.749   6.943  66.025  1.00  0.00    -0.096 C  
HETATM    7  C   UNL     1      -6.524   6.230  66.574  1.00  0.00    -0.047 C  
ENDBRANCH   3   6
BRANCH   5   8
HETATM    8  C   UNL     1      -9.749   8.483  67.482  1.00  0.00    -0.209 C  
HETATM    9  C   UNL     1     -10.171   8.667  68.950  1.00  0.00    -0.221 C  
HETATM   10  C   UNL     1      -8.734   8.401  68.631  1.00  0.00    -0.133 C  
BRANCH   8  11
HETATM   11  C   UNL     1     -10.022   9.704  66.589  1.00  0.00    -0.301 A  
HETATM   12  C   UNL     1     -10.768  10.783  67.104  1.00  0.00    -0.324 A  
HETATM   13  C   UNL     1     -11.258  11.800  66.281  1.00  0.00    -0.370 A  
HETATM   14  C   UNL     1      -9.710   9.748  65.220  1.00  0.00    -0.371 A  
HETATM   15  C   UNL     1     -10.996  11.774  64.916  1.00  0.00    -0.358 A  
HETATM   16  C   UNL     1     -10.202  10.760  64.388  1.00  0.00    -0.432 A  
ENDBRANCH   8  11
BRANCH  10  17
HETATM   17  C   UNL     1      -7.715   9.422  68.992  1.00  0.00    -0.075 C  
HETATM   18  N   UNL     1      -8.362  10.464  69.784  1.00  0.00    -0.373 NA 
HETATM   19  H2  UNL     1      -8.847  10.090  70.599  1.00  0.00     0.000 HD 
HETATM   20  H1  UNL     1      -7.663  11.164  70.030  1.00  0.00     0.000 HD 
ENDBRANCH  10  17
ENDBRANCH   5   8
ENDBRANCH   2   3
TORSDOF 5
ENDMDL
MODEL      142
REMARK 921   NORMALIZED FREE ENERGY PREDICTED BY IDOCK:   -3.46 KCAL/MOL
REMARK 922        TOTAL FREE ENERGY PREDICTED BY IDOCK:   -4.87 KCAL/MOL
REMARK 923 INTER-LIGAND FREE ENERGY PREDICTED BY IDOCK:   -4.67 KCAL/MOL
REMARK 924 INTRA-LIGAND FREE ENERGY PREDICTED BY IDOCK:   -0.20 KCAL/MOL
REMARK 927      BINDING AFFINITY PREDICTED BY RF-SCORE:    0.00 PKD
ROOT
HETATM    1  C   UNL     1     -13.015   9.541  72.001  1.00  0.00    -0.514 C  
HETATM    2  C   UNL     1     -12.074   8.367  72.215  1.00  0.00    -0.392 C  
ENDROOT
BRANCH   2   3
HETATM    3  N   UNL     1     -11.086   8.217  71.145  1.00  0.00    -0.243 N  
HETATM    4  O   UNL     1     -12.392   6.588  70.137  1.00  0.00    -0.114 OA 
HETATM    5  C   UNL     1     -11.357   7.250  70.160  1.00  0.00    -0.207 C  
BRANCH   3   6
HETATM    6  C   UNL     1      -9.734   8.751  71.322  1.00  0.00    -0.265 C  
HETATM    7  C   UNL     1      -8.968   8.362  72.576  1.00  0.00    -0.308 C  
ENDBRANCH   3   6
BRANCH   5   8
HETATM    8  C   UNL     1     -10.323   7.026  69.047  1.00  0.00    -0.208 C  
HETATM    9  C   UNL     1      -9.122   6.133  69.403  1.00  0.00    -0.135 C  
HETATM   10  C   UNL     1     -10.217   5.577  68.548  1.00  0.00    -0.250 C  
BRANCH   8  11
HETATM   11  C   UNL     1      -9.955   8.293  68.260  1.00  0.00    -0.217 A  
HETATM   12  C   UNL     1      -8.603   8.679  68.164  1.00  0.00    -0.141 A  
HETATM   13  C   UNL     1      -8.227   9.935  67.682  1.00  0.00    -0.114 A  
HETATM   14  C   UNL     1     -10.907   9.197  67.756  1.00  0.00    -0.159 A  
HETATM   15  C   UNL     1      -9.198  10.836  67.263  1.00  0.00    -0.158 A  
HETATM   16  C   UNL     1     -10.538  10.459  67.278  1.00  0.00    -0.322 A  
ENDBRANCH   8  11
BRANCH  10  17
HETATM   17  C   UNL     1      -9.896   5.136  67.165  1.00  0.00    -0.170 C  
HETATM   18  N   UNL     1     -10.992   5.531  66.285  1.00  0.00    -0.751 NA 
HETATM   19  H2  UNL     1     -11.197   6.528  66.340  1.00  0.00     0.000 HD 
HETATM   20  H1  UNL     1     -10.772   5.227  65.337  1.00  0.00     0.000 HD 
ENDBRANCH  10  17
ENDBRANCH   5   8
ENDBRANCH   2   3
TORSDOF 5
ENDMDL
MODEL      143
REMARK 921   NORMALIZED FREE ENERGY PREDICTED BY IDOCK:   -3.44 KCAL/MOL
REMARK 922        TOTAL FREE ENERGY PREDICTED BY IDOCK:   -4.84 KCAL/MOL
REMARK 923 INTER-LIGAND FREE ENERGY PREDICTED BY IDOCK:   -4.89 KCAL/MOL
REMARK 924 INTRA-LIGAND FREE ENERGY PREDICTED BY IDOCK:    0.05 KCAL/MOL
REMARK 927      BINDING AFFINITY PREDICTED BY RF-SCORE:    0.00 PKD
ROOT
HETATM    1  C   UNL     1     -13.812   7.517  71.633  1.00  0.00    -0.486 C  
HETATM    2  C   UNL     1     -12.519   6.733  71.781  1.00  0.00    -0.349 C  
ENDROOT
BRANCH   2   3
HETATM    3  N   UNL     1     -11.489   7.131  70.819  1.00  0.00    -0.293 N  
HETATM    4  O   UNL     1     -11.174   9.130  71.950  1.00  0.00    -0.364 OA 
HETATM    5  C   UNL     1     -10.901   8.395  71.004  1.00  0.00    -0.238 C  
BRANCH   3   6
HETATM    6  C   UNL     1     -11.382   6.431  69.537  1.00  0.00    -0.393 C  
HETATM    7  C   UNL     1     -10.510   5.188  69.469  1.00  0.00    -0.233 C  
ENDBRANCH   3   6
BRANCH   5   8
HETATM    8  C   UNL     1      -9.853   8.872  69.988  1.00  0.00    -0.188 C  
HETATM    9  C   UNL     1      -8.557   9.461  70.572  1.00  0.00    -0.265 C  
HETATM   10  C   UNL     1      -8.537   8.079  69.999  1.00  0.00    -0.134 C  
BRANCH   8  11
HETATM   11  C   UNL     1     -10.431   9.666  68.807  1.00  0.00    -0.238 A  
HETATM   12  C   UNL     1      -9.999   9.372  67.498  1.00  0.00    -0.250 A  
HETATM   13  C   UNL     1     -10.292  10.209  66.419  1.00  0.00    -0.258 A  
HETATM   14  C   UNL     1     -11.257  10.793  68.961  1.00  0.00    -0.322 A  
HETATM   15  C   UNL     1     -11.047  11.358  66.619  1.00  0.00    -0.333 A  
HETATM   16  C   UNL     1     -11.550  11.639  67.885  1.00  0.00    -0.369 A  
ENDBRANCH   8  11
BRANCH  10  17
HETATM   17  C   UNL     1      -7.660   7.797  68.832  1.00  0.00    -0.101 C  
HETATM   18  N   UNL     1      -7.148   6.435  68.954  1.00  0.00    -0.079 NA 
HETATM   19  H2  UNL     1      -7.892   5.745  69.061  1.00  0.00     0.000 HD 
HETATM   20  H1  UNL     1      -6.547   6.242  68.154  1.00  0.00     0.000 HD 
ENDBRANCH  10  17
ENDBRANCH   5   8
ENDBRANCH   2   3
TORSDOF 5
ENDMDL
MODEL      144
REMARK 921   NORMALIZED FREE ENERGY PREDICTED BY IDOCK:   -3.43 KCAL/MOL
REMARK 922        TOTAL FREE ENERGY PREDICTED BY IDOCK:   -4.83 KCAL/MOL
REMARK 923 INTER-LIGAND FREE ENERGY PREDICTED BY IDOCK:   -4.60 KCAL/MOL
REMARK 924 INTRA-LIGAND FREE ENERGY PREDICTED BY IDOCK:   -0.23 KCAL/MOL
REMARK 927      BINDING AFFINITY PREDICTED BY RF-SCORE:    0.00 PKD
ROOT
HETATM    1  C   UNL     1      -6.420  16.399  67.339  1.00  0.00    -0.206 C  
HETATM    2  C   UNL     1      -6.807  15.572  68.554  1.00  0.00    -0.114 C  
ENDROOT
BRANCH   2   3
HETATM    3  N   UNL     1      -8.111  14.920  68.416  1.00  0.00    -0.131 N  
HETATM    4  O   UNL     1      -9.183  16.891  69.004  1.00  0.00    -0.252 OA 
HETATM    5  C   UNL     1      -9.246  15.700  68.705  1.00  0.00    -0.205 C  
BRANCH   3   6
HETATM    6  C   UNL     1      -8.195  13.458  68.376  1.00  0.00    -0.139 C  
HETATM    7  C   UNL     1      -7.764  12.750  67.102  1.00  0.00    -0.072 C  
ENDBRANCH   3   6
BRANCH   5   8
HETATM    8  C   UNL     1     -10.630  15.041  68.621  1.00  0.00    -0.237 C  
HETATM    9  C   UNL     1     -10.936  13.963  69.675  1.00  0.00    -0.052 C  
HETATM   10  C   UNL     1     -11.550  15.320  69.819  1.00  0.00    -0.335 C  
BRANCH   8  11
HETATM   11  C   UNL     1     -11.071  14.674  67.196  1.00  0.00    -0.328 A  
HETATM   12  C   UNL     1     -10.706  15.511  66.122  1.00  0.00    -0.315 A  
HETATM   13  C   UNL     1     -11.275  15.374  64.853  1.00  0.00    -0.410 A  
HETATM   14  C   UNL     1     -11.965  13.629  66.906  1.00  0.00    -0.454 A  
HETATM   15  C   UNL     1     -12.214  14.377  64.620  1.00  0.00    -0.479 A  
HETATM   16  C   UNL     1     -12.543  13.489  65.639  1.00  0.00    -0.512 A  
ENDBRANCH   8  11
BRANCH  10  17
HETATM   17  C   UNL     1     -13.031  15.446  69.792  1.00  0.00     0.261 C  
HETATM   18  N   UNL     1     -13.521  15.472  71.166  1.00  0.00    -0.618 NA 
HETATM   19  H2  UNL     1     -13.077  16.200  71.726  1.00  0.00     0.000 HD 
HETATM   20  H1  UNL     1     -14.537  15.558  71.147  1.00  0.00     0.000 HD 
ENDBRANCH  10  17
ENDBRANCH   5   8
ENDBRANCH   2   3
TORSDOF 5
ENDMDL
MODEL      145
REMARK 921   NORMALIZED FREE ENERGY PREDICTED BY IDOCK:   -3.43 KCAL/MOL
REMARK 922        TOTAL FREE ENERGY PREDICTED BY IDOCK:   -4.83 KCAL/MOL
REMARK 923 INTER-LIGAND FREE ENERGY PREDICTED BY IDOCK:   -4.55 KCAL/MOL
REMARK 924 INTRA-LIGAND FREE ENERGY PREDICTED BY IDOCK:   -0.28 KCAL/MOL
REMARK 927      BINDING AFFINITY PREDICTED BY RF-SCORE:    0.00 PKD
ROOT
HETATM    1  C   UNL     1      -9.816  14.638  66.429  1.00  0.00    -0.302 C  
HETATM    2  C   UNL     1     -10.036  13.155  66.183  1.00  0.00    -0.291 C  
ENDROOT
BRANCH   2   3
HETATM    3  N   UNL     1      -9.652  12.317  67.321  1.00  0.00    -0.184 N  
HETATM    4  O   UNL     1     -11.308  10.786  66.783  1.00  0.00    -0.248 OA 
HETATM    5  C   UNL     1     -10.404  11.148  67.533  1.00  0.00    -0.196 C  
BRANCH   3   6
HETATM    6  C   UNL     1      -8.813  12.874  68.385  1.00  0.00    -0.120 C  
HETATM    7  C   UNL     1      -7.323  13.017  68.123  1.00  0.00    -0.118 C  
ENDBRANCH   3   6
BRANCH   5   8
HETATM    8  C   UNL     1     -10.066  10.267  68.744  1.00  0.00    -0.198 C  
HETATM    9  C   UNL     1      -9.653   8.817  68.439  1.00  0.00    -0.157 C  
HETATM   10  C   UNL     1      -8.602   9.811  68.821  1.00  0.00    -0.127 C  
BRANCH   8  11
HETATM   11  C   UNL     1     -11.042  10.411  69.922  1.00  0.00    -0.367 A  
HETATM   12  C   UNL     1     -11.414   9.265  70.655  1.00  0.00    -0.327 A  
HETATM   13  C   UNL     1     -12.472   9.284  71.567  1.00  0.00    -0.435 A  
HETATM   14  C   UNL     1     -11.725  11.602  70.223  1.00  0.00    -0.355 A  
HETATM   15  C   UNL     1     -13.178  10.462  71.785  1.00  0.00    -0.529 A  
HETATM   16  C   UNL     1     -12.790  11.627  71.131  1.00  0.00    -0.392 A  
ENDBRANCH   8  11
BRANCH  10  17
HETATM   17  C   UNL     1      -7.807   9.578  70.057  1.00  0.00    -0.151 C  
HETATM   18  N   UNL     1      -6.424   9.966  69.799  1.00  0.00    -0.051 NA 
HETATM   19  H2  UNL     1      -6.343  10.923  69.456  1.00  0.00     0.000 HD 
HETATM   20  H1  UNL     1      -5.879   9.806  70.647  1.00  0.00     0.000 HD 
ENDBRANCH  10  17
ENDBRANCH   5   8
ENDBRANCH   2   3
TORSDOF 5
ENDMDL
MODEL      146
REMARK 921   NORMALIZED FREE ENERGY PREDICTED BY IDOCK:   -3.43 KCAL/MOL
REMARK 922        TOTAL FREE ENERGY PREDICTED BY IDOCK:   -4.83 KCAL/MOL
REMARK 923 INTER-LIGAND FREE ENERGY PREDICTED BY IDOCK:   -4.53 KCAL/MOL
REMARK 924 INTRA-LIGAND FREE ENERGY PREDICTED BY IDOCK:   -0.29 KCAL/MOL
REMARK 927      BINDING AFFINITY PREDICTED BY RF-SCORE:    0.00 PKD
ROOT
HETATM    1  C   UNL     1     -10.633  12.208  65.257  1.00  0.00    -0.319 C  
HETATM    2  C   UNL     1     -11.400  11.827  66.512  1.00  0.00    -0.305 C  
ENDROOT
BRANCH   2   3
HETATM    3  N   UNL     1     -10.533  11.398  67.611  1.00  0.00    -0.188 N  
HETATM    4  O   UNL     1     -10.642   9.203  66.870  1.00  0.00    -0.238 OA 
HETATM    5  C   UNL     1     -10.247  10.023  67.696  1.00  0.00    -0.204 C  
BRANCH   3   6
HETATM    6  C   UNL     1     -10.320  12.282  68.759  1.00  0.00    -0.135 C  
HETATM    7  C   UNL     1     -11.369  13.342  69.052  1.00  0.00    -0.334 C  
ENDBRANCH   3   6
BRANCH   5   8
HETATM    8  C   UNL     1      -9.382   9.524  68.862  1.00  0.00    -0.149 C  
HETATM    9  C   UNL     1      -8.120   8.731  68.483  1.00  0.00    -0.116 C  
HETATM   10  C   UNL     1      -7.980  10.149  68.938  1.00  0.00    -0.110 C  
BRANCH   8  11
HETATM   11  C   UNL     1     -10.179   8.923  70.029  1.00  0.00    -0.214 A  
HETATM   12  C   UNL     1     -11.267   9.641  70.566  1.00  0.00    -0.359 A  
HETATM   13  C   UNL     1     -11.871   9.272  71.771  1.00  0.00    -0.454 A  
HETATM   14  C   UNL     1      -9.791   7.758  70.715  1.00  0.00    -0.183 A  
HETATM   15  C   UNL     1     -11.412   8.158  72.464  1.00  0.00    -0.470 A  
HETATM   16  C   UNL     1     -10.388   7.387  71.925  1.00  0.00    -0.218 A  
ENDBRANCH   8  11
BRANCH  10  17
HETATM   17  C   UNL     1      -7.201  10.436  70.172  1.00  0.00    -0.083 C  
HETATM   18  N   UNL     1      -6.683  11.797  70.089  1.00  0.00    -0.454 NA 
HETATM   19  H2  UNL     1      -7.416  12.486  69.920  1.00  0.00     0.000 HD 
HETATM   20  H1  UNL     1      -6.149  11.993  70.935  1.00  0.00     0.000 HD 
ENDBRANCH  10  17
ENDBRANCH   5   8
ENDBRANCH   2   3
TORSDOF 5
ENDMDL
MODEL      147
REMARK 921   NORMALIZED FREE ENERGY PREDICTED BY IDOCK:   -3.41 KCAL/MOL
REMARK 922        TOTAL FREE ENERGY PREDICTED BY IDOCK:   -4.80 KCAL/MOL
REMARK 923 INTER-LIGAND FREE ENERGY PREDICTED BY IDOCK:   -4.66 KCAL/MOL
REMARK 924 INTRA-LIGAND FREE ENERGY PREDICTED BY IDOCK:   -0.14 KCAL/MOL
REMARK 927      BINDING AFFINITY PREDICTED BY RF-SCORE:    0.00 PKD
ROOT
HETATM    1  C   UNL     1     -11.667  14.841  64.723  1.00  0.00    -0.422 C  
HETATM    2  C   UNL     1     -12.454  13.736  65.408  1.00  0.00    -0.500 C  
ENDROOT
BRANCH   2   3
HETATM    3  N   UNL     1     -11.652  12.958  66.354  1.00  0.00    -0.351 N  
HETATM    4  O   UNL     1     -11.142  11.421  64.695  1.00  0.00    -0.290 OA 
HETATM    5  C   UNL     1     -11.059  11.779  65.868  1.00  0.00    -0.302 C  
BRANCH   3   6
HETATM    6  C   UNL     1     -11.801  13.186  67.794  1.00  0.00    -0.348 C  
HETATM    7  C   UNL     1     -11.077  14.372  68.411  1.00  0.00    -0.272 C  
ENDBRANCH   3   6
BRANCH   5   8
HETATM    8  C   UNL     1     -10.252  10.908  66.841  1.00  0.00    -0.272 C  
HETATM    9  C   UNL     1     -10.927  10.581  68.184  1.00  0.00    -0.330 C  
HETATM   10  C   UNL     1     -10.859   9.526  67.126  1.00  0.00    -0.156 C  
BRANCH   8  11
HETATM   11  C   UNL     1      -8.770  11.296  66.958  1.00  0.00    -0.152 A  
HETATM   12  C   UNL     1      -7.852  10.818  66.000  1.00  0.00    -0.149 A  
HETATM   13  C   UNL     1      -6.472  10.926  66.184  1.00  0.00    -0.114 A  
HETATM   14  C   UNL     1      -8.231  11.976  68.064  1.00  0.00    -0.156 A  
HETATM   15  C   UNL     1      -5.970  11.536  67.327  1.00  0.00    -0.100 A  
HETATM   16  C   UNL     1      -6.849  12.083  68.257  1.00  0.00    -0.068 A  
ENDBRANCH   8  11
BRANCH  10  17
HETATM   17  C   UNL     1     -10.116   8.270  67.408  1.00  0.00    -0.233 C  
HETATM   18  N   UNL     1      -9.691   7.686  66.140  1.00  0.00    -0.446 NA 
HETATM   19  H2  UNL     1      -9.154   8.338  65.568  1.00  0.00     0.000 HD 
HETATM   20  H1  UNL     1      -9.182   6.824  66.334  1.00  0.00     0.000 HD 
ENDBRANCH  10  17
ENDBRANCH   5   8
ENDBRANCH   2   3
TORSDOF 5
ENDMDL
MODEL      148
REMARK 921   NORMALIZED FREE ENERGY PREDICTED BY IDOCK:   -3.40 KCAL/MOL
REMARK 922        TOTAL FREE ENERGY PREDICTED BY IDOCK:   -4.79 KCAL/MOL
REMARK 923 INTER-LIGAND FREE ENERGY PREDICTED BY IDOCK:   -4.56 KCAL/MOL
REMARK 924 INTRA-LIGAND FREE ENERGY PREDICTED BY IDOCK:   -0.24 KCAL/MOL
REMARK 927      BINDING AFFINITY PREDICTED BY RF-SCORE:    0.00 PKD
ROOT
HETATM    1  C   UNL     1      -7.379  13.815  68.699  1.00  0.00    -0.117 C  
HETATM    2  C   UNL     1      -7.159  12.317  68.827  1.00  0.00    -0.107 C  
ENDROOT
BRANCH   2   3
HETATM    3  N   UNL     1      -7.794  11.547  67.756  1.00  0.00    -0.120 N  
HETATM    4  O   UNL     1      -9.311  10.655  69.266  1.00  0.00    -0.187 OA 
HETATM    5  C   UNL     1      -8.866  10.713  68.121  1.00  0.00    -0.134 C  
BRANCH   3   6
HETATM    6  C   UNL     1      -7.096  11.359  66.481  1.00  0.00    -0.058 C  
HETATM    7  C   UNL     1      -5.599  11.099  66.515  1.00  0.00    -0.127 C  
ENDBRANCH   3   6
BRANCH   5   8
HETATM    8  C   UNL     1      -9.528   9.851  67.037  1.00  0.00    -0.196 C  
HETATM    9  C   UNL     1      -8.644   8.768  66.395  1.00  0.00    -0.138 C  
HETATM   10  C   UNL     1      -9.678   8.365  67.398  1.00  0.00    -0.222 C  
BRANCH   8  11
HETATM   11  C   UNL     1     -10.387  10.640  66.037  1.00  0.00    -0.290 A  
HETATM   12  C   UNL     1     -10.149  10.492  64.655  1.00  0.00    -0.408 A  
HETATM   13  C   UNL     1     -10.717  11.354  63.714  1.00  0.00    -0.470 A  
HETATM   14  C   UNL     1     -11.302  11.636  66.418  1.00  0.00    -0.312 A  
HETATM   15  C   UNL     1     -11.558  12.379  64.131  1.00  0.00    -0.458 A  
HETATM   16  C   UNL     1     -11.870  12.506  65.481  1.00  0.00    -0.491 A  
ENDBRANCH   8  11
BRANCH  10  17
HETATM   17  C   UNL     1     -10.775   7.455  66.975  1.00  0.00    -0.319 C  
HETATM   18  N   UNL     1     -10.208   6.400  66.141  1.00  0.00    -0.404 NA 
HETATM   19  H2  UNL     1      -9.445   5.905  66.602  1.00  0.00     0.000 HD 
HETATM   20  H1  UNL     1     -10.961   5.776  65.851  1.00  0.00     0.000 HD 
ENDBRANCH  10  17
ENDBRANCH   5   8
ENDBRANCH   2   3
TORSDOF 5
ENDMDL
MODEL      149
REMARK 921   NORMALIZED FREE ENERGY PREDICTED BY IDOCK:   -3.40 KCAL/MOL
REMARK 922        TOTAL FREE ENERGY PREDICTED BY IDOCK:   -4.79 KCAL/MOL
REMARK 923 INTER-LIGAND FREE ENERGY PREDICTED BY IDOCK:   -4.30 KCAL/MOL
REMARK 924 INTRA-LIGAND FREE ENERGY PREDICTED BY IDOCK:   -0.48 KCAL/MOL
REMARK 927      BINDING AFFINITY PREDICTED BY RF-SCORE:    0.00 PKD
ROOT
HETATM    1  C   UNL     1      -6.176   9.635  68.951  1.00  0.00    -0.042 C  
HETATM    2  C   UNL     1      -7.282   9.786  67.920  1.00  0.00    -0.084 C  
ENDROOT
BRANCH   2   3
HETATM    3  N   UNL     1      -8.415   8.888  68.153  1.00  0.00    -0.129 N  
HETATM    4  O   UNL     1      -7.475   7.302  66.747  1.00  0.00    -0.088 OA 
HETATM    5  C   UNL     1      -8.404   7.659  67.468  1.00  0.00    -0.120 C  
BRANCH   3   6
HETATM    6  C   UNL     1      -9.652   9.411  68.737  1.00  0.00    -0.154 C  
HETATM    7  C   UNL     1      -9.704   9.614  70.243  1.00  0.00    -0.314 C  
ENDBRANCH   3   6
BRANCH   5   8
HETATM    8  C   UNL     1      -9.596   6.709  67.646  1.00  0.00    -0.135 C  
HETATM    9  C   UNL     1     -10.883   7.082  66.888  1.00  0.00    -0.350 C  
HETATM   10  C   UNL     1     -10.027   5.970  66.370  1.00  0.00    -0.145 C  
BRANCH   8  11
HETATM   11  C   UNL     1      -9.827   6.246  69.092  1.00  0.00    -0.168 A  
HETATM   12  C   UNL     1     -11.130   6.280  69.629  1.00  0.00    -0.479 A  
HETATM   13  C   UNL     1     -11.369   6.111  70.995  1.00  0.00    -0.348 A  
HETATM   14  C   UNL     1      -8.785   5.937  69.983  1.00  0.00    -0.133 A  
HETATM   15  C   UNL     1     -10.307   5.883  71.862  1.00  0.00    -0.255 A  
HETATM   16  C   UNL     1      -9.017   5.772  71.353  1.00  0.00    -0.147 A  
ENDBRANCH   8  11
BRANCH  10  17
HETATM   17  C   UNL     1     -10.599   4.600  66.287  1.00  0.00    -0.103 C  
HETATM   18  N   UNL     1     -11.464   4.527  65.113  1.00  0.00    -1.109 NA 
HETATM   19  H2  UNL     1     -10.984   4.804  64.256  1.00  0.00     0.000 HD 
HETATM   20  H1  UNL     1     -11.856   3.588  65.057  1.00  0.00     0.000 HD 
ENDBRANCH  10  17
ENDBRANCH   5   8
ENDBRANCH   2   3
TORSDOF 5
ENDMDL
MODEL      150
REMARK 921   NORMALIZED FREE ENERGY PREDICTED BY IDOCK:   -3.38 KCAL/MOL
REMARK 922        TOTAL FREE ENERGY PREDICTED BY IDOCK:   -4.77 KCAL/MOL
REMARK 923 INTER-LIGAND FREE ENERGY PREDICTED BY IDOCK:   -4.30 KCAL/MOL
REMARK 924 INTRA-LIGAND FREE ENERGY PREDICTED BY IDOCK:   -0.46 KCAL/MOL
REMARK 927      BINDING AFFINITY PREDICTED BY RF-SCORE:    0.00 PKD
ROOT
HETATM    1  C   UNL     1      -9.548  12.784  67.002  1.00  0.00    -0.229 C  
HETATM    2  C   UNL     1      -9.332  12.218  68.395  1.00  0.00    -0.162 C  
ENDROOT
BRANCH   2   3
HETATM    3  N   UNL     1      -9.935  10.896  68.580  1.00  0.00    -0.182 N  
HETATM    4  O   UNL     1      -7.898   9.880  68.138  1.00  0.00    -0.085 OA 
HETATM    5  C   UNL     1      -9.097   9.783  68.390  1.00  0.00    -0.123 C  
BRANCH   3   6
HETATM    6  C   UNL     1     -11.393  10.752  68.563  1.00  0.00    -0.295 C  
HETATM    7  C   UNL     1     -12.155  11.025  69.849  1.00  0.00    -0.435 C  
ENDBRANCH   3   6
BRANCH   5   8
HETATM    8  C   UNL     1      -9.702   8.378  68.525  1.00  0.00    -0.169 C  
HETATM    9  C   UNL     1     -10.656   7.936  67.403  1.00  0.00    -0.342 C  
HETATM   10  C   UNL     1      -9.267   7.382  67.440  1.00  0.00    -0.146 C  
BRANCH   8  11
HETATM   11  C   UNL     1     -10.189   8.032  69.941  1.00  0.00    -0.204 A  
HETATM   12  C   UNL     1     -11.322   7.208  70.100  1.00  0.00    -0.277 A  
HETATM   13  C   UNL     1     -11.958   7.059  71.334  1.00  0.00    -0.380 A  
HETATM   14  C   UNL     1      -9.669   8.621  71.106  1.00  0.00    -0.287 A  
HETATM   15  C   UNL     1     -11.462   7.718  72.453  1.00  0.00    -0.418 A  
HETATM   16  C   UNL     1     -10.304   8.481  72.345  1.00  0.00    -0.372 A  
ENDBRANCH   8  11
BRANCH  10  17
HETATM   17  C   UNL     1      -9.082   5.915  67.602  1.00  0.00    -0.106 C  
HETATM   18  N   UNL     1      -7.890   5.685  68.414  1.00  0.00    -0.092 NA 
HETATM   19  H2  UNL     1      -7.924   6.177  69.307  1.00  0.00     0.000 HD 
HETATM   20  H1  UNL     1      -7.763   4.680  68.525  1.00  0.00     0.000 HD 
ENDBRANCH  10  17
ENDBRANCH   5   8
ENDBRANCH   2   3
TORSDOF 5
ENDMDL
MODEL      151
REMARK 921   NORMALIZED FREE ENERGY PREDICTED BY IDOCK:   -3.38 KCAL/MOL
REMARK 922        TOTAL FREE ENERGY PREDICTED BY IDOCK:   -4.76 KCAL/MOL
REMARK 923 INTER-LIGAND FREE ENERGY PREDICTED BY IDOCK:   -4.47 KCAL/MOL
REMARK 924 INTRA-LIGAND FREE ENERGY PREDICTED BY IDOCK:   -0.29 KCAL/MOL
REMARK 927      BINDING AFFINITY PREDICTED BY RF-SCORE:    0.00 PKD
ROOT
HETATM    1  C   UNL     1     -12.373  12.832  71.056  1.00  0.00    -0.316 C  
HETATM    2  C   UNL     1     -12.722  11.396  70.706  1.00  0.00    -0.253 C  
ENDROOT
BRANCH   2   3
HETATM    3  N   UNL     1     -11.570  10.617  70.247  1.00  0.00    -0.312 N  
HETATM    4  O   UNL     1     -12.083  11.116  68.041  1.00  0.00    -0.635 OA 
HETATM    5  C   UNL     1     -11.374  10.530  68.856  1.00  0.00    -0.251 C  
BRANCH   3   6
HETATM    6  C   UNL     1     -10.919   9.673  71.158  1.00  0.00    -0.360 C  
HETATM    7  C   UNL     1     -11.790   8.910  72.142  1.00  0.00    -0.417 C  
ENDBRANCH   3   6
BRANCH   5   8
HETATM    8  C   UNL     1     -10.207   9.683  68.331  1.00  0.00    -0.214 C  
HETATM    9  C   UNL     1     -10.403   8.157  68.367  1.00  0.00    -0.236 C  
HETATM   10  C   UNL     1     -10.516   8.877  67.060  1.00  0.00    -0.326 C  
BRANCH   8  11
HETATM   11  C   UNL     1      -8.822  10.152  68.801  1.00  0.00    -0.146 A  
HETATM   12  C   UNL     1      -8.442  11.495  68.602  1.00  0.00    -0.115 A  
HETATM   13  C   UNL     1      -7.124  11.923  68.777  1.00  0.00    -0.111 A  
HETATM   14  C   UNL     1      -7.828   9.280  69.280  1.00  0.00    -0.085 A  
HETATM   15  C   UNL     1      -6.149  11.017  69.177  1.00  0.00    -0.045 A  
HETATM   16  C   UNL     1      -6.505   9.701  69.452  1.00  0.00    -0.044 A  
ENDBRANCH   8  11
BRANCH  10  17
HETATM   17  C   UNL     1      -9.564   8.540  65.968  1.00  0.00    -0.165 C  
HETATM   18  N   UNL     1      -9.690   9.545  64.917  1.00  0.00    -0.438 NA 
HETATM   19  H2  UNL     1      -9.564  10.495  65.266  1.00  0.00     0.000 HD 
HETATM   20  H1  UNL     1      -9.037   9.314  64.168  1.00  0.00     0.000 HD 
ENDBRANCH  10  17
ENDBRANCH   5   8
ENDBRANCH   2   3
TORSDOF 5
ENDMDL
MODEL      152
REMARK 921   NORMALIZED FREE ENERGY PREDICTED BY IDOCK:   -3.36 KCAL/MOL
REMARK 922        TOTAL FREE ENERGY PREDICTED BY IDOCK:   -4.74 KCAL/MOL
REMARK 923 INTER-LIGAND FREE ENERGY PREDICTED BY IDOCK:   -4.44 KCAL/MOL
REMARK 924 INTRA-LIGAND FREE ENERGY PREDICTED BY IDOCK:   -0.31 KCAL/MOL
REMARK 927      BINDING AFFINITY PREDICTED BY RF-SCORE:    0.00 PKD
ROOT
HETATM    1  C   UNL     1     -14.328   8.660  72.134  1.00  0.00    -0.518 C  
HETATM    2  C   UNL     1     -12.914   9.200  72.272  1.00  0.00    -0.420 C  
ENDROOT
BRANCH   2   3
HETATM    3  N   UNL     1     -11.980   8.626  71.301  1.00  0.00    -0.289 N  
HETATM    4  O   UNL     1     -11.445   6.927  72.786  1.00  0.00    -0.235 OA 
HETATM    5  C   UNL     1     -11.270   7.480  71.702  1.00  0.00    -0.243 C  
BRANCH   3   6
HETATM    6  C   UNL     1     -11.530   9.429  70.162  1.00  0.00    -0.138 C  
HETATM    7  C   UNL     1     -11.690  10.938  70.240  1.00  0.00    -0.437 C  
ENDBRANCH   3   6
BRANCH   5   8
HETATM    8  C   UNL     1     -10.244   6.876  70.733  1.00  0.00    -0.212 C  
HETATM    9  C   UNL     1     -10.449   5.399  70.357  1.00  0.00    -0.345 C  
HETATM   10  C   UNL     1     -10.813   6.461  69.368  1.00  0.00    -0.381 C  
BRANCH   8  11
HETATM   11  C   UNL     1      -8.786   7.253  71.039  1.00  0.00    -0.144 A  
HETATM   12  C   UNL     1      -8.240   8.422  70.470  1.00  0.00    -0.113 A  
HETATM   13  C   UNL     1      -6.869   8.688  70.505  1.00  0.00    -0.042 A  
HETATM   14  C   UNL     1      -7.896   6.413  71.730  1.00  0.00    -0.101 A  
HETATM   15  C   UNL     1      -6.006   7.797  71.131  1.00  0.00    -0.034 A  
HETATM   16  C   UNL     1      -6.521   6.671  71.764  1.00  0.00    -0.049 A  
ENDBRANCH   8  11
BRANCH  10  17
HETATM   17  C   UNL     1     -10.105   6.500  68.061  1.00  0.00    -0.150 C  
HETATM   18  N   UNL     1     -11.056   6.162  67.007  1.00  0.00    -0.584 NA 
HETATM   19  H2  UNL     1     -11.884   6.757  67.021  1.00  0.00     0.000 HD 
HETATM   20  H1  UNL     1     -10.570   6.189  66.111  1.00  0.00     0.000 HD 
ENDBRANCH  10  17
ENDBRANCH   5   8
ENDBRANCH   2   3
TORSDOF 5
ENDMDL
MODEL      153
REMARK 921   NORMALIZED FREE ENERGY PREDICTED BY IDOCK:   -3.36 KCAL/MOL
REMARK 922        TOTAL FREE ENERGY PREDICTED BY IDOCK:   -4.74 KCAL/MOL
REMARK 923 INTER-LIGAND FREE ENERGY PREDICTED BY IDOCK:   -4.38 KCAL/MOL
REMARK 924 INTRA-LIGAND FREE ENERGY PREDICTED BY IDOCK:   -0.37 KCAL/MOL
REMARK 927      BINDING AFFINITY PREDICTED BY RF-SCORE:    0.00 PKD
ROOT
HETATM    1  C   UNL     1     -11.543   6.711  70.040  1.00  0.00    -0.423 C  
HETATM    2  C   UNL     1     -10.631   7.432  69.061  1.00  0.00    -0.192 C  
ENDROOT
BRANCH   2   3
HETATM    3  N   UNL     1     -10.638   8.887  69.231  1.00  0.00    -0.226 N  
HETATM    4  O   UNL     1     -10.572   9.177  66.931  1.00  0.00    -0.238 OA 
HETATM    5  C   UNL     1     -10.575   9.664  68.060  1.00  0.00    -0.243 C  
BRANCH   3   6
HETATM    6  C   UNL     1     -10.324   9.469  70.537  1.00  0.00    -0.288 C  
HETATM    7  C   UNL     1      -9.073   8.991  71.254  1.00  0.00    -0.302 C  
ENDBRANCH   3   6
BRANCH   5   8
HETATM    8  C   UNL     1     -10.530  11.192  68.195  1.00  0.00    -0.215 C  
HETATM    9  C   UNL     1     -11.698  11.967  67.562  1.00  0.00    -0.351 C  
HETATM   10  C   UNL     1     -11.656  11.798  69.048  1.00  0.00    -0.372 C  
BRANCH   8  11
HETATM   11  C   UNL     1      -9.148  11.810  67.935  1.00  0.00    -0.181 A  
HETATM   12  C   UNL     1      -7.997  11.166  68.433  1.00  0.00    -0.137 A  
HETATM   13  C   UNL     1      -6.749  11.792  68.447  1.00  0.00    -0.065 A  
HETATM   14  C   UNL     1      -8.962  13.080  67.361  1.00  0.00    -0.204 A  
HETATM   15  C   UNL     1      -6.614  13.080  67.941  1.00  0.00    -0.131 A  
HETATM   16  C   UNL     1      -7.715  13.716  67.377  1.00  0.00    -0.156 A  
ENDBRANCH   8  11
BRANCH  10  17
HETATM   17  C   UNL     1     -11.566  13.007  69.908  1.00  0.00    -0.179 C  
HETATM   18  N   UNL     1     -12.365  14.068  69.302  1.00  0.00    -0.472 NA 
HETATM   19  H2  UNL     1     -13.328  13.782  69.128  1.00  0.00     0.000 HD 
HETATM   20  H1  UNL     1     -12.303  14.898  69.892  1.00  0.00     0.000 HD 
ENDBRANCH  10  17
ENDBRANCH   5   8
ENDBRANCH   2   3
TORSDOF 5
ENDMDL
MODEL      154
REMARK 921   NORMALIZED FREE ENERGY PREDICTED BY IDOCK:   -3.36 KCAL/MOL
REMARK 922        TOTAL FREE ENERGY PREDICTED BY IDOCK:   -4.74 KCAL/MOL
REMARK 923 INTER-LIGAND FREE ENERGY PREDICTED BY IDOCK:   -4.46 KCAL/MOL
REMARK 924 INTRA-LIGAND FREE ENERGY PREDICTED BY IDOCK:   -0.28 KCAL/MOL
REMARK 927      BINDING AFFINITY PREDICTED BY RF-SCORE:    0.00 PKD
ROOT
HETATM    1  C   UNL     1      -9.923   5.878  70.597  1.00  0.00    -0.242 C  
HETATM    2  C   UNL     1     -11.202   6.586  70.184  1.00  0.00    -0.377 C  
ENDROOT
BRANCH   2   3
HETATM    3  N   UNL     1     -11.057   8.041  70.105  1.00  0.00    -0.230 N  
HETATM    4  O   UNL     1     -10.373   7.877  67.896  1.00  0.00    -0.208 OA 
HETATM    5  C   UNL     1     -10.596   8.570  68.886  1.00  0.00    -0.144 C  
BRANCH   3   6
HETATM    6  C   UNL     1     -11.007   8.835  71.335  1.00  0.00    -0.289 C  
HETATM    7  C   UNL     1     -12.305   9.070  72.090  1.00  0.00    -0.442 C  
ENDBRANCH   3   6
BRANCH   5   8
HETATM    8  C   UNL     1     -10.382  10.086  68.778  1.00  0.00    -0.216 C  
HETATM    9  C   UNL     1     -11.021  10.779  67.562  1.00  0.00    -0.372 C  
HETATM   10  C   UNL     1     -11.660  10.929  68.907  1.00  0.00    -0.378 C  
BRANCH   8  11
HETATM   11  C   UNL     1      -8.949  10.546  69.085  1.00  0.00    -0.171 A  
HETATM   12  C   UNL     1      -8.401  11.628  68.366  1.00  0.00    -0.157 A  
HETATM   13  C   UNL     1      -7.039  11.935  68.419  1.00  0.00    -0.086 A  
HETATM   14  C   UNL     1      -8.075   9.848  69.937  1.00  0.00    -0.200 A  
HETATM   15  C   UNL     1      -6.188  11.175  69.213  1.00  0.00    -0.066 A  
HETATM   16  C   UNL     1      -6.709  10.146  69.990  1.00  0.00    -0.127 A  
ENDBRANCH   8  11
BRANCH  10  17
HETATM   17  C   UNL     1     -11.772  12.286  69.504  1.00  0.00    -0.332 C  
HETATM   18  N   UNL     1     -12.161  12.147  70.904  1.00  0.00    -0.418 NA 
HETATM   19  H2  UNL     1     -11.529  11.541  71.427  1.00  0.00     0.000 HD 
HETATM   20  H1  UNL     1     -12.238  13.078  71.313  1.00  0.00     0.000 HD 
ENDBRANCH  10  17
ENDBRANCH   5   8
ENDBRANCH   2   3
TORSDOF 5
ENDMDL
MODEL      155
REMARK 921   NORMALIZED FREE ENERGY PREDICTED BY IDOCK:   -3.36 KCAL/MOL
REMARK 922        TOTAL FREE ENERGY PREDICTED BY IDOCK:   -4.73 KCAL/MOL
REMARK 923 INTER-LIGAND FREE ENERGY PREDICTED BY IDOCK:   -4.31 KCAL/MOL
REMARK 924 INTRA-LIGAND FREE ENERGY PREDICTED BY IDOCK:   -0.42 KCAL/MOL
REMARK 927      BINDING AFFINITY PREDICTED BY RF-SCORE:    0.00 PKD
ROOT
HETATM    1  C   UNL     1      -8.293   8.239  64.988  1.00  0.00    -0.158 C  
HETATM    2  C   UNL     1      -8.973   9.496  65.505  1.00  0.00    -0.194 C  
ENDROOT
BRANCH   2   3
HETATM    3  N   UNL     1      -8.969   9.594  66.966  1.00  0.00    -0.134 N  
HETATM    4  O   UNL     1     -11.018   8.512  67.066  1.00  0.00    -0.095 OA 
HETATM    5  C   UNL     1     -10.090   9.078  67.641  1.00  0.00    -0.216 C  
BRANCH   3   6
HETATM    6  C   UNL     1      -8.054  10.524  67.631  1.00  0.00    -0.107 C  
HETATM    7  C   UNL     1      -8.026  11.967  67.155  1.00  0.00    -0.172 C  
ENDBRANCH   3   6
BRANCH   5   8
HETATM    8  C   UNL     1     -10.149   9.205  69.170  1.00  0.00    -0.199 C  
HETATM    9  C   UNL     1     -10.187   7.888  69.963  1.00  0.00    -0.208 C  
HETATM   10  C   UNL     1      -8.913   8.671  69.910  1.00  0.00    -0.149 C  
BRANCH   8  11
HETATM   11  C   UNL     1     -11.127  10.276  69.678  1.00  0.00    -0.323 A  
HETATM   12  C   UNL     1     -11.170  11.532  69.039  1.00  0.00    -0.324 A  
HETATM   13  C   UNL     1     -11.846  12.620  69.597  1.00  0.00    -0.379 A  
HETATM   14  C   UNL     1     -11.880  10.141  70.857  1.00  0.00    -0.468 A  
HETATM   15  C   UNL     1     -12.518  12.473  70.804  1.00  0.00    -0.357 A  
HETATM   16  C   UNL     1     -12.555  11.228  71.424  1.00  0.00    -0.456 A  
ENDBRANCH   8  11
BRANCH  10  17
HETATM   17  C   UNL     1      -8.340   9.198  71.176  1.00  0.00    -0.099 C  
HETATM   18  N   UNL     1      -9.025   8.562  72.297  1.00  0.00    -0.274 NA 
HETATM   19  H2  UNL     1      -8.995   7.544  72.247  1.00  0.00     0.000 HD 
HETATM   20  H1  UNL     1      -8.632   8.924  73.165  1.00  0.00     0.000 HD 
ENDBRANCH  10  17
ENDBRANCH   5   8
ENDBRANCH   2   3
TORSDOF 5
ENDMDL
MODEL      156
REMARK 921   NORMALIZED FREE ENERGY PREDICTED BY IDOCK:   -3.35 KCAL/MOL
REMARK 922        TOTAL FREE ENERGY PREDICTED BY IDOCK:   -4.72 KCAL/MOL
REMARK 923 INTER-LIGAND FREE ENERGY PREDICTED BY IDOCK:   -4.79 KCAL/MOL
REMARK 924 INTRA-LIGAND FREE ENERGY PREDICTED BY IDOCK:    0.06 KCAL/MOL
REMARK 927      BINDING AFFINITY PREDICTED BY RF-SCORE:    0.00 PKD
ROOT
HETATM    1  C   UNL     1     -12.898  14.039  65.274  1.00  0.00    -0.418 C  
HETATM    2  C   UNL     1     -11.398  14.025  65.515  1.00  0.00    -0.313 C  
ENDROOT
BRANCH   2   3
HETATM    3  N   UNL     1     -10.948  12.865  66.288  1.00  0.00    -0.277 N  
HETATM    4  O   UNL     1      -9.586  14.226  67.581  1.00  0.00    -0.212 OA 
HETATM    5  C   UNL     1      -9.997  13.103  67.297  1.00  0.00    -0.230 C  
BRANCH   3   6
HETATM    6  C   UNL     1     -11.174  11.513  65.771  1.00  0.00    -0.164 C  
HETATM    7  C   UNL     1     -10.761  11.216  64.339  1.00  0.00    -0.388 C  
ENDBRANCH   3   6
BRANCH   5   8
HETATM    8  C   UNL     1      -9.462  11.907  68.097  1.00  0.00    -0.195 C  
HETATM    9  C   UNL     1      -8.624  10.883  67.313  1.00  0.00    -0.128 C  
HETATM   10  C   UNL     1      -7.932  11.848  68.223  1.00  0.00    -0.148 C  
BRANCH   8  11
HETATM   11  C   UNL     1     -10.483  11.282  69.061  1.00  0.00    -0.221 A  
HETATM   12  C   UNL     1     -11.584  12.049  69.494  1.00  0.00    -0.389 A  
HETATM   13  C   UNL     1     -12.402  11.634  70.547  1.00  0.00    -0.410 A  
HETATM   14  C   UNL     1     -10.304  10.031  69.675  1.00  0.00    -0.274 A  
HETATM   15  C   UNL     1     -12.151  10.426  71.186  1.00  0.00    -0.487 A  
HETATM   16  C   UNL     1     -11.116   9.612  70.735  1.00  0.00    -0.403 A  
ENDBRANCH   8  11
BRANCH  10  17
HETATM   17  C   UNL     1      -7.155  11.320  69.375  1.00  0.00    -0.090 C  
HETATM   18  N   UNL     1      -5.793  11.044  68.930  1.00  0.00    -0.040 NA 
HETATM   19  H2  UNL     1      -5.350  11.856  68.498  1.00  0.00     0.000 HD 
HETATM   20  H1  UNL     1      -5.260  10.682  69.721  1.00  0.00     0.000 HD 
ENDBRANCH  10  17
ENDBRANCH   5   8
ENDBRANCH   2   3
TORSDOF 5
ENDMDL
MODEL      157
REMARK 921   NORMALIZED FREE ENERGY PREDICTED BY IDOCK:   -3.31 KCAL/MOL
REMARK 922        TOTAL FREE ENERGY PREDICTED BY IDOCK:   -4.67 KCAL/MOL
REMARK 923 INTER-LIGAND FREE ENERGY PREDICTED BY IDOCK:   -4.48 KCAL/MOL
REMARK 924 INTRA-LIGAND FREE ENERGY PREDICTED BY IDOCK:   -0.19 KCAL/MOL
REMARK 927      BINDING AFFINITY PREDICTED BY RF-SCORE:    0.00 PKD
ROOT
HETATM    1  C   UNL     1      -5.698  11.717  66.725  1.00  0.00    -0.113 C  
HETATM    2  C   UNL     1      -6.453  10.412  66.541  1.00  0.00    -0.089 C  
ENDROOT
BRANCH   2   3
HETATM    3  N   UNL     1      -7.904  10.593  66.451  1.00  0.00    -0.138 N  
HETATM    4  O   UNL     1      -7.967  11.350  68.642  1.00  0.00    -0.135 OA 
HETATM    5  C   UNL     1      -8.560  11.051  67.608  1.00  0.00    -0.125 C  
BRANCH   3   6
HETATM    6  C   UNL     1      -8.652   9.954  65.366  1.00  0.00    -0.152 C  
HETATM    7  C   UNL     1      -8.548  10.555  63.974  1.00  0.00    -0.149 C  
ENDBRANCH   3   6
BRANCH   5   8
HETATM    8  C   UNL     1     -10.087  11.206  67.573  1.00  0.00    -0.210 C  
HETATM    9  C   UNL     1     -10.905   9.903  67.585  1.00  0.00    -0.318 C  
HETATM   10  C   UNL     1     -10.814  10.719  68.835  1.00  0.00    -0.269 C  
BRANCH   8  11
HETATM   11  C   UNL     1     -10.593  12.259  66.575  1.00  0.00    -0.263 A  
HETATM   12  C   UNL     1     -11.755  11.996  65.822  1.00  0.00    -0.313 A  
HETATM   13  C   UNL     1     -12.125  12.791  64.734  1.00  0.00    -0.488 A  
HETATM   14  C   UNL     1      -9.875  13.420  66.242  1.00  0.00    -0.295 A  
HETATM   15  C   UNL     1     -11.349  13.889  64.383  1.00  0.00    -0.352 A  
HETATM   16  C   UNL     1     -10.236  14.218  65.151  1.00  0.00    -0.414 A  
ENDBRANCH   8  11
BRANCH  10  17
HETATM   17  C   UNL     1     -12.060  11.286  69.417  1.00  0.00    -0.315 C  
HETATM   18  N   UNL     1     -12.344  10.593  70.670  1.00  0.00    -0.339 NA 
HETATM   19  H2  UNL     1     -11.559  10.624  71.321  1.00  0.00     0.000 HD 
HETATM   20  H1  UNL     1     -13.198  10.982  71.069  1.00  0.00     0.000 HD 
ENDBRANCH  10  17
ENDBRANCH   5   8
ENDBRANCH   2   3
TORSDOF 5
ENDMDL
MODEL      158
REMARK 921   NORMALIZED FREE ENERGY PREDICTED BY IDOCK:   -3.30 KCAL/MOL
REMARK 922        TOTAL FREE ENERGY PREDICTED BY IDOCK:   -4.66 KCAL/MOL
REMARK 923 INTER-LIGAND FREE ENERGY PREDICTED BY IDOCK:   -4.27 KCAL/MOL
REMARK 924 INTRA-LIGAND FREE ENERGY PREDICTED BY IDOCK:   -0.39 KCAL/MOL
REMARK 927      BINDING AFFINITY PREDICTED BY RF-SCORE:    0.00 PKD
ROOT
HETATM    1  C   UNL     1     -11.795   9.542  71.536  1.00  0.00    -0.478 C  
HETATM    2  C   UNL     1     -10.976   8.298  71.838  1.00  0.00    -0.287 C  
ENDROOT
BRANCH   2   3
HETATM    3  N   UNL     1     -10.288   7.761  70.662  1.00  0.00    -0.201 N  
HETATM    4  O   UNL     1     -12.124   6.433  70.167  1.00  0.00    -0.266 OA 
HETATM    5  C   UNL     1     -10.976   6.791  69.910  1.00  0.00    -0.291 C  
BRANCH   3   6
HETATM    6  C   UNL     1      -8.839   7.929  70.526  1.00  0.00    -0.141 C  
HETATM    7  C   UNL     1      -8.296   9.335  70.333  1.00  0.00    -0.224 C  
ENDBRANCH   3   6
BRANCH   5   8
HETATM    8  C   UNL     1     -10.271   6.166  68.699  1.00  0.00    -0.220 C  
HETATM    9  C   UNL     1     -10.972   6.336  67.340  1.00  0.00    -0.447 C  
HETATM   10  C   UNL     1      -9.772   7.173  67.652  1.00  0.00    -0.172 C  
BRANCH   8  11
HETATM   11  C   UNL     1      -9.713   4.756  68.949  1.00  0.00    -0.244 A  
HETATM   12  C   UNL     1      -9.600   3.856  67.870  1.00  0.00    -0.193 A  
HETATM   13  C   UNL     1      -9.339   2.498  68.067  1.00  0.00    -0.254 A  
HETATM   14  C   UNL     1      -9.454   4.241  70.231  1.00  0.00    -0.245 A  
HETATM   15  C   UNL     1      -9.163   2.006  69.355  1.00  0.00    -0.181 A  
HETATM   16  C   UNL     1      -9.197   2.881  70.436  1.00  0.00    -0.211 A  
ENDBRANCH   8  11
BRANCH  10  17
HETATM   17  C   UNL     1      -8.561   7.042  66.799  1.00  0.00    -0.120 C  
HETATM   18  N   UNL     1      -8.044   8.377  66.518  1.00  0.00    -0.099 NA 
HETATM   19  H2  UNL     1      -7.868   8.916  67.366  1.00  0.00     0.000 HD 
HETATM   20  H1  UNL     1      -7.213   8.287  65.933  1.00  0.00     0.000 HD 
ENDBRANCH  10  17
ENDBRANCH   5   8
ENDBRANCH   2   3
TORSDOF 5
ENDMDL
MODEL      159
REMARK 921   NORMALIZED FREE ENERGY PREDICTED BY IDOCK:   -3.30 KCAL/MOL
REMARK 922        TOTAL FREE ENERGY PREDICTED BY IDOCK:   -4.66 KCAL/MOL
REMARK 923 INTER-LIGAND FREE ENERGY PREDICTED BY IDOCK:   -4.15 KCAL/MOL
REMARK 924 INTRA-LIGAND FREE ENERGY PREDICTED BY IDOCK:   -0.51 KCAL/MOL
REMARK 927      BINDING AFFINITY PREDICTED BY RF-SCORE:    0.00 PKD
ROOT
HETATM    1  C   UNL     1     -13.888   7.331  71.508  1.00  0.00    -0.463 C  
HETATM    2  C   UNL     1     -12.493   6.740  71.389  1.00  0.00    -0.329 C  
ENDROOT
BRANCH   2   3
HETATM    3  N   UNL     1     -11.542   7.636  70.728  1.00  0.00    -0.284 N  
HETATM    4  O   UNL     1     -11.374   6.174  68.936  1.00  0.00    -0.367 OA 
HETATM    5  C   UNL     1     -11.022   7.213  69.491  1.00  0.00    -0.191 C  
BRANCH   3   6
HETATM    6  C   UNL     1     -10.882   8.693  71.499  1.00  0.00    -0.282 C  
HETATM    7  C   UNL     1     -10.125   8.299  72.756  1.00  0.00    -0.333 C  
ENDBRANCH   3   6
BRANCH   5   8
HETATM    8  C   UNL     1      -9.984   8.099  68.790  1.00  0.00    -0.198 C  
HETATM    9  C   UNL     1     -10.353   8.595  67.381  1.00  0.00    -0.353 C  
HETATM   10  C   UNL     1     -10.438   9.545  68.534  1.00  0.00    -0.247 C  
BRANCH   8  11
HETATM   11  C   UNL     1      -8.535   7.607  68.926  1.00  0.00    -0.129 A  
HETATM   12  C   UNL     1      -7.660   7.720  67.827  1.00  0.00    -0.113 A  
HETATM   13  C   UNL     1      -6.421   7.075  67.802  1.00  0.00    -0.051 A  
HETATM   14  C   UNL     1      -8.061   6.894  70.041  1.00  0.00    -0.125 A  
HETATM   15  C   UNL     1      -6.014   6.313  68.891  1.00  0.00    -0.021 A  
HETATM   16  C   UNL     1      -6.823   6.241  70.020  1.00  0.00    -0.058 A  
ENDBRANCH   8  11
BRANCH  10  17
HETATM   17  C   UNL     1      -9.578  10.758  68.532  1.00  0.00    -0.183 C  
HETATM   18  N   UNL     1     -10.321  11.854  69.147  1.00  0.00    -0.420 NA 
HETATM   19  H2  UNL     1     -10.665  11.620  70.078  1.00  0.00     0.000 HD 
HETATM   20  H1  UNL     1      -9.731  12.686  69.145  1.00  0.00     0.000 HD 
ENDBRANCH  10  17
ENDBRANCH   5   8
ENDBRANCH   2   3
TORSDOF 5
ENDMDL
MODEL      160
REMARK 921   NORMALIZED FREE ENERGY PREDICTED BY IDOCK:   -3.28 KCAL/MOL
REMARK 922        TOTAL FREE ENERGY PREDICTED BY IDOCK:   -4.64 KCAL/MOL
REMARK 923 INTER-LIGAND FREE ENERGY PREDICTED BY IDOCK:   -4.60 KCAL/MOL
REMARK 924 INTRA-LIGAND FREE ENERGY PREDICTED BY IDOCK:   -0.04 KCAL/MOL
REMARK 927      BINDING AFFINITY PREDICTED BY RF-SCORE:    0.00 PKD
ROOT
HETATM    1  C   UNL     1      -9.363   4.155  68.887  1.00  0.00    -0.228 C  
HETATM    2  C   UNL     1      -9.482   5.524  68.240  1.00  0.00    -0.115 C  
ENDROOT
BRANCH   2   3
HETATM    3  N   UNL     1      -9.440   6.624  69.205  1.00  0.00    -0.142 N  
HETATM    4  O   UNL     1     -11.750   6.576  69.396  1.00  0.00    -0.295 OA 
HETATM    5  C   UNL     1     -10.674   7.087  69.697  1.00  0.00    -0.241 C  
BRANCH   3   6
HETATM    6  C   UNL     1      -8.228   7.438  69.329  1.00  0.00    -0.131 C  
HETATM    7  C   UNL     1      -7.142   7.271  68.280  1.00  0.00    -0.081 C  
ENDBRANCH   3   6
BRANCH   5   8
HETATM    8  C   UNL     1     -10.677   8.272  70.672  1.00  0.00    -0.240 C  
HETATM    9  C   UNL     1     -10.107   9.597  70.137  1.00  0.00    -0.311 C  
HETATM   10  C   UNL     1     -11.590   9.439  70.266  1.00  0.00    -0.181 C  
BRANCH   8  11
HETATM   11  C   UNL     1     -10.224   7.920  72.098  1.00  0.00    -0.286 A  
HETATM   12  C   UNL     1      -8.997   8.423  72.577  1.00  0.00    -0.308 A  
HETATM   13  C   UNL     1      -8.415   7.948  73.754  1.00  0.00    -0.309 A  
HETATM   14  C   UNL     1     -10.884   6.984  72.912  1.00  0.00    -0.334 A  
HETATM   15  C   UNL     1      -9.058   6.965  74.498  1.00  0.00    -0.223 A  
HETATM   16  C   UNL     1     -10.304   6.499  74.090  1.00  0.00    -0.351 A  
ENDBRANCH   8  11
BRANCH  10  17
HETATM   17  C   UNL     1     -12.333  10.346  71.181  1.00  0.00    -0.400 C  
HETATM   18  N   UNL     1     -12.161  11.718  70.715  1.00  0.00    -0.421 NA 
HETATM   19  H2  UNL     1     -12.433  11.838  69.739  1.00  0.00     0.000 HD 
HETATM   20  H1  UNL     1     -12.671  12.340  71.343  1.00  0.00     0.000 HD 
ENDBRANCH  10  17
ENDBRANCH   5   8
ENDBRANCH   2   3
TORSDOF 5
ENDMDL
MODEL      161
REMARK 921   NORMALIZED FREE ENERGY PREDICTED BY IDOCK:   -3.28 KCAL/MOL
REMARK 922        TOTAL FREE ENERGY PREDICTED BY IDOCK:   -4.63 KCAL/MOL
REMARK 923 INTER-LIGAND FREE ENERGY PREDICTED BY IDOCK:   -4.50 KCAL/MOL
REMARK 924 INTRA-LIGAND FREE ENERGY PREDICTED BY IDOCK:   -0.13 KCAL/MOL
REMARK 927      BINDING AFFINITY PREDICTED BY RF-SCORE:    0.00 PKD
ROOT
HETATM    1  C   UNL     1      -7.298   9.363  68.829  1.00  0.00    -0.074 C  
HETATM    2  C   UNL     1      -8.451   9.997  69.588  1.00  0.00    -0.180 C  
ENDROOT
BRANCH   2   3
HETATM    3  N   UNL     1      -9.468   9.029  70.006  1.00  0.00    -0.176 N  
HETATM    4  O   UNL     1      -8.485   8.865  72.099  1.00  0.00    -0.382 OA 
HETATM    5  C   UNL     1      -9.352   8.505  71.306  1.00  0.00    -0.203 C  
BRANCH   3   6
HETATM    6  C   UNL     1     -10.296   8.362  68.998  1.00  0.00    -0.218 C  
HETATM    7  C   UNL     1     -10.725   9.162  67.779  1.00  0.00    -0.243 C  
ENDBRANCH   3   6
BRANCH   5   8
HETATM    8  C   UNL     1     -10.368   7.450  71.766  1.00  0.00    -0.215 C  
HETATM    9  C   UNL     1     -11.125   7.756  73.070  1.00  0.00    -0.419 C  
HETATM   10  C   UNL     1     -11.831   7.919  71.761  1.00  0.00    -0.333 C  
BRANCH   8  11
HETATM   11  C   UNL     1      -9.872   6.001  71.649  1.00  0.00    -0.196 A  
HETATM   12  C   UNL     1      -8.727   5.602  72.367  1.00  0.00    -0.128 A  
HETATM   13  C   UNL     1      -8.086   4.386  72.117  1.00  0.00    -0.099 A  
HETATM   14  C   UNL     1     -10.399   5.072  70.734  1.00  0.00    -0.265 A  
HETATM   15  C   UNL     1      -8.589   3.523  71.150  1.00  0.00    -0.109 A  
HETATM   16  C   UNL     1      -9.759   3.855  70.474  1.00  0.00    -0.247 A  
ENDBRANCH   8  11
BRANCH  10  17
HETATM   17  C   UNL     1     -13.030   7.085  71.481  1.00  0.00    -0.359 C  
HETATM   18  N   UNL     1     -14.167   7.970  71.247  1.00  0.00    -0.649 NA 
HETATM   19  H2  UNL     1     -13.986   8.653  70.512  1.00  0.00     0.000 HD 
HETATM   20  H1  UNL     1     -14.989   7.397  71.056  1.00  0.00     0.000 HD 
ENDBRANCH  10  17
ENDBRANCH   5   8
ENDBRANCH   2   3
TORSDOF 5
ENDMDL
MODEL      162
REMARK 921   NORMALIZED FREE ENERGY PREDICTED BY IDOCK:   -3.26 KCAL/MOL
REMARK 922        TOTAL FREE ENERGY PREDICTED BY IDOCK:   -4.61 KCAL/MOL
REMARK 923 INTER-LIGAND FREE ENERGY PREDICTED BY IDOCK:   -4.30 KCAL/MOL
REMARK 924 INTRA-LIGAND FREE ENERGY PREDICTED BY IDOCK:   -0.31 KCAL/MOL
REMARK 927      BINDING AFFINITY PREDICTED BY RF-SCORE:    0.00 PKD
ROOT
HETATM    1  C   UNL     1      -5.290  10.697  66.200  1.00  0.00    -0.091 C  
HETATM    2  C   UNL     1      -6.087  11.016  67.453  1.00  0.00    -0.057 C  
ENDROOT
BRANCH   2   3
HETATM    3  N   UNL     1      -7.196  10.087  67.683  1.00  0.00    -0.087 N  
HETATM    4  O   UNL     1      -8.708  11.664  66.906  1.00  0.00    -0.172 OA 
HETATM    5  C   UNL     1      -8.489  10.555  67.389  1.00  0.00    -0.122 C  
BRANCH   3   6
HETATM    6  C   UNL     1      -6.997   8.913  68.537  1.00  0.00    -0.065 C  
HETATM    7  C   UNL     1      -6.224   7.735  67.967  1.00  0.00    -0.046 C  
ENDBRANCH   3   6
BRANCH   5   8
HETATM    8  C   UNL     1      -9.684   9.631  67.664  1.00  0.00    -0.182 C  
HETATM    9  C   UNL     1     -10.603   9.333  66.467  1.00  0.00    -0.117 C  
HETATM   10  C   UNL     1      -9.640   8.284  66.925  1.00  0.00    -0.269 C  
BRANCH   8  11
HETATM   11  C   UNL     1     -10.429   9.931  68.973  1.00  0.00    -0.227 A  
HETATM   12  C   UNL     1     -10.247   9.081  70.083  1.00  0.00    -0.224 A  
HETATM   13  C   UNL     1     -11.071   9.151  71.208  1.00  0.00    -0.405 A  
HETATM   14  C   UNL     1     -11.420  10.921  69.092  1.00  0.00    -0.373 A  
HETATM   15  C   UNL     1     -12.093  10.092  71.262  1.00  0.00    -0.487 A  
HETATM   16  C   UNL     1     -12.253  10.992  70.214  1.00  0.00    -0.447 A  
ENDBRANCH   8  11
BRANCH  10  17
HETATM   17  C   UNL     1     -10.170   6.984  67.416  1.00  0.00    -0.215 C  
HETATM   18  N   UNL     1     -11.496   6.777  66.841  1.00  0.00    -0.717 NA 
HETATM   19  H2  UNL     1     -11.494   6.839  65.822  1.00  0.00     0.000 HD 
HETATM   20  H1  UNL     1     -11.859   5.885  67.177  1.00  0.00     0.000 HD 
ENDBRANCH  10  17
ENDBRANCH   5   8
ENDBRANCH   2   3
TORSDOF 5
ENDMDL
MODEL      163
REMARK 921   NORMALIZED FREE ENERGY PREDICTED BY IDOCK:   -3.26 KCAL/MOL
REMARK 922        TOTAL FREE ENERGY PREDICTED BY IDOCK:   -4.61 KCAL/MOL
REMARK 923 INTER-LIGAND FREE ENERGY PREDICTED BY IDOCK:   -4.46 KCAL/MOL
REMARK 924 INTRA-LIGAND FREE ENERGY PREDICTED BY IDOCK:   -0.14 KCAL/MOL
REMARK 927      BINDING AFFINITY PREDICTED BY RF-SCORE:    0.00 PKD
ROOT
HETATM    1  C   UNL     1     -10.678   5.456  66.678  1.00  0.00    -0.309 C  
HETATM    2  C   UNL     1      -9.706   5.805  67.793  1.00  0.00    -0.119 C  
ENDROOT
BRANCH   2   3
HETATM    3  N   UNL     1      -9.828   7.190  68.252  1.00  0.00    -0.148 N  
HETATM    4  O   UNL     1      -7.872   7.755  67.143  1.00  0.00    -0.109 OA 
HETATM    5  C   UNL     1      -8.806   8.079  67.873  1.00  0.00    -0.130 C  
BRANCH   3   6
HETATM    6  C   UNL     1     -10.734   7.514  69.357  1.00  0.00    -0.193 C  
HETATM    7  C   UNL     1     -11.326   6.366  70.158  1.00  0.00    -0.485 C  
ENDBRANCH   3   6
BRANCH   5   8
HETATM    8  C   UNL     1      -8.870   9.528  68.375  1.00  0.00    -0.124 C  
HETATM    9  C   UNL     1      -8.797   9.725  69.899  1.00  0.00    -0.248 C  
HETATM   10  C   UNL     1      -7.592  10.027  69.066  1.00  0.00    -0.090 C  
BRANCH   8  11
HETATM   11  C   UNL     1      -9.929  10.394  67.677  1.00  0.00    -0.205 A  
HETATM   12  C   UNL     1      -9.819  10.639  66.293  1.00  0.00    -0.263 A  
HETATM   13  C   UNL     1     -10.596  11.607  65.652  1.00  0.00    -0.324 A  
HETATM   14  C   UNL     1     -10.929  11.102  68.366  1.00  0.00    -0.277 A  
HETATM   15  C   UNL     1     -11.523  12.345  66.378  1.00  0.00    -0.427 A  
HETATM   16  C   UNL     1     -11.706  12.077  67.731  1.00  0.00    -0.379 A  
ENDBRANCH   8  11
BRANCH  10  17
HETATM   17  C   UNL     1      -7.058  11.415  69.051  1.00  0.00    -0.117 C  
HETATM   18  N   UNL     1      -6.461  11.698  70.352  1.00  0.00    -0.515 NA 
HETATM   19  H2  UNL     1      -5.756  11.011  70.618  1.00  0.00     0.000 HD 
HETATM   20  H1  UNL     1      -6.096  12.650  70.341  1.00  0.00     0.000 HD 
ENDBRANCH  10  17
ENDBRANCH   5   8
ENDBRANCH   2   3
TORSDOF 5
ENDMDL
MODEL      164
REMARK 921   NORMALIZED FREE ENERGY PREDICTED BY IDOCK:   -3.25 KCAL/MOL
REMARK 922        TOTAL FREE ENERGY PREDICTED BY IDOCK:   -4.60 KCAL/MOL
REMARK 923 INTER-LIGAND FREE ENERGY PREDICTED BY IDOCK:   -5.05 KCAL/MOL
REMARK 924 INTRA-LIGAND FREE ENERGY PREDICTED BY IDOCK:    0.45 KCAL/MOL
REMARK 927      BINDING AFFINITY PREDICTED BY RF-SCORE:    0.00 PKD
ROOT
HETATM    1  C   UNL     1      -9.970   9.587  70.084  1.00  0.00    -0.285 C  
HETATM    2  C   UNL     1     -11.074  10.036  69.141  1.00  0.00    -0.190 C  
ENDROOT
BRANCH   2   3
HETATM    3  N   UNL     1     -11.242  11.490  69.100  1.00  0.00    -0.254 N  
HETATM    4  O   UNL     1     -10.095  11.589  67.087  1.00  0.00    -0.194 OA 
HETATM    5  C   UNL     1     -10.667  12.166  68.009  1.00  0.00    -0.213 C  
BRANCH   3   6
HETATM    6  C   UNL     1     -11.628  12.213  70.314  1.00  0.00    -0.017 C  
HETATM    7  C   UNL     1     -12.668  11.581  71.224  1.00  0.00    -0.469 C  
ENDBRANCH   3   6
BRANCH   5   8
HETATM    8  C   UNL     1     -10.778  13.697  67.954  1.00  0.00    -0.257 C  
HETATM    9  C   UNL     1     -12.037  14.265  67.277  1.00  0.00    -0.390 C  
HETATM   10  C   UNL     1     -11.936  14.289  68.770  1.00  0.00    -0.346 C  
BRANCH   8  11
HETATM   11  C   UNL     1      -9.475  14.412  67.564  1.00  0.00    -0.207 A  
HETATM   12  C   UNL     1      -8.344  14.290  68.397  1.00  0.00    -0.164 A  
HETATM   13  C   UNL     1      -7.219  15.102  68.236  1.00  0.00    -0.112 A  
HETATM   14  C   UNL     1      -9.380  15.324  66.500  1.00  0.00    -0.309 A  
HETATM   15  C   UNL     1      -7.188  16.049  67.219  1.00  0.00    -0.241 A  
HETATM   16  C   UNL     1      -8.258  16.145  66.336  1.00  0.00    -0.336 A  
ENDBRANCH   8  11
BRANCH  10  17
HETATM   17  C   UNL     1     -11.950  15.601  69.471  1.00  0.00    -0.345 C  
HETATM   18  N   UNL     1     -13.073  15.618  70.402  1.00  0.00    -0.725 NA 
HETATM   19  H2  UNL     1     -13.058  14.829  71.049  1.00  0.00     0.000 HD 
HETATM   20  H1  UNL     1     -13.083  16.518  70.882  1.00  0.00     0.000 HD 
ENDBRANCH  10  17
ENDBRANCH   5   8
ENDBRANCH   2   3
TORSDOF 5
ENDMDL
MODEL      165
REMARK 921   NORMALIZED FREE ENERGY PREDICTED BY IDOCK:   -3.23 KCAL/MOL
REMARK 922        TOTAL FREE ENERGY PREDICTED BY IDOCK:   -4.57 KCAL/MOL
REMARK 923 INTER-LIGAND FREE ENERGY PREDICTED BY IDOCK:   -4.23 KCAL/MOL
REMARK 924 INTRA-LIGAND FREE ENERGY PREDICTED BY IDOCK:   -0.34 KCAL/MOL
REMARK 927      BINDING AFFINITY PREDICTED BY RF-SCORE:    0.00 PKD
ROOT
HETATM    1  C   UNL     1      -9.908   9.014  70.682  1.00  0.00    -0.284 C  
HETATM    2  C   UNL     1     -10.842   9.031  69.484  1.00  0.00    -0.166 C  
ENDROOT
BRANCH   2   3
HETATM    3  N   UNL     1     -10.449  10.003  68.461  1.00  0.00    -0.192 N  
HETATM    4  O   UNL     1      -9.810   8.285  67.041  1.00  0.00    -0.187 OA 
HETATM    5  C   UNL     1      -9.908   9.489  67.269  1.00  0.00    -0.177 C  
BRANCH   3   6
HETATM    6  C   UNL     1     -10.262  11.409  68.826  1.00  0.00    -0.197 C  
HETATM    7  C   UNL     1     -11.483  12.209  69.250  1.00  0.00    -0.363 C  
ENDBRANCH   3   6
BRANCH   5   8
HETATM    8  C   UNL     1      -9.438  10.475  66.191  1.00  0.00    -0.222 C  
HETATM    9  C   UNL     1     -10.241  10.485  64.879  1.00  0.00    -0.371 C  
HETATM   10  C   UNL     1     -10.436  11.596  65.862  1.00  0.00    -0.300 C  
BRANCH   8  11
HETATM   11  C   UNL     1      -7.914  10.524  65.999  1.00  0.00    -0.149 A  
HETATM   12  C   UNL     1      -7.128  11.275  66.896  1.00  0.00    -0.139 A  
HETATM   13  C   UNL     1      -5.785  11.560  66.638  1.00  0.00    -0.139 A  
HETATM   14  C   UNL     1      -7.257   9.992  64.876  1.00  0.00    -0.140 A  
HETATM   15  C   UNL     1      -5.185  11.083  65.479  1.00  0.00    -0.084 A  
HETATM   16  C   UNL     1      -5.914  10.279  64.609  1.00  0.00    -0.130 A  
ENDBRANCH   8  11
BRANCH  10  17
HETATM   17  C   UNL     1     -10.107  12.987  65.452  1.00  0.00    -0.252 C  
HETATM   18  N   UNL     1      -9.989  13.026  63.998  1.00  0.00    -0.734 NA 
HETATM   19  H2  UNL     1     -10.820  12.666  63.528  1.00  0.00     0.000 HD 
HETATM   20  H1  UNL     1      -9.764  13.980  63.716  1.00  0.00     0.000 HD 
ENDBRANCH  10  17
ENDBRANCH   5   8
ENDBRANCH   2   3
TORSDOF 5
ENDMDL
MODEL      166
REMARK 921   NORMALIZED FREE ENERGY PREDICTED BY IDOCK:   -3.23 KCAL/MOL
REMARK 922        TOTAL FREE ENERGY PREDICTED BY IDOCK:   -4.57 KCAL/MOL
REMARK 923 INTER-LIGAND FREE ENERGY PREDICTED BY IDOCK:   -4.19 KCAL/MOL
REMARK 924 INTRA-LIGAND FREE ENERGY PREDICTED BY IDOCK:   -0.37 KCAL/MOL
REMARK 927      BINDING AFFINITY PREDICTED BY RF-SCORE:    0.00 PKD
ROOT
HETATM    1  C   UNL     1      -8.929   9.439  62.331  1.00  0.00    -0.258 C  
HETATM    2  C   UNL     1      -8.575  10.735  63.040  1.00  0.00    -0.162 C  
ENDROOT
BRANCH   2   3
HETATM    3  N   UNL     1      -9.272  10.904  64.316  1.00  0.00    -0.209 N  
HETATM    4  O   UNL     1      -7.315  10.445  65.472  1.00  0.00    -0.145 OA 
HETATM    5  C   UNL     1      -8.518  10.697  65.485  1.00  0.00    -0.175 C  
BRANCH   3   6
HETATM    6  C   UNL     1     -10.737  10.887  64.354  1.00  0.00    -0.180 C  
HETATM    7  C   UNL     1     -11.481  12.105  63.834  1.00  0.00    -0.519 C  
ENDBRANCH   3   6
BRANCH   5   8
HETATM    8  C   UNL     1      -9.222  10.815  66.844  1.00  0.00    -0.172 C  
HETATM    9  C   UNL     1      -8.710  11.919  67.784  1.00  0.00    -0.158 C  
HETATM   10  C   UNL     1     -10.001  12.122  67.056  1.00  0.00    -0.213 C  
BRANCH   8  11
HETATM   11  C   UNL     1      -9.490   9.470  67.537  1.00  0.00    -0.155 A  
HETATM   12  C   UNL     1     -10.228   8.478  66.859  1.00  0.00    -0.375 A  
HETATM   13  C   UNL     1     -10.713   7.344  67.514  1.00  0.00    -0.310 A  
HETATM   14  C   UNL     1      -9.180   9.216  68.884  1.00  0.00    -0.139 A  
HETATM   15  C   UNL     1     -10.454   7.161  68.868  1.00  0.00    -0.218 A  
HETATM   16  C   UNL     1      -9.668   8.085  69.548  1.00  0.00    -0.170 A  
ENDBRANCH   8  11
BRANCH  10  17
HETATM   17  C   UNL     1     -11.251  12.294  67.841  1.00  0.00    -0.274 C  
HETATM   18  N   UNL     1     -10.952  13.101  69.020  1.00  0.00    -0.356 NA 
HETATM   19  H2  UNL     1     -10.513  13.991  68.784  1.00  0.00     0.000 HD 
HETATM   20  H1  UNL     1     -11.810  13.219  69.559  1.00  0.00     0.000 HD 
ENDBRANCH  10  17
ENDBRANCH   5   8
ENDBRANCH   2   3
TORSDOF 5
ENDMDL
MODEL      167
REMARK 921   NORMALIZED FREE ENERGY PREDICTED BY IDOCK:   -3.17 KCAL/MOL
REMARK 922        TOTAL FREE ENERGY PREDICTED BY IDOCK:   -4.49 KCAL/MOL
REMARK 923 INTER-LIGAND FREE ENERGY PREDICTED BY IDOCK:   -4.24 KCAL/MOL
REMARK 924 INTRA-LIGAND FREE ENERGY PREDICTED BY IDOCK:   -0.25 KCAL/MOL
REMARK 927      BINDING AFFINITY PREDICTED BY RF-SCORE:    0.00 PKD
ROOT
HETATM    1  C   UNL     1     -11.647   9.468  71.602  1.00  0.00    -0.451 C  
HETATM    2  C   UNL     1     -10.206   9.022  71.425  1.00  0.00    -0.329 C  
ENDROOT
BRANCH   2   3
HETATM    3  N   UNL     1      -9.910   8.549  70.071  1.00  0.00    -0.177 N  
HETATM    4  O   UNL     1      -8.145  10.045  69.910  1.00  0.00    -0.171 OA 
HETATM    5  C   UNL     1      -8.848   9.178  69.395  1.00  0.00    -0.146 C  
BRANCH   3   6
HETATM    6  C   UNL     1     -10.908   7.766  69.338  1.00  0.00    -0.113 C  
HETATM    7  C   UNL     1     -11.167   6.337  69.786  1.00  0.00    -0.499 C  
ENDBRANCH   3   6
BRANCH   5   8
HETATM    8  C   UNL     1      -8.537   8.747  67.955  1.00  0.00    -0.134 C  
HETATM    9  C   UNL     1      -7.118   8.215  67.695  1.00  0.00    -0.087 C  
HETATM   10  C   UNL     1      -8.256   7.248  67.777  1.00  0.00    -0.119 C  
BRANCH   8  11
HETATM   11  C   UNL     1      -9.057   9.713  66.879  1.00  0.00    -0.160 A  
HETATM   12  C   UNL     1     -10.211  10.480  67.138  1.00  0.00    -0.270 A  
HETATM   13  C   UNL     1     -10.871  11.183  66.127  1.00  0.00    -0.247 A  
HETATM   14  C   UNL     1      -8.543   9.767  65.572  1.00  0.00    -0.158 A  
HETATM   15  C   UNL     1     -10.379  11.153  64.828  1.00  0.00    -0.387 A  
HETATM   16  C   UNL     1      -9.202  10.465  64.554  1.00  0.00    -0.287 A  
ENDBRANCH   8  11
BRANCH  10  17
HETATM   17  C   UNL     1      -8.582   6.417  66.587  1.00  0.00    -0.121 C  
HETATM   18  N   UNL     1     -10.024   6.467  66.368  1.00  0.00    -0.386 NA 
HETATM   19  H2  UNL     1     -10.375   7.422  66.287  1.00  0.00     0.000 HD 
HETATM   20  H1  UNL     1     -10.248   5.898  65.552  1.00  0.00     0.000 HD 
ENDBRANCH  10  17
ENDBRANCH   5   8
ENDBRANCH   2   3
TORSDOF 5
ENDMDL
MODEL      168
REMARK 921   NORMALIZED FREE ENERGY PREDICTED BY IDOCK:   -3.13 KCAL/MOL
REMARK 922        TOTAL FREE ENERGY PREDICTED BY IDOCK:   -4.45 KCAL/MOL
REMARK 923 INTER-LIGAND FREE ENERGY PREDICTED BY IDOCK:   -4.30 KCAL/MOL
REMARK 924 INTRA-LIGAND FREE ENERGY PREDICTED BY IDOCK:   -0.14 KCAL/MOL
REMARK 927      BINDING AFFINITY PREDICTED BY RF-SCORE:    0.00 PKD
ROOT
HETATM    1  C   UNL     1     -11.781  12.896  66.956  1.00  0.00    -0.447 C  
HETATM    2  C   UNL     1     -10.356  12.381  67.077  1.00  0.00    -0.220 C  
ENDROOT
BRANCH   2   3
HETATM    3  N   UNL     1     -10.233  11.230  67.972  1.00  0.00    -0.178 N  
HETATM    4  O   UNL     1      -8.044  10.900  67.282  1.00  0.00    -0.118 OA 
HETATM    5  C   UNL     1      -9.006  10.542  67.958  1.00  0.00    -0.135 C  
BRANCH   3   6
HETATM    6  C   UNL     1     -11.436  10.608  68.530  1.00  0.00    -0.265 C  
HETATM    7  C   UNL     1     -11.878  11.024  69.923  1.00  0.00    -0.431 C  
ENDBRANCH   3   6
BRANCH   5   8
HETATM    8  C   UNL     1      -8.852   9.298  68.845  1.00  0.00    -0.135 C  
HETATM    9  C   UNL     1      -7.525   9.169  69.614  1.00  0.00    -0.078 C  
HETATM   10  C   UNL     1      -8.758   9.587  70.351  1.00  0.00    -0.265 C  
BRANCH   8  11
HETATM   11  C   UNL     1      -9.333   7.992  68.193  1.00  0.00    -0.145 A  
HETATM   12  C   UNL     1      -8.715   7.543  67.009  1.00  0.00    -0.127 A  
HETATM   13  C   UNL     1      -9.259   6.512  66.239  1.00  0.00    -0.160 A  
HETATM   14  C   UNL     1     -10.472   7.288  68.618  1.00  0.00    -0.214 A  
HETATM   15  C   UNL     1     -10.431   5.886  66.648  1.00  0.00    -0.310 A  
HETATM   16  C   UNL     1     -11.026   6.258  67.849  1.00  0.00    -0.421 A  
ENDBRANCH   8  11
BRANCH  10  17
HETATM   17  C   UNL     1      -9.264   8.727  71.454  1.00  0.00    -0.255 C  
HETATM   18  N   UNL     1      -8.292   8.749  72.542  1.00  0.00    -0.399 NA 
HETATM   19  H2  UNL     1      -8.073   9.696  72.853  1.00  0.00     0.000 HD 
HETATM   20  H1  UNL     1      -8.638   8.159  73.298  1.00  0.00     0.000 HD 
ENDBRANCH  10  17
ENDBRANCH   5   8
ENDBRANCH   2   3
TORSDOF 5
ENDMDL
MODEL      169
REMARK 921   NORMALIZED FREE ENERGY PREDICTED BY IDOCK:   -3.13 KCAL/MOL
REMARK 922        TOTAL FREE ENERGY PREDICTED BY IDOCK:   -4.44 KCAL/MOL
REMARK 923 INTER-LIGAND FREE ENERGY PREDICTED BY IDOCK:   -4.15 KCAL/MOL
REMARK 924 INTRA-LIGAND FREE ENERGY PREDICTED BY IDOCK:   -0.28 KCAL/MOL
REMARK 927      BINDING AFFINITY PREDICTED BY RF-SCORE:    0.00 PKD
ROOT
HETATM    1  C   UNL     1     -10.167  15.732  67.039  1.00  0.00    -0.280 C  
HETATM    2  C   UNL     1     -10.475  14.431  67.761  1.00  0.00    -0.245 C  
ENDROOT
BRANCH   2   3
HETATM    3  N   UNL     1      -9.855  13.262  67.135  1.00  0.00    -0.232 N  
HETATM    4  O   UNL     1     -11.943  12.330  66.752  1.00  0.00    -0.586 OA 
HETATM    5  C   UNL     1     -10.718  12.246  66.688  1.00  0.00    -0.245 C  
BRANCH   3   6
HETATM    6  C   UNL     1      -8.427  13.001  67.334  1.00  0.00    -0.200 C  
HETATM    7  C   UNL     1      -7.749  13.613  68.549  1.00  0.00    -0.129 C  
ENDBRANCH   3   6
BRANCH   5   8
HETATM    8  C   UNL     1     -10.106  10.980  66.071  1.00  0.00    -0.297 C  
HETATM    9  C   UNL     1     -10.444  10.709  64.595  1.00  0.00    -0.275 C  
HETATM   10  C   UNL     1      -9.090  11.238  64.948  1.00  0.00    -0.059 C  
BRANCH   8  11
HETATM   11  C   UNL     1     -10.175   9.739  66.973  1.00  0.00    -0.292 A  
HETATM   12  C   UNL     1      -9.972   9.880  68.361  1.00  0.00    -0.177 A  
HETATM   13  C   UNL     1      -9.778   8.776  69.194  1.00  0.00    -0.175 A  
HETATM   14  C   UNL     1     -10.271   8.426  66.480  1.00  0.00    -0.277 A  
HETATM   15  C   UNL     1      -9.802   7.493  68.661  1.00  0.00    -0.169 A  
HETATM   16  C   UNL     1     -10.072   7.316  67.308  1.00  0.00    -0.291 A  
ENDBRANCH   8  11
BRANCH  10  17
HETATM   17  C   UNL     1      -7.892  10.417  64.628  1.00  0.00    -0.077 C  
HETATM   18  N   UNL     1      -8.179   9.618  63.441  1.00  0.00    -0.147 NA 
HETATM   19  H2  UNL     1      -8.486  10.187  62.651  1.00  0.00     0.000 HD 
HETATM   20  H1  UNL     1      -7.357   9.055  63.222  1.00  0.00     0.000 HD 
ENDBRANCH  10  17
ENDBRANCH   5   8
ENDBRANCH   2   3
TORSDOF 5
ENDMDL
MODEL      170
REMARK 921   NORMALIZED FREE ENERGY PREDICTED BY IDOCK:   -3.12 KCAL/MOL
REMARK 922        TOTAL FREE ENERGY PREDICTED BY IDOCK:   -4.43 KCAL/MOL
REMARK 923 INTER-LIGAND FREE ENERGY PREDICTED BY IDOCK:   -4.18 KCAL/MOL
REMARK 924 INTRA-LIGAND FREE ENERGY PREDICTED BY IDOCK:   -0.25 KCAL/MOL
REMARK 927      BINDING AFFINITY PREDICTED BY RF-SCORE:    0.00 PKD
ROOT
HETATM    1  C   UNL     1     -11.477  15.527  69.660  1.00  0.00    -0.337 C  
HETATM    2  C   UNL     1     -11.731  15.053  68.239  1.00  0.00    -0.314 C  
ENDROOT
BRANCH   2   3
HETATM    3  N   UNL     1     -11.233  13.700  67.984  1.00  0.00    -0.255 N  
HETATM    4  O   UNL     1      -9.891  14.491  66.268  1.00  0.00    -0.276 OA 
HETATM    5  C   UNL     1     -10.318  13.546  66.927  1.00  0.00    -0.265 C  
BRANCH   3   6
HETATM    6  C   UNL     1     -11.951  12.545  68.530  1.00  0.00    -0.219 C  
HETATM    7  C   UNL     1     -11.584  12.066  69.925  1.00  0.00    -0.315 C  
ENDBRANCH   3   6
BRANCH   5   8
HETATM    8  C   UNL     1      -9.811  12.136  66.595  1.00  0.00    -0.224 C  
HETATM    9  C   UNL     1     -10.879  11.104  66.194  1.00  0.00    -0.247 C  
HETATM   10  C   UNL     1     -10.012  11.707  65.134  1.00  0.00    -0.297 C  
BRANCH   8  11
HETATM   11  C   UNL     1      -8.748  11.600  67.567  1.00  0.00    -0.156 A  
HETATM   12  C   UNL     1      -8.991  10.397  68.261  1.00  0.00    -0.135 A  
HETATM   13  C   UNL     1      -8.190   9.988  69.330  1.00  0.00    -0.147 A  
HETATM   14  C   UNL     1      -7.601  12.322  67.937  1.00  0.00    -0.127 A  
HETATM   15  C   UNL     1      -7.106  10.766  69.720  1.00  0.00    -0.126 A  
HETATM   16  C   UNL     1      -6.797  11.921  69.010  1.00  0.00    -0.105 A  
ENDBRANCH   8  11
BRANCH  10  17
HETATM   17  C   UNL     1      -9.124  10.817  64.339  1.00  0.00    -0.196 C  
HETATM   18  N   UNL     1      -9.481   9.431  64.624  1.00  0.00    -0.434 NA 
HETATM   19  H2  UNL     1     -10.470   9.240  64.464  1.00  0.00     0.000 HD 
HETATM   20  H1  UNL     1      -8.872   8.821  64.079  1.00  0.00     0.000 HD 
ENDBRANCH  10  17
ENDBRANCH   5   8
ENDBRANCH   2   3
TORSDOF 5
ENDMDL
MODEL      171
REMARK 921   NORMALIZED FREE ENERGY PREDICTED BY IDOCK:   -3.11 KCAL/MOL
REMARK 922        TOTAL FREE ENERGY PREDICTED BY IDOCK:   -4.42 KCAL/MOL
REMARK 923 INTER-LIGAND FREE ENERGY PREDICTED BY IDOCK:   -4.47 KCAL/MOL
REMARK 924 INTRA-LIGAND FREE ENERGY PREDICTED BY IDOCK:    0.05 KCAL/MOL
REMARK 927      BINDING AFFINITY PREDICTED BY RF-SCORE:    0.00 PKD
ROOT
HETATM    1  C   UNL     1      -5.680  21.345  67.364  1.00  0.00    -0.427 C  
HETATM    2  C   UNL     1      -7.098  20.851  67.135  1.00  0.00    -0.351 C  
ENDROOT
BRANCH   2   3
HETATM    3  N   UNL     1      -7.204  19.390  67.121  1.00  0.00    -0.210 N  
HETATM    4  O   UNL     1      -6.801  19.316  69.403  1.00  0.00    -0.312 OA 
HETATM    5  C   UNL     1      -7.001  18.726  68.344  1.00  0.00    -0.257 C  
BRANCH   3   6
HETATM    6  C   UNL     1      -7.123  18.667  65.850  1.00  0.00    -0.255 C  
HETATM    7  C   UNL     1      -6.007  19.032  64.886  1.00  0.00    -0.318 C  
ENDBRANCH   3   6
BRANCH   5   8
HETATM    8  C   UNL     1      -7.054  17.192  68.363  1.00  0.00    -0.206 C  
HETATM    9  C   UNL     1      -5.842  16.461  67.761  1.00  0.00    -0.151 C  
HETATM   10  C   UNL     1      -5.992  16.521  69.248  1.00  0.00    -0.165 C  
BRANCH   8  11
HETATM   11  C   UNL     1      -8.413  16.600  67.958  1.00  0.00    -0.192 A  
HETATM   12  C   UNL     1      -8.457  15.545  67.023  1.00  0.00    -0.266 A  
HETATM   13  C   UNL     1      -9.654  15.134  66.432  1.00  0.00    -0.309 A  
HETATM   14  C   UNL     1      -9.646  17.154  68.343  1.00  0.00    -0.281 A  
HETATM   15  C   UNL     1     -10.848  15.756  66.778  1.00  0.00    -0.254 A  
HETATM   16  C   UNL     1     -10.848  16.750  67.751  1.00  0.00    -0.285 A  
ENDBRANCH   8  11
BRANCH  10  17
HETATM   17  C   UNL     1      -6.142  15.252  70.008  1.00  0.00    -0.150 C  
HETATM   18  N   UNL     1      -5.724  14.146  69.153  1.00  0.00    -0.083 NA 
HETATM   19  H2  UNL     1      -4.781  14.272  68.784  1.00  0.00     0.000 HD 
HETATM   20  H1  UNL     1      -5.827  13.275  69.674  1.00  0.00     0.000 HD 
ENDBRANCH  10  17
ENDBRANCH   5   8
ENDBRANCH   2   3
TORSDOF 5
ENDMDL
MODEL      172
REMARK 921   NORMALIZED FREE ENERGY PREDICTED BY IDOCK:   -3.11 KCAL/MOL
REMARK 922        TOTAL FREE ENERGY PREDICTED BY IDOCK:   -4.41 KCAL/MOL
REMARK 923 INTER-LIGAND FREE ENERGY PREDICTED BY IDOCK:   -4.32 KCAL/MOL
REMARK 924 INTRA-LIGAND FREE ENERGY PREDICTED BY IDOCK:   -0.10 KCAL/MOL
REMARK 927      BINDING AFFINITY PREDICTED BY RF-SCORE:    0.00 PKD
ROOT
HETATM    1  C   UNL     1     -12.699  12.888  71.016  1.00  0.00    -0.338 C  
HETATM    2  C   UNL     1     -12.114  11.764  70.178  1.00  0.00    -0.317 C  
ENDROOT
BRANCH   2   3
HETATM    3  N   UNL     1     -11.213  12.238  69.125  1.00  0.00    -0.250 N  
HETATM    4  O   UNL     1     -10.149  10.178  69.077  1.00  0.00    -0.183 OA 
HETATM    5  C   UNL     1     -10.234  11.335  68.672  1.00  0.00    -0.203 C  
BRANCH   3   6
HETATM    6  C   UNL     1     -11.090  13.674  68.864  1.00  0.00    -0.256 C  
HETATM    7  C   UNL     1     -12.006  14.295  67.823  1.00  0.00    -0.384 C  
ENDBRANCH   3   6
BRANCH   5   8
HETATM    8  C   UNL     1      -9.236  11.809  67.606  1.00  0.00    -0.180 C  
HETATM    9  C   UNL     1      -8.257  12.916  68.032  1.00  0.00    -0.168 C  
HETATM   10  C   UNL     1      -7.763  11.508  67.922  1.00  0.00    -0.120 C  
BRANCH   8  11
HETATM   11  C   UNL     1      -9.849  12.011  66.211  1.00  0.00    -0.250 A  
HETATM   12  C   UNL     1      -9.772  13.278  65.599  1.00  0.00    -0.101 A  
HETATM   13  C   UNL     1     -10.514  13.592  64.458  1.00  0.00    -0.411 A  
HETATM   14  C   UNL     1     -10.634  11.043  65.562  1.00  0.00    -0.267 A  
HETATM   15  C   UNL     1     -11.341  12.634  63.884  1.00  0.00    -0.501 A  
HETATM   16  C   UNL     1     -11.384  11.352  64.422  1.00  0.00    -0.214 A  
ENDBRANCH   8  11
BRANCH  10  17
HETATM   17  C   UNL     1      -6.690  11.197  66.941  1.00  0.00    -0.128 C  
HETATM   18  N   UNL     1      -5.712  10.324  67.584  1.00  0.00    -0.045 NA 
HETATM   19  H2  UNL     1      -6.137   9.485  67.978  1.00  0.00     0.000 HD 
HETATM   20  H1  UNL     1      -4.976  10.111  66.911  1.00  0.00     0.000 HD 
ENDBRANCH  10  17
ENDBRANCH   5   8
ENDBRANCH   2   3
TORSDOF 5
ENDMDL
MODEL      173
REMARK 921   NORMALIZED FREE ENERGY PREDICTED BY IDOCK:   -3.09 KCAL/MOL
REMARK 922        TOTAL FREE ENERGY PREDICTED BY IDOCK:   -4.39 KCAL/MOL
REMARK 923 INTER-LIGAND FREE ENERGY PREDICTED BY IDOCK:   -4.02 KCAL/MOL
REMARK 924 INTRA-LIGAND FREE ENERGY PREDICTED BY IDOCK:   -0.37 KCAL/MOL
REMARK 927      BINDING AFFINITY PREDICTED BY RF-SCORE:    0.00 PKD
ROOT
HETATM    1  C   UNL     1     -12.853   8.678  72.027  1.00  0.00    -0.425 C  
HETATM    2  C   UNL     1     -12.968   7.225  71.599  1.00  0.00    -0.372 C  
ENDROOT
BRANCH   2   3
HETATM    3  N   UNL     1     -11.678   6.534  71.550  1.00  0.00    -0.312 N  
HETATM    4  O   UNL     1     -11.776   6.467  69.234  1.00  0.00    -0.277 OA 
HETATM    5  C   UNL     1     -11.195   6.177  70.278  1.00  0.00    -0.369 C  
BRANCH   3   6
HETATM    6  C   UNL     1     -11.139   5.910  72.761  1.00  0.00    -0.281 C  
HETATM    7  C   UNL     1     -10.368   6.784  73.736  1.00  0.00    -0.397 C  
ENDBRANCH   3   6
BRANCH   5   8
HETATM    8  C   UNL     1      -9.870   5.407  70.185  1.00  0.00    -0.273 C  
HETATM    9  C   UNL     1      -9.869   3.981  70.763  1.00  0.00    -0.233 C  
HETATM   10  C   UNL     1      -9.907   4.167  69.279  1.00  0.00    -0.138 C  
BRANCH   8  11
HETATM   11  C   UNL     1      -8.629   6.237  70.548  1.00  0.00    -0.139 A  
HETATM   12  C   UNL     1      -8.444   7.501  69.952  1.00  0.00    -0.138 A  
HETATM   13  C   UNL     1      -7.233   8.190  70.045  1.00  0.00    -0.056 A  
HETATM   14  C   UNL     1      -7.567   5.744  71.325  1.00  0.00    -0.104 A  
HETATM   15  C   UNL     1      -6.175   7.638  70.758  1.00  0.00    -0.034 A  
HETATM   16  C   UNL     1      -6.349   6.426  71.418  1.00  0.00    -0.045 A  
ENDBRANCH   8  11
BRANCH  10  17
HETATM   17  C   UNL     1      -8.789   3.633  68.458  1.00  0.00    -0.114 C  
HETATM   18  N   UNL     1      -9.329   2.662  67.511  1.00  0.00    -0.318 NA 
HETATM   19  H2  UNL     1     -10.083   3.049  66.942  1.00  0.00     0.000 HD 
HETATM   20  H1  UNL     1      -8.562   2.296  66.948  1.00  0.00     0.000 HD 
ENDBRANCH  10  17
ENDBRANCH   5   8
ENDBRANCH   2   3
TORSDOF 5
ENDMDL
MODEL      174
REMARK 921   NORMALIZED FREE ENERGY PREDICTED BY IDOCK:   -3.07 KCAL/MOL
REMARK 922        TOTAL FREE ENERGY PREDICTED BY IDOCK:   -4.36 KCAL/MOL
REMARK 923 INTER-LIGAND FREE ENERGY PREDICTED BY IDOCK:   -3.87 KCAL/MOL
REMARK 924 INTRA-LIGAND FREE ENERGY PREDICTED BY IDOCK:   -0.50 KCAL/MOL
REMARK 927      BINDING AFFINITY PREDICTED BY RF-SCORE:    0.00 PKD
ROOT
HETATM    1  C   UNL     1     -10.468   5.406  70.534  1.00  0.00    -0.335 C  
HETATM    2  C   UNL     1     -11.401   6.379  69.832  1.00  0.00    -0.434 C  
ENDROOT
BRANCH   2   3
HETATM    3  N   UNL     1     -10.711   7.555  69.298  1.00  0.00    -0.210 N  
HETATM    4  O   UNL     1     -11.029   6.787  67.134  1.00  0.00    -0.363 OA 
HETATM    5  C   UNL     1     -10.563   7.626  67.902  1.00  0.00    -0.168 C  
BRANCH   3   6
HETATM    6  C   UNL     1      -9.888   8.382  70.185  1.00  0.00    -0.181 C  
HETATM    7  C   UNL     1     -10.580   9.139  71.306  1.00  0.00    -0.399 C  
ENDBRANCH   3   6
BRANCH   5   8
HETATM    8  C   UNL     1      -9.802   8.818  67.304  1.00  0.00    -0.260 C  
HETATM    9  C   UNL     1     -10.532   9.612  66.208  1.00  0.00    -0.149 C  
HETATM   10  C   UNL     1     -10.432  10.191  67.583  1.00  0.00    -0.293 C  
BRANCH   8  11
HETATM   11  C   UNL     1      -8.322   8.537  67.000  1.00  0.00    -0.110 A  
HETATM   12  C   UNL     1      -7.706   9.180  65.908  1.00  0.00    -0.095 A  
HETATM   13  C   UNL     1      -6.453   8.788  65.432  1.00  0.00    -0.067 A  
HETATM   14  C   UNL     1      -7.572   7.543  67.652  1.00  0.00    -0.113 A  
HETATM   15  C   UNL     1      -5.770   7.748  66.052  1.00  0.00    -0.037 A  
HETATM   16  C   UNL     1      -6.319   7.141  67.177  1.00  0.00    -0.053 A  
ENDBRANCH   8  11
BRANCH  10  17
HETATM   17  C   UNL     1      -9.711  11.478  67.772  1.00  0.00    -0.174 C  
HETATM   18  N   UNL     1     -10.214  12.118  68.983  1.00  0.00    -0.425 NA 
HETATM   19  H2  UNL     1     -10.153  11.512  69.801  1.00  0.00     0.000 HD 
HETATM   20  H1  UNL     1      -9.720  13.001  69.113  1.00  0.00     0.000 HD 
ENDBRANCH  10  17
ENDBRANCH   5   8
ENDBRANCH   2   3
TORSDOF 5
ENDMDL
MODEL      175
REMARK 921   NORMALIZED FREE ENERGY PREDICTED BY IDOCK:   -3.06 KCAL/MOL
REMARK 922        TOTAL FREE ENERGY PREDICTED BY IDOCK:   -4.34 KCAL/MOL
REMARK 923 INTER-LIGAND FREE ENERGY PREDICTED BY IDOCK:   -4.38 KCAL/MOL
REMARK 924 INTRA-LIGAND FREE ENERGY PREDICTED BY IDOCK:    0.04 KCAL/MOL
REMARK 927      BINDING AFFINITY PREDICTED BY RF-SCORE:    0.00 PKD
ROOT
HETATM    1  C   UNL     1     -12.382  12.045  64.584  1.00  0.00    -0.244 C  
HETATM    2  C   UNL     1     -12.848  13.341  65.225  1.00  0.00    -0.302 C  
ENDROOT
BRANCH   2   3
HETATM    3  N   UNL     1     -11.941  13.827  66.267  1.00  0.00    -0.403 N  
HETATM    4  O   UNL     1     -10.390  14.450  64.660  1.00  0.00    -0.397 OA 
HETATM    5  C   UNL     1     -10.703  14.343  65.844  1.00  0.00    -0.306 C  
BRANCH   3   6
HETATM    6  C   UNL     1     -12.151  13.425  67.661  1.00  0.00    -0.269 C  
HETATM    7  C   UNL     1     -11.717  12.030  68.078  1.00  0.00    -0.398 C  
ENDBRANCH   3   6
BRANCH   5   8
HETATM    8  C   UNL     1      -9.703  14.817  66.908  1.00  0.00    -0.247 C  
HETATM    9  C   UNL     1      -9.101  16.217  66.701  1.00  0.00    -0.278 C  
HETATM   10  C   UNL     1     -10.166  16.027  67.735  1.00  0.00    -0.260 C  
BRANCH   8  11
HETATM   11  C   UNL     1      -8.686  13.750  67.341  1.00  0.00    -0.210 A  
HETATM   12  C   UNL     1      -7.669  14.094  68.255  1.00  0.00    -0.139 A  
HETATM   13  C   UNL     1      -6.580  13.254  68.497  1.00  0.00    -0.089 A  
HETATM   14  C   UNL     1      -8.603  12.475  66.755  1.00  0.00    -0.109 A  
HETATM   15  C   UNL     1      -6.488  12.032  67.841  1.00  0.00    -0.072 A  
HETATM   16  C   UNL     1      -7.511  11.631  66.988  1.00  0.00    -0.150 A  
ENDBRANCH   8  11
BRANCH  10  17
HETATM   17  C   UNL     1      -9.844  16.304  69.160  1.00  0.00    -0.258 C  
HETATM   18  N   UNL     1     -10.310  17.648  69.488  1.00  0.00    -0.251 NA 
HETATM   19  H2  UNL     1     -11.299  17.782  69.277  1.00  0.00     0.000 HD 
HETATM   20  H1  UNL     1     -10.089  17.838  70.465  1.00  0.00     0.000 HD 
ENDBRANCH  10  17
ENDBRANCH   5   8
ENDBRANCH   2   3
TORSDOF 5
ENDMDL
MODEL      176
REMARK 921   NORMALIZED FREE ENERGY PREDICTED BY IDOCK:   -3.04 KCAL/MOL
REMARK 922        TOTAL FREE ENERGY PREDICTED BY IDOCK:   -4.33 KCAL/MOL
REMARK 923 INTER-LIGAND FREE ENERGY PREDICTED BY IDOCK:   -3.93 KCAL/MOL
REMARK 924 INTRA-LIGAND FREE ENERGY PREDICTED BY IDOCK:   -0.40 KCAL/MOL
REMARK 927      BINDING AFFINITY PREDICTED BY RF-SCORE:    0.00 PKD
ROOT
HETATM    1  C   UNL     1      -7.948  10.707  67.720  1.00  0.00    -0.110 C  
HETATM    2  C   UNL     1      -9.265  10.050  68.097  1.00  0.00    -0.128 C  
ENDROOT
BRANCH   2   3
HETATM    3  N   UNL     1      -9.113   8.659  68.528  1.00  0.00    -0.139 N  
HETATM    4  O   UNL     1     -10.879   8.020  67.168  1.00  0.00    -0.278 OA 
HETATM    5  C   UNL     1     -10.023   7.726  67.999  1.00  0.00    -0.175 C  
BRANCH   3   6
HETATM    6  C   UNL     1      -8.332   8.349  69.728  1.00  0.00    -0.125 C  
HETATM    7  C   UNL     1      -8.847   8.849  71.068  1.00  0.00    -0.285 C  
ENDBRANCH   3   6
BRANCH   5   8
HETATM    8  C   UNL     1      -9.931   6.266  68.464  1.00  0.00    -0.163 C  
HETATM    9  C   UNL     1     -10.255   5.193  67.410  1.00  0.00    -0.224 C  
HETATM   10  C   UNL     1      -8.828   5.441  67.784  1.00  0.00    -0.105 C  
BRANCH   8  11
HETATM   11  C   UNL     1     -10.550   6.001  69.845  1.00  0.00    -0.345 A  
HETATM   12  C   UNL     1     -11.700   6.716  70.236  1.00  0.00    -0.432 A  
HETATM   13  C   UNL     1     -12.162   6.706  71.554  1.00  0.00    -0.391 A  
HETATM   14  C   UNL     1      -9.944   5.195  70.825  1.00  0.00    -0.285 A  
HETATM   15  C   UNL     1     -11.494   5.959  72.517  1.00  0.00    -0.347 A  
HETATM   16  C   UNL     1     -10.398   5.185  72.148  1.00  0.00    -0.272 A  
ENDBRANCH   8  11
BRANCH  10  17
HETATM   17  C   UNL     1      -8.041   4.336  68.393  1.00  0.00    -0.081 C  
HETATM   18  N   UNL     1      -6.633   4.718  68.402  1.00  0.00    -0.045 NA 
HETATM   19  H2  UNL     1      -6.473   5.614  68.865  1.00  0.00     0.000 HD 
HETATM   20  H1  UNL     1      -6.093   3.960  68.820  1.00  0.00     0.000 HD 
ENDBRANCH  10  17
ENDBRANCH   5   8
ENDBRANCH   2   3
TORSDOF 5
ENDMDL
MODEL      177
REMARK 921   NORMALIZED FREE ENERGY PREDICTED BY IDOCK:   -3.04 KCAL/MOL
REMARK 922        TOTAL FREE ENERGY PREDICTED BY IDOCK:   -4.32 KCAL/MOL
REMARK 923 INTER-LIGAND FREE ENERGY PREDICTED BY IDOCK:   -4.31 KCAL/MOL
REMARK 924 INTRA-LIGAND FREE ENERGY PREDICTED BY IDOCK:   -0.02 KCAL/MOL
REMARK 927      BINDING AFFINITY PREDICTED BY RF-SCORE:    0.00 PKD
ROOT
HETATM    1  C   UNL     1     -11.679  14.394  69.322  1.00  0.00    -0.358 C  
HETATM    2  C   UNL     1     -11.889  13.598  68.045  1.00  0.00    -0.362 C  
ENDROOT
BRANCH   2   3
HETATM    3  N   UNL     1     -10.764  12.718  67.722  1.00  0.00    -0.217 N  
HETATM    4  O   UNL     1     -12.151  10.864  67.842  1.00  0.00    -0.527 OA 
HETATM    5  C   UNL     1     -11.028  11.337  67.679  1.00  0.00    -0.259 C  
BRANCH   3   6
HETATM    6  C   UNL     1      -9.392  13.218  67.840  1.00  0.00    -0.214 C  
HETATM    7  C   UNL     1      -8.957  14.344  66.917  1.00  0.00    -0.263 C  
ENDBRANCH   3   6
BRANCH   5   8
HETATM    8  C   UNL     1      -9.866  10.376  67.394  1.00  0.00    -0.210 C  
HETATM    9  C   UNL     1      -9.844   9.729  65.999  1.00  0.00    -0.342 C  
HETATM   10  C   UNL     1      -8.895  10.845  66.300  1.00  0.00    -0.187 C  
BRANCH   8  11
HETATM   11  C   UNL     1      -9.548   9.408  68.544  1.00  0.00    -0.154 A  
HETATM   12  C   UNL     1      -9.377   8.037  68.266  1.00  0.00    -0.143 A  
HETATM   13  C   UNL     1      -9.333   7.078  69.281  1.00  0.00    -0.145 A  
HETATM   14  C   UNL     1      -9.574   9.779  69.899  1.00  0.00    -0.269 A  
HETATM   15  C   UNL     1      -9.439   7.471  70.610  1.00  0.00    -0.164 A  
HETATM   16  C   UNL     1      -9.537   8.824  70.921  1.00  0.00    -0.275 A  
ENDBRANCH   8  11
BRANCH  10  17
HETATM   17  C   UNL     1      -7.432  10.584  66.238  1.00  0.00    -0.133 C  
HETATM   18  N   UNL     1      -6.800  11.205  67.397  1.00  0.00    -0.083 NA 
HETATM   19  H2  UNL     1      -7.214  10.903  68.278  1.00  0.00     0.000 HD 
HETATM   20  H1  UNL     1      -5.797  11.026  67.354  1.00  0.00     0.000 HD 
ENDBRANCH  10  17
ENDBRANCH   5   8
ENDBRANCH   2   3
TORSDOF 5
ENDMDL
MODEL      178
REMARK 921   NORMALIZED FREE ENERGY PREDICTED BY IDOCK:   -3.04 KCAL/MOL
REMARK 922        TOTAL FREE ENERGY PREDICTED BY IDOCK:   -4.32 KCAL/MOL
REMARK 923 INTER-LIGAND FREE ENERGY PREDICTED BY IDOCK:   -4.31 KCAL/MOL
REMARK 924 INTRA-LIGAND FREE ENERGY PREDICTED BY IDOCK:   -0.01 KCAL/MOL
REMARK 927      BINDING AFFINITY PREDICTED BY RF-SCORE:    0.00 PKD
ROOT
HETATM    1  C   UNL     1     -11.409  15.614  71.025  1.00  0.00    -0.426 C  
HETATM    2  C   UNL     1     -12.274  14.775  70.099  1.00  0.00    -0.337 C  
ENDROOT
BRANCH   2   3
HETATM    3  N   UNL     1     -11.531  14.209  68.971  1.00  0.00    -0.265 N  
HETATM    4  O   UNL     1     -11.696  12.089  69.896  1.00  0.00    -0.314 OA 
HETATM    5  C   UNL     1     -11.278  12.826  69.006  1.00  0.00    -0.264 C  
BRANCH   3   6
HETATM    6  C   UNL     1     -10.766  15.091  68.087  1.00  0.00    -0.256 C  
HETATM    7  C   UNL     1     -11.261  16.515  67.891  1.00  0.00    -0.155 C  
ENDBRANCH   3   6
BRANCH   5   8
HETATM    8  C   UNL     1     -10.459  12.201  67.867  1.00  0.00    -0.224 C  
HETATM    9  C   UNL     1     -11.048  10.937  67.218  1.00  0.00    -0.350 C  
HETATM   10  C   UNL     1     -11.136  12.240  66.489  1.00  0.00    -0.343 C  
BRANCH   8  11
HETATM   11  C   UNL     1      -8.949  12.124  68.142  1.00  0.00    -0.195 A  
HETATM   12  C   UNL     1      -8.097  13.107  67.599  1.00  0.00    -0.176 A  
HETATM   13  C   UNL     1      -6.708  12.961  67.601  1.00  0.00    -0.153 A  
HETATM   14  C   UNL     1      -8.331  11.033  68.775  1.00  0.00    -0.144 A  
HETATM   15  C   UNL     1      -6.130  11.831  68.168  1.00  0.00    -0.050 A  
HETATM   16  C   UNL     1      -6.940  10.877  68.776  1.00  0.00    -0.078 A  
ENDBRANCH   8  11
BRANCH  10  17
HETATM   17  C   UNL     1     -10.461  12.375  65.171  1.00  0.00    -0.292 C  
HETATM   18  N   UNL     1     -10.135  11.040  64.678  1.00  0.00    -0.286 NA 
HETATM   19  H2  UNL     1     -10.950  10.427  64.640  1.00  0.00     0.000 HD 
HETATM   20  H1  UNL     1      -9.672  11.132  63.774  1.00  0.00     0.000 HD 
ENDBRANCH  10  17
ENDBRANCH   5   8
ENDBRANCH   2   3
TORSDOF 5
ENDMDL
MODEL      179
REMARK 921   NORMALIZED FREE ENERGY PREDICTED BY IDOCK:   -3.04 KCAL/MOL
REMARK 922        TOTAL FREE ENERGY PREDICTED BY IDOCK:   -4.32 KCAL/MOL
REMARK 923 INTER-LIGAND FREE ENERGY PREDICTED BY IDOCK:   -4.04 KCAL/MOL
REMARK 924 INTRA-LIGAND FREE ENERGY PREDICTED BY IDOCK:   -0.28 KCAL/MOL
REMARK 927      BINDING AFFINITY PREDICTED BY RF-SCORE:    0.00 PKD
ROOT
HETATM    1  C   UNL     1      -6.983  10.892  68.449  1.00  0.00    -0.070 C  
HETATM    2  C   UNL     1      -7.364   9.897  67.366  1.00  0.00    -0.090 C  
ENDROOT
BRANCH   2   3
HETATM    3  N   UNL     1      -7.994   8.684  67.893  1.00  0.00    -0.106 N  
HETATM    4  O   UNL     1     -10.074   9.432  67.192  1.00  0.00    -0.198 OA 
HETATM    5  C   UNL     1      -9.391   8.586  67.765  1.00  0.00    -0.137 C  
BRANCH   3   6
HETATM    6  C   UNL     1      -7.263   7.837  68.839  1.00  0.00    -0.081 C  
HETATM    7  C   UNL     1      -6.059   7.064  68.328  1.00  0.00    -0.034 C  
ENDBRANCH   3   6
BRANCH   5   8
HETATM    8  C   UNL     1     -10.096   7.353  68.349  1.00  0.00    -0.196 C  
HETATM    9  C   UNL     1     -10.948   6.528  67.370  1.00  0.00    -0.458 C  
HETATM   10  C   UNL     1      -9.611   6.007  67.790  1.00  0.00    -0.113 C  
BRANCH   8  11
HETATM   11  C   UNL     1     -10.756   7.590  69.716  1.00  0.00    -0.249 A  
HETATM   12  C   UNL     1     -10.345   8.685  70.502  1.00  0.00    -0.234 A  
HETATM   13  C   UNL     1     -10.721   8.814  71.841  1.00  0.00    -0.429 A  
HETATM   14  C   UNL     1     -11.645   6.681  70.315  1.00  0.00    -0.454 A  
HETATM   15  C   UNL     1     -11.539   7.856  72.426  1.00  0.00    -0.436 A  
HETATM   16  C   UNL     1     -12.021   6.801  71.658  1.00  0.00    -0.391 A  
ENDBRANCH   8  11
BRANCH  10  17
HETATM   17  C   UNL     1      -9.539   4.715  68.522  1.00  0.00    -0.158 C  
HETATM   18  N   UNL     1      -9.525   3.629  67.547  1.00  0.00    -0.201 NA 
HETATM   19  H2  UNL     1      -8.779   3.731  66.858  1.00  0.00     0.000 HD 
HETATM   20  H1  UNL     1      -9.476   2.743  68.049  1.00  0.00     0.000 HD 
ENDBRANCH  10  17
ENDBRANCH   5   8
ENDBRANCH   2   3
TORSDOF 5
ENDMDL
MODEL      180
REMARK 921   NORMALIZED FREE ENERGY PREDICTED BY IDOCK:   -3.01 KCAL/MOL
REMARK 922        TOTAL FREE ENERGY PREDICTED BY IDOCK:   -4.29 KCAL/MOL
REMARK 923 INTER-LIGAND FREE ENERGY PREDICTED BY IDOCK:   -4.16 KCAL/MOL
REMARK 924 INTRA-LIGAND FREE ENERGY PREDICTED BY IDOCK:   -0.13 KCAL/MOL
REMARK 927      BINDING AFFINITY PREDICTED BY RF-SCORE:    0.00 PKD
ROOT
HETATM    1  C   UNL     1      -6.790   8.714  69.588  1.00  0.00    -0.046 C  
HETATM    2  C   UNL     1      -7.017   7.225  69.789  1.00  0.00    -0.057 C  
ENDROOT
BRANCH   2   3
HETATM    3  N   UNL     1      -8.036   6.928  70.797  1.00  0.00    -0.113 N  
HETATM    4  O   UNL     1      -9.672   6.854  69.155  1.00  0.00    -0.154 OA 
HETATM    5  C   UNL     1      -9.360   6.791  70.342  1.00  0.00    -0.163 C  
BRANCH   3   6
HETATM    6  C   UNL     1      -7.749   7.162  72.215  1.00  0.00    -0.089 C  
HETATM    7  C   UNL     1      -6.729   6.266  72.897  1.00  0.00    -0.066 C  
ENDBRANCH   3   6
BRANCH   5   8
HETATM    8  C   UNL     1     -10.467   6.529  71.373  1.00  0.00    -0.246 C  
HETATM    9  C   UNL     1     -10.791   7.686  72.333  1.00  0.00    -0.341 C  
HETATM   10  C   UNL     1     -11.725   7.394  71.202  1.00  0.00    -0.322 C  
BRANCH   8  11
HETATM   11  C   UNL     1     -10.391   5.151  72.048  1.00  0.00    -0.274 A  
HETATM   12  C   UNL     1      -9.758   4.086  71.376  1.00  0.00    -0.253 A  
HETATM   13  C   UNL     1      -9.869   2.765  71.817  1.00  0.00    -0.220 A  
HETATM   14  C   UNL     1     -11.061   4.834  73.242  1.00  0.00    -0.411 A  
HETATM   15  C   UNL     1     -10.605   2.476  72.960  1.00  0.00    -0.247 A  
HETATM   16  C   UNL     1     -11.182   3.513  73.686  1.00  0.00    -0.278 A  
ENDBRANCH   8  11
BRANCH  10  17
HETATM   17  C   UNL     1     -13.125   6.997  71.508  1.00  0.00    -0.339 C  
HETATM   18  N   UNL     1     -13.762   8.078  72.254  1.00  0.00    -0.539 NA 
HETATM   19  H2  UNL     1     -13.707   8.974  71.770  1.00  0.00     0.000 HD 
HETATM   20  H1  UNL     1     -14.722   7.805  72.464  1.00  0.00     0.000 HD 
ENDBRANCH  10  17
ENDBRANCH   5   8
ENDBRANCH   2   3
TORSDOF 5
ENDMDL
MODEL      181
REMARK 921   NORMALIZED FREE ENERGY PREDICTED BY IDOCK:   -3.00 KCAL/MOL
REMARK 922        TOTAL FREE ENERGY PREDICTED BY IDOCK:   -4.27 KCAL/MOL
REMARK 923 INTER-LIGAND FREE ENERGY PREDICTED BY IDOCK:   -4.22 KCAL/MOL
REMARK 924 INTRA-LIGAND FREE ENERGY PREDICTED BY IDOCK:   -0.06 KCAL/MOL
REMARK 927      BINDING AFFINITY PREDICTED BY RF-SCORE:    0.00 PKD
ROOT
HETATM    1  C   UNL     1     -10.657  12.273  68.633  1.00  0.00    -0.249 C  
HETATM    2  C   UNL     1     -11.699  11.168  68.673  1.00  0.00    -0.320 C  
ENDROOT
BRANCH   2   3
HETATM    3  N   UNL     1     -11.137   9.857  69.003  1.00  0.00    -0.186 N  
HETATM    4  O   UNL     1     -10.793   9.412  66.754  1.00  0.00    -0.114 OA 
HETATM    5  C   UNL     1     -10.740   9.045  67.926  1.00  0.00    -0.138 C  
BRANCH   3   6
HETATM    6  C   UNL     1     -11.356   9.285  70.334  1.00  0.00    -0.242 C  
HETATM    7  C   UNL     1     -11.929  10.186  71.416  1.00  0.00    -0.447 C  
ENDBRANCH   3   6
BRANCH   5   8
HETATM    8  C   UNL     1     -10.192   7.643  68.226  1.00  0.00    -0.229 C  
HETATM    9  C   UNL     1     -11.124   6.700  69.007  1.00  0.00    -0.318 C  
HETATM   10  C   UNL     1     -10.944   6.495  67.536  1.00  0.00    -0.444 C  
BRANCH   8  11
HETATM   11  C   UNL     1      -8.731   7.623  68.702  1.00  0.00    -0.128 A  
HETATM   12  C   UNL     1      -8.423   7.080  69.966  1.00  0.00    -0.140 A  
HETATM   13  C   UNL     1      -7.169   7.253  70.557  1.00  0.00    -0.066 A  
HETATM   14  C   UNL     1      -7.684   8.264  68.018  1.00  0.00    -0.107 A  
HETATM   15  C   UNL     1      -6.178   7.959  69.886  1.00  0.00    -0.026 A  
HETATM   16  C   UNL     1      -6.427   8.445  68.606  1.00  0.00    -0.054 A  
ENDBRANCH   8  11
BRANCH  10  17
HETATM   17  C   UNL     1     -10.362   5.215  67.053  1.00  0.00    -0.217 C  
HETATM   18  N   UNL     1     -11.142   4.752  65.910  1.00  0.00    -0.792 NA 
HETATM   19  H2  UNL     1     -11.209   5.454  65.172  1.00  0.00     0.000 HD 
HETATM   20  H1  UNL     1     -10.742   3.874  65.579  1.00  0.00     0.000 HD 
ENDBRANCH  10  17
ENDBRANCH   5   8
ENDBRANCH   2   3
TORSDOF 5
ENDMDL
MODEL      182
REMARK 921   NORMALIZED FREE ENERGY PREDICTED BY IDOCK:   -2.99 KCAL/MOL
REMARK 922        TOTAL FREE ENERGY PREDICTED BY IDOCK:   -4.26 KCAL/MOL
REMARK 923 INTER-LIGAND FREE ENERGY PREDICTED BY IDOCK:   -4.99 KCAL/MOL
REMARK 924 INTRA-LIGAND FREE ENERGY PREDICTED BY IDOCK:    0.73 KCAL/MOL
REMARK 927      BINDING AFFINITY PREDICTED BY RF-SCORE:    0.00 PKD
ROOT
HETATM    1  C   UNL     1      -8.375   7.596  69.446  1.00  0.00    -0.131 C  
HETATM    2  C   UNL     1      -9.536   8.499  69.065  1.00  0.00    -0.167 C  
ENDROOT
BRANCH   2   3
HETATM    3  N   UNL     1      -9.251   9.349  67.907  1.00  0.00    -0.130 N  
HETATM    4  O   UNL     1     -10.770   8.152  66.627  1.00  0.00    -0.210 OA 
HETATM    5  C   UNL     1      -9.929   9.045  66.713  1.00  0.00    -0.263 C  
BRANCH   3   6
HETATM    6  C   UNL     1      -8.050  10.188  67.897  1.00  0.00    -0.109 C  
HETATM    7  C   UNL     1      -7.930  11.280  68.947  1.00  0.00    -0.104 C  
ENDBRANCH   3   6
BRANCH   5   8
HETATM    8  C   UNL     1      -9.621   9.879  65.461  1.00  0.00    -0.341 C  
HETATM    9  C   UNL     1      -8.161  10.332  65.286  1.00  0.00    -0.161 C  
HETATM   10  C   UNL     1      -8.681   9.204  64.451  1.00  0.00    -0.184 C  
BRANCH   8  11
HETATM   11  C   UNL     1     -10.661  10.968  65.155  1.00  0.00    -0.295 A  
HETATM   12  C   UNL     1     -10.985  11.257  63.814  1.00  0.00    -0.381 A  
HETATM   13  C   UNL     1     -11.726  12.388  63.462  1.00  0.00    -0.592 A  
HETATM   14  C   UNL     1     -11.201  11.821  66.133  1.00  0.00    -0.363 A  
HETATM   15  C   UNL     1     -12.180  13.254  64.449  1.00  0.00    -0.449 A  
HETATM   16  C   UNL     1     -11.938  12.959  65.787  1.00  0.00    -0.496 A  
ENDBRANCH   8  11
BRANCH  10  17
HETATM   17  C   UNL     1      -8.708   9.357  62.972  1.00  0.00    -0.218 C  
HETATM   18  N   UNL     1      -8.897   8.040  62.373  1.00  0.00    -0.402 NA 
HETATM   19  H2  UNL     1      -9.723   7.561  62.732  1.00  0.00     0.000 HD 
HETATM   20  H1  UNL     1      -8.915   8.145  61.359  1.00  0.00     0.000 HD 
ENDBRANCH  10  17
ENDBRANCH   5   8
ENDBRANCH   2   3
TORSDOF 5
ENDMDL
MODEL      183
REMARK 921   NORMALIZED FREE ENERGY PREDICTED BY IDOCK:   -2.97 KCAL/MOL
REMARK 922        TOTAL FREE ENERGY PREDICTED BY IDOCK:   -4.24 KCAL/MOL
REMARK 923 INTER-LIGAND FREE ENERGY PREDICTED BY IDOCK:   -3.83 KCAL/MOL
REMARK 924 INTRA-LIGAND FREE ENERGY PREDICTED BY IDOCK:   -0.40 KCAL/MOL
REMARK 927      BINDING AFFINITY PREDICTED BY RF-SCORE:    0.00 PKD
ROOT
HETATM    1  C   UNL     1     -10.267   5.708  70.930  1.00  0.00    -0.286 C  
HETATM    2  C   UNL     1     -10.963   6.817  70.160  1.00  0.00    -0.292 C  
ENDROOT
BRANCH   2   3
HETATM    3  N   UNL     1     -10.049   7.604  69.330  1.00  0.00    -0.185 N  
HETATM    4  O   UNL     1     -10.265   9.411  70.767  1.00  0.00    -0.259 OA 
HETATM    5  C   UNL     1      -9.800   8.928  69.737  1.00  0.00    -0.180 C  
BRANCH   3   6
HETATM    6  C   UNL     1      -9.746   7.169  67.964  1.00  0.00    -0.138 C  
HETATM    7  C   UNL     1     -10.867   7.195  66.938  1.00  0.00    -0.307 C  
ENDBRANCH   3   6
BRANCH   5   8
HETATM    8  C   UNL     1      -8.887   9.804  68.868  1.00  0.00    -0.140 C  
HETATM    9  C   UNL     1      -7.748  10.535  69.598  1.00  0.00    -0.119 C  
HETATM   10  C   UNL     1      -7.429   9.325  68.778  1.00  0.00    -0.076 C  
BRANCH   8  11
HETATM   11  C   UNL     1      -9.631  10.665  67.836  1.00  0.00    -0.174 A  
HETATM   12  C   UNL     1     -10.684  11.499  68.263  1.00  0.00    -0.247 A  
HETATM   13  C   UNL     1     -11.553  12.112  67.357  1.00  0.00    -0.410 A  
HETATM   14  C   UNL     1      -9.435  10.556  66.449  1.00  0.00    -0.208 A  
HETATM   15  C   UNL     1     -11.378  11.921  65.992  1.00  0.00    -0.375 A  
HETATM   16  C   UNL     1     -10.305  11.162  65.536  1.00  0.00    -0.326 A  
ENDBRANCH   8  11
BRANCH  10  17
HETATM   17  C   UNL     1      -6.519   9.466  67.611  1.00  0.00    -0.062 C  
HETATM   18  N   UNL     1      -6.033   8.141  67.238  1.00  0.00    -0.049 NA 
HETATM   19  H2  UNL     1      -6.791   7.481  67.065  1.00  0.00     0.000 HD 
HETATM   20  H1  UNL     1      -5.408   8.238  66.438  1.00  0.00     0.000 HD 
ENDBRANCH  10  17
ENDBRANCH   5   8
ENDBRANCH   2   3
TORSDOF 5
ENDMDL
MODEL      184
REMARK 921   NORMALIZED FREE ENERGY PREDICTED BY IDOCK:   -2.97 KCAL/MOL
REMARK 922        TOTAL FREE ENERGY PREDICTED BY IDOCK:   -4.23 KCAL/MOL
REMARK 923 INTER-LIGAND FREE ENERGY PREDICTED BY IDOCK:   -4.43 KCAL/MOL
REMARK 924 INTRA-LIGAND FREE ENERGY PREDICTED BY IDOCK:    0.20 KCAL/MOL
REMARK 927      BINDING AFFINITY PREDICTED BY RF-SCORE:    0.00 PKD
ROOT
HETATM    1  C   UNL     1      -8.560   7.302  65.629  1.00  0.00    -0.123 C  
HETATM    2  C   UNL     1      -8.468   8.804  65.418  1.00  0.00    -0.170 C  
ENDROOT
BRANCH   2   3
HETATM    3  N   UNL     1      -8.612   9.571  66.657  1.00  0.00    -0.133 N  
HETATM    4  O   UNL     1     -10.552  10.553  65.850  1.00  0.00    -0.181 OA 
HETATM    5  C   UNL     1      -9.706  10.452  66.736  1.00  0.00    -0.181 C  
BRANCH   3   6
HETATM    6  C   UNL     1      -7.473   9.703  67.568  1.00  0.00    -0.091 C  
HETATM    7  C   UNL     1      -6.086   9.856  66.965  1.00  0.00    -0.059 C  
ENDBRANCH   3   6
BRANCH   5   8
HETATM    8  C   UNL     1      -9.865  11.312  67.998  1.00  0.00    -0.186 C  
HETATM    9  C   UNL     1      -8.619  12.091  68.453  1.00  0.00    -0.147 C  
HETATM   10  C   UNL     1      -9.728  12.825  67.768  1.00  0.00    -0.207 C  
BRANCH   8  11
HETATM   11  C   UNL     1     -10.633  10.627  69.138  1.00  0.00    -0.256 A  
HETATM   12  C   UNL     1     -11.976  10.983  69.380  1.00  0.00    -0.408 A  
HETATM   13  C   UNL     1     -12.647  10.587  70.539  1.00  0.00    -0.423 A  
HETATM   14  C   UNL     1     -10.029   9.770  70.075  1.00  0.00    -0.299 A  
HETATM   15  C   UNL     1     -11.995   9.803  71.484  1.00  0.00    -0.488 A  
HETATM   16  C   UNL     1     -10.694   9.374  71.241  1.00  0.00    -0.421 A  
ENDBRANCH   8  11
BRANCH  10  17
HETATM   17  C   UNL     1     -10.440  13.903  68.504  1.00  0.00    -0.250 C  
HETATM   18  N   UNL     1      -9.509  14.516  69.445  1.00  0.00    -0.407 NA 
HETATM   19  H2  UNL     1      -8.657  14.848  68.993  1.00  0.00     0.000 HD 
HETATM   20  H1  UNL     1      -9.997  15.255  69.950  1.00  0.00     0.000 HD 
ENDBRANCH  10  17
ENDBRANCH   5   8
ENDBRANCH   2   3
TORSDOF 5
ENDMDL
MODEL      185
REMARK 921   NORMALIZED FREE ENERGY PREDICTED BY IDOCK:   -2.96 KCAL/MOL
REMARK 922        TOTAL FREE ENERGY PREDICTED BY IDOCK:   -4.23 KCAL/MOL
REMARK 923 INTER-LIGAND FREE ENERGY PREDICTED BY IDOCK:   -3.71 KCAL/MOL
REMARK 924 INTRA-LIGAND FREE ENERGY PREDICTED BY IDOCK:   -0.52 KCAL/MOL
REMARK 927      BINDING AFFINITY PREDICTED BY RF-SCORE:    0.00 PKD
ROOT
HETATM    1  C   UNL     1     -10.606  18.143  67.472  1.00  0.00    -0.419 C  
HETATM    2  C   UNL     1     -10.781  16.986  68.441  1.00  0.00    -0.361 C  
ENDROOT
BRANCH   2   3
HETATM    3  N   UNL     1     -10.294  15.711  67.911  1.00  0.00    -0.254 N  
HETATM    4  O   UNL     1      -8.668  15.620  69.561  1.00  0.00    -0.260 OA 
HETATM    5  C   UNL     1      -9.187  15.133  68.559  1.00  0.00    -0.192 C  
BRANCH   3   6
HETATM    6  C   UNL     1     -10.681  15.288  66.562  1.00  0.00    -0.311 C  
HETATM    7  C   UNL     1     -11.935  14.444  66.408  1.00  0.00    -0.402 C  
ENDBRANCH   3   6
BRANCH   5   8
HETATM    8  C   UNL     1      -8.614  13.822  68.004  1.00  0.00    -0.177 C  
HETATM    9  C   UNL     1      -7.935  13.905  66.626  1.00  0.00     0.615 C  
HETATM   10  C   UNL     1      -7.085  13.800  67.853  1.00  0.00    -0.161 C  
BRANCH   8  11
HETATM   11  C   UNL     1      -9.532  12.603  68.182  1.00  0.00    -0.218 A  
HETATM   12  C   UNL     1      -9.636  11.658  67.142  1.00  0.00    -0.185 A  
HETATM   13  C   UNL     1     -10.627  10.672  67.138  1.00  0.00    -0.312 A  
HETATM   14  C   UNL     1     -10.413  12.449  69.267  1.00  0.00     0.176 A  
HETATM   15  C   UNL     1     -11.532  10.595  68.189  1.00  0.00    -0.303 A  
HETATM   16  C   UNL     1     -11.412  11.468  69.266  1.00  0.00    -0.370 A  
ENDBRANCH   8  11
BRANCH  10  17
HETATM   17  C   UNL     1      -6.194  12.620  68.012  1.00  0.00    -0.094 C  
HETATM   18  N   UNL     1      -5.979  12.019  66.699  1.00  0.00    -0.483 NA 
HETATM   19  H2  UNL     1      -5.624  12.689  66.016  1.00  0.00     0.000 HD 
HETATM   20  H1  UNL     1      -5.368  11.210  66.809  1.00  0.00     0.000 HD 
ENDBRANCH  10  17
ENDBRANCH   5   8
ENDBRANCH   2   3
TORSDOF 5
ENDMDL
MODEL      186
REMARK 921   NORMALIZED FREE ENERGY PREDICTED BY IDOCK:   -2.94 KCAL/MOL
REMARK 922        TOTAL FREE ENERGY PREDICTED BY IDOCK:   -4.19 KCAL/MOL
REMARK 923 INTER-LIGAND FREE ENERGY PREDICTED BY IDOCK:   -5.54 KCAL/MOL
REMARK 924 INTRA-LIGAND FREE ENERGY PREDICTED BY IDOCK:    1.34 KCAL/MOL
REMARK 927      BINDING AFFINITY PREDICTED BY RF-SCORE:    0.00 PKD
ROOT
HETATM    1  C   UNL     1     -11.841  13.657  71.183  1.00  0.00     0.147 C  
HETATM    2  C   UNL     1     -12.401  13.418  69.791  1.00  0.00    -0.159 C  
ENDROOT
BRANCH   2   3
HETATM    3  N   UNL     1     -11.541  13.941  68.727  1.00  0.00    -0.310 N  
HETATM    4  O   UNL     1     -12.389  16.073  69.059  1.00  0.00    -0.092 OA 
HETATM    5  C   UNL     1     -11.656  15.311  68.432  1.00  0.00    -0.349 C  
BRANCH   3   6
HETATM    6  C   UNL     1     -10.914  13.018  67.777  1.00  0.00    -0.251 C  
HETATM    7  C   UNL     1     -11.232  11.537  67.900  1.00  0.00    -0.344 C  
ENDBRANCH   3   6
BRANCH   5   8
HETATM    8  C   UNL     1     -10.810  15.890  67.289  1.00  0.00    -0.279 C  
HETATM    9  C   UNL     1      -9.987  14.879  66.472  1.00  0.00    -0.277 C  
HETATM   10  C   UNL     1     -11.239  15.448  65.882  1.00  0.00    -0.179 C  
BRANCH   8  11
HETATM   11  C   UNL     1     -10.050  17.175  67.652  1.00  0.00    -0.305 A  
HETATM   12  C   UNL     1      -8.832  17.083  68.356  1.00  0.00    -0.247 A  
HETATM   13  C   UNL     1      -8.224  18.204  68.927  1.00  0.00    -0.160 A  
HETATM   14  C   UNL     1     -10.576  18.465  67.466  1.00  0.00    -0.447 A  
HETATM   15  C   UNL     1      -8.811  19.456  68.790  1.00  0.00    -0.385 A  
HETATM   16  C   UNL     1      -9.975  19.591  68.040  1.00  0.00    -0.513 A  
ENDBRANCH   8  11
BRANCH  10  17
HETATM   17  C   UNL     1     -11.146  16.250  64.633  1.00  0.00    -0.246 C  
HETATM   18  N   UNL     1     -12.269  15.895  63.769  1.00  0.00    -1.141 NA 
HETATM   19  H2  UNL     1     -13.170  16.001  64.236  1.00  0.00     0.000 HD 
HETATM   20  H1  UNL     1     -12.205  16.445  62.913  1.00  0.00     0.000 HD 
ENDBRANCH  10  17
ENDBRANCH   5   8
ENDBRANCH   2   3
TORSDOF 5
ENDMDL
MODEL      187
REMARK 921   NORMALIZED FREE ENERGY PREDICTED BY IDOCK:   -2.89 KCAL/MOL
REMARK 922        TOTAL FREE ENERGY PREDICTED BY IDOCK:   -4.14 KCAL/MOL
REMARK 923 INTER-LIGAND FREE ENERGY PREDICTED BY IDOCK:   -3.61 KCAL/MOL
REMARK 924 INTRA-LIGAND FREE ENERGY PREDICTED BY IDOCK:   -0.53 KCAL/MOL
REMARK 927      BINDING AFFINITY PREDICTED BY RF-SCORE:    0.00 PKD
ROOT
HETATM    1  C   UNL     1     -10.737   9.684  67.242  1.00  0.00    -0.284 C  
HETATM    2  C   UNL     1     -10.361   8.299  66.743  1.00  0.00    -0.290 C  
ENDROOT
BRANCH   2   3
HETATM    3  N   UNL     1      -9.601   7.520  67.722  1.00  0.00    -0.140 N  
HETATM    4  O   UNL     1     -11.501   6.307  68.267  1.00  0.00    -0.177 OA 
HETATM    5  C   UNL     1     -10.311   6.553  68.456  1.00  0.00    -0.192 C  
BRANCH   3   6
HETATM    6  C   UNL     1      -8.295   8.001  68.180  1.00  0.00    -0.127 C  
HETATM    7  C   UNL     1      -7.144   8.005  67.188  1.00  0.00    -0.082 C  
ENDBRANCH   3   6
BRANCH   5   8
HETATM    8  C   UNL     1      -9.563   5.749  69.528  1.00  0.00    -0.181 C  
HETATM    9  C   UNL     1      -9.564   4.220  69.358  1.00  0.00    -0.267 C  
HETATM   10  C   UNL     1      -8.327   4.990  69.020  1.00  0.00    -0.086 C  
BRANCH   8  11
HETATM   11  C   UNL     1      -9.815   6.224  70.967  1.00  0.00    -0.206 A  
HETATM   12  C   UNL     1     -10.171   5.282  71.954  1.00  0.00    -0.264 A  
HETATM   13  C   UNL     1     -10.650   5.672  73.207  1.00  0.00    -0.280 A  
HETATM   14  C   UNL     1      -9.872   7.579  71.337  1.00  0.00    -0.191 A  
HETATM   15  C   UNL     1     -10.767   7.023  73.514  1.00  0.00    -0.368 A  
HETATM   16  C   UNL     1     -10.356   7.976  72.589  1.00  0.00    -0.398 A  
ENDBRANCH   8  11
BRANCH  10  17
HETATM   17  C   UNL     1      -7.078   4.716  69.779  1.00  0.00    -0.053 C  
HETATM   18  N   UNL     1      -5.946   4.823  68.865  1.00  0.00    -0.024 NA 
HETATM   19  H2  UNL     1      -5.919   5.719  68.378  1.00  0.00     0.000 HD 
HETATM   20  H1  UNL     1      -5.090   4.635  69.386  1.00  0.00     0.000 HD 
ENDBRANCH  10  17
ENDBRANCH   5   8
ENDBRANCH   2   3
TORSDOF 5
ENDMDL
MODEL      188
REMARK 921   NORMALIZED FREE ENERGY PREDICTED BY IDOCK:   -2.89 KCAL/MOL
REMARK 922        TOTAL FREE ENERGY PREDICTED BY IDOCK:   -4.13 KCAL/MOL
REMARK 923 INTER-LIGAND FREE ENERGY PREDICTED BY IDOCK:   -4.03 KCAL/MOL
REMARK 924 INTRA-LIGAND FREE ENERGY PREDICTED BY IDOCK:   -0.10 KCAL/MOL
REMARK 927      BINDING AFFINITY PREDICTED BY RF-SCORE:    0.00 PKD
ROOT
HETATM    1  C   UNL     1     -10.341   4.607  65.653  1.00  0.00    -0.266 C  
HETATM    2  C   UNL     1      -8.961   5.243  65.650  1.00  0.00    -0.158 C  
ENDROOT
BRANCH   2   3
HETATM    3  N   UNL     1      -8.944   6.586  66.233  1.00  0.00    -0.155 N  
HETATM    4  O   UNL     1      -7.692   7.371  64.447  1.00  0.00    -0.107 OA 
HETATM    5  C   UNL     1      -8.234   7.576  65.531  1.00  0.00    -0.135 C  
BRANCH   3   6
HETATM    6  C   UNL     1      -9.298   6.773  67.643  1.00  0.00    -0.120 C  
HETATM    7  C   UNL     1     -10.748   7.072  67.984  1.00  0.00    -0.252 C  
ENDBRANCH   3   6
BRANCH   5   8
HETATM    8  C   UNL     1      -8.149   8.985  66.133  1.00  0.00    -0.111 C  
HETATM    9  C   UNL     1      -7.610   9.080  67.571  1.00  0.00    -0.089 C  
HETATM   10  C   UNL     1      -6.723   9.474  66.432  1.00  0.00    -0.075 C  
BRANCH   8  11
HETATM   11  C   UNL     1      -9.378   9.866  65.860  1.00  0.00    -0.245 A  
HETATM   12  C   UNL     1      -9.662  10.266  64.538  1.00  0.00    -0.395 A  
HETATM   13  C   UNL     1     -10.606  11.255  64.255  1.00  0.00    -0.422 A  
HETATM   14  C   UNL     1     -10.160  10.441  66.876  1.00  0.00    -0.269 A  
HETATM   15  C   UNL     1     -11.309  11.860  65.290  1.00  0.00    -0.333 A  
HETATM   16  C   UNL     1     -11.103  11.437  66.599  1.00  0.00    -0.333 A  
ENDBRANCH   8  11
BRANCH  10  17
HETATM   17  C   UNL     1      -6.229  10.874  66.354  1.00  0.00    -0.130 C  
HETATM   18  N   UNL     1      -5.870  11.164  64.970  1.00  0.00    -0.435 NA 
HETATM   19  H2  UNL     1      -6.635  10.982  64.320  1.00  0.00     0.000 HD 
HETATM   20  H1  UNL     1      -5.531  12.124  64.917  1.00  0.00     0.000 HD 
ENDBRANCH  10  17
ENDBRANCH   5   8
ENDBRANCH   2   3
TORSDOF 5
ENDMDL
MODEL      189
REMARK 921   NORMALIZED FREE ENERGY PREDICTED BY IDOCK:   -2.87 KCAL/MOL
REMARK 922        TOTAL FREE ENERGY PREDICTED BY IDOCK:   -4.11 KCAL/MOL
REMARK 923 INTER-LIGAND FREE ENERGY PREDICTED BY IDOCK:   -5.56 KCAL/MOL
REMARK 924 INTRA-LIGAND FREE ENERGY PREDICTED BY IDOCK:    1.46 KCAL/MOL
REMARK 927      BINDING AFFINITY PREDICTED BY RF-SCORE:    0.00 PKD
ROOT
HETATM    1  C   UNL     1      -6.960  11.348  68.149  1.00  0.00    -0.069 C  
HETATM    2  C   UNL     1      -8.417  11.039  67.845  1.00  0.00    -0.128 C  
ENDROOT
BRANCH   2   3
HETATM    3  N   UNL     1      -8.997  11.927  66.836  1.00  0.00    -0.190 N  
HETATM    4  O   UNL     1      -9.425  13.527  68.459  1.00  0.00    -0.202 OA 
HETATM    5  C   UNL     1      -9.503  13.159  67.289  1.00  0.00    -0.225 C  
BRANCH   3   6
HETATM    6  C   UNL     1      -9.383  11.391  65.529  1.00  0.00    -0.208 C  
HETATM    7  C   UNL     1      -9.790   9.930  65.445  1.00  0.00    -0.384 C  
ENDBRANCH   3   6
BRANCH   5   8
HETATM    8  C   UNL     1     -10.166  14.099  66.272  1.00  0.00    -0.301 C  
HETATM    9  C   UNL     1     -10.163  13.628  64.807  1.00  0.00    -0.363 C  
HETATM   10  C   UNL     1     -11.428  13.536  65.601  1.00  0.00    -0.330 C  
BRANCH   8  11
HETATM   11  C   UNL     1      -9.815  15.583  66.459  1.00  0.00    -0.281 A  
HETATM   12  C   UNL     1      -8.481  16.004  66.288  1.00  0.00    -0.337 A  
HETATM   13  C   UNL     1      -8.053  17.275  66.680  1.00  0.00    -0.300 A  
HETATM   14  C   UNL     1     -10.720  16.537  66.954  1.00  0.00    -0.175 A  
HETATM   15  C   UNL     1      -8.959  18.170  67.238  1.00  0.00    -0.248 A  
HETATM   16  C   UNL     1     -10.298  17.810  67.354  1.00  0.00    -0.370 A  
ENDBRANCH   8  11
BRANCH  10  17
HETATM   17  C   UNL     1     -12.617  14.310  65.154  1.00  0.00    -0.372 C  
HETATM   18  N   UNL     1     -12.375  14.788  63.796  1.00  0.00    -1.082 NA 
HETATM   19  H2  UNL     1     -12.134  14.034  63.153  1.00  0.00     0.000 HD 
HETATM   20  H1  UNL     1     -13.190  15.319  63.490  1.00  0.00     0.000 HD 
ENDBRANCH  10  17
ENDBRANCH   5   8
ENDBRANCH   2   3
TORSDOF 5
ENDMDL
MODEL      190
REMARK 921   NORMALIZED FREE ENERGY PREDICTED BY IDOCK:   -2.87 KCAL/MOL
REMARK 922        TOTAL FREE ENERGY PREDICTED BY IDOCK:   -4.10 KCAL/MOL
REMARK 923 INTER-LIGAND FREE ENERGY PREDICTED BY IDOCK:   -3.62 KCAL/MOL
REMARK 924 INTRA-LIGAND FREE ENERGY PREDICTED BY IDOCK:   -0.48 KCAL/MOL
REMARK 927      BINDING AFFINITY PREDICTED BY RF-SCORE:    0.00 PKD
ROOT
HETATM    1  C   UNL     1      -7.759   7.080  65.962  1.00  0.00    -0.099 C  
HETATM    2  C   UNL     1      -8.681   5.983  66.468  1.00  0.00    -0.128 C  
ENDROOT
BRANCH   2   3
HETATM    3  N   UNL     1      -8.834   5.985  67.925  1.00  0.00    -0.111 N  
HETATM    4  O   UNL     1     -11.143   5.971  67.704  1.00  0.00    -0.297 OA 
HETATM    5  C   UNL     1     -10.148   6.009  68.426  1.00  0.00    -0.164 C  
BRANCH   3   6
HETATM    6  C   UNL     1      -7.698   6.346  68.776  1.00  0.00    -0.101 C  
HETATM    7  C   UNL     1      -6.587   5.326  68.959  1.00  0.00    -0.051 C  
ENDBRANCH   3   6
BRANCH   5   8
HETATM    8  C   UNL     1     -10.353   6.063  69.946  1.00  0.00    -0.288 C  
HETATM    9  C   UNL     1     -10.104   7.423  70.620  1.00  0.00    -0.191 C  
HETATM   10  C   UNL     1     -11.511   6.959  70.410  1.00  0.00    -0.387 C  
BRANCH   8  11
HETATM   11  C   UNL     1      -9.764   4.865  70.707  1.00  0.00    -0.268 A  
HETATM   12  C   UNL     1      -9.068   5.087  71.913  1.00  0.00    -0.157 A  
HETATM   13  C   UNL     1      -8.304   4.086  72.519  1.00  0.00    -0.099 A  
HETATM   14  C   UNL     1      -9.732   3.558  70.191  1.00  0.00    -0.155 A  
HETATM   15  C   UNL     1      -8.232   2.824  71.940  1.00  0.00    -0.059 A  
HETATM   16  C   UNL     1      -8.965   2.552  70.789  1.00  0.00    -0.159 A  
ENDBRANCH   8  11
BRANCH  10  17
HETATM   17  C   UNL     1     -12.382   6.743  71.596  1.00  0.00    -0.362 C  
HETATM   18  N   UNL     1     -12.106   7.792  72.572  1.00  0.00    -0.548 NA 
HETATM   19  H2  UNL     1     -12.205   8.729  72.179  1.00  0.00     0.000 HD 
HETATM   20  H1  UNL     1     -12.703   7.644  73.385  1.00  0.00     0.000 HD 
ENDBRANCH  10  17
ENDBRANCH   5   8
ENDBRANCH   2   3
TORSDOF 5
ENDMDL
MODEL      191
REMARK 921   NORMALIZED FREE ENERGY PREDICTED BY IDOCK:   -2.85 KCAL/MOL
REMARK 922        TOTAL FREE ENERGY PREDICTED BY IDOCK:   -4.08 KCAL/MOL
REMARK 923 INTER-LIGAND FREE ENERGY PREDICTED BY IDOCK:   -3.80 KCAL/MOL
REMARK 924 INTRA-LIGAND FREE ENERGY PREDICTED BY IDOCK:   -0.27 KCAL/MOL
REMARK 927      BINDING AFFINITY PREDICTED BY RF-SCORE:    0.00 PKD
ROOT
HETATM    1  C   UNL     1     -10.499   5.078  66.002  1.00  0.00    -0.289 C  
HETATM    2  C   UNL     1      -9.285   5.991  66.008  1.00  0.00    -0.112 C  
ENDROOT
BRANCH   2   3
HETATM    3  N   UNL     1      -9.400   7.099  66.959  1.00  0.00    -0.144 N  
HETATM    4  O   UNL     1      -8.188   5.903  68.533  1.00  0.00    -0.108 OA 
HETATM    5  C   UNL     1      -8.820   6.912  68.226  1.00  0.00    -0.122 C  
BRANCH   3   6
HETATM    6  C   UNL     1     -10.396   8.150  66.736  1.00  0.00    -0.291 C  
HETATM    7  C   UNL     1     -10.021   9.314  65.834  1.00  0.00    -0.289 C  
ENDBRANCH   3   6
BRANCH   5   8
HETATM    8  C   UNL     1      -8.961   8.028  69.270  1.00  0.00    -0.148 C  
HETATM    9  C   UNL     1      -7.654   8.676  69.757  1.00  0.00    -0.079 C  
HETATM   10  C   UNL     1      -8.520   9.419  68.791  1.00  0.00    -0.122 C  
BRANCH   8  11
HETATM   11  C   UNL     1      -9.970   7.725  70.389  1.00  0.00    -0.188 A  
HETATM   12  C   UNL     1      -9.582   7.895  71.734  1.00  0.00    -0.214 A  
HETATM   13  C   UNL     1     -10.355   7.407  72.791  1.00  0.00    -0.306 A  
HETATM   14  C   UNL     1     -11.221   7.126  70.163  1.00  0.00    -0.295 A  
HETATM   15  C   UNL     1     -11.551   6.751  72.529  1.00  0.00    -0.236 A  
HETATM   16  C   UNL     1     -11.997   6.630  71.217  1.00  0.00    -0.409 A  
ENDBRANCH   8  11
BRANCH  10  17
HETATM   17  C   UNL     1      -9.100  10.726  69.201  1.00  0.00    -0.095 C  
HETATM   18  N   UNL     1      -8.163  11.784  68.839  1.00  0.00    -0.356 NA 
HETATM   19  H2  UNL     1      -7.909  11.762  67.851  1.00  0.00     0.000 HD 
HETATM   20  H1  UNL     1      -8.560  12.680  69.121  1.00  0.00     0.000 HD 
ENDBRANCH  10  17
ENDBRANCH   5   8
ENDBRANCH   2   3
TORSDOF 5
ENDMDL
MODEL      192
REMARK 921   NORMALIZED FREE ENERGY PREDICTED BY IDOCK:   -2.84 KCAL/MOL
REMARK 922        TOTAL FREE ENERGY PREDICTED BY IDOCK:   -4.07 KCAL/MOL
REMARK 923 INTER-LIGAND FREE ENERGY PREDICTED BY IDOCK:   -4.16 KCAL/MOL
REMARK 924 INTRA-LIGAND FREE ENERGY PREDICTED BY IDOCK:    0.10 KCAL/MOL
REMARK 927      BINDING AFFINITY PREDICTED BY RF-SCORE:    0.00 PKD
ROOT
HETATM    1  C   UNL     1     -10.113   5.935  69.737  1.00  0.00    -0.258 C  
HETATM    2  C   UNL     1     -11.005   6.980  69.088  1.00  0.00    -0.158 C  
ENDROOT
BRANCH   2   3
HETATM    3  N   UNL     1     -10.262   8.133  68.573  1.00  0.00    -0.204 N  
HETATM    4  O   UNL     1     -10.195   7.176  66.462  1.00  0.00    -0.173 OA 
HETATM    5  C   UNL     1      -9.883   8.093  67.219  1.00  0.00    -0.197 C  
BRANCH   3   6
HETATM    6  C   UNL     1      -9.618   9.060  69.507  1.00  0.00    -0.165 C  
HETATM    7  C   UNL     1     -10.462   9.657  70.621  1.00  0.00    -0.379 C  
ENDBRANCH   3   6
BRANCH   5   8
HETATM    8  C   UNL     1      -9.060   9.258  66.653  1.00  0.00    -0.177 C  
HETATM    9  C   UNL     1      -7.850   9.707  67.489  1.00  0.00    -0.095 C  
HETATM   10  C   UNL     1      -7.622   8.896  66.252  1.00  0.00    -0.095 C  
BRANCH   8  11
HETATM   11  C   UNL     1      -9.902  10.413  66.090  1.00  0.00    -0.278 A  
HETATM   12  C   UNL     1     -10.512  11.321  66.980  1.00  0.00    -0.272 A  
HETATM   13  C   UNL     1     -11.480  12.234  66.554  1.00  0.00    -0.438 A  
HETATM   14  C   UNL     1     -10.243  10.535  64.732  1.00  0.00    -0.373 A  
HETATM   15  C   UNL     1     -11.851  12.276  65.215  1.00  0.00    -0.411 A  
HETATM   16  C   UNL     1     -11.216  11.443  64.300  1.00  0.00    -0.306 A  
ENDBRANCH   8  11
BRANCH  10  17
HETATM   17  C   UNL     1      -6.834   9.489  65.138  1.00  0.00    -0.092 C  
HETATM   18  N   UNL     1      -7.145   8.761  63.912  1.00  0.00    -0.090 NA 
HETATM   19  H2  UNL     1      -8.145   8.737  63.714  1.00  0.00     0.000 HD 
HETATM   20  H1  UNL     1      -6.605   9.167  63.148  1.00  0.00     0.000 HD 
ENDBRANCH  10  17
ENDBRANCH   5   8
ENDBRANCH   2   3
TORSDOF 5
ENDMDL
MODEL      193
REMARK 921   NORMALIZED FREE ENERGY PREDICTED BY IDOCK:   -2.84 KCAL/MOL
REMARK 922        TOTAL FREE ENERGY PREDICTED BY IDOCK:   -4.06 KCAL/MOL
REMARK 923 INTER-LIGAND FREE ENERGY PREDICTED BY IDOCK:   -4.17 KCAL/MOL
REMARK 924 INTRA-LIGAND FREE ENERGY PREDICTED BY IDOCK:    0.11 KCAL/MOL
REMARK 927      BINDING AFFINITY PREDICTED BY RF-SCORE:    0.00 PKD
ROOT
HETATM    1  C   UNL     1      -8.384  10.786  62.377  1.00  0.00    -0.289 C  
HETATM    2  C   UNL     1      -8.695   9.668  63.358  1.00  0.00    -0.226 C  
ENDROOT
BRANCH   2   3
HETATM    3  N   UNL     1      -8.771  10.124  64.747  1.00  0.00    -0.172 N  
HETATM    4  O   UNL     1     -10.933  10.889  64.400  1.00  0.00    -0.231 OA 
HETATM    5  C   UNL     1      -9.962  10.759  65.143  1.00  0.00    -0.291 C  
BRANCH   3   6
HETATM    6  C   UNL     1      -7.545  10.266  65.536  1.00  0.00    -0.149 C  
HETATM    7  C   UNL     1      -6.214  10.039  64.839  1.00  0.00    -0.117 C  
ENDBRANCH   3   6
BRANCH   5   8
HETATM    8  C   UNL     1     -10.065  11.297  66.577  1.00  0.00    -0.256 C  
HETATM    9  C   UNL     1      -9.334  12.620  66.863  1.00  0.00    -0.228 C  
HETATM   10  C   UNL     1     -10.823  12.626  66.715  1.00  0.00    -0.279 C  
BRANCH   8  11
HETATM   11  C   UNL     1      -9.887  10.230  67.668  1.00  0.00    -0.199 A  
HETATM   12  C   UNL     1     -10.773   9.134  67.715  1.00  0.00    -0.243 A  
HETATM   13  C   UNL     1     -10.822   8.272  68.812  1.00  0.00     0.019 A  
HETATM   14  C   UNL     1      -8.984  10.357  68.738  1.00  0.00    -0.157 A  
HETATM   15  C   UNL     1      -9.967   8.471  69.889  1.00  0.00    -0.189 A  
HETATM   16  C   UNL     1      -9.032   9.500  69.843  1.00  0.00    -0.231 A  
ENDBRANCH   8  11
BRANCH  10  17
HETATM   17  C   UNL     1     -11.659  13.057  67.866  1.00  0.00    -0.342 C  
HETATM   18  N   UNL     1     -12.405  14.250  67.478  1.00  0.00    -0.587 NA 
HETATM   19  H2  UNL     1     -12.952  14.110  66.628  1.00  0.00     0.000 HD 
HETATM   20  H1  UNL     1     -12.978  14.546  68.268  1.00  0.00     0.000 HD 
ENDBRANCH  10  17
ENDBRANCH   5   8
ENDBRANCH   2   3
TORSDOF 5
ENDMDL
MODEL      194
REMARK 921   NORMALIZED FREE ENERGY PREDICTED BY IDOCK:   -2.83 KCAL/MOL
REMARK 922        TOTAL FREE ENERGY PREDICTED BY IDOCK:   -4.05 KCAL/MOL
REMARK 923 INTER-LIGAND FREE ENERGY PREDICTED BY IDOCK:   -3.87 KCAL/MOL
REMARK 924 INTRA-LIGAND FREE ENERGY PREDICTED BY IDOCK:   -0.18 KCAL/MOL
REMARK 927      BINDING AFFINITY PREDICTED BY RF-SCORE:    0.00 PKD
ROOT
HETATM    1  C   UNL     1     -10.632   6.251  67.670  1.00  0.00    -0.339 C  
HETATM    2  C   UNL     1     -11.252   6.420  69.046  1.00  0.00    -0.331 C  
ENDROOT
BRANCH   2   3
HETATM    3  N   UNL     1     -10.543   5.681  70.093  1.00  0.00    -0.296 N  
HETATM    4  O   UNL     1     -11.792   6.752  71.727  1.00  0.00    -0.296 OA 
HETATM    5  C   UNL     1     -10.896   5.967  71.424  1.00  0.00    -0.270 C  
BRANCH   3   6
HETATM    6  C   UNL     1      -9.285   4.999  69.779  1.00  0.00    -0.118 C  
HETATM    7  C   UNL     1      -9.348   3.551  69.323  1.00  0.00    -0.242 C  
ENDBRANCH   3   6
BRANCH   5   8
HETATM    8  C   UNL     1     -10.141   5.252  72.554  1.00  0.00    -0.224 C  
HETATM    9  C   UNL     1     -11.007   4.622  73.659  1.00  0.00    -0.392 C  
HETATM   10  C   UNL     1     -10.380   3.736  72.629  1.00  0.00    -0.226 C  
BRANCH   8  11
HETATM   11  C   UNL     1      -8.910   6.010  73.072  1.00  0.00    -0.121 A  
HETATM   12  C   UNL     1      -9.087   7.101  73.947  1.00  0.00    -0.252 A  
HETATM   13  C   UNL     1      -8.043   7.976  74.255  1.00  0.00    -0.312 A  
HETATM   14  C   UNL     1      -7.605   5.785  72.599  1.00  0.00    -0.097 A  
HETATM   15  C   UNL     1      -6.782   7.770  73.708  1.00  0.00    -0.103 A  
HETATM   16  C   UNL     1      -6.556   6.662  72.899  1.00  0.00    -0.067 A  
ENDBRANCH   8  11
BRANCH  10  17
HETATM   17  C   UNL     1      -9.403   2.703  73.066  1.00  0.00    -0.089 C  
HETATM   18  N   UNL     1      -9.667   1.473  72.327  1.00  0.00    -0.092 NA 
HETATM   19  H2  UNL     1      -9.661   1.614  71.317  1.00  0.00     0.000 HD 
HETATM   20  H1  UNL     1      -8.997   0.765  72.628  1.00  0.00     0.000 HD 
ENDBRANCH  10  17
ENDBRANCH   5   8
ENDBRANCH   2   3
TORSDOF 5
ENDMDL
MODEL      195
REMARK 921   NORMALIZED FREE ENERGY PREDICTED BY IDOCK:   -2.83 KCAL/MOL
REMARK 922        TOTAL FREE ENERGY PREDICTED BY IDOCK:   -4.05 KCAL/MOL
REMARK 923 INTER-LIGAND FREE ENERGY PREDICTED BY IDOCK:   -4.03 KCAL/MOL
REMARK 924 INTRA-LIGAND FREE ENERGY PREDICTED BY IDOCK:   -0.02 KCAL/MOL
REMARK 927      BINDING AFFINITY PREDICTED BY RF-SCORE:    0.00 PKD
ROOT
HETATM    1  C   UNL     1     -10.298   9.318  71.383  1.00  0.00    -0.392 C  
HETATM    2  C   UNL     1     -11.083   9.130  70.096  1.00  0.00    -0.222 C  
ENDROOT
BRANCH   2   3
HETATM    3  N   UNL     1     -10.412   9.695  68.923  1.00  0.00    -0.209 N  
HETATM    4  O   UNL     1     -11.595  11.674  69.171  1.00  0.00    -0.258 OA 
HETATM    5  C   UNL     1     -10.788  10.995  68.539  1.00  0.00    -0.213 C  
BRANCH   3   6
HETATM    6  C   UNL     1      -9.706   8.811  67.992  1.00  0.00    -0.157 C  
HETATM    7  C   UNL     1     -10.235   7.399  67.803  1.00  0.00    -0.250 C  
ENDBRANCH   3   6
BRANCH   5   8
HETATM    8  C   UNL     1     -10.145  11.605  67.286  1.00  0.00    -0.221 C  
HETATM    9  C   UNL     1     -10.832  11.289  65.946  1.00  0.00    -0.264 C  
HETATM   10  C   UNL     1     -11.012  12.643  66.557  1.00  0.00    -0.302 C  
BRANCH   8  11
HETATM   11  C   UNL     1      -8.613  11.506  67.248  1.00  0.00    -0.150 A  
HETATM   12  C   UNL     1      -7.853  12.174  68.230  1.00  0.00    -0.153 A  
HETATM   13  C   UNL     1      -6.469  12.329  68.112  1.00  0.00    -0.062 A  
HETATM   14  C   UNL     1      -7.899  10.917  66.190  1.00  0.00    -0.144 A  
HETATM   15  C   UNL     1      -5.804  11.800  67.012  1.00  0.00    -0.145 A  
HETATM   16  C   UNL     1      -6.515  11.073  66.063  1.00  0.00    -0.046 A  
ENDBRANCH   8  11
BRANCH  10  17
HETATM   17  C   UNL     1     -10.531  13.838  65.814  1.00  0.00    -0.299 C  
HETATM   18  N   UNL     1     -10.995  13.744  64.433  1.00  0.00    -0.542 NA 
HETATM   19  H2  UNL     1     -12.006  13.623  64.367  1.00  0.00     0.000 HD 
HETATM   20  H1  UNL     1     -10.665  14.563  63.924  1.00  0.00     0.000 HD 
ENDBRANCH  10  17
ENDBRANCH   5   8
ENDBRANCH   2   3
TORSDOF 5
ENDMDL
MODEL      196
REMARK 921   NORMALIZED FREE ENERGY PREDICTED BY IDOCK:   -2.77 KCAL/MOL
REMARK 922        TOTAL FREE ENERGY PREDICTED BY IDOCK:   -3.97 KCAL/MOL
REMARK 923 INTER-LIGAND FREE ENERGY PREDICTED BY IDOCK:   -3.70 KCAL/MOL
REMARK 924 INTRA-LIGAND FREE ENERGY PREDICTED BY IDOCK:   -0.28 KCAL/MOL
REMARK 927      BINDING AFFINITY PREDICTED BY RF-SCORE:    0.00 PKD
ROOT
HETATM    1  C   UNL     1      -9.222  15.513  66.392  1.00  0.00    -0.339 C  
HETATM    2  C   UNL     1      -9.129  14.814  67.739  1.00  0.00    -0.186 C  
ENDROOT
BRANCH   2   3
HETATM    3  N   UNL     1      -8.971  13.363  67.626  1.00  0.00    -0.190 N  
HETATM    4  O   UNL     1     -11.195  13.054  68.206  1.00  0.00    -0.244 OA 
HETATM    5  C   UNL     1     -10.099  12.576  67.922  1.00  0.00    -0.214 C  
BRANCH   3   6
HETATM    6  C   UNL     1      -7.630  12.775  67.604  1.00  0.00    -0.152 C  
HETATM    7  C   UNL     1      -6.451  13.666  67.958  1.00  0.00    -0.138 C  
ENDBRANCH   3   6
BRANCH   5   8
HETATM    8  C   UNL     1      -9.963  11.048  67.865  1.00  0.00    -0.192 C  
HETATM    9  C   UNL     1     -11.007  10.302  67.015  1.00  0.00    -0.189 C  
HETATM   10  C   UNL     1      -9.622  10.482  66.478  1.00  0.00    -0.216 C  
BRANCH   8  11
HETATM   11  C   UNL     1      -9.664  10.388  69.219  1.00  0.00    -0.231 A  
HETATM   12  C   UNL     1      -8.332  10.317  69.675  1.00  0.00    -0.139 A  
HETATM   13  C   UNL     1      -7.966   9.522  70.764  1.00  0.00    -0.090 A  
HETATM   14  C   UNL     1     -10.627   9.696  69.974  1.00  0.00    -0.300 A  
HETATM   15  C   UNL     1      -8.932   8.789  71.442  1.00  0.00    -0.307 A  
HETATM   16  C   UNL     1     -10.267   8.893  71.062  1.00  0.00    -0.322 A  
ENDBRANCH   8  11
BRANCH  10  17
HETATM   17  C   UNL     1      -8.801   9.277  66.187  1.00  0.00    -0.155 C  
HETATM   18  N   UNL     1      -7.391   9.647  66.264  1.00  0.00    -0.093 NA 
HETATM   19  H2  UNL     1      -7.148  10.081  67.155  1.00  0.00     0.000 HD 
HETATM   20  H1  UNL     1      -6.827   8.821  66.065  1.00  0.00     0.000 HD 
ENDBRANCH  10  17
ENDBRANCH   5   8
ENDBRANCH   2   3
TORSDOF 5
ENDMDL
MODEL      197
REMARK 921   NORMALIZED FREE ENERGY PREDICTED BY IDOCK:   -2.76 KCAL/MOL
REMARK 922        TOTAL FREE ENERGY PREDICTED BY IDOCK:   -3.96 KCAL/MOL
REMARK 923 INTER-LIGAND FREE ENERGY PREDICTED BY IDOCK:   -3.84 KCAL/MOL
REMARK 924 INTRA-LIGAND FREE ENERGY PREDICTED BY IDOCK:   -0.12 KCAL/MOL
REMARK 927      BINDING AFFINITY PREDICTED BY RF-SCORE:    0.00 PKD
ROOT
HETATM    1  C   UNL     1      -8.565   9.369  63.035  1.00  0.00    -0.222 C  
HETATM    2  C   UNL     1      -7.986  10.583  63.741  1.00  0.00    -0.013 C  
ENDROOT
BRANCH   2   3
HETATM    3  N   UNL     1      -8.433  10.711  65.130  1.00  0.00    -0.169 N  
HETATM    4  O   UNL     1     -10.174  12.091  64.466  1.00  0.00    -0.269 OA 
HETATM    5  C   UNL     1      -9.547  11.536  65.366  1.00  0.00    -0.224 C  
BRANCH   3   6
HETATM    6  C   UNL     1      -7.534  10.331  66.222  1.00  0.00    -0.118 C  
HETATM    7  C   UNL     1      -6.472  11.327  66.657  1.00  0.00    -0.128 C  
ENDBRANCH   3   6
BRANCH   5   8
HETATM    8  C   UNL     1     -10.018  11.737  66.813  1.00  0.00    -0.224 C  
HETATM    9  C   UNL     1     -11.264  10.944  67.241  1.00  0.00    -0.307 C  
HETATM   10  C   UNL     1      -9.916  10.489  67.704  1.00  0.00    -0.202 C  
BRANCH   8  11
HETATM   11  C   UNL     1     -10.008  13.199  67.285  1.00  0.00    -0.230 A  
HETATM   12  C   UNL     1      -8.789  13.908  67.315  1.00  0.00    -0.227 A  
HETATM   13  C   UNL     1      -8.669  15.142  67.958  1.00  0.00    -0.165 A  
HETATM   14  C   UNL     1     -11.124  13.840  67.850  1.00  0.00    -0.285 A  
HETATM   15  C   UNL     1      -9.776  15.712  68.574  1.00  0.00    -0.202 A  
HETATM   16  C   UNL     1     -11.010  15.073  68.501  1.00  0.00    -0.259 A  
ENDBRANCH   8  11
BRANCH  10  17
HETATM   17  C   UNL     1      -9.628  10.459  69.162  1.00  0.00    -0.213 C  
HETATM   18  N   UNL     1     -10.871  10.707  69.886  1.00  0.00    -0.381 NA 
HETATM   19  H2  UNL     1     -11.614  10.061  69.621  1.00  0.00     0.000 HD 
HETATM   20  H1  UNL     1     -10.673  10.687  70.886  1.00  0.00     0.000 HD 
ENDBRANCH  10  17
ENDBRANCH   5   8
ENDBRANCH   2   3
TORSDOF 5
ENDMDL
MODEL      198
REMARK 921   NORMALIZED FREE ENERGY PREDICTED BY IDOCK:   -2.73 KCAL/MOL
REMARK 922        TOTAL FREE ENERGY PREDICTED BY IDOCK:   -3.92 KCAL/MOL
REMARK 923 INTER-LIGAND FREE ENERGY PREDICTED BY IDOCK:   -3.65 KCAL/MOL
REMARK 924 INTRA-LIGAND FREE ENERGY PREDICTED BY IDOCK:   -0.28 KCAL/MOL
REMARK 927      BINDING AFFINITY PREDICTED BY RF-SCORE:    0.00 PKD
ROOT
HETATM    1  C   UNL     1      -6.123  10.702  66.181  1.00  0.00    -0.121 C  
HETATM    2  C   UNL     1      -6.705  11.426  67.383  1.00  0.00    -0.094 C  
ENDROOT
BRANCH   2   3
HETATM    3  N   UNL     1      -7.968  10.849  67.849  1.00  0.00    -0.109 N  
HETATM    4  O   UNL     1      -6.834   9.593  69.435  1.00  0.00    -0.050 OA 
HETATM    5  C   UNL     1      -7.889   9.901  68.885  1.00  0.00    -0.091 C  
BRANCH   3   6
HETATM    6  C   UNL     1      -9.168  10.956  67.017  1.00  0.00    -0.152 C  
HETATM    7  C   UNL     1      -9.548  12.325  66.478  1.00  0.00    -0.242 C  
ENDBRANCH   3   6
BRANCH   5   8
HETATM    8  C   UNL     1      -9.185   9.234  69.369  1.00  0.00    -0.159 C  
HETATM    9  C   UNL     1      -9.417   9.220  70.890  1.00  0.00    -0.330 C  
HETATM   10  C   UNL     1     -10.186  10.184  70.043  1.00  0.00    -0.271 C  
BRANCH   8  11
HETATM   11  C   UNL     1      -9.514   7.907  68.668  1.00  0.00    -0.149 A  
HETATM   12  C   UNL     1     -10.425   7.901  67.592  1.00  0.00    -0.303 A  
HETATM   13  C   UNL     1     -10.951   6.713  67.079  1.00  0.00    -0.463 A  
HETATM   14  C   UNL     1      -9.083   6.654  69.138  1.00  0.00    -0.137 A  
HETATM   15  C   UNL     1     -10.562   5.492  67.618  1.00  0.00    -0.239 A  
HETATM   16  C   UNL     1      -9.610   5.461  68.632  1.00  0.00    -0.173 A  
ENDBRANCH   8  11
BRANCH  10  17
HETATM   17  C   UNL     1     -11.670  10.084  70.005  1.00  0.00    -0.175 C  
HETATM   18  N   UNL     1     -12.156   9.876  71.365  1.00  0.00    -0.388 NA 
HETATM   19  H2  UNL     1     -11.829  10.593  72.012  1.00  0.00     0.000 HD 
HETATM   20  H1  UNL     1     -13.173   9.807  71.338  1.00  0.00     0.000 HD 
ENDBRANCH  10  17
ENDBRANCH   5   8
ENDBRANCH   2   3
TORSDOF 5
ENDMDL
MODEL      199
REMARK 921   NORMALIZED FREE ENERGY PREDICTED BY IDOCK:   -2.72 KCAL/MOL
REMARK 922        TOTAL FREE ENERGY PREDICTED BY IDOCK:   -3.92 KCAL/MOL
REMARK 923 INTER-LIGAND FREE ENERGY PREDICTED BY IDOCK:   -4.15 KCAL/MOL
REMARK 924 INTRA-LIGAND FREE ENERGY PREDICTED BY IDOCK:    0.23 KCAL/MOL
REMARK 927      BINDING AFFINITY PREDICTED BY RF-SCORE:    0.00 PKD
ROOT
HETATM    1  C   UNL     1      -5.852  13.398  67.760  1.00  0.00    -0.128 C  
HETATM    2  C   UNL     1      -7.256  12.968  68.151  1.00  0.00    -0.116 C  
ENDROOT
BRANCH   2   3
HETATM    3  N   UNL     1      -8.050  14.050  68.734  1.00  0.00    -0.107 N  
HETATM    4  O   UNL     1      -9.075  14.431  66.690  1.00  0.00    -0.260 OA 
HETATM    5  C   UNL     1      -8.921  14.738  67.870  1.00  0.00    -0.172 C  
BRANCH   3   6
HETATM    6  C   UNL     1      -7.658  14.628  70.022  1.00  0.00     0.300 C  
HETATM    7  C   UNL     1      -6.370  15.432  70.086  1.00  0.00    -0.089 C  
ENDBRANCH   3   6
BRANCH   5   8
HETATM    8  C   UNL     1      -9.735  15.912  68.430  1.00  0.00    -0.214 C  
HETATM    9  C   UNL     1      -8.942  17.179  68.793  1.00  0.00    -0.233 C  
HETATM   10  C   UNL     1      -9.758  17.164  67.539  1.00  0.00    -0.256 C  
BRANCH   8  11
HETATM   11  C   UNL     1     -10.793  15.511  69.469  1.00  0.00    -0.267 A  
HETATM   12  C   UNL     1     -10.931  16.275  70.646  1.00  0.00    -0.179 A  
HETATM   13  C   UNL     1     -11.691  15.829  71.730  1.00  0.00    -0.562 A  
HETATM   14  C   UNL     1     -11.537  14.321  69.398  1.00  0.00    -0.354 A  
HETATM   15  C   UNL     1     -12.352  14.609  71.657  1.00  0.00    -0.416 A  
HETATM   16  C   UNL     1     -12.295  13.865  70.483  1.00  0.00    -0.439 A  
ENDBRANCH   8  11
BRANCH  10  17
HETATM   17  C   UNL     1     -10.877  18.133  67.396  1.00  0.00    -0.235 C  
HETATM   18  N   UNL     1     -10.492  19.384  68.041  1.00  0.00    -0.417 NA 
HETATM   19  H2  UNL     1      -9.609  19.752  67.687  1.00  0.00     0.000 HD 
HETATM   20  H1  UNL     1     -11.260  20.049  67.943  1.00  0.00     0.000 HD 
ENDBRANCH  10  17
ENDBRANCH   5   8
ENDBRANCH   2   3
TORSDOF 5
ENDMDL
MODEL      200
REMARK 921   NORMALIZED FREE ENERGY PREDICTED BY IDOCK:   -2.71 KCAL/MOL
REMARK 922        TOTAL FREE ENERGY PREDICTED BY IDOCK:   -3.90 KCAL/MOL
REMARK 923 INTER-LIGAND FREE ENERGY PREDICTED BY IDOCK:   -3.33 KCAL/MOL
REMARK 924 INTRA-LIGAND FREE ENERGY PREDICTED BY IDOCK:   -0.57 KCAL/MOL
REMARK 927      BINDING AFFINITY PREDICTED BY RF-SCORE:    0.00 PKD
ROOT
HETATM    1  C   UNL     1      -9.862  14.915  68.328  1.00  0.00    -0.218 C  
HETATM    2  C   UNL     1      -9.400  14.505  66.940  1.00  0.00    -0.245 C  
ENDROOT
BRANCH   2   3
HETATM    3  N   UNL     1      -9.310  13.053  66.768  1.00  0.00    -0.240 N  
HETATM    4  O   UNL     1      -7.097  13.087  67.460  1.00  0.00    -0.146 OA 
HETATM    5  C   UNL     1      -8.065  12.457  67.040  1.00  0.00    -0.124 C  
BRANCH   3   6
HETATM    6  C   UNL     1     -10.326  12.348  65.982  1.00  0.00    -0.251 C  
HETATM    7  C   UNL     1     -11.661  12.048  66.642  1.00  0.00    -0.331 C  
ENDBRANCH   3   6
BRANCH   5   8
HETATM    8  C   UNL     1      -7.913  10.945  66.824  1.00  0.00    -0.143 C  
HETATM    9  C   UNL     1      -7.975  10.455  65.367  1.00  0.00    -0.147 C  
HETATM   10  C   UNL     1      -6.650  10.527  66.056  1.00  0.00    -0.127 C  
BRANCH   8  11
HETATM   11  C   UNL     1      -8.708  10.080  67.814  1.00  0.00    -0.125 A  
HETATM   12  C   UNL     1      -9.480   9.005  67.329  1.00  0.00    -0.189 A  
HETATM   13  C   UNL     1     -10.410   8.342  68.133  1.00  0.00    -0.255 A  
HETATM   14  C   UNL     1      -8.848  10.393  69.177  1.00  0.00    -0.180 A  
HETATM   15  C   UNL     1     -10.579   8.727  69.458  1.00  0.00    -0.224 A  
HETATM   16  C   UNL     1      -9.782   9.737  69.987  1.00  0.00    -0.292 A  
ENDBRANCH   8  11
BRANCH  10  17
HETATM   17  C   UNL     1      -5.868   9.276  66.246  1.00  0.00    -0.058 C  
HETATM   18  N   UNL     1      -5.226   9.323  67.556  1.00  0.00    -0.037 NA 
HETATM   19  H2  UNL     1      -5.891   9.487  68.312  1.00  0.00     0.000 HD 
HETATM   20  H1  UNL     1      -4.690   8.465  67.685  1.00  0.00     0.000 HD 
ENDBRANCH  10  17
ENDBRANCH   5   8
ENDBRANCH   2   3
TORSDOF 5
ENDMDL
MODEL      201
REMARK 921   NORMALIZED FREE ENERGY PREDICTED BY IDOCK:   -2.71 KCAL/MOL
REMARK 922        TOTAL FREE ENERGY PREDICTED BY IDOCK:   -3.90 KCAL/MOL
REMARK 923 INTER-LIGAND FREE ENERGY PREDICTED BY IDOCK:   -3.70 KCAL/MOL
REMARK 924 INTRA-LIGAND FREE ENERGY PREDICTED BY IDOCK:   -0.20 KCAL/MOL
REMARK 927      BINDING AFFINITY PREDICTED BY RF-SCORE:    0.00 PKD
ROOT
HETATM    1  C   UNL     1     -11.847  14.985  70.044  1.00  0.00    -0.360 C  
HETATM    2  C   UNL     1     -11.906  14.242  68.720  1.00  0.00    -0.341 C  
ENDROOT
BRANCH   2   3
HETATM    3  N   UNL     1     -11.155  12.985  68.730  1.00  0.00    -0.260 N  
HETATM    4  O   UNL     1      -9.352  14.026  67.711  1.00  0.00    -0.193 OA 
HETATM    5  C   UNL     1      -9.871  13.005  68.156  1.00  0.00    -0.228 C  
BRANCH   3   6
HETATM    6  C   UNL     1     -11.858  11.719  68.955  1.00  0.00    -0.317 C  
HETATM    7  C   UNL     1     -12.362  11.418  70.357  1.00  0.00    -0.404 C  
ENDBRANCH   3   6
BRANCH   5   8
HETATM    8  C   UNL     1      -9.071  11.696  68.101  1.00  0.00    -0.183 C  
HETATM    9  C   UNL     1      -7.848  11.606  69.031  1.00  0.00     0.031 C  
HETATM   10  C   UNL     1      -9.098  10.869  69.396  1.00  0.00     0.102 C  
BRANCH   8  11
HETATM   11  C   UNL     1      -8.825  11.164  66.682  1.00  0.00    -0.168 A  
HETATM   12  C   UNL     1      -9.925  10.913  65.837  1.00  0.00    -0.294 A  
HETATM   13  C   UNL     1      -9.791  10.205  64.641  1.00  0.00    -0.361 A  
HETATM   14  C   UNL     1      -7.565  10.751  66.216  1.00  0.00    -0.142 A  
HETATM   15  C   UNL     1      -8.541   9.743  64.246  1.00  0.00    -0.202 A  
HETATM   16  C   UNL     1      -7.423  10.035  65.021  1.00  0.00    -0.139 A  
ENDBRANCH   8  11
BRANCH  10  17
HETATM   17  C   UNL     1      -9.054   9.387  69.504  1.00  0.00    -0.165 C  
HETATM   18  N   UNL     1      -7.666   8.976  69.692  1.00  0.00    -0.072 NA 
HETATM   19  H2  UNL     1      -7.225   9.439  70.487  1.00  0.00     0.000 HD 
HETATM   20  H1  UNL     1      -7.636   7.959  69.766  1.00  0.00     0.000 HD 
ENDBRANCH  10  17
ENDBRANCH   5   8
ENDBRANCH   2   3
TORSDOF 5
ENDMDL
MODEL      202
REMARK 921   NORMALIZED FREE ENERGY PREDICTED BY IDOCK:   -2.70 KCAL/MOL
REMARK 922        TOTAL FREE ENERGY PREDICTED BY IDOCK:   -3.89 KCAL/MOL
REMARK 923 INTER-LIGAND FREE ENERGY PREDICTED BY IDOCK:   -4.00 KCAL/MOL
REMARK 924 INTRA-LIGAND FREE ENERGY PREDICTED BY IDOCK:    0.12 KCAL/MOL
REMARK 927      BINDING AFFINITY PREDICTED BY RF-SCORE:    0.00 PKD
ROOT
HETATM    1  C   UNL     1     -12.195  13.437  70.396  1.00  0.00    -0.415 C  
HETATM    2  C   UNL     1     -12.514  11.952  70.357  1.00  0.00    -0.170 C  
ENDROOT
BRANCH   2   3
HETATM    3  N   UNL     1     -11.710  11.214  69.381  1.00  0.00    -0.302 N  
HETATM    4  O   UNL     1     -10.852   9.873  71.067  1.00  0.00    -0.321 OA 
HETATM    5  C   UNL     1     -10.881  10.194  69.881  1.00  0.00    -0.299 C  
BRANCH   3   6
HETATM    6  C   UNL     1     -11.490  11.775  68.046  1.00  0.00    -0.319 C  
HETATM    7  C   UNL     1     -10.370  12.786  67.869  1.00  0.00    -0.228 C  
ENDBRANCH   3   6
BRANCH   5   8
HETATM    8  C   UNL     1      -9.983   9.429  68.898  1.00  0.00    -0.188 C  
HETATM    9  C   UNL     1     -10.408   7.988  68.567  1.00  0.00    -0.229 C  
HETATM   10  C   UNL     1     -10.651   9.069  67.562  1.00  0.00    -0.306 C  
BRANCH   8  11
HETATM   11  C   UNL     1      -8.478   9.602  69.150  1.00  0.00    -0.143 A  
HETATM   12  C   UNL     1      -7.669   8.458  69.312  1.00  0.00    -0.098 A  
HETATM   13  C   UNL     1      -6.357   8.544  69.783  1.00  0.00    -0.035 A  
HETATM   14  C   UNL     1      -7.869  10.845  69.392  1.00  0.00    -0.048 A  
HETATM   15  C   UNL     1      -5.810   9.785  70.088  1.00  0.00    -0.047 A  
HETATM   16  C   UNL     1      -6.557  10.938  69.871  1.00  0.00    -0.148 A  
ENDBRANCH   8  11
BRANCH  10  17
HETATM   17  C   UNL     1      -9.989   8.979  66.234  1.00  0.00    -0.281 C  
HETATM   18  N   UNL     1      -9.682   7.578  65.962  1.00  0.00    -0.425 NA 
HETATM   19  H2  UNL     1     -10.503   6.977  66.031  1.00  0.00     0.000 HD 
HETATM   20  H1  UNL     1      -9.227   7.517  65.051  1.00  0.00     0.000 HD 
ENDBRANCH  10  17
ENDBRANCH   5   8
ENDBRANCH   2   3
TORSDOF 5
ENDMDL
MODEL      203
REMARK 921   NORMALIZED FREE ENERGY PREDICTED BY IDOCK:   -2.67 KCAL/MOL
REMARK 922        TOTAL FREE ENERGY PREDICTED BY IDOCK:   -3.85 KCAL/MOL
REMARK 923 INTER-LIGAND FREE ENERGY PREDICTED BY IDOCK:   -3.40 KCAL/MOL
REMARK 924 INTRA-LIGAND FREE ENERGY PREDICTED BY IDOCK:   -0.45 KCAL/MOL
REMARK 927      BINDING AFFINITY PREDICTED BY RF-SCORE:    0.00 PKD
ROOT
HETATM    1  C   UNL     1      -7.183  13.531  68.297  1.00  0.00    -0.111 C  
HETATM    2  C   UNL     1      -7.077  12.046  68.600  1.00  0.00    -0.103 C  
ENDROOT
BRANCH   2   3
HETATM    3  N   UNL     1      -7.507  11.198  67.487  1.00  0.00    -0.099 N  
HETATM    4  O   UNL     1      -9.566  10.870  68.503  1.00  0.00    -0.172 OA 
HETATM    5  C   UNL     1      -8.793  10.634  67.576  1.00  0.00    -0.132 C  
BRANCH   3   6
HETATM    6  C   UNL     1      -6.513  10.658  66.555  1.00  0.00    -0.106 C  
HETATM    7  C   UNL     1      -5.297   9.954  67.134  1.00  0.00    -0.042 C  
ENDBRANCH   3   6
BRANCH   5   8
HETATM    8  C   UNL     1      -9.264   9.699  66.454  1.00  0.00    -0.205 C  
HETATM    9  C   UNL     1     -10.474  10.176  65.632  1.00  0.00    -0.103 C  
HETATM   10  C   UNL     1      -9.105  10.264  65.034  1.00  0.00    -0.244 C  
BRANCH   8  11
HETATM   11  C   UNL     1      -9.313   8.214  66.846  1.00  0.00    -0.219 A  
HETATM   12  C   UNL     1     -10.534   7.515  66.754  1.00  0.00    -0.319 A  
HETATM   13  C   UNL     1     -10.703   6.250  67.322  1.00  0.00    -0.424 A  
HETATM   14  C   UNL     1      -8.241   7.536  67.453  1.00  0.00    -0.116 A  
HETATM   15  C   UNL     1      -9.644   5.639  67.982  1.00  0.00    -0.137 A  
HETATM   16  C   UNL     1      -8.406   6.272  68.028  1.00  0.00    -0.114 A  
ENDBRANCH   8  11
BRANCH  10  17
HETATM   17  C   UNL     1      -8.809   9.491  63.799  1.00  0.00    -0.210 C  
HETATM   18  N   UNL     1      -9.736   9.914  62.753  1.00  0.00    -0.542 NA 
HETATM   19  H2  UNL     1      -9.718  10.922  62.598  1.00  0.00     0.000 HD 
HETATM   20  H1  UNL     1      -9.532   9.384  61.906  1.00  0.00     0.000 HD 
ENDBRANCH  10  17
ENDBRANCH   5   8
ENDBRANCH   2   3
TORSDOF 5
ENDMDL
MODEL      204
REMARK 921   NORMALIZED FREE ENERGY PREDICTED BY IDOCK:   -2.66 KCAL/MOL
REMARK 922        TOTAL FREE ENERGY PREDICTED BY IDOCK:   -3.84 KCAL/MOL
REMARK 923 INTER-LIGAND FREE ENERGY PREDICTED BY IDOCK:   -3.69 KCAL/MOL
REMARK 924 INTRA-LIGAND FREE ENERGY PREDICTED BY IDOCK:   -0.15 KCAL/MOL
REMARK 927      BINDING AFFINITY PREDICTED BY RF-SCORE:    0.00 PKD
ROOT
HETATM    1  C   UNL     1      -8.533  10.851  68.034  1.00  0.00    -0.130 C  
HETATM    2  C   UNL     1      -7.908   9.485  68.257  1.00  0.00    -0.086 C  
ENDROOT
BRANCH   2   3
HETATM    3  N   UNL     1      -8.848   8.502  68.799  1.00  0.00    -0.139 N  
HETATM    4  O   UNL     1      -7.156   7.547  70.065  1.00  0.00    -0.058 OA 
HETATM    5  C   UNL     1      -8.327   7.547  69.692  1.00  0.00    -0.131 C  
BRANCH   3   6
HETATM    6  C   UNL     1     -10.139   8.289  68.141  1.00  0.00    -0.200 C  
HETATM    7  C   UNL     1     -10.158   8.150  66.627  1.00  0.00    -0.344 C  
ENDBRANCH   3   6
BRANCH   5   8
HETATM    8  C   UNL     1      -9.268   6.468  70.244  1.00  0.00    -0.156 C  
HETATM    9  C   UNL     1      -9.679   5.356  69.264  1.00  0.00    -0.224 C  
HETATM   10  C   UNL     1      -8.661   5.059  70.318  1.00  0.00    -0.116 C  
BRANCH   8  11
HETATM   11  C   UNL     1     -10.422   7.012  71.101  1.00  0.00    -0.229 A  
HETATM   12  C   UNL     1     -11.716   6.476  70.939  1.00  0.00    -0.416 A  
HETATM   13  C   UNL     1     -12.841   7.085  71.499  1.00  0.00    -0.420 A  
HETATM   14  C   UNL     1     -10.305   8.137  71.935  1.00  0.00    -0.300 A  
HETATM   15  C   UNL     1     -12.699   8.242  72.256  1.00  0.00    -0.338 A  
HETATM   16  C   UNL     1     -11.429   8.755  72.494  1.00  0.00    -0.183 A  
ENDBRANCH   8  11
BRANCH  10  17
HETATM   17  C   UNL     1      -8.960   4.015  71.334  1.00  0.00    -0.111 C  
HETATM   18  N   UNL     1      -8.432   4.456  72.622  1.00  0.00    -0.108 NA 
HETATM   19  H2  UNL     1      -8.779   5.376  72.893  1.00  0.00     0.000 HD 
HETATM   20  H1  UNL     1      -8.637   3.739  73.318  1.00  0.00     0.000 HD 
ENDBRANCH  10  17
ENDBRANCH   5   8
ENDBRANCH   2   3
TORSDOF 5
ENDMDL
MODEL      205
REMARK 921   NORMALIZED FREE ENERGY PREDICTED BY IDOCK:   -2.65 KCAL/MOL
REMARK 922        TOTAL FREE ENERGY PREDICTED BY IDOCK:   -3.81 KCAL/MOL
REMARK 923 INTER-LIGAND FREE ENERGY PREDICTED BY IDOCK:   -3.67 KCAL/MOL
REMARK 924 INTRA-LIGAND FREE ENERGY PREDICTED BY IDOCK:   -0.15 KCAL/MOL
REMARK 927      BINDING AFFINITY PREDICTED BY RF-SCORE:    0.00 PKD
ROOT
HETATM    1  C   UNL     1     -10.554   4.942  66.069  1.00  0.00    -0.312 C  
HETATM    2  C   UNL     1     -10.858   5.855  67.245  1.00  0.00    -0.260 C  
ENDROOT
BRANCH   2   3
HETATM    3  N   UNL     1     -10.022   5.586  68.416  1.00  0.00    -0.149 N  
HETATM    4  O   UNL     1     -10.617   7.628  69.339  1.00  0.00    -0.225 OA 
HETATM    5  C   UNL     1      -9.964   6.588  69.401  1.00  0.00    -0.158 C  
BRANCH   3   6
HETATM    6  C   UNL     1      -9.012   4.526  68.361  1.00  0.00    -0.113 C  
HETATM    7  C   UNL     1      -9.401   3.138  68.843  1.00  0.00    -0.231 C  
ENDBRANCH   3   6
BRANCH   5   8
HETATM    8  C   UNL     1      -9.059   6.367  70.621  1.00  0.00    -0.148 C  
HETATM    9  C   UNL     1      -7.590   6.019  70.326  1.00  0.00    -0.095 C  
HETATM   10  C   UNL     1      -7.934   7.400  70.786  1.00  0.00    -0.104 C  
BRANCH   8  11
HETATM   11  C   UNL     1      -9.696   5.524  71.736  1.00  0.00    -0.202 A  
HETATM   12  C   UNL     1      -9.025   4.376  72.205  1.00  0.00    -0.143 A  
HETATM   13  C   UNL     1      -9.652   3.440  73.029  1.00  0.00    -0.155 A  
HETATM   14  C   UNL     1     -11.000   5.733  72.218  1.00  0.00    -0.314 A  
HETATM   15  C   UNL     1     -10.970   3.638  73.425  1.00  0.00    -0.312 A  
HETATM   16  C   UNL     1     -11.637   4.796  73.039  1.00  0.00    -0.252 A  
ENDBRANCH   8  11
BRANCH  10  17
HETATM   17  C   UNL     1      -7.364   7.895  72.067  1.00  0.00    -0.081 C  
HETATM   18  N   UNL     1      -8.397   8.642  72.777  1.00  0.00    -0.413 NA 
HETATM   19  H2  UNL     1      -9.250   8.098  72.913  1.00  0.00     0.000 HD 
HETATM   20  H1  UNL     1      -8.006   8.982  73.656  1.00  0.00     0.000 HD 
ENDBRANCH  10  17
ENDBRANCH   5   8
ENDBRANCH   2   3
TORSDOF 5
ENDMDL
MODEL      206
REMARK 921   NORMALIZED FREE ENERGY PREDICTED BY IDOCK:   -2.62 KCAL/MOL
REMARK 922        TOTAL FREE ENERGY PREDICTED BY IDOCK:   -3.78 KCAL/MOL
REMARK 923 INTER-LIGAND FREE ENERGY PREDICTED BY IDOCK:   -4.15 KCAL/MOL
REMARK 924 INTRA-LIGAND FREE ENERGY PREDICTED BY IDOCK:    0.37 KCAL/MOL
REMARK 927      BINDING AFFINITY PREDICTED BY RF-SCORE:    0.00 PKD
ROOT
HETATM    1  C   UNL     1     -10.737  10.091  70.279  1.00  0.00    -0.367 C  
HETATM    2  C   UNL     1     -10.549   8.922  69.327  1.00  0.00    -0.207 C  
ENDROOT
BRANCH   2   3
HETATM    3  N   UNL     1      -9.723   9.251  68.164  1.00  0.00    -0.147 N  
HETATM    4  O   UNL     1     -10.835   7.660  66.895  1.00  0.00    -0.328 OA 
HETATM    5  C   UNL     1      -9.952   8.510  66.990  1.00  0.00    -0.250 C  
BRANCH   3   6
HETATM    6  C   UNL     1      -8.484  10.012  68.342  1.00  0.00    -0.112 C  
HETATM    7  C   UNL     1      -8.539  11.521  68.172  1.00  0.00    -0.156 C  
ENDBRANCH   3   6
BRANCH   5   8
HETATM    8  C   UNL     1      -9.074   8.789  65.763  1.00  0.00    -0.267 C  
HETATM    9  C   UNL     1      -7.558   8.608  65.954  1.00  0.00    -0.089 C  
HETATM   10  C   UNL     1      -8.329   7.564  65.211  1.00  0.00    -0.112 C  
BRANCH   8  11
HETATM   11  C   UNL     1      -9.464  10.051  64.978  1.00  0.00    -0.339 A  
HETATM   12  C   UNL     1     -10.609  10.778  65.364  1.00  0.00    -0.224 A  
HETATM   13  C   UNL     1     -11.155  11.778  64.555  1.00  0.00    -0.376 A  
HETATM   14  C   UNL     1      -8.839  10.445  63.783  1.00  0.00    -0.222 A  
HETATM   15  C   UNL     1     -10.555  12.091  63.341  1.00  0.00    -0.478 A  
HETATM   16  C   UNL     1      -9.384  11.442  62.965  1.00  0.00    -0.344 A  
ENDBRANCH   8  11
BRANCH  10  17
HETATM   17  C   UNL     1      -7.991   7.297  63.788  1.00  0.00    -0.078 C  
HETATM   18  N   UNL     1      -6.579   7.605  63.580  1.00  0.00    -0.057 NA 
HETATM   19  H2  UNL     1      -5.970   7.105  64.227  1.00  0.00     0.000 HD 
HETATM   20  H1  UNL     1      -6.348   7.422  62.604  1.00  0.00     0.000 HD 
ENDBRANCH  10  17
ENDBRANCH   5   8
ENDBRANCH   2   3
TORSDOF 5
ENDMDL
MODEL      207
REMARK 921   NORMALIZED FREE ENERGY PREDICTED BY IDOCK:   -2.62 KCAL/MOL
REMARK 922        TOTAL FREE ENERGY PREDICTED BY IDOCK:   -3.78 KCAL/MOL
REMARK 923 INTER-LIGAND FREE ENERGY PREDICTED BY IDOCK:   -3.59 KCAL/MOL
REMARK 924 INTRA-LIGAND FREE ENERGY PREDICTED BY IDOCK:   -0.20 KCAL/MOL
REMARK 927      BINDING AFFINITY PREDICTED BY RF-SCORE:    0.00 PKD
ROOT
HETATM    1  C   UNL     1     -11.995   7.002  71.204  1.00  0.00    -0.398 C  
HETATM    2  C   UNL     1     -11.502   6.240  69.985  1.00  0.00    -0.390 C  
ENDROOT
BRANCH   2   3
HETATM    3  N   UNL     1     -10.348   6.869  69.340  1.00  0.00    -0.197 N  
HETATM    4  O   UNL     1     -11.259   6.446  67.249  1.00  0.00    -0.364 OA 
HETATM    5  C   UNL     1     -10.334   6.881  67.933  1.00  0.00    -0.195 C  
BRANCH   3   6
HETATM    6  C   UNL     1      -9.120   7.097  70.105  1.00  0.00    -0.152 C  
HETATM    7  C   UNL     1      -8.537   5.934  70.890  1.00  0.00    -0.131 C  
ENDBRANCH   3   6
BRANCH   5   8
HETATM    8  C   UNL     1      -9.119   7.486  67.216  1.00  0.00    -0.137 C  
HETATM    9  C   UNL     1      -7.801   6.700  67.328  1.00  0.00    -0.112 C  
HETATM   10  C   UNL     1      -8.576   6.648  66.049  1.00  0.00    -0.152 C  
BRANCH   8  11
HETATM   11  C   UNL     1      -8.966   9.004  67.400  1.00  0.00    -0.135 A  
HETATM   12  C   UNL     1      -7.682   9.550  67.600  1.00  0.00    -0.095 A  
HETATM   13  C   UNL     1      -7.500  10.871  68.016  1.00  0.00    -0.090 A  
HETATM   14  C   UNL     1     -10.055   9.881  67.544  1.00  0.00    -0.244 A  
HETATM   15  C   UNL     1      -8.602  11.691  68.224  1.00  0.00    -0.162 A  
HETATM   16  C   UNL     1      -9.880  11.204  67.966  1.00  0.00    -0.185 A  
ENDBRANCH   8  11
BRANCH  10  17
HETATM   17  C   UNL     1      -7.946   7.161  64.804  1.00  0.00    -0.122 C  
HETATM   18  N   UNL     1      -8.350   6.307  63.692  1.00  0.00    -0.328 NA 
HETATM   19  H2  UNL     1      -9.363   6.222  63.611  1.00  0.00     0.000 HD 
HETATM   20  H1  UNL     1      -7.917   6.659  62.838  1.00  0.00     0.000 HD 
ENDBRANCH  10  17
ENDBRANCH   5   8
ENDBRANCH   2   3
TORSDOF 5
ENDMDL
MODEL      208
REMARK 921   NORMALIZED FREE ENERGY PREDICTED BY IDOCK:   -2.61 KCAL/MOL
REMARK 922        TOTAL FREE ENERGY PREDICTED BY IDOCK:   -3.77 KCAL/MOL
REMARK 923 INTER-LIGAND FREE ENERGY PREDICTED BY IDOCK:   -3.40 KCAL/MOL
REMARK 924 INTRA-LIGAND FREE ENERGY PREDICTED BY IDOCK:   -0.36 KCAL/MOL
REMARK 927      BINDING AFFINITY PREDICTED BY RF-SCORE:    0.00 PKD
ROOT
HETATM    1  C   UNL     1     -10.479  16.687  65.363  1.00  0.00    -0.253 C  
HETATM    2  C   UNL     1      -9.547  15.521  65.081  1.00  0.00     0.224 C  
ENDROOT
BRANCH   2   3
HETATM    3  N   UNL     1     -10.027  14.252  65.631  1.00  0.00    -0.332 N  
HETATM    4  O   UNL     1      -8.655  14.509  67.482  1.00  0.00    -0.167 OA 
HETATM    5  C   UNL     1      -9.468  13.835  66.852  1.00  0.00    -0.262 C  
BRANCH   3   6
HETATM    6  C   UNL     1     -10.734  13.304  64.766  1.00  0.00    -0.378 C  
HETATM    7  C   UNL     1     -12.244  13.430  64.647  1.00  0.00    -0.456 C  
ENDBRANCH   3   6
BRANCH   5   8
HETATM    8  C   UNL     1      -9.907  12.486  67.438  1.00  0.00    -0.201 C  
HETATM    9  C   UNL     1     -10.059  12.425  68.968  1.00  0.00     0.136 C  
HETATM   10  C   UNL     1     -11.286  12.496  68.115  1.00  0.00    -0.343 C  
BRANCH   8  11
HETATM   11  C   UNL     1      -9.198  11.269  66.826  1.00  0.00    -0.186 A  
HETATM   12  C   UNL     1      -7.795  11.284  66.685  1.00  0.00    -0.152 A  
HETATM   13  C   UNL     1      -7.121  10.329  65.920  1.00  0.00    -0.131 A  
HETATM   14  C   UNL     1      -9.880  10.188  66.239  1.00  0.00    -0.288 A  
HETATM   15  C   UNL     1      -7.834   9.317  65.289  1.00  0.00    -0.105 A  
HETATM   16  C   UNL     1      -9.211   9.232  65.467  1.00  0.00    -0.292 A  
ENDBRANCH   8  11
BRANCH  10  17
HETATM   17  C   UNL     1     -12.260  11.373  68.162  1.00  0.00     0.299 C  
HETATM   18  N   UNL     1     -12.118  10.688  69.442  1.00  0.00    -0.521 NA 
HETATM   19  H2  UNL     1     -12.211  11.320  70.237  1.00  0.00     0.000 HD 
HETATM   20  H1  UNL     1     -12.786   9.918  69.474  1.00  0.00     0.000 HD 
ENDBRANCH  10  17
ENDBRANCH   5   8
ENDBRANCH   2   3
TORSDOF 5
ENDMDL
MODEL      209
REMARK 921   NORMALIZED FREE ENERGY PREDICTED BY IDOCK:   -2.59 KCAL/MOL
REMARK 922        TOTAL FREE ENERGY PREDICTED BY IDOCK:   -3.74 KCAL/MOL
REMARK 923 INTER-LIGAND FREE ENERGY PREDICTED BY IDOCK:   -3.27 KCAL/MOL
REMARK 924 INTRA-LIGAND FREE ENERGY PREDICTED BY IDOCK:   -0.47 KCAL/MOL
REMARK 927      BINDING AFFINITY PREDICTED BY RF-SCORE:    0.00 PKD
ROOT
HETATM    1  C   UNL     1     -10.561   5.088  66.195  1.00  0.00    -0.321 C  
HETATM    2  C   UNL     1      -9.252   5.830  66.408  1.00  0.00    -0.151 C  
ENDROOT
BRANCH   2   3
HETATM    3  N   UNL     1      -9.391   7.009  67.265  1.00  0.00    -0.130 N  
HETATM    4  O   UNL     1      -8.688   5.783  69.104  1.00  0.00    -0.112 OA 
HETATM    5  C   UNL     1      -9.099   6.841  68.631  1.00  0.00    -0.127 C  
BRANCH   3   6
HETATM    6  C   UNL     1     -10.166   8.162  66.799  1.00  0.00    -0.302 C  
HETATM    7  C   UNL     1      -9.502   9.128  65.833  1.00  0.00    -0.326 C  
ENDBRANCH   3   6
BRANCH   5   8
HETATM    8  C   UNL     1      -9.279   8.039  69.573  1.00  0.00    -0.152 C  
HETATM    9  C   UNL     1     -10.729   8.440  69.895  1.00  0.00    -0.227 C  
HETATM   10  C   UNL     1      -9.930   7.705  70.924  1.00  0.00    -0.183 C  
BRANCH   8  11
HETATM   11  C   UNL     1      -8.348   9.225  69.276  1.00  0.00    -0.124 A  
HETATM   12  C   UNL     1      -8.897  10.515  69.128  1.00  0.00    -0.161 A  
HETATM   13  C   UNL     1      -8.151  11.580  68.619  1.00  0.00    -0.132 A  
HETATM   14  C   UNL     1      -6.982   9.082  68.977  1.00  0.00    -0.063 A  
HETATM   15  C   UNL     1      -6.822  11.386  68.260  1.00  0.00    -0.069 A  
HETATM   16  C   UNL     1      -6.230  10.143  68.461  1.00  0.00    -0.044 A  
ENDBRANCH   8  11
BRANCH  10  17
HETATM   17  C   UNL     1      -9.656   8.364  72.229  1.00  0.00    -0.304 C  
HETATM   18  N   UNL     1     -10.655   7.915  73.194  1.00  0.00    -0.344 NA 
HETATM   19  H2  UNL     1     -10.696   6.898  73.270  1.00  0.00     0.000 HD 
HETATM   20  H1  UNL     1     -10.467   8.367  74.089  1.00  0.00     0.000 HD 
ENDBRANCH  10  17
ENDBRANCH   5   8
ENDBRANCH   2   3
TORSDOF 5
ENDMDL
MODEL      210
REMARK 921   NORMALIZED FREE ENERGY PREDICTED BY IDOCK:   -2.58 KCAL/MOL
REMARK 922        TOTAL FREE ENERGY PREDICTED BY IDOCK:   -3.73 KCAL/MOL
REMARK 923 INTER-LIGAND FREE ENERGY PREDICTED BY IDOCK:   -3.43 KCAL/MOL
REMARK 924 INTRA-LIGAND FREE ENERGY PREDICTED BY IDOCK:   -0.30 KCAL/MOL
REMARK 927      BINDING AFFINITY PREDICTED BY RF-SCORE:    0.00 PKD
ROOT
HETATM    1  C   UNL     1      -9.501  14.209  66.918  1.00  0.00    -0.275 C  
HETATM    2  C   UNL     1     -10.043  13.020  67.694  1.00  0.00    -0.217 C  
ENDROOT
BRANCH   2   3
HETATM    3  N   UNL     1      -9.301  11.783  67.448  1.00  0.00    -0.171 N  
HETATM    4  O   UNL     1     -11.259  10.551  67.599  1.00  0.00    -0.326 OA 
HETATM    5  C   UNL     1     -10.039  10.586  67.455  1.00  0.00    -0.197 C  
BRANCH   3   6
HETATM    6  C   UNL     1      -7.843  11.767  67.590  1.00  0.00    -0.138 C  
HETATM    7  C   UNL     1      -7.254  12.028  68.966  1.00  0.00    -0.053 C  
ENDBRANCH   3   6
BRANCH   5   8
HETATM    8  C   UNL     1      -9.291   9.261  67.250  1.00  0.00    -0.161 C  
HETATM    9  C   UNL     1      -8.508   8.727  68.462  1.00  0.00    -0.130 C  
HETATM   10  C   UNL     1      -9.811   8.089  68.097  1.00  0.00    -0.195 C  
BRANCH   8  11
HETATM   11  C   UNL     1      -8.536   9.159  65.916  1.00  0.00    -0.168 A  
HETATM   12  C   UNL     1      -9.194   9.514  64.721  1.00  0.00    -0.267 A  
HETATM   13  C   UNL     1      -8.658   9.213  63.466  1.00  0.00    -0.177 A  
HETATM   14  C   UNL     1      -7.264   8.575  65.787  1.00  0.00    -0.076 A  
HETATM   15  C   UNL     1      -7.432   8.565  63.374  1.00  0.00    -0.112 A  
HETATM   16  C   UNL     1      -6.723   8.266  64.534  1.00  0.00    -0.068 A  
ENDBRANCH   8  11
BRANCH  10  17
HETATM   17  C   UNL     1      -9.828   6.653  67.712  1.00  0.00    -0.124 C  
HETATM   18  N   UNL     1     -10.819   6.466  66.658  1.00  0.00    -0.579 NA 
HETATM   19  H2  UNL     1     -10.664   7.083  65.860  1.00  0.00     0.000 HD 
HETATM   20  H1  UNL     1     -10.831   5.481  66.394  1.00  0.00     0.000 HD 
ENDBRANCH  10  17
ENDBRANCH   5   8
ENDBRANCH   2   3
TORSDOF 5
ENDMDL
MODEL      211
REMARK 921   NORMALIZED FREE ENERGY PREDICTED BY IDOCK:   -2.57 KCAL/MOL
REMARK 922        TOTAL FREE ENERGY PREDICTED BY IDOCK:   -3.72 KCAL/MOL
REMARK 923 INTER-LIGAND FREE ENERGY PREDICTED BY IDOCK:   -4.56 KCAL/MOL
REMARK 924 INTRA-LIGAND FREE ENERGY PREDICTED BY IDOCK:    0.84 KCAL/MOL
REMARK 927      BINDING AFFINITY PREDICTED BY RF-SCORE:    0.00 PKD
ROOT
HETATM    1  C   UNL     1      -9.431   6.100  66.496  1.00  0.00    -0.178 C  
HETATM    2  C   UNL     1     -10.676   6.757  67.068  1.00  0.00    -0.365 C  
ENDROOT
BRANCH   2   3
HETATM    3  N   UNL     1     -10.377   7.871  67.970  1.00  0.00    -0.211 N  
HETATM    4  O   UNL     1     -10.472   9.363  66.198  1.00  0.00    -0.162 OA 
HETATM    5  C   UNL     1     -10.271   9.148  67.391  1.00  0.00    -0.247 C  
BRANCH   3   6
HETATM    6  C   UNL     1      -9.831   7.602  69.303  1.00  0.00    -0.168 C  
HETATM    7  C   UNL     1     -10.647   6.740  70.252  1.00  0.00    -0.251 C  
ENDBRANCH   3   6
BRANCH   5   8
HETATM    8  C   UNL     1      -9.909  10.336  68.294  1.00  0.00    -0.161 C  
HETATM    9  C   UNL     1      -8.544  10.264  68.999  1.00  0.00    -0.162 C  
HETATM   10  C   UNL     1      -8.708  11.166  67.817  1.00  0.00    -0.132 C  
BRANCH   8  11
HETATM   11  C   UNL     1     -11.058  10.822  69.191  1.00  0.00    -0.304 A  
HETATM   12  C   UNL     1     -11.345  12.200  69.260  1.00  0.00    -0.327 A  
HETATM   13  C   UNL     1     -12.200  12.728  70.231  1.00  0.00    -0.351 A  
HETATM   14  C   UNL     1     -11.750   9.987  70.086  1.00  0.00    -0.285 A  
HETATM   15  C   UNL     1     -12.809  11.883  71.150  1.00  0.00    -0.346 A  
HETATM   16  C   UNL     1     -12.603  10.510  71.064  1.00  0.00    -0.499 A  
ENDBRANCH   8  11
BRANCH  10  17
HETATM   17  C   UNL     1      -8.513  12.630  67.995  1.00  0.00    -0.177 C  
HETATM   18  N   UNL     1      -9.203  13.326  66.913  1.00  0.00    -0.236 NA 
HETATM   19  H2  UNL     1     -10.188  13.067  66.847  1.00  0.00     0.000 HD 
HETATM   20  H1  UNL     1      -9.069  14.329  67.036  1.00  0.00     0.000 HD 
ENDBRANCH  10  17
ENDBRANCH   5   8
ENDBRANCH   2   3
TORSDOF 5
ENDMDL
MODEL      212
REMARK 921   NORMALIZED FREE ENERGY PREDICTED BY IDOCK:   -2.55 KCAL/MOL
REMARK 922        TOTAL FREE ENERGY PREDICTED BY IDOCK:   -3.69 KCAL/MOL
REMARK 923 INTER-LIGAND FREE ENERGY PREDICTED BY IDOCK:   -3.49 KCAL/MOL
REMARK 924 INTRA-LIGAND FREE ENERGY PREDICTED BY IDOCK:   -0.20 KCAL/MOL
REMARK 927      BINDING AFFINITY PREDICTED BY RF-SCORE:    0.00 PKD
ROOT
HETATM    1  C   UNL     1      -8.052   9.276  69.342  1.00  0.00    -0.108 C  
HETATM    2  C   UNL     1      -8.304   9.209  70.839  1.00  0.00    -0.185 C  
ENDROOT
BRANCH   2   3
HETATM    3  N   UNL     1      -9.010   7.994  71.252  1.00  0.00    -0.134 N  
HETATM    4  O   UNL     1      -6.998   6.854  71.419  1.00  0.00    -0.064 OA 
HETATM    5  C   UNL     1      -8.225   6.851  71.488  1.00  0.00    -0.110 C  
BRANCH   3   6
HETATM    6  C   UNL     1     -10.455   7.882  71.034  1.00  0.00    -0.203 C  
HETATM    7  C   UNL     1     -11.280   9.158  71.027  1.00  0.00    -0.380 C  
ENDBRANCH   3   6
BRANCH   5   8
HETATM    8  C   UNL     1      -8.930   5.543  71.874  1.00  0.00    -0.142 C  
HETATM    9  C   UNL     1      -8.623   4.991  73.276  1.00  0.00    -0.112 C  
HETATM   10  C   UNL     1      -9.934   5.668  73.030  1.00  0.00    -0.191 C  
BRANCH   8  11
HETATM   11  C   UNL     1      -8.942   4.480  70.765  1.00  0.00    -0.161 A  
HETATM   12  C   UNL     1      -9.212   4.868  69.437  1.00  0.00    -0.160 A  
HETATM   13  C   UNL     1      -9.480   3.933  68.435  1.00  0.00    -0.210 A  
HETATM   14  C   UNL     1      -8.858   3.099  71.014  1.00  0.00    -0.143 A  
HETATM   15  C   UNL     1      -9.464   2.575  68.732  1.00  0.00    -0.182 A  
HETATM   16  C   UNL     1      -9.130   2.156  70.016  1.00  0.00    -0.172 A  
ENDBRANCH   8  11
BRANCH  10  17
HETATM   17  C   UNL     1     -11.190   4.891  73.205  1.00  0.00    -0.345 C  
HETATM   18  N   UNL     1     -12.314   5.727  72.796  1.00  0.00    -0.488 NA 
HETATM   19  H2  UNL     1     -12.207   6.090  71.848  1.00  0.00     0.000 HD 
HETATM   20  H1  UNL     1     -13.175   5.194  72.916  1.00  0.00     0.000 HD 
ENDBRANCH  10  17
ENDBRANCH   5   8
ENDBRANCH   2   3
TORSDOF 5
ENDMDL
MODEL      213
REMARK 921   NORMALIZED FREE ENERGY PREDICTED BY IDOCK:   -2.55 KCAL/MOL
REMARK 922        TOTAL FREE ENERGY PREDICTED BY IDOCK:   -3.69 KCAL/MOL
REMARK 923 INTER-LIGAND FREE ENERGY PREDICTED BY IDOCK:   -3.74 KCAL/MOL
REMARK 924 INTRA-LIGAND FREE ENERGY PREDICTED BY IDOCK:    0.05 KCAL/MOL
REMARK 927      BINDING AFFINITY PREDICTED BY RF-SCORE:    0.00 PKD
ROOT
HETATM    1  C   UNL     1      -6.205  11.998  67.311  1.00  0.00    -0.149 C  
HETATM    2  C   UNL     1      -7.424  11.415  66.616  1.00  0.00    -0.110 C  
ENDROOT
BRANCH   2   3
HETATM    3  N   UNL     1      -8.682  12.029  67.045  1.00  0.00    -0.182 N  
HETATM    4  O   UNL     1      -8.463  11.065  69.143  1.00  0.00    -0.118 OA 
HETATM    5  C   UNL     1      -9.115  11.745  68.353  1.00  0.00    -0.176 C  
BRANCH   3   6
HETATM    6  C   UNL     1      -9.610  12.564  66.046  1.00  0.00    -0.202 C  
HETATM    7  C   UNL     1      -9.415  13.997  65.580  1.00  0.00     0.027 C  
ENDBRANCH   3   6
BRANCH   5   8
HETATM    8  C   UNL     1     -10.454  12.328  68.826  1.00  0.00    -0.187 C  
HETATM    9  C   UNL     1     -11.723  11.629  68.307  1.00  0.00    -0.374 C  
HETATM   10  C   UNL     1     -11.285  11.393  69.718  1.00  0.00    -0.266 C  
BRANCH   8  11
HETATM   11  C   UNL     1     -10.522  13.862  68.796  1.00  0.00    -0.229 A  
HETATM   12  C   UNL     1     -11.731  14.494  68.438  1.00  0.00    -0.367 A  
HETATM   13  C   UNL     1     -11.792  15.860  68.153  1.00  0.00    -0.001 A  
HETATM   14  C   UNL     1      -9.398  14.692  68.950  1.00  0.00    -0.160 A  
HETATM   15  C   UNL     1     -10.644  16.639  68.240  1.00  0.00    -0.338 A  
HETATM   16  C   UNL     1      -9.451  16.060  68.661  1.00  0.00    -0.224 A  
ENDBRANCH   8  11
BRANCH  10  17
HETATM   17  C   UNL     1     -12.188  11.797  70.829  1.00  0.00    -0.326 C  
HETATM   18  N   UNL     1     -12.488  10.617  71.635  1.00  0.00    -0.357 NA 
HETATM   19  H2  UNL     1     -11.647  10.146  71.967  1.00  0.00     0.000 HD 
HETATM   20  H1  UNL     1     -13.108  10.894  72.396  1.00  0.00     0.000 HD 
ENDBRANCH  10  17
ENDBRANCH   5   8
ENDBRANCH   2   3
TORSDOF 5
ENDMDL
MODEL      214
REMARK 921   NORMALIZED FREE ENERGY PREDICTED BY IDOCK:   -2.53 KCAL/MOL
REMARK 922        TOTAL FREE ENERGY PREDICTED BY IDOCK:   -3.66 KCAL/MOL
REMARK 923 INTER-LIGAND FREE ENERGY PREDICTED BY IDOCK:   -3.73 KCAL/MOL
REMARK 924 INTRA-LIGAND FREE ENERGY PREDICTED BY IDOCK:    0.07 KCAL/MOL
REMARK 927      BINDING AFFINITY PREDICTED BY RF-SCORE:    0.00 PKD
ROOT
HETATM    1  C   UNL     1      -7.387  13.409  68.904  1.00  0.00    -0.033 C  
HETATM    2  C   UNL     1      -6.967  11.966  69.130  1.00  0.00    -0.079 C  
ENDROOT
BRANCH   2   3
HETATM    3  N   UNL     1      -7.732  11.010  68.328  1.00  0.00    -0.107 N  
HETATM    4  O   UNL     1      -6.982  12.012  66.376  1.00  0.00     0.170 OA 
HETATM    5  C   UNL     1      -7.677  11.163  66.931  1.00  0.00    -0.148 C  
BRANCH   3   6
HETATM    6  C   UNL     1      -8.792  10.216  68.955  1.00  0.00    -0.166 C  
HETATM    7  C   UNL     1     -10.057  10.933  69.399  1.00  0.00    -0.116 C  
ENDBRANCH   3   6
BRANCH   5   8
HETATM    8  C   UNL     1      -8.506  10.213  66.054  1.00  0.00    -0.136 C  
HETATM    9  C   UNL     1      -7.719   9.353  65.050  1.00  0.00    -0.110 C  
HETATM   10  C   UNL     1      -8.245   8.719  66.299  1.00  0.00    -0.115 C  
BRANCH   8  11
HETATM   11  C   UNL     1      -9.789  10.836  65.484  1.00  0.00    -0.309 A  
HETATM   12  C   UNL     1     -10.014  10.801  64.092  1.00  0.00    -0.405 A  
HETATM   13  C   UNL     1     -11.024  11.555  63.490  1.00  0.00    -0.453 A  
HETATM   14  C   UNL     1     -10.692  11.592  66.251  1.00  0.00    -0.317 A  
HETATM   15  C   UNL     1     -11.852  12.354  64.270  1.00  0.00    -0.473 A  
HETATM   16  C   UNL     1     -11.701  12.355  65.653  1.00  0.00    -0.468 A  
ENDBRANCH   8  11
BRANCH  10  17
HETATM   17  C   UNL     1      -9.234   7.615  66.184  1.00  0.00    -0.116 C  
HETATM   18  N   UNL     1      -8.675   6.578  65.322  1.00  0.00    -0.348 NA 
HETATM   19  H2  UNL     1      -7.762   6.254  65.642  1.00  0.00     0.000 HD 
HETATM   20  H1  UNL     1      -9.353   5.821  65.243  1.00  0.00     0.000 HD 
ENDBRANCH  10  17
ENDBRANCH   5   8
ENDBRANCH   2   3
TORSDOF 5
ENDMDL
MODEL      215
REMARK 921   NORMALIZED FREE ENERGY PREDICTED BY IDOCK:   -2.51 KCAL/MOL
REMARK 922        TOTAL FREE ENERGY PREDICTED BY IDOCK:   -3.64 KCAL/MOL
REMARK 923 INTER-LIGAND FREE ENERGY PREDICTED BY IDOCK:   -3.60 KCAL/MOL
REMARK 924 INTRA-LIGAND FREE ENERGY PREDICTED BY IDOCK:   -0.04 KCAL/MOL
REMARK 927      BINDING AFFINITY PREDICTED BY RF-SCORE:    0.00 PKD
ROOT
HETATM    1  C   UNL     1     -11.366  13.868  65.370  1.00  0.00    -0.311 C  
HETATM    2  C   UNL     1     -10.061  13.495  66.053  1.00  0.00    -0.310 C  
ENDROOT
BRANCH   2   3
HETATM    3  N   UNL     1      -9.836  12.050  66.118  1.00  0.00    -0.230 N  
HETATM    4  O   UNL     1      -7.795  12.391  67.165  1.00  0.00    -0.170 OA 
HETATM    5  C   UNL     1      -8.623  11.619  66.685  1.00  0.00    -0.179 C  
BRANCH   3   6
HETATM    6  C   UNL     1     -10.638  11.150  65.285  1.00  0.00    -0.238 C  
HETATM    7  C   UNL     1     -10.393  11.153  63.785  1.00  0.00    -0.447 C  
ENDBRANCH   3   6
BRANCH   5   8
HETATM    8  C   UNL     1      -8.325  10.114  66.726  1.00  0.00    -0.122 C  
HETATM    9  C   UNL     1      -8.353   9.452  68.115  1.00  0.00    -0.119 C  
HETATM   10  C   UNL     1      -9.502   9.236  67.180  1.00  0.00    -0.191 C  
BRANCH   8  11
HETATM   11  C   UNL     1      -7.147   9.677  65.843  1.00  0.00    -0.098 A  
HETATM   12  C   UNL     1      -7.168   9.976  64.465  1.00  0.00    -0.139 A  
HETATM   13  C   UNL     1      -6.261   9.400  63.572  1.00  0.00    -0.093 A  
HETATM   14  C   UNL     1      -6.107   8.845  66.293  1.00  0.00    -0.063 A  
HETATM   15  C   UNL     1      -5.292   8.520  64.039  1.00  0.00    -0.056 A  
HETATM   16  C   UNL     1      -5.199   8.260  65.403  1.00  0.00    -0.031 A  
ENDBRANCH   8  11
BRANCH  10  17
HETATM   17  C   UNL     1      -9.808   7.855  66.723  1.00  0.00    -0.248 C  
HETATM   18  N   UNL     1     -11.069   7.435  67.325  1.00  0.00    -0.558 NA 
HETATM   19  H2  UNL     1     -11.830   8.088  67.135  1.00  0.00     0.000 HD 
HETATM   20  H1  UNL     1     -11.279   6.488  67.011  1.00  0.00     0.000 HD 
ENDBRANCH  10  17
ENDBRANCH   5   8
ENDBRANCH   2   3
TORSDOF 5
ENDMDL
MODEL      216
REMARK 921   NORMALIZED FREE ENERGY PREDICTED BY IDOCK:   -2.49 KCAL/MOL
REMARK 922        TOTAL FREE ENERGY PREDICTED BY IDOCK:   -3.62 KCAL/MOL
REMARK 923 INTER-LIGAND FREE ENERGY PREDICTED BY IDOCK:   -3.88 KCAL/MOL
REMARK 924 INTRA-LIGAND FREE ENERGY PREDICTED BY IDOCK:    0.26 KCAL/MOL
REMARK 927      BINDING AFFINITY PREDICTED BY RF-SCORE:    0.00 PKD
ROOT
HETATM    1  C   UNL     1     -12.097  13.118  70.190  1.00  0.00    -0.392 C  
HETATM    2  C   UNL     1     -12.075  11.648  69.804  1.00  0.00    -0.289 C  
ENDROOT
BRANCH   2   3
HETATM    3  N   UNL     1     -11.249  11.373  68.627  1.00  0.00    -0.219 N  
HETATM    4  O   UNL     1     -10.129   9.699  69.775  1.00  0.00    -0.203 OA 
HETATM    5  C   UNL     1     -10.271  10.371  68.755  1.00  0.00    -0.187 C  
BRANCH   3   6
HETATM    6  C   UNL     1     -11.185  12.351  67.538  1.00  0.00    -0.294 C  
HETATM    7  C   UNL     1     -10.179  13.485  67.651  1.00  0.00    -0.239 C  
ENDBRANCH   3   6
BRANCH   5   8
HETATM    8  C   UNL     1      -9.351  10.086  67.560  1.00  0.00    -0.162 C  
HETATM    9  C   UNL     1      -9.370   8.648  67.013  1.00  0.00    -0.202 C  
HETATM   10  C   UNL     1     -10.080   9.726  66.257  1.00  0.00    -0.313 C  
BRANCH   8  11
HETATM   11  C   UNL     1      -7.946  10.695  67.683  1.00  0.00    -0.106 A  
HETATM   12  C   UNL     1      -7.581  11.355  68.874  1.00  0.00    -0.114 A  
HETATM   13  C   UNL     1      -6.426  12.136  68.960  1.00  0.00    -0.092 A  
HETATM   14  C   UNL     1      -7.041  10.780  66.611  1.00  0.00    -0.133 A  
HETATM   15  C   UNL     1      -5.591  12.262  67.856  1.00  0.00    -0.075 A  
HETATM   16  C   UNL     1      -5.885  11.566  66.688  1.00  0.00    -0.137 A  
ENDBRANCH   8  11
BRANCH  10  17
HETATM   17  C   UNL     1      -9.637  10.046  64.874  1.00  0.00    -0.310 C  
HETATM   18  N   UNL     1      -8.948   8.881  64.326  1.00  0.00    -0.418 NA 
HETATM   19  H2  UNL     1      -9.516   8.035  64.369  1.00  0.00     0.000 HD 
HETATM   20  H1  UNL     1      -8.644   9.101  63.377  1.00  0.00     0.000 HD 
ENDBRANCH  10  17
ENDBRANCH   5   8
ENDBRANCH   2   3
TORSDOF 5
ENDMDL
MODEL      217
REMARK 921   NORMALIZED FREE ENERGY PREDICTED BY IDOCK:   -2.49 KCAL/MOL
REMARK 922        TOTAL FREE ENERGY PREDICTED BY IDOCK:   -3.62 KCAL/MOL
REMARK 923 INTER-LIGAND FREE ENERGY PREDICTED BY IDOCK:   -3.52 KCAL/MOL
REMARK 924 INTRA-LIGAND FREE ENERGY PREDICTED BY IDOCK:   -0.10 KCAL/MOL
REMARK 927      BINDING AFFINITY PREDICTED BY RF-SCORE:    0.00 PKD
ROOT
HETATM    1  C   UNL     1      -8.782   4.408  65.661  1.00  0.00    -0.121 C  
HETATM    2  C   UNL     1      -9.742   5.420  66.262  1.00  0.00    -0.162 C  
ENDROOT
BRANCH   2   3
HETATM    3  N   UNL     1      -9.250   6.014  67.507  1.00  0.00    -0.112 N  
HETATM    4  O   UNL     1      -9.870   4.115  68.684  1.00  0.00    -0.122 OA 
HETATM    5  C   UNL     1      -9.403   5.252  68.679  1.00  0.00    -0.121 C  
BRANCH   3   6
HETATM    6  C   UNL     1      -8.993   7.455  67.575  1.00  0.00    -0.126 C  
HETATM    7  C   UNL     1     -10.138   8.403  67.260  1.00  0.00    -0.321 C  
ENDBRANCH   3   6
BRANCH   5   8
HETATM    8  C   UNL     1      -8.946   5.858  70.013  1.00  0.00    -0.146 C  
HETATM    9  C   UNL     1      -8.152   4.929  70.947  1.00  0.00    -0.095 C  
HETATM   10  C   UNL     1      -7.424   5.984  70.176  1.00  0.00    -0.090 C  
BRANCH   8  11
HETATM   11  C   UNL     1     -10.015   6.704  70.723  1.00  0.00    -0.201 A  
HETATM   12  C   UNL     1      -9.625   7.593  71.746  1.00  0.00    -0.183 A  
HETATM   13  C   UNL     1     -10.559   8.200  72.590  1.00  0.00    -0.414 A  
HETATM   14  C   UNL     1     -11.396   6.532  70.528  1.00  0.00    -0.426 A  
HETATM   15  C   UNL     1     -11.915   7.948  72.419  1.00  0.00    -0.373 A  
HETATM   16  C   UNL     1     -12.336   7.132  71.373  1.00  0.00    -0.415 A  
ENDBRANCH   8  11
BRANCH  10  17
HETATM   17  C   UNL     1      -6.695   7.046  70.921  1.00  0.00    -0.053 C  
HETATM   18  N   UNL     1      -6.126   6.458  72.129  1.00  0.00    -0.038 NA 
HETATM   19  H2  UNL     1      -5.541   5.646  71.932  1.00  0.00     0.000 HD 
HETATM   20  H1  UNL     1      -5.627   7.186  72.640  1.00  0.00     0.000 HD 
ENDBRANCH  10  17
ENDBRANCH   5   8
ENDBRANCH   2   3
TORSDOF 5
ENDMDL
MODEL      218
REMARK 921   NORMALIZED FREE ENERGY PREDICTED BY IDOCK:   -2.49 KCAL/MOL
REMARK 922        TOTAL FREE ENERGY PREDICTED BY IDOCK:   -3.61 KCAL/MOL
REMARK 923 INTER-LIGAND FREE ENERGY PREDICTED BY IDOCK:   -3.81 KCAL/MOL
REMARK 924 INTRA-LIGAND FREE ENERGY PREDICTED BY IDOCK:    0.20 KCAL/MOL
REMARK 927      BINDING AFFINITY PREDICTED BY RF-SCORE:    0.00 PKD
ROOT
HETATM    1  C   UNL     1     -10.728   5.443  66.972  1.00  0.00    -0.233 C  
HETATM    2  C   UNL     1      -9.605   6.343  66.482  1.00  0.00    -0.145 C  
ENDROOT
BRANCH   2   3
HETATM    3  N   UNL     1      -9.188   7.337  67.472  1.00  0.00    -0.129 N  
HETATM    4  O   UNL     1     -10.655   8.888  66.567  1.00  0.00    -0.188 OA 
HETATM    5  C   UNL     1      -9.782   8.609  67.386  1.00  0.00    -0.175 C  
BRANCH   3   6
HETATM    6  C   UNL     1      -7.952   7.134  68.231  1.00  0.00    -0.123 C  
HETATM    7  C   UNL     1      -7.242   5.796  68.103  1.00  0.00    -0.076 C  
ENDBRANCH   3   6
BRANCH   5   8
HETATM    8  C   UNL     1      -9.336   9.696  68.374  1.00  0.00    -0.136 C  
HETATM    9  C   UNL     1      -7.907  10.236  68.193  1.00  0.00    -0.104 C  
HETATM   10  C   UNL     1      -9.064  11.070  67.742  1.00  0.00    -0.147 C  
BRANCH   8  11
HETATM   11  C   UNL     1      -9.727   9.423  69.835  1.00  0.00    -0.236 A  
HETATM   12  C   UNL     1      -8.780   8.851  70.709  1.00  0.00    -0.245 A  
HETATM   13  C   UNL     1      -9.140   8.355  71.964  1.00  0.00    -0.296 A  
HETATM   14  C   UNL     1     -11.037   9.559  70.325  1.00  0.00    -0.317 A  
HETATM   15  C   UNL     1     -10.461   8.435  72.387  1.00  0.00    -0.402 A  
HETATM   16  C   UNL     1     -11.406   9.058  71.578  1.00  0.00    -0.416 A  
ENDBRANCH   8  11
BRANCH  10  17
HETATM   17  C   UNL     1      -9.285  12.397  68.375  1.00  0.00    -0.145 C  
HETATM   18  N   UNL     1      -7.987  13.025  68.601  1.00  0.00    -0.297 NA 
HETATM   19  H2  UNL     1      -7.427  13.085  67.750  1.00  0.00     0.000 HD 
HETATM   20  H1  UNL     1      -8.138  13.935  69.035  1.00  0.00     0.000 HD 
ENDBRANCH  10  17
ENDBRANCH   5   8
ENDBRANCH   2   3
TORSDOF 5
ENDMDL
MODEL      219
REMARK 921   NORMALIZED FREE ENERGY PREDICTED BY IDOCK:   -2.47 KCAL/MOL
REMARK 922        TOTAL FREE ENERGY PREDICTED BY IDOCK:   -3.59 KCAL/MOL
REMARK 923 INTER-LIGAND FREE ENERGY PREDICTED BY IDOCK:   -3.83 KCAL/MOL
REMARK 924 INTRA-LIGAND FREE ENERGY PREDICTED BY IDOCK:    0.24 KCAL/MOL
REMARK 927      BINDING AFFINITY PREDICTED BY RF-SCORE:    0.00 PKD
ROOT
HETATM    1  C   UNL     1     -11.994  12.324  67.497  1.00  0.00    -0.210 C  
HETATM    2  C   UNL     1     -11.613  13.692  66.957  1.00  0.00    -0.359 C  
ENDROOT
BRANCH   2   3
HETATM    3  N   UNL     1     -10.216  14.046  67.218  1.00  0.00    -0.258 N  
HETATM    4  O   UNL     1     -10.892  15.817  68.553  1.00  0.00    -0.262 OA 
HETATM    5  C   UNL     1      -9.987  15.174  68.027  1.00  0.00    -0.221 C  
BRANCH   3   6
HETATM    6  C   UNL     1      -9.156  13.505  66.364  1.00  0.00    -0.044 C  
HETATM    7  C   UNL     1      -8.861  12.017  66.443  1.00  0.00    -0.126 C  
ENDBRANCH   3   6
BRANCH   5   8
HETATM    8  C   UNL     1      -8.538  15.610  68.284  1.00  0.00    -0.158 C  
HETATM    9  C   UNL     1      -7.979  15.323  69.689  1.00  0.00    -0.130 C  
HETATM   10  C   UNL     1      -7.554  14.458  68.544  1.00  0.00    -0.125 C  
BRANCH   8  11
HETATM   11  C   UNL     1      -8.189  17.003  67.739  1.00  0.00    -0.196 A  
HETATM   12  C   UNL     1      -8.502  18.144  68.506  1.00  0.00    -0.312 A  
HETATM   13  C   UNL     1      -8.441  19.433  67.970  1.00  0.00    -0.355 A  
HETATM   14  C   UNL     1      -7.717  17.230  66.434  1.00  0.00    -0.347 A  
HETATM   15  C   UNL     1      -8.043  19.616  66.651  1.00  0.00    -0.330 A  
HETATM   16  C   UNL     1      -7.659  18.517  65.890  1.00  0.00    -0.171 A  
ENDBRANCH   8  11
BRANCH  10  17
HETATM   17  C   UNL     1      -6.116  14.417  68.169  1.00  0.00    -0.137 C  
HETATM   18  N   UNL     1      -5.322  14.806  69.329  1.00  0.00    -0.089 NA 
HETATM   19  H2  UNL     1      -5.528  14.240  70.153  1.00  0.00     0.000 HD 
HETATM   20  H1  UNL     1      -4.335  14.777  69.072  1.00  0.00     0.000 HD 
ENDBRANCH  10  17
ENDBRANCH   5   8
ENDBRANCH   2   3
TORSDOF 5
ENDMDL
MODEL      220
REMARK 921   NORMALIZED FREE ENERGY PREDICTED BY IDOCK:   -2.44 KCAL/MOL
REMARK 922        TOTAL FREE ENERGY PREDICTED BY IDOCK:   -3.55 KCAL/MOL
REMARK 923 INTER-LIGAND FREE ENERGY PREDICTED BY IDOCK:   -3.89 KCAL/MOL
REMARK 924 INTRA-LIGAND FREE ENERGY PREDICTED BY IDOCK:    0.34 KCAL/MOL
REMARK 927      BINDING AFFINITY PREDICTED BY RF-SCORE:    0.00 PKD
ROOT
HETATM    1  C   UNL     1      -8.714   7.920  66.682  1.00  0.00    -0.154 C  
HETATM    2  C   UNL     1      -9.396   9.202  67.130  1.00  0.00    -0.143 C  
ENDROOT
BRANCH   2   3
HETATM    3  N   UNL     1      -9.634   9.255  68.574  1.00  0.00    -0.146 N  
HETATM    4  O   UNL     1     -11.051   7.425  68.430  1.00  0.00     0.011 OA 
HETATM    5  C   UNL     1     -10.525   8.306  69.106  1.00  0.00    -0.206 C  
BRANCH   3   6
HETATM    6  C   UNL     1      -9.281  10.461  69.326  1.00  0.00    -0.184 C  
HETATM    7  C   UNL     1      -8.026  11.217  68.923  1.00  0.00    -0.126 C  
ENDBRANCH   3   6
BRANCH   5   8
HETATM    8  C   UNL     1     -10.842   8.359  70.608  1.00  0.00    -0.256 C  
HETATM    9  C   UNL     1     -11.293   9.721  71.162  1.00  0.00    -0.459 C  
HETATM   10  C   UNL     1     -12.312   8.647  70.947  1.00  0.00    -0.075 C  
BRANCH   8  11
HETATM   11  C   UNL     1      -9.827   7.621  71.495  1.00  0.00    -0.192 A  
HETATM   12  C   UNL     1      -9.818   6.212  71.510  1.00  0.00    -0.190 A  
HETATM   13  C   UNL     1      -9.100   5.490  72.466  1.00  0.00    -0.140 A  
HETATM   14  C   UNL     1      -8.999   8.268  72.429  1.00  0.00    -0.297 A  
HETATM   15  C   UNL     1      -8.352   6.162  73.425  1.00  0.00    -0.116 A  
HETATM   16  C   UNL     1      -8.282   7.551  73.393  1.00  0.00    -0.169 A  
ENDBRANCH   8  11
BRANCH  10  17
HETATM   17  C   UNL     1     -13.071   8.131  72.117  1.00  0.00    -0.243 C  
HETATM   18  N   UNL     1     -13.694   9.259  72.801  1.00  0.00    -0.811 NA 
HETATM   19  H2  UNL     1     -14.272   9.824  72.178  1.00  0.00     0.000 HD 
HETATM   20  H1  UNL     1     -14.214   8.905  73.603  1.00  0.00     0.000 HD 
ENDBRANCH  10  17
ENDBRANCH   5   8
ENDBRANCH   2   3
TORSDOF 5
ENDMDL
MODEL      221
REMARK 921   NORMALIZED FREE ENERGY PREDICTED BY IDOCK:   -2.42 KCAL/MOL
REMARK 922        TOTAL FREE ENERGY PREDICTED BY IDOCK:   -3.53 KCAL/MOL
REMARK 923 INTER-LIGAND FREE ENERGY PREDICTED BY IDOCK:   -4.04 KCAL/MOL
REMARK 924 INTRA-LIGAND FREE ENERGY PREDICTED BY IDOCK:    0.51 KCAL/MOL
REMARK 927      BINDING AFFINITY PREDICTED BY RF-SCORE:    0.00 PKD
ROOT
HETATM    1  C   UNL     1      -8.091  10.376  62.362  1.00  0.00    -0.197 C  
HETATM    2  C   UNL     1      -7.897   9.356  63.471  1.00  0.00    -0.130 C  
ENDROOT
BRANCH   2   3
HETATM    3  N   UNL     1      -8.233   9.875  64.799  1.00  0.00    -0.143 N  
HETATM    4  O   UNL     1     -10.390  10.349  64.092  1.00  0.00    -0.248 OA 
HETATM    5  C   UNL     1      -9.534  10.381  64.974  1.00  0.00    -0.253 C  
BRANCH   3   6
HETATM    6  C   UNL     1      -7.163  10.210  65.742  1.00  0.00    -0.128 C  
HETATM    7  C   UNL     1      -5.852  10.736  65.182  1.00  0.00    -0.030 C  
ENDBRANCH   3   6
BRANCH   5   8
HETATM    8  C   UNL     1      -9.911  10.981  66.335  1.00  0.00    -0.252 C  
HETATM    9  C   UNL     1     -10.765  10.094  67.257  1.00  0.00    -0.316 C  
HETATM   10  C   UNL     1      -9.307  10.257  67.548  1.00  0.00    -0.164 C  
BRANCH   8  11
HETATM   11  C   UNL     1     -10.360  12.449  66.278  1.00  0.00    -0.267 A  
HETATM   12  C   UNL     1     -11.465  12.865  67.049  1.00  0.00    -0.390 A  
HETATM   13  C   UNL     1     -12.071  14.108  66.857  1.00  0.00    -0.466 A  
HETATM   14  C   UNL     1      -9.834  13.386  65.371  1.00  0.00    -0.132 A  
HETATM   15  C   UNL     1     -11.573  14.982  65.897  1.00  0.00    -0.165 A  
HETATM   16  C   UNL     1     -10.441  14.631  65.170  1.00  0.00    -0.440 A  
ENDBRANCH   8  11
BRANCH  10  17
HETATM   17  C   UNL     1      -8.895  10.874  68.837  1.00  0.00    -0.138 C  
HETATM   18  N   UNL     1      -8.500   9.811  69.756  1.00  0.00    -0.178 NA 
HETATM   19  H2  UNL     1      -7.780   9.203  69.365  1.00  0.00     0.000 HD 
HETATM   20  H1  UNL     1      -8.218  10.235  70.640  1.00  0.00     0.000 HD 
ENDBRANCH  10  17
ENDBRANCH   5   8
ENDBRANCH   2   3
TORSDOF 5
ENDMDL
MODEL      222
REMARK 921   NORMALIZED FREE ENERGY PREDICTED BY IDOCK:   -2.41 KCAL/MOL
REMARK 922        TOTAL FREE ENERGY PREDICTED BY IDOCK:   -3.51 KCAL/MOL
REMARK 923 INTER-LIGAND FREE ENERGY PREDICTED BY IDOCK:   -3.21 KCAL/MOL
REMARK 924 INTRA-LIGAND FREE ENERGY PREDICTED BY IDOCK:   -0.30 KCAL/MOL
REMARK 927      BINDING AFFINITY PREDICTED BY RF-SCORE:    0.00 PKD
ROOT
HETATM    1  C   UNL     1      -8.801   8.536  72.081  1.00  0.00    -0.286 C  
HETATM    2  C   UNL     1      -9.255   8.461  70.633  1.00  0.00    -0.156 C  
ENDROOT
BRANCH   2   3
HETATM    3  N   UNL     1      -8.697   9.526  69.798  1.00  0.00    -0.176 N  
HETATM    4  O   UNL     1     -10.747   9.813  68.753  1.00  0.00    -0.216 OA 
HETATM    5  C   UNL     1      -9.560  10.114  68.856  1.00  0.00    -0.184 C  
BRANCH   3   6
HETATM    6  C   UNL     1      -7.244   9.675  69.682  1.00  0.00    -0.084 C  
HETATM    7  C   UNL     1      -6.452   8.532  69.070  1.00  0.00    -0.048 C  
ENDBRANCH   3   6
BRANCH   5   8
HETATM    8  C   UNL     1      -9.001  11.200  67.926  1.00  0.00    -0.143 C  
HETATM    9  C   UNL     1      -9.598  12.609  68.087  1.00  0.00    -0.219 C  
HETATM   10  C   UNL     1      -8.236  12.327  68.637  1.00  0.00    -0.017 C  
BRANCH   8  11
HETATM   11  C   UNL     1      -8.823  10.754  66.467  1.00  0.00    -0.162 A  
HETATM   12  C   UNL     1      -9.711  11.234  65.483  1.00  0.00    -0.268 A  
HETATM   13  C   UNL     1      -9.759  10.683  64.201  1.00  0.00    -0.378 A  
HETATM   14  C   UNL     1      -7.916   9.757  66.066  1.00  0.00    -0.111 A  
HETATM   15  C   UNL     1      -8.900   9.645  63.860  1.00  0.00    -0.255 A  
HETATM   16  C   UNL     1      -7.963   9.197  64.785  1.00  0.00    -0.126 A  
ENDBRANCH   8  11
BRANCH  10  17
HETATM   17  C   UNL     1      -7.073  13.085  68.104  1.00  0.00    -0.107 C  
HETATM   18  N   UNL     1      -7.468  13.720  66.850  1.00  0.00    -0.273 NA 
HETATM   19  H2  UNL     1      -8.301  14.300  66.951  1.00  0.00     0.000 HD 
HETATM   20  H1  UNL     1      -6.671  14.240  66.484  1.00  0.00     0.000 HD 
ENDBRANCH  10  17
ENDBRANCH   5   8
ENDBRANCH   2   3
TORSDOF 5
ENDMDL
MODEL      223
REMARK 921   NORMALIZED FREE ENERGY PREDICTED BY IDOCK:   -2.39 KCAL/MOL
REMARK 922        TOTAL FREE ENERGY PREDICTED BY IDOCK:   -3.48 KCAL/MOL
REMARK 923 INTER-LIGAND FREE ENERGY PREDICTED BY IDOCK:   -3.79 KCAL/MOL
REMARK 924 INTRA-LIGAND FREE ENERGY PREDICTED BY IDOCK:    0.31 KCAL/MOL
REMARK 927      BINDING AFFINITY PREDICTED BY RF-SCORE:    0.00 PKD
ROOT
HETATM    1  C   UNL     1     -11.841   6.550  71.319  1.00  0.00    -0.385 C  
HETATM    2  C   UNL     1     -10.518   7.293  71.401  1.00  0.00    -0.203 C  
ENDROOT
BRANCH   2   3
HETATM    3  N   UNL     1     -10.103   7.873  70.122  1.00  0.00    -0.192 N  
HETATM    4  O   UNL     1     -11.029   9.913  70.721  1.00  0.00    -0.307 OA 
HETATM    5  C   UNL     1     -10.453   9.215  69.888  1.00  0.00    -0.223 C  
BRANCH   3   6
HETATM    6  C   UNL     1      -9.713   6.995  69.016  1.00  0.00    -0.145 C  
HETATM    7  C   UNL     1     -10.057   5.518  69.117  1.00  0.00    -0.286 C  
ENDBRANCH   3   6
BRANCH   5   8
HETATM    8  C   UNL     1     -10.081   9.847  68.540  1.00  0.00    -0.186 C  
HETATM    9  C   UNL     1     -10.897   9.382  67.321  1.00  0.00    -0.165 C  
HETATM   10  C   UNL     1     -11.176  10.726  67.916  1.00  0.00    -0.386 C  
BRANCH   8  11
HETATM   11  C   UNL     1      -8.570   9.952  68.285  1.00  0.00    -0.115 A  
HETATM   12  C   UNL     1      -7.742  10.533  69.267  1.00  0.00    -0.144 A  
HETATM   13  C   UNL     1      -6.415  10.881  69.001  1.00  0.00    -0.057 A  
HETATM   14  C   UNL     1      -7.968   9.647  67.052  1.00  0.00    -0.109 A  
HETATM   15  C   UNL     1      -5.873  10.636  67.745  1.00  0.00    -0.043 A  
HETATM   16  C   UNL     1      -6.642   9.998  66.777  1.00  0.00    -0.072 A  
ENDBRANCH   8  11
BRANCH  10  17
HETATM   17  C   UNL     1     -10.973  11.939  67.080  1.00  0.00    -0.278 C  
HETATM   18  N   UNL     1     -12.278  12.431  66.650  1.00  0.00    -0.497 NA 
HETATM   19  H2  UNL     1     -12.911  12.597  67.433  1.00  0.00     0.000 HD 
HETATM   20  H1  UNL     1     -12.138  13.263  66.077  1.00  0.00     0.000 HD 
ENDBRANCH  10  17
ENDBRANCH   5   8
ENDBRANCH   2   3
TORSDOF 5
ENDMDL
MODEL      224
REMARK 921   NORMALIZED FREE ENERGY PREDICTED BY IDOCK:   -2.34 KCAL/MOL
REMARK 922        TOTAL FREE ENERGY PREDICTED BY IDOCK:   -3.42 KCAL/MOL
REMARK 923 INTER-LIGAND FREE ENERGY PREDICTED BY IDOCK:   -3.86 KCAL/MOL
REMARK 924 INTRA-LIGAND FREE ENERGY PREDICTED BY IDOCK:    0.44 KCAL/MOL
REMARK 927      BINDING AFFINITY PREDICTED BY RF-SCORE:    0.00 PKD
ROOT
HETATM    1  C   UNL     1     -10.299  17.631  68.452  1.00  0.00    -0.375 C  
HETATM    2  C   UNL     1      -9.723  16.858  67.277  1.00  0.00    -0.251 C  
ENDROOT
BRANCH   2   3
HETATM    3  N   UNL     1     -10.118  15.448  67.266  1.00  0.00    -0.236 N  
HETATM    4  O   UNL     1      -8.721  15.018  69.065  1.00  0.00    -0.193 OA 
HETATM    5  C   UNL     1      -9.508  14.608  68.215  1.00  0.00    -0.211 C  
BRANCH   3   6
HETATM    6  C   UNL     1     -10.790  14.890  66.089  1.00  0.00    -0.327 C  
HETATM    7  C   UNL     1     -10.969  15.784  64.874  1.00  0.00    -0.443 C  
ENDBRANCH   3   6
BRANCH   5   8
HETATM    8  C   UNL     1      -9.857  13.113  68.204  1.00  0.00    -0.228 C  
HETATM    9  C   UNL     1     -10.663  12.593  69.407  1.00  0.00     0.139 C  
HETATM   10  C   UNL     1     -11.358  12.802  68.098  1.00  0.00    -0.329 C  
BRANCH   8  11
HETATM   11  C   UNL     1      -8.701  12.197  67.774  1.00  0.00    -0.171 A  
HETATM   12  C   UNL     1      -8.836  10.801  67.918  1.00  0.00    -0.132 A  
HETATM   13  C   UNL     1      -7.747   9.937  67.782  1.00  0.00    -0.091 A  
HETATM   14  C   UNL     1      -7.435  12.673  67.391  1.00  0.00    -0.146 A  
HETATM   15  C   UNL     1      -6.491  10.448  67.477  1.00  0.00    -0.058 A  
HETATM   16  C   UNL     1      -6.339  11.814  67.258  1.00  0.00    -0.132 A  
ENDBRANCH   8  11
BRANCH  10  17
HETATM   17  C   UNL     1     -11.977  11.634  67.418  1.00  0.00     0.085 C  
HETATM   18  N   UNL     1     -12.243  10.602  68.415  1.00  0.00    -0.762 NA 
HETATM   19  H2  UNL     1     -12.806  10.946  69.193  1.00  0.00     0.000 HD 
HETATM   20  H1  UNL     1     -12.667   9.801  67.948  1.00  0.00     0.000 HD 
ENDBRANCH  10  17
ENDBRANCH   5   8
ENDBRANCH   2   3
TORSDOF 5
ENDMDL
MODEL      225
REMARK 921   NORMALIZED FREE ENERGY PREDICTED BY IDOCK:   -2.27 KCAL/MOL
REMARK 922        TOTAL FREE ENERGY PREDICTED BY IDOCK:   -3.33 KCAL/MOL
REMARK 923 INTER-LIGAND FREE ENERGY PREDICTED BY IDOCK:   -3.34 KCAL/MOL
REMARK 924 INTRA-LIGAND FREE ENERGY PREDICTED BY IDOCK:    0.01 KCAL/MOL
REMARK 927      BINDING AFFINITY PREDICTED BY RF-SCORE:    0.00 PKD
ROOT
HETATM    1  C   UNL     1     -11.457   6.623  70.164  1.00  0.00    -0.444 C  
HETATM    2  C   UNL     1     -11.000   7.900  70.848  1.00  0.00    -0.243 C  
ENDROOT
BRANCH   2   3
HETATM    3  N   UNL     1      -9.987   8.633  70.086  1.00  0.00    -0.179 N  
HETATM    4  O   UNL     1     -11.645   9.806  68.966  1.00  0.00     0.038 OA 
HETATM    5  C   UNL     1     -10.453   9.558  69.134  1.00  0.00    -0.210 C  
BRANCH   3   6
HETATM    6  C   UNL     1      -8.610   8.136  70.040  1.00  0.00    -0.129 C  
HETATM    7  C   UNL     1      -8.322   6.895  69.211  1.00  0.00    -0.129 C  
ENDBRANCH   3   6
BRANCH   5   8
HETATM    8  C   UNL     1      -9.424  10.310  68.278  1.00  0.00    -0.147 C  
HETATM    9  C   UNL     1      -9.266  11.813  68.567  1.00  0.00    -0.152 C  
HETATM   10  C   UNL     1      -8.219  10.862  69.055  1.00  0.00    -0.126 C  
BRANCH   8  11
HETATM   11  C   UNL     1      -9.464   9.956  66.783  1.00  0.00    -0.212 A  
HETATM   12  C   UNL     1      -8.612   8.948  66.289  1.00  0.00    -0.145 A  
HETATM   13  C   UNL     1      -8.421   8.750  64.919  1.00  0.00    -0.189 A  
HETATM   14  C   UNL     1     -10.190  10.693  65.831  1.00  0.00    -0.314 A  
HETATM   15  C   UNL     1      -9.097   9.548  64.003  1.00  0.00    -0.183 A  
HETATM   16  C   UNL     1      -9.999  10.504  64.458  1.00  0.00    -0.413 A  
ENDBRANCH   8  11
BRANCH  10  17
HETATM   17  C   UNL     1      -6.827  11.004  68.551  1.00  0.00    -0.064 C  
HETATM   18  N   UNL     1      -6.055  11.765  69.528  1.00  0.00    -0.093 NA 
HETATM   19  H2  UNL     1      -6.093  11.356  70.461  1.00  0.00     0.000 HD 
HETATM   20  H1  UNL     1      -5.100  11.862  69.182  1.00  0.00     0.000 HD 
ENDBRANCH  10  17
ENDBRANCH   5   8
ENDBRANCH   2   3
TORSDOF 5
ENDMDL
MODEL      226
REMARK 921   NORMALIZED FREE ENERGY PREDICTED BY IDOCK:   -2.23 KCAL/MOL
REMARK 922        TOTAL FREE ENERGY PREDICTED BY IDOCK:   -3.28 KCAL/MOL
REMARK 923 INTER-LIGAND FREE ENERGY PREDICTED BY IDOCK:   -2.80 KCAL/MOL
REMARK 924 INTRA-LIGAND FREE ENERGY PREDICTED BY IDOCK:   -0.48 KCAL/MOL
REMARK 927      BINDING AFFINITY PREDICTED BY RF-SCORE:    0.00 PKD
ROOT
HETATM    1  C   UNL     1     -10.015   2.418  63.674  1.00  0.00    -0.142 C  
HETATM    2  C   UNL     1     -10.024   3.938  63.698  1.00  0.00    -0.174 C  
ENDROOT
BRANCH   2   3
HETATM    3  N   UNL     1      -9.347   4.501  64.867  1.00  0.00    -0.156 N  
HETATM    4  O   UNL     1     -11.389   4.854  65.908  1.00  0.00     0.094 OA 
HETATM    5  C   UNL     1     -10.164   4.960  65.916  1.00  0.00    -0.223 C  
BRANCH   3   6
HETATM    6  C   UNL     1      -7.947   4.921  64.766  1.00  0.00    -0.098 C  
HETATM    7  C   UNL     1      -7.592   5.992  63.748  1.00  0.00    -0.087 C  
ENDBRANCH   3   6
BRANCH   5   8
HETATM    8  C   UNL     1      -9.496   5.603  67.139  1.00  0.00    -0.120 C  
HETATM    9  C   UNL     1      -9.702   4.886  68.484  1.00  0.00    -0.218 C  
HETATM   10  C   UNL     1      -8.385   4.761  67.785  1.00  0.00    -0.103 C  
BRANCH   8  11
HETATM   11  C   UNL     1      -9.643   7.131  67.210  1.00  0.00    -0.179 A  
HETATM   12  C   UNL     1     -10.144   7.724  68.387  1.00  0.00    -0.215 A  
HETATM   13  C   UNL     1     -10.531   9.065  68.430  1.00  0.00    -0.234 A  
HETATM   14  C   UNL     1      -9.458   7.980  66.105  1.00  0.00    -0.193 A  
HETATM   15  C   UNL     1     -10.407   9.859  67.295  1.00  0.00    -0.303 A  
HETATM   16  C   UNL     1      -9.849   9.323  66.139  1.00  0.00    -0.363 A  
ENDBRANCH   8  11
BRANCH  10  17
HETATM   17  C   UNL     1      -7.162   5.271  68.459  1.00  0.00    -0.063 C  
HETATM   18  N   UNL     1      -5.993   4.739  67.764  1.00  0.00    -0.022 NA 
HETATM   19  H2  UNL     1      -6.005   4.945  66.765  1.00  0.00     0.000 HD 
HETATM   20  H1  UNL     1      -5.154   5.089  68.226  1.00  0.00     0.000 HD 
ENDBRANCH  10  17
ENDBRANCH   5   8
ENDBRANCH   2   3
TORSDOF 5
ENDMDL
MODEL      227
REMARK 921   NORMALIZED FREE ENERGY PREDICTED BY IDOCK:   -2.22 KCAL/MOL
REMARK 922        TOTAL FREE ENERGY PREDICTED BY IDOCK:   -3.27 KCAL/MOL
REMARK 923 INTER-LIGAND FREE ENERGY PREDICTED BY IDOCK:   -3.41 KCAL/MOL
REMARK 924 INTRA-LIGAND FREE ENERGY PREDICTED BY IDOCK:    0.14 KCAL/MOL
REMARK 927      BINDING AFFINITY PREDICTED BY RF-SCORE:    0.00 PKD
ROOT
HETATM    1  C   UNL     1      -9.198   3.338  66.029  1.00  0.00    -0.151 C  
HETATM    2  C   UNL     1      -8.980   4.841  66.080  1.00  0.00    -0.126 C  
ENDROOT
BRANCH   2   3
HETATM    3  N   UNL     1      -8.836   5.357  67.442  1.00  0.00    -0.107 N  
HETATM    4  O   UNL     1      -9.824   7.358  66.812  1.00  0.00    -0.201 OA 
HETATM    5  C   UNL     1      -9.281   6.671  67.675  1.00  0.00    -0.110 C  
BRANCH   3   6
HETATM    6  C   UNL     1      -7.926   4.695  68.380  1.00  0.00    -0.080 C  
HETATM    7  C   UNL     1      -8.407   3.431  69.074  1.00  0.00    -0.082 C  
ENDBRANCH   3   6
BRANCH   5   8
HETATM    8  C   UNL     1      -9.103   7.269  69.077  1.00  0.00    -0.133 C  
HETATM    9  C   UNL     1      -7.656   7.401  69.583  1.00  0.00    -0.095 C  
HETATM   10  C   UNL     1      -8.380   8.624  69.114  1.00  0.00    -0.119 C  
BRANCH   8  11
HETATM   11  C   UNL     1     -10.090   6.732  70.125  1.00  0.00    -0.195 A  
HETATM   12  C   UNL     1     -11.444   7.120  70.062  1.00  0.00    -0.200 A  
HETATM   13  C   UNL     1     -12.332   6.872  71.111  1.00  0.00    -0.419 A  
HETATM   14  C   UNL     1      -9.697   5.995  71.255  1.00  0.00    -0.200 A  
HETATM   15  C   UNL     1     -11.892   6.207  72.249  1.00  0.00    -0.326 A  
HETATM   16  C   UNL     1     -10.580   5.748  72.312  1.00  0.00    -0.264 A  
ENDBRANCH   8  11
BRANCH  10  17
HETATM   17  C   UNL     1      -8.618   9.733  70.075  1.00  0.00    -0.204 C  
HETATM   18  N   UNL     1      -9.139  10.881  69.340  1.00  0.00    -0.400 NA 
HETATM   19  H2  UNL     1      -9.969  10.652  68.794  1.00  0.00     0.000 HD 
HETATM   20  H1  UNL     1      -9.302  11.641  70.000  1.00  0.00     0.000 HD 
ENDBRANCH  10  17
ENDBRANCH   5   8
ENDBRANCH   2   3
TORSDOF 5
ENDMDL
MODEL      228
REMARK 921   NORMALIZED FREE ENERGY PREDICTED BY IDOCK:   -2.21 KCAL/MOL
REMARK 922        TOTAL FREE ENERGY PREDICTED BY IDOCK:   -3.25 KCAL/MOL
REMARK 923 INTER-LIGAND FREE ENERGY PREDICTED BY IDOCK:   -3.08 KCAL/MOL
REMARK 924 INTRA-LIGAND FREE ENERGY PREDICTED BY IDOCK:   -0.17 KCAL/MOL
REMARK 927      BINDING AFFINITY PREDICTED BY RF-SCORE:    0.00 PKD
ROOT
HETATM    1  C   UNL     1     -10.890   6.468  67.230  1.00  0.00    -0.463 C  
HETATM    2  C   UNL     1     -11.489   6.508  68.626  1.00  0.00     0.055 C  
ENDROOT
BRANCH   2   3
HETATM    3  N   UNL     1     -10.481   6.478  69.687  1.00  0.00    -0.201 N  
HETATM    4  O   UNL     1     -11.295   8.470  70.550  1.00  0.00    -0.262 OA 
HETATM    5  C   UNL     1     -10.472   7.558  70.588  1.00  0.00    -0.216 C  
BRANCH   3   6
HETATM    6  C   UNL     1      -9.320   5.593  69.564  1.00  0.00    -0.133 C  
HETATM    7  C   UNL     1      -9.499   4.122  69.903  1.00  0.00    -0.265 C  
ENDBRANCH   3   6
BRANCH   5   8
HETATM    8  C   UNL     1      -9.399   7.590  71.686  1.00  0.00    -0.164 C  
HETATM    9  C   UNL     1      -9.892   7.890  73.112  1.00  0.00    -0.357 C  
HETATM   10  C   UNL     1      -9.528   6.486  72.746  1.00  0.00    -0.150 C  
BRANCH   8  11
HETATM   11  C   UNL     1      -8.114   8.334  71.293  1.00  0.00    -0.138 A  
HETATM   12  C   UNL     1      -6.962   8.196  72.095  1.00  0.00    -0.090 A  
HETATM   13  C   UNL     1      -5.850   9.027  71.938  1.00  0.00    -0.073 A  
HETATM   14  C   UNL     1      -8.053   9.285  70.259  1.00  0.00    -0.165 A  
HETATM   15  C   UNL     1      -5.853  10.009  70.955  1.00  0.00    -0.088 A  
HETATM   16  C   UNL     1      -6.944  10.124  70.100  1.00  0.00    -0.157 A  
ENDBRANCH   8  11
BRANCH  10  17
HETATM   17  C   UNL     1      -8.416   5.818  73.472  1.00  0.00    -0.114 C  
HETATM   18  N   UNL     1      -8.719   4.394  73.579  1.00  0.00    -0.099 NA 
HETATM   19  H2  UNL     1      -8.908   3.965  72.673  1.00  0.00     0.000 HD 
HETATM   20  H1  UNL     1      -7.957   3.936  74.078  1.00  0.00     0.000 HD 
ENDBRANCH  10  17
ENDBRANCH   5   8
ENDBRANCH   2   3
TORSDOF 5
ENDMDL
MODEL      229
REMARK 921   NORMALIZED FREE ENERGY PREDICTED BY IDOCK:   -2.17 KCAL/MOL
REMARK 922        TOTAL FREE ENERGY PREDICTED BY IDOCK:   -3.20 KCAL/MOL
REMARK 923 INTER-LIGAND FREE ENERGY PREDICTED BY IDOCK:   -3.24 KCAL/MOL
REMARK 924 INTRA-LIGAND FREE ENERGY PREDICTED BY IDOCK:    0.05 KCAL/MOL
REMARK 927      BINDING AFFINITY PREDICTED BY RF-SCORE:    0.00 PKD
ROOT
HETATM    1  C   UNL     1      -7.020  10.556  69.127  1.00  0.00    -0.080 C  
HETATM    2  C   UNL     1      -6.596   9.241  69.761  1.00  0.00    -0.043 C  
ENDROOT
BRANCH   2   3
HETATM    3  N   UNL     1      -7.726   8.418  70.195  1.00  0.00    -0.080 N  
HETATM    4  O   UNL     1      -7.246   8.888  72.414  1.00  0.00    -0.329 OA 
HETATM    5  C   UNL     1      -7.930   8.297  71.581  1.00  0.00    -0.128 C  
BRANCH   3   6
HETATM    6  C   UNL     1      -8.339   7.472  69.259  1.00  0.00    -0.132 C  
HETATM    7  C   UNL     1      -7.423   6.639  68.378  1.00  0.00    -0.095 C  
ENDBRANCH   3   6
BRANCH   5   8
HETATM    8  C   UNL     1      -9.073   7.402  72.080  1.00  0.00    -0.149 C  
HETATM    9  C   UNL     1     -10.090   8.061  73.027  1.00  0.00    -0.351 C  
HETATM   10  C   UNL     1     -10.473   7.818  71.601  1.00  0.00    -0.241 C  
BRANCH   8  11
HETATM   11  C   UNL     1      -8.635   5.993  72.506  1.00  0.00    -0.119 A  
HETATM   12  C   UNL     1      -9.555   4.928  72.422  1.00  0.00    -0.183 A  
HETATM   13  C   UNL     1      -9.305   3.689  73.017  1.00  0.00    -0.129 A  
HETATM   14  C   UNL     1      -7.408   5.719  73.135  1.00  0.00    -0.095 A  
HETATM   15  C   UNL     1      -8.113   3.476  73.699  1.00  0.00    -0.079 A  
HETATM   16  C   UNL     1      -7.154   4.483  73.739  1.00  0.00    -0.068 A  
ENDBRANCH   8  11
BRANCH  10  17
HETATM   17  C   UNL     1     -11.616   6.914  71.307  1.00  0.00    -0.310 C  
HETATM   18  N   UNL     1     -11.670   6.688  69.866  1.00  0.00    -0.635 NA 
HETATM   19  H2  UNL     1     -10.788   6.338  69.492  1.00  0.00     0.000 HD 
HETATM   20  H1  UNL     1     -12.454   6.068  69.664  1.00  0.00     0.000 HD 
ENDBRANCH  10  17
ENDBRANCH   5   8
ENDBRANCH   2   3
TORSDOF 5
ENDMDL
MODEL      230
REMARK 921   NORMALIZED FREE ENERGY PREDICTED BY IDOCK:   -2.11 KCAL/MOL
REMARK 922        TOTAL FREE ENERGY PREDICTED BY IDOCK:   -3.12 KCAL/MOL
REMARK 923 INTER-LIGAND FREE ENERGY PREDICTED BY IDOCK:   -3.78 KCAL/MOL
REMARK 924 INTRA-LIGAND FREE ENERGY PREDICTED BY IDOCK:    0.66 KCAL/MOL
REMARK 927      BINDING AFFINITY PREDICTED BY RF-SCORE:    0.00 PKD
ROOT
HETATM    1  C   UNL     1      -9.233   3.296  67.078  1.00  0.00    -0.206 C  
HETATM    2  C   UNL     1      -9.330   4.793  66.837  1.00  0.00    -0.134 C  
ENDROOT
BRANCH   2   3
HETATM    3  N   UNL     1      -9.137   5.586  68.053  1.00  0.00    -0.108 N  
HETATM    4  O   UNL     1     -11.268   6.475  67.839  1.00  0.00    -0.292 OA 
HETATM    5  C   UNL     1     -10.196   6.428  68.438  1.00  0.00    -0.175 C  
BRANCH   3   6
HETATM    6  C   UNL     1      -7.787   5.784  68.587  1.00  0.00    -0.097 C  
HETATM    7  C   UNL     1      -6.667   6.091  67.608  1.00  0.00    -0.058 C  
ENDBRANCH   3   6
BRANCH   5   8
HETATM    8  C   UNL     1     -10.015   7.314  69.679  1.00  0.00    -0.176 C  
HETATM    9  C   UNL     1      -8.844   8.311  69.639  1.00  0.00    -0.139 C  
HETATM   10  C   UNL     1     -10.238   8.815  69.437  1.00  0.00    -0.210 C  
BRANCH   8  11
HETATM   11  C   UNL     1     -10.167   6.571  71.015  1.00  0.00    -0.218 A  
HETATM   12  C   UNL     1      -9.459   5.370  71.223  1.00  0.00    -0.191 A  
HETATM   13  C   UNL     1      -9.739   4.526  72.300  1.00  0.00    -0.217 A  
HETATM   14  C   UNL     1     -11.103   6.931  72.000  1.00  0.00    -0.279 A  
HETATM   15  C   UNL     1     -10.725   4.874  73.215  1.00  0.00    -0.316 A  
HETATM   16  C   UNL     1     -11.392   6.088  73.079  1.00  0.00    -0.177 A  
ENDBRANCH   8  11
BRANCH  10  17
HETATM   17  C   UNL     1     -10.795   9.797  70.404  1.00  0.00    -0.311 C  
HETATM   18  N   UNL     1     -12.241   9.861  70.220  1.00  0.00    -0.479 NA 
HETATM   19  H2  UNL     1     -12.686   8.945  70.293  1.00  0.00     0.000 HD 
HETATM   20  H1  UNL     1     -12.623  10.535  70.883  1.00  0.00     0.000 HD 
ENDBRANCH  10  17
ENDBRANCH   5   8
ENDBRANCH   2   3
TORSDOF 5
ENDMDL
MODEL      231
REMARK 921   NORMALIZED FREE ENERGY PREDICTED BY IDOCK:   -2.07 KCAL/MOL
REMARK 922        TOTAL FREE ENERGY PREDICTED BY IDOCK:   -3.08 KCAL/MOL
REMARK 923 INTER-LIGAND FREE ENERGY PREDICTED BY IDOCK:   -2.60 KCAL/MOL
REMARK 924 INTRA-LIGAND FREE ENERGY PREDICTED BY IDOCK:   -0.48 KCAL/MOL
REMARK 927      BINDING AFFINITY PREDICTED BY RF-SCORE:    0.00 PKD
ROOT
HETATM    1  C   UNL     1     -11.587  11.424  67.803  1.00  0.00    -0.325 C  
HETATM    2  C   UNL     1     -10.664  10.469  67.065  1.00  0.00    -0.250 C  
ENDROOT
BRANCH   2   3
HETATM    3  N   UNL     1      -9.758   9.739  67.955  1.00  0.00    -0.143 N  
HETATM    4  O   UNL     1      -7.945  10.903  67.098  1.00  0.00    -0.119 OA 
HETATM    5  C   UNL     1      -8.388  10.036  67.849  1.00  0.00    -0.117 C  
BRANCH   3   6
HETATM    6  C   UNL     1     -10.213   8.510  68.608  1.00  0.00    -0.197 C  
HETATM    7  C   UNL     1     -10.613   7.336  67.729  1.00  0.00    -0.289 C  
ENDBRANCH   3   6
BRANCH   5   8
HETATM    8  C   UNL     1      -7.398   9.258  68.728  1.00  0.00    -0.075 C  
HETATM    9  C   UNL     1      -6.181  10.044  69.243  1.00  0.00    -0.044 C  
HETATM   10  C   UNL     1      -7.307   9.745  70.182  1.00  0.00    -0.159 C  
BRANCH   8  11
HETATM   11  C   UNL     1      -7.068   7.849  68.213  1.00  0.00    -0.088 A  
HETATM   12  C   UNL     1      -6.844   7.650  66.836  1.00  0.00    -0.068 A  
HETATM   13  C   UNL     1      -6.785   6.372  66.275  1.00  0.00    -0.056 A  
HETATM   14  C   UNL     1      -7.132   6.696  69.015  1.00  0.00    -0.089 A  
HETATM   15  C   UNL     1      -6.929   5.253  67.085  1.00  0.00    -0.065 A  
HETATM   16  C   UNL     1      -7.079   5.413  68.459  1.00  0.00    -0.062 A  
ENDBRANCH   8  11
BRANCH  10  17
HETATM   17  C   UNL     1      -7.039   8.910  71.383  1.00  0.00    -0.082 C  
HETATM   18  N   UNL     1      -8.269   8.814  72.165  1.00  0.00    -0.372 NA 
HETATM   19  H2  UNL     1      -9.056   8.468  71.615  1.00  0.00     0.000 HD 
HETATM   20  H1  UNL     1      -8.085   8.241  72.988  1.00  0.00     0.000 HD 
ENDBRANCH  10  17
ENDBRANCH   5   8
ENDBRANCH   2   3
TORSDOF 5
ENDMDL
MODEL      232
REMARK 921   NORMALIZED FREE ENERGY PREDICTED BY IDOCK:   -2.06 KCAL/MOL
REMARK 922        TOTAL FREE ENERGY PREDICTED BY IDOCK:   -3.06 KCAL/MOL
REMARK 923 INTER-LIGAND FREE ENERGY PREDICTED BY IDOCK:   -2.95 KCAL/MOL
REMARK 924 INTRA-LIGAND FREE ENERGY PREDICTED BY IDOCK:   -0.10 KCAL/MOL
REMARK 927      BINDING AFFINITY PREDICTED BY RF-SCORE:    0.00 PKD
ROOT
HETATM    1  C   UNL     1      -6.730   9.413  62.768  1.00  0.00    -0.097 C  
HETATM    2  C   UNL     1      -8.094   9.238  63.414  1.00  0.00    -0.161 C  
ENDROOT
BRANCH   2   3
HETATM    3  N   UNL     1      -8.210   9.913  64.708  1.00  0.00    -0.143 N  
HETATM    4  O   UNL     1      -7.016   8.209  65.731  1.00  0.00    -0.062 OA 
HETATM    5  C   UNL     1      -7.640   9.265  65.818  1.00  0.00    -0.098 C  
BRANCH   3   6
HETATM    6  C   UNL     1      -9.199  10.980  64.887  1.00  0.00    -0.188 C  
HETATM    7  C   UNL     1     -10.236  11.186  63.795  1.00  0.00    -0.434 C  
ENDBRANCH   3   6
BRANCH   5   8
HETATM    8  C   UNL     1      -7.784   9.915  67.202  1.00  0.00    -0.092 C  
HETATM    9  C   UNL     1      -6.478  10.162  67.976  1.00  0.00    -0.058 C  
HETATM   10  C   UNL     1      -7.168  11.317  67.322  1.00  0.00    -0.114 C  
BRANCH   8  11
HETATM   11  C   UNL     1      -8.925   9.341  68.055  1.00  0.00    -0.128 A  
HETATM   12  C   UNL     1     -10.063  10.133  68.310  1.00  0.00    -0.179 A  
HETATM   13  C   UNL     1     -11.012   9.773  69.269  1.00  0.00    -0.222 A  
HETATM   14  C   UNL     1      -8.840   8.119  68.744  1.00  0.00    -0.138 A  
HETATM   15  C   UNL     1     -10.858   8.594  69.988  1.00  0.00    -0.226 A  
HETATM   16  C   UNL     1      -9.784   7.755  69.710  1.00  0.00    -0.176 A  
ENDBRANCH   8  11
BRANCH  10  17
HETATM   17  C   UNL     1      -7.663  12.434  68.169  1.00  0.00    -0.139 C  
HETATM   18  N   UNL     1      -7.501  13.683  67.432  1.00  0.00    -0.297 NA 
HETATM   19  H2  UNL     1      -7.951  13.658  66.516  1.00  0.00     0.000 HD 
HETATM   20  H1  UNL     1      -7.840  14.450  68.013  1.00  0.00     0.000 HD 
ENDBRANCH  10  17
ENDBRANCH   5   8
ENDBRANCH   2   3
TORSDOF 5
ENDMDL
MODEL      233
REMARK 921   NORMALIZED FREE ENERGY PREDICTED BY IDOCK:   -2.05 KCAL/MOL
REMARK 922        TOTAL FREE ENERGY PREDICTED BY IDOCK:   -3.04 KCAL/MOL
REMARK 923 INTER-LIGAND FREE ENERGY PREDICTED BY IDOCK:   -2.88 KCAL/MOL
REMARK 924 INTRA-LIGAND FREE ENERGY PREDICTED BY IDOCK:   -0.16 KCAL/MOL
REMARK 927      BINDING AFFINITY PREDICTED BY RF-SCORE:    0.00 PKD
ROOT
HETATM    1  C   UNL     1     -10.649   9.728  68.961  1.00  0.00    -0.238 C  
HETATM    2  C   UNL     1     -10.411   8.438  68.194  1.00  0.00    -0.174 C  
ENDROOT
BRANCH   2   3
HETATM    3  N   UNL     1      -9.572   7.482  68.920  1.00  0.00    -0.149 N  
HETATM    4  O   UNL     1     -11.406   6.765  70.143  1.00  0.00    -0.311 OA 
HETATM    5  C   UNL     1     -10.200   6.708  69.912  1.00  0.00    -0.187 C  
BRANCH   3   6
HETATM    6  C   UNL     1      -8.114   7.622  68.886  1.00  0.00    -0.127 C  
HETATM    7  C   UNL     1      -7.501   8.883  69.471  1.00  0.00    -0.075 C  
ENDBRANCH   3   6
BRANCH   5   8
HETATM    8  C   UNL     1      -9.346   5.730  70.730  1.00  0.00    -0.189 C  
HETATM    9  C   UNL     1      -9.989   4.370  71.054  1.00  0.00    -0.242 C  
HETATM   10  C   UNL     1      -8.944   4.447  69.987  1.00  0.00    -0.146 C  
BRANCH   8  11
HETATM   11  C   UNL     1      -8.603   6.373  71.911  1.00  0.00    -0.127 A  
HETATM   12  C   UNL     1      -9.275   7.307  72.726  1.00  0.00    -0.178 A  
HETATM   13  C   UNL     1      -8.596   8.104  73.650  1.00  0.00    -0.312 A  
HETATM   14  C   UNL     1      -7.226   6.212  72.141  1.00  0.00    -0.092 A  
HETATM   15  C   UNL     1      -7.220   7.973  73.798  1.00  0.00    -0.177 A  
HETATM   16  C   UNL     1      -6.537   7.011  73.061  1.00  0.00    -0.065 A  
ENDBRANCH   8  11
BRANCH  10  17
HETATM   17  C   UNL     1      -7.682   3.680  70.158  1.00  0.00    -0.047 C  
HETATM   18  N   UNL     1      -7.840   2.377  69.520  1.00  0.00    -0.042 NA 
HETATM   19  H2  UNL     1      -8.123   2.451  68.543  1.00  0.00     0.000 HD 
HETATM   20  H1  UNL     1      -6.975   1.851  69.638  1.00  0.00     0.000 HD 
ENDBRANCH  10  17
ENDBRANCH   5   8
ENDBRANCH   2   3
TORSDOF 5
ENDMDL
MODEL      234
REMARK 921   NORMALIZED FREE ENERGY PREDICTED BY IDOCK:   -1.96 KCAL/MOL
REMARK 922        TOTAL FREE ENERGY PREDICTED BY IDOCK:   -2.92 KCAL/MOL
REMARK 923 INTER-LIGAND FREE ENERGY PREDICTED BY IDOCK:   -3.71 KCAL/MOL
REMARK 924 INTRA-LIGAND FREE ENERGY PREDICTED BY IDOCK:    0.79 KCAL/MOL
REMARK 927      BINDING AFFINITY PREDICTED BY RF-SCORE:    0.00 PKD
ROOT
HETATM    1  C   UNL     1      -5.314   7.897  68.959  1.00  0.00    -0.023 C  
HETATM    2  C   UNL     1      -6.055   8.248  67.679  1.00  0.00    -0.051 C  
ENDROOT
BRANCH   2   3
HETATM    3  N   UNL     1      -7.452   7.809  67.682  1.00  0.00    -0.102 N  
HETATM    4  O   UNL     1      -8.086   9.757  68.769  1.00  0.00    -0.096 OA 
HETATM    5  C   UNL     1      -8.386   8.661  68.298  1.00  0.00    -0.127 C  
BRANCH   3   6
HETATM    6  C   UNL     1      -7.773   6.403  67.424  1.00  0.00    -0.104 C  
HETATM    7  C   UNL     1      -6.889   5.338  68.049  1.00  0.00    -0.060 C  
ENDBRANCH   3   6
BRANCH   5   8
HETATM    8  C   UNL     1      -9.853   8.215  68.368  1.00  0.00    -0.186 C  
HETATM    9  C   UNL     1     -10.759   8.671  67.211  1.00  0.00    -0.209 C  
HETATM   10  C   UNL     1     -10.287   7.252  67.252  1.00  0.00    -0.349 C  
BRANCH   8  11
HETATM   11  C   UNL     1     -10.490   8.349  69.759  1.00  0.00    -0.220 A  
HETATM   12  C   UNL     1     -10.460   7.250  70.642  1.00  0.00    -0.226 A  
HETATM   13  C   UNL     1     -11.226   7.220  71.809  1.00  0.00    -0.278 A  
HETATM   14  C   UNL     1     -11.255   9.458  70.159  1.00  0.00    -0.253 A  
HETATM   15  C   UNL     1     -12.032   8.304  72.137  1.00  0.00    -0.429 A  
HETATM   16  C   UNL     1     -12.029   9.433  71.324  1.00  0.00    -0.430 A  
ENDBRANCH   8  11
BRANCH  10  17
HETATM   17  C   UNL     1     -11.293   6.162  67.362  1.00  0.00     0.185 C  
HETATM   18  N   UNL     1     -11.249   5.365  66.139  1.00  0.00    -0.750 NA 
HETATM   19  H2  UNL     1     -10.313   5.015  65.933  1.00  0.00     0.000 HD 
HETATM   20  H1  UNL     1     -11.939   4.618  66.215  1.00  0.00     0.000 HD 
ENDBRANCH  10  17
ENDBRANCH   5   8
ENDBRANCH   2   3
TORSDOF 5
ENDMDL
MODEL      235
REMARK 921   NORMALIZED FREE ENERGY PREDICTED BY IDOCK:   -1.91 KCAL/MOL
REMARK 922        TOTAL FREE ENERGY PREDICTED BY IDOCK:   -2.87 KCAL/MOL
REMARK 923 INTER-LIGAND FREE ENERGY PREDICTED BY IDOCK:   -3.04 KCAL/MOL
REMARK 924 INTRA-LIGAND FREE ENERGY PREDICTED BY IDOCK:    0.17 KCAL/MOL
REMARK 927      BINDING AFFINITY PREDICTED BY RF-SCORE:    0.00 PKD
ROOT
HETATM    1  C   UNL     1     -11.466   6.637  69.833  1.00  0.00    -0.414 C  
HETATM    2  C   UNL     1     -10.100   6.381  69.219  1.00  0.00    -0.172 C  
ENDROOT
BRANCH   2   3
HETATM    3  N   UNL     1      -9.322   7.604  69.014  1.00  0.00    -0.147 N  
HETATM    4  O   UNL     1     -10.128   7.781  66.847  1.00  0.00    -0.236 OA 
HETATM    5  C   UNL     1      -9.403   8.204  67.745  1.00  0.00    -0.134 C  
BRANCH   3   6
HETATM    6  C   UNL     1      -8.232   7.936  69.935  1.00  0.00    -0.120 C  
HETATM    7  C   UNL     1      -7.452   6.794  70.565  1.00  0.00    -0.086 C  
ENDBRANCH   3   6
BRANCH   5   8
HETATM    8  C   UNL     1      -8.563   9.460  67.472  1.00  0.00    -0.122 C  
HETATM    9  C   UNL     1      -7.042   9.317  67.658  1.00  0.00    -0.082 C  
HETATM   10  C   UNL     1      -7.608   9.350  66.273  1.00  0.00    -0.097 C  
BRANCH   8  11
HETATM   11  C   UNL     1      -9.150  10.754  68.056  1.00  0.00    -0.150 A  
HETATM   12  C   UNL     1     -10.492  10.769  68.490  1.00  0.00    -0.208 A  
HETATM   13  C   UNL     1     -11.154  11.961  68.796  1.00  0.00    -0.296 A  
HETATM   14  C   UNL     1      -8.478  11.988  68.038  1.00  0.00    -0.168 A  
HETATM   15  C   UNL     1     -10.482  13.173  68.694  1.00  0.00    -0.242 A  
HETATM   16  C   UNL     1      -9.137  13.186  68.338  1.00  0.00    -0.134 A  
ENDBRANCH   8  11
BRANCH  10  17
HETATM   17  C   UNL     1      -7.203  10.448  65.356  1.00  0.00    -0.121 C  
HETATM   18  N   UNL     1      -5.859  10.167  64.860  1.00  0.00    -0.111 NA 
HETATM   19  H2  UNL     1      -5.787   9.247  64.425  1.00  0.00     0.000 HD 
HETATM   20  H1  UNL     1      -5.582  10.920  64.232  1.00  0.00     0.000 HD 
ENDBRANCH  10  17
ENDBRANCH   5   8
ENDBRANCH   2   3
TORSDOF 5
ENDMDL
MODEL      236
REMARK 921   NORMALIZED FREE ENERGY PREDICTED BY IDOCK:   -1.90 KCAL/MOL
REMARK 922        TOTAL FREE ENERGY PREDICTED BY IDOCK:   -2.85 KCAL/MOL
REMARK 923 INTER-LIGAND FREE ENERGY PREDICTED BY IDOCK:   -2.55 KCAL/MOL
REMARK 924 INTRA-LIGAND FREE ENERGY PREDICTED BY IDOCK:   -0.31 KCAL/MOL
REMARK 927      BINDING AFFINITY PREDICTED BY RF-SCORE:    0.00 PKD
ROOT
HETATM    1  C   UNL     1      -9.575   2.104  63.301  1.00  0.00    -0.097 C  
HETATM    2  C   UNL     1      -9.620   3.614  63.143  1.00  0.00    -0.120 C  
ENDROOT
BRANCH   2   3
HETATM    3  N   UNL     1      -9.033   4.331  64.277  1.00  0.00    -0.143 N  
HETATM    4  O   UNL     1     -11.122   4.525  65.265  1.00  0.00    -0.221 OA 
HETATM    5  C   UNL     1      -9.917   4.768  65.280  1.00  0.00    -0.043 C  
BRANCH   3   6
HETATM    6  C   UNL     1      -7.687   4.898  64.162  1.00  0.00    -0.080 C  
HETATM    7  C   UNL     1      -7.380   5.778  62.962  1.00  0.00    -0.059 C  
ENDBRANCH   3   6
BRANCH   5   8
HETATM    8  C   UNL     1      -9.349   5.567  66.461  1.00  0.00    -0.154 C  
HETATM    9  C   UNL     1      -8.834   6.981  66.143  1.00  0.00    -0.165 C  
HETATM   10  C   UNL     1     -10.151   6.823  66.835  1.00  0.00    -0.268 C  
BRANCH   8  11
HETATM   11  C   UNL     1      -8.434   4.757  67.392  1.00  0.00    -0.104 A  
HETATM   12  C   UNL     1      -7.187   5.293  67.773  1.00  0.00    -0.071 A  
HETATM   13  C   UNL     1      -6.213   4.516  68.406  1.00  0.00    -0.032 A  
HETATM   14  C   UNL     1      -8.691   3.427  67.767  1.00  0.00    -0.132 A  
HETATM   15  C   UNL     1      -6.470   3.181  68.694  1.00  0.00    -0.030 A  
HETATM   16  C   UNL     1      -7.718   2.642  68.396  1.00  0.00    -0.054 A  
ENDBRANCH   8  11
BRANCH  10  17
HETATM   17  C   UNL     1     -10.322   7.396  68.197  1.00  0.00    -0.192 C  
HETATM   18  N   UNL     1     -11.364   6.644  68.889  1.00  0.00    -0.581 NA 
HETATM   19  H2  UNL     1     -11.178   5.642  68.907  1.00  0.00     0.000 HD 
HETATM   20  H1  UNL     1     -11.481   7.038  69.823  1.00  0.00     0.000 HD 
ENDBRANCH  10  17
ENDBRANCH   5   8
ENDBRANCH   2   3
TORSDOF 5
ENDMDL
MODEL      237
REMARK 921   NORMALIZED FREE ENERGY PREDICTED BY IDOCK:   -1.87 KCAL/MOL
REMARK 922        TOTAL FREE ENERGY PREDICTED BY IDOCK:   -2.81 KCAL/MOL
REMARK 923 INTER-LIGAND FREE ENERGY PREDICTED BY IDOCK:   -3.12 KCAL/MOL
REMARK 924 INTRA-LIGAND FREE ENERGY PREDICTED BY IDOCK:    0.31 KCAL/MOL
REMARK 927      BINDING AFFINITY PREDICTED BY RF-SCORE:    0.00 PKD
ROOT
HETATM    1  C   UNL     1      -5.311   7.366  67.403  1.00  0.00    -0.025 C  
HETATM    2  C   UNL     1      -5.760   8.425  66.410  1.00  0.00    -0.040 C  
ENDROOT
BRANCH   2   3
HETATM    3  N   UNL     1      -7.187   8.739  66.506  1.00  0.00    -0.080 N  
HETATM    4  O   UNL     1      -6.875   9.609  68.632  1.00  0.00    -0.055 OA 
HETATM    5  C   UNL     1      -7.632   9.316  67.709  1.00  0.00    -0.084 C  
BRANCH   3   6
HETATM    6  C   UNL     1      -8.133   8.120  65.573  1.00  0.00    -0.130 C  
HETATM    7  C   UNL     1      -7.892   6.678  65.159  1.00  0.00    -0.115 C  
ENDBRANCH   3   6
BRANCH   5   8
HETATM    8  C   UNL     1      -9.129   9.614  67.870  1.00  0.00    -0.130 C  
HETATM    9  C   UNL     1     -10.087   8.431  67.649  1.00  0.00    -0.268 C  
HETATM   10  C   UNL     1      -9.807   8.892  69.044  1.00  0.00    -0.182 C  
BRANCH   8  11
HETATM   11  C   UNL     1      -9.587  10.927  67.217  1.00  0.00    -0.184 A  
HETATM   12  C   UNL     1      -9.315  12.151  67.862  1.00  0.00    -0.192 A  
HETATM   13  C   UNL     1      -9.911  13.347  67.455  1.00  0.00    -0.230 A  
HETATM   14  C   UNL     1     -10.413  10.982  66.081  1.00  0.00    -0.301 A  
HETATM   15  C   UNL     1     -10.784  13.353  66.374  1.00  0.00    -0.289 A  
HETATM   16  C   UNL     1     -11.018  12.175  65.672  1.00  0.00    -0.337 A  
ENDBRANCH   8  11
BRANCH  10  17
HETATM   17  C   UNL     1     -10.932   9.404  69.872  1.00  0.00    -0.229 C  
HETATM   18  N   UNL     1     -10.882   8.753  71.177  1.00  0.00    -0.249 NA 
HETATM   19  H2  UNL     1      -9.977   8.863  71.635  1.00  0.00     0.000 HD 
HETATM   20  H1  UNL     1     -11.653   9.104  71.744  1.00  0.00     0.000 HD 
ENDBRANCH  10  17
ENDBRANCH   5   8
ENDBRANCH   2   3
TORSDOF 5
ENDMDL
MODEL      238
REMARK 921   NORMALIZED FREE ENERGY PREDICTED BY IDOCK:   -1.79 KCAL/MOL
REMARK 922        TOTAL FREE ENERGY PREDICTED BY IDOCK:   -2.70 KCAL/MOL
REMARK 923 INTER-LIGAND FREE ENERGY PREDICTED BY IDOCK:   -2.57 KCAL/MOL
REMARK 924 INTRA-LIGAND FREE ENERGY PREDICTED BY IDOCK:   -0.14 KCAL/MOL
REMARK 927      BINDING AFFINITY PREDICTED BY RF-SCORE:    0.00 PKD
ROOT
HETATM    1  C   UNL     1      -7.172  10.938  69.394  1.00  0.00    -0.126 C  
HETATM    2  C   UNL     1      -6.572   9.556  69.587  1.00  0.00    -0.046 C  
ENDROOT
BRANCH   2   3
HETATM    3  N   UNL     1      -7.558   8.479  69.486  1.00  0.00    -0.087 N  
HETATM    4  O   UNL     1      -7.215   7.926  71.712  1.00  0.00    -0.063 OA 
HETATM    5  C   UNL     1      -7.771   7.701  70.639  1.00  0.00    -0.088 C  
BRANCH   3   6
HETATM    6  C   UNL     1      -7.983   8.000  68.168  1.00  0.00    -0.128 C  
HETATM    7  C   UNL     1      -6.991   8.087  67.020  1.00  0.00    -0.074 C  
ENDBRANCH   3   6
BRANCH   5   8
HETATM    8  C   UNL     1      -8.760   6.530  70.562  1.00  0.00    -0.144 C  
HETATM    9  C   UNL     1      -9.674   6.328  71.784  1.00  0.00    -0.168 C  
HETATM   10  C   UNL     1     -10.242   6.938  70.541  1.00  0.00    -0.209 C  
BRANCH   8  11
HETATM   11  C   UNL     1      -8.162   5.232  70.000  1.00  0.00    -0.084 A  
HETATM   12  C   UNL     1      -8.981   4.357  69.258  1.00  0.00    -0.148 A  
HETATM   13  C   UNL     1      -8.573   3.061  68.934  1.00  0.00    -0.113 A  
HETATM   14  C   UNL     1      -6.872   4.771  70.318  1.00  0.00    -0.037 A  
HETATM   15  C   UNL     1      -7.320   2.610  69.331  1.00  0.00    -0.044 A  
HETATM   16  C   UNL     1      -6.460   3.472  70.002  1.00  0.00    -0.032 A  
ENDBRANCH   8  11
BRANCH  10  17
HETATM   17  C   UNL     1     -11.346   6.235  69.835  1.00  0.00    -0.434 C  
HETATM   18  N   UNL     1     -11.442   6.766  68.479  1.00  0.00    -0.542 NA 
HETATM   19  H2  UNL     1     -10.558   6.712  67.973  1.00  0.00     0.000 HD 
HETATM   20  H1  UNL     1     -12.200   6.285  67.995  1.00  0.00     0.000 HD 
ENDBRANCH  10  17
ENDBRANCH   5   8
ENDBRANCH   2   3
TORSDOF 5
ENDMDL
MODEL      239
REMARK 921   NORMALIZED FREE ENERGY PREDICTED BY IDOCK:   -1.69 KCAL/MOL
REMARK 922        TOTAL FREE ENERGY PREDICTED BY IDOCK:   -2.58 KCAL/MOL
REMARK 923 INTER-LIGAND FREE ENERGY PREDICTED BY IDOCK:   -1.99 KCAL/MOL
REMARK 924 INTRA-LIGAND FREE ENERGY PREDICTED BY IDOCK:   -0.59 KCAL/MOL
REMARK 927      BINDING AFFINITY PREDICTED BY RF-SCORE:    0.00 PKD
ROOT
HETATM    1  C   UNL     1     -11.099   6.629  66.964  1.00  0.00    -0.395 C  
HETATM    2  C   UNL     1     -10.389   7.756  67.696  1.00  0.00    -0.239 C  
ENDROOT
BRANCH   2   3
HETATM    3  N   UNL     1      -9.161   7.324  68.368  1.00  0.00    -0.138 N  
HETATM    4  O   UNL     1     -10.323   7.033  70.353  1.00  0.00    -0.199 OA 
HETATM    5  C   UNL     1      -9.260   7.012  69.736  1.00  0.00    -0.147 C  
BRANCH   3   6
HETATM    6  C   UNL     1      -7.860   7.594  67.751  1.00  0.00    -0.120 C  
HETATM    7  C   UNL     1      -7.401   6.687  66.621  1.00  0.00    -0.078 C  
ENDBRANCH   3   6
BRANCH   5   8
HETATM    8  C   UNL     1      -7.987   6.604  70.490  1.00  0.00    -0.111 C  
HETATM    9  C   UNL     1      -6.987   7.731  70.798  1.00  0.00    -0.046 C  
HETATM   10  C   UNL     1      -7.852   7.202  71.898  1.00  0.00    -0.092 C  
BRANCH   8  11
HETATM   11  C   UNL     1      -7.339   5.306  69.982  1.00  0.00    -0.064 A  
HETATM   12  C   UNL     1      -5.946   5.266  69.772  1.00  0.00    -0.017 A  
HETATM   13  C   UNL     1      -5.334   4.214  69.086  1.00  0.00    -0.011 A  
HETATM   14  C   UNL     1      -8.075   4.188  69.553  1.00  0.00    -0.063 A  
HETATM   15  C   UNL     1      -6.102   3.159  68.607  1.00  0.00    -0.028 A  
HETATM   16  C   UNL     1      -7.470   3.134  68.860  1.00  0.00    -0.048 A  
ENDBRANCH   8  11
BRANCH  10  17
HETATM   17  C   UNL     1      -7.208   6.563  73.076  1.00  0.00    -0.081 C  
HETATM   18  N   UNL     1      -8.073   5.489  73.553  1.00  0.00    -0.113 NA 
HETATM   19  H2  UNL     1      -8.302   4.817  72.821  1.00  0.00     0.000 HD 
HETATM   20  H1  UNL     1      -7.631   5.051  74.361  1.00  0.00     0.000 HD 
ENDBRANCH  10  17
ENDBRANCH   5   8
ENDBRANCH   2   3
TORSDOF 5
ENDMDL
MODEL      240
REMARK 921   NORMALIZED FREE ENERGY PREDICTED BY IDOCK:   -1.67 KCAL/MOL
REMARK 922        TOTAL FREE ENERGY PREDICTED BY IDOCK:   -2.55 KCAL/MOL
REMARK 923 INTER-LIGAND FREE ENERGY PREDICTED BY IDOCK:   -2.58 KCAL/MOL
REMARK 924 INTRA-LIGAND FREE ENERGY PREDICTED BY IDOCK:    0.03 KCAL/MOL
REMARK 927      BINDING AFFINITY PREDICTED BY RF-SCORE:    0.00 PKD
ROOT
HETATM    1  C   UNL     1      -9.771   3.399  65.390  1.00  0.00    -0.053 C  
HETATM    2  C   UNL     1      -9.629   4.878  65.075  1.00  0.00     0.016 C  
ENDROOT
BRANCH   2   3
HETATM    3  N   UNL     1      -9.054   5.650  66.178  1.00  0.00    -0.150 N  
HETATM    4  O   UNL     1     -11.178   6.231  66.907  1.00  0.00    -0.335 OA 
HETATM    5  C   UNL     1      -9.957   6.318  67.025  1.00  0.00    -0.159 C  
BRANCH   3   6
HETATM    6  C   UNL     1      -7.638   6.022  66.147  1.00  0.00    -0.087 C  
HETATM    7  C   UNL     1      -6.987   6.253  64.794  1.00  0.00    -0.051 C  
ENDBRANCH   3   6
BRANCH   5   8
HETATM    8  C   UNL     1      -9.395   7.180  68.164  1.00  0.00    -0.129 C  
HETATM    9  C   UNL     1      -8.322   8.211  67.773  1.00  0.00    -0.128 C  
HETATM   10  C   UNL     1      -9.714   8.679  68.057  1.00  0.00    -0.184 C  
BRANCH   8  11
HETATM   11  C   UNL     1      -9.083   6.402  69.452  1.00  0.00    -0.140 A  
HETATM   12  C   UNL     1      -7.747   6.065  69.750  1.00  0.00    -0.096 A  
HETATM   13  C   UNL     1      -7.423   5.157  70.761  1.00  0.00    -0.074 A  
HETATM   14  C   UNL     1     -10.073   5.855  70.287  1.00  0.00    -0.260 A  
HETATM   15  C   UNL     1      -8.432   4.575  71.518  1.00  0.00    -0.116 A  
HETATM   16  C   UNL     1      -9.756   4.940  71.297  1.00  0.00    -0.241 A  
ENDBRANCH   8  11
BRANCH  10  17
HETATM   17  C   UNL     1      -9.941   9.621  69.185  1.00  0.00    -0.185 C  
HETATM   18  N   UNL     1      -8.672   9.834  69.874  1.00  0.00    -0.209 NA 
HETATM   19  H2  UNL     1      -7.932  10.147  69.245  1.00  0.00     0.000 HD 
HETATM   20  H1  UNL     1      -8.828  10.481  70.647  1.00  0.00     0.000 HD 
ENDBRANCH  10  17
ENDBRANCH   5   8
ENDBRANCH   2   3
TORSDOF 5
ENDMDL
MODEL      241
REMARK 921   NORMALIZED FREE ENERGY PREDICTED BY IDOCK:   -1.64 KCAL/MOL
REMARK 922        TOTAL FREE ENERGY PREDICTED BY IDOCK:   -2.51 KCAL/MOL
REMARK 923 INTER-LIGAND FREE ENERGY PREDICTED BY IDOCK:   -2.63 KCAL/MOL
REMARK 924 INTRA-LIGAND FREE ENERGY PREDICTED BY IDOCK:    0.11 KCAL/MOL
REMARK 927      BINDING AFFINITY PREDICTED BY RF-SCORE:    0.00 PKD
ROOT
HETATM    1  C   UNL     1      -9.790  12.499  65.964  1.00  0.00    -0.266 C  
HETATM    2  C   UNL     1      -9.608  11.114  65.367  1.00  0.00    -0.229 C  
ENDROOT
BRANCH   2   3
HETATM    3  N   UNL     1      -8.947  10.176  66.276  1.00  0.00    -0.146 N  
HETATM    4  O   UNL     1      -8.073   9.008  64.473  1.00  0.00    -0.127 OA 
HETATM    5  C   UNL     1      -8.217   9.127  65.688  1.00  0.00    -0.120 C  
BRANCH   3   6
HETATM    6  C   UNL     1      -9.359  10.110  67.680  1.00  0.00    -0.148 C  
HETATM    7  C   UNL     1      -8.779  11.130  68.646  1.00  0.00    -0.153 C  
ENDBRANCH   3   6
BRANCH   5   8
HETATM    8  C   UNL     1      -7.551   8.092  66.605  1.00  0.00    -0.093 C  
HETATM    9  C   UNL     1      -6.036   7.895  66.422  1.00  0.00    -0.045 C  
HETATM   10  C   UNL     1      -6.533   8.672  67.599  1.00  0.00    -0.061 C  
BRANCH   8  11
HETATM   11  C   UNL     1      -8.342   6.785  66.766  1.00  0.00    -0.115 A  
HETATM   12  C   UNL     1      -7.651   5.556  66.790  1.00  0.00    -0.088 A  
HETATM   13  C   UNL     1      -8.318   4.333  66.685  1.00  0.00    -0.101 A  
HETATM   14  C   UNL     1      -9.746   6.719  66.729  1.00  0.00    -0.222 A  
HETATM   15  C   UNL     1      -9.703   4.306  66.572  1.00  0.00    -0.236 A  
HETATM   16  C   UNL     1     -10.420   5.498  66.618  1.00  0.00    -0.355 A  
ENDBRANCH   8  11
BRANCH  10  17
HETATM   17  C   UNL     1      -6.243   8.169  68.968  1.00  0.00    -0.040 C  
HETATM   18  N   UNL     1      -7.483   8.174  69.737  1.00  0.00    -0.082 NA 
HETATM   19  H2  UNL     1      -8.230   7.652  69.279  1.00  0.00     0.000 HD 
HETATM   20  H1  UNL     1      -7.284   7.830  70.676  1.00  0.00     0.000 HD 
ENDBRANCH  10  17
ENDBRANCH   5   8
ENDBRANCH   2   3
TORSDOF 5
ENDMDL
MODEL      242
REMARK 921   NORMALIZED FREE ENERGY PREDICTED BY IDOCK:   -1.60 KCAL/MOL
REMARK 922        TOTAL FREE ENERGY PREDICTED BY IDOCK:   -2.46 KCAL/MOL
REMARK 923 INTER-LIGAND FREE ENERGY PREDICTED BY IDOCK:   -2.43 KCAL/MOL
REMARK 924 INTRA-LIGAND FREE ENERGY PREDICTED BY IDOCK:   -0.03 KCAL/MOL
REMARK 927      BINDING AFFINITY PREDICTED BY RF-SCORE:    0.00 PKD
ROOT
HETATM    1  C   UNL     1      -9.632   2.215  63.610  1.00  0.00    -0.118 C  
HETATM    2  C   UNL     1      -8.953   3.565  63.448  1.00  0.00    -0.095 C  
ENDROOT
BRANCH   2   3
HETATM    3  N   UNL     1      -8.584   4.182  64.723  1.00  0.00    -0.116 N  
HETATM    4  O   UNL     1      -8.013   6.147  63.634  1.00  0.00    -0.109 OA 
HETATM    5  C   UNL     1      -8.089   5.497  64.675  1.00  0.00    -0.127 C  
BRANCH   3   6
HETATM    6  C   UNL     1      -8.367   3.341  65.903  1.00  0.00    -0.103 C  
HETATM    7  C   UNL     1      -7.153   2.427  65.920  1.00  0.00    -0.060 C  
ENDBRANCH   3   6
BRANCH   5   8
HETATM    8  C   UNL     1      -7.644   6.163  65.984  1.00  0.00    -0.087 C  
HETATM    9  C   UNL     1      -6.269   5.740  66.530  1.00  0.00    -0.034 C  
HETATM   10  C   UNL     1      -6.409   7.070  65.859  1.00  0.00    -0.046 C  
BRANCH   8  11
HETATM   11  C   UNL     1      -8.744   6.260  67.052  1.00  0.00    -0.108 A  
HETATM   12  C   UNL     1      -8.472   5.828  68.366  1.00  0.00    -0.110 A  
HETATM   13  C   UNL     1      -9.487   5.658  69.311  1.00  0.00    -0.167 A  
HETATM   14  C   UNL     1     -10.075   6.607  66.764  1.00  0.00    -0.240 A  
HETATM   15  C   UNL     1     -10.805   5.938  68.970  1.00  0.00    -0.383 A  
HETATM   16  C   UNL     1     -11.097   6.435  67.704  1.00  0.00    -0.388 A  
ENDBRANCH   8  11
BRANCH  10  17
HETATM   17  C   UNL     1      -6.131   8.304  66.641  1.00  0.00    -0.053 C  
HETATM   18  N   UNL     1      -7.057   9.346  66.210  1.00  0.00    -0.087 NA 
HETATM   19  H2  UNL     1      -8.033   9.053  66.275  1.00  0.00     0.000 HD 
HETATM   20  H1  UNL     1      -6.866  10.192  66.746  1.00  0.00     0.000 HD 
ENDBRANCH  10  17
ENDBRANCH   5   8
ENDBRANCH   2   3
TORSDOF 5
ENDMDL
MODEL      243
REMARK 921   NORMALIZED FREE ENERGY PREDICTED BY IDOCK:   -1.49 KCAL/MOL
REMARK 922        TOTAL FREE ENERGY PREDICTED BY IDOCK:   -2.32 KCAL/MOL
REMARK 923 INTER-LIGAND FREE ENERGY PREDICTED BY IDOCK:   -2.22 KCAL/MOL
REMARK 924 INTRA-LIGAND FREE ENERGY PREDICTED BY IDOCK:   -0.10 KCAL/MOL
REMARK 927      BINDING AFFINITY PREDICTED BY RF-SCORE:    0.00 PKD
ROOT
HETATM    1  C   UNL     1     -11.099   6.628  66.966  1.00  0.00    -0.395 C  
HETATM    2  C   UNL     1     -10.405   7.768  67.692  1.00  0.00    -0.239 C  
ENDROOT
BRANCH   2   3
HETATM    3  N   UNL     1      -9.176   7.356  68.372  1.00  0.00    -0.139 N  
HETATM    4  O   UNL     1      -9.130   9.353  69.548  1.00  0.00    -0.145 OA 
HETATM    5  C   UNL     1      -8.610   8.273  69.276  1.00  0.00    -0.138 C  
BRANCH   3   6
HETATM    6  C   UNL     1      -8.387   6.242  67.839  1.00  0.00    -0.118 C  
HETATM    7  C   UNL     1      -8.853   4.826  68.135  1.00  0.00    -0.116 C  
ENDBRANCH   3   6
BRANCH   5   8
HETATM    8  C   UNL     1      -7.294   7.901  69.972  1.00  0.00    -0.070 C  
HETATM    9  C   UNL     1      -6.027   7.939  69.101  1.00  0.00    -0.034 C  
HETATM   10  C   UNL     1      -6.274   9.045  70.078  1.00  0.00    -0.037 C  
BRANCH   8  11
HETATM   11  C   UNL     1      -7.390   6.674  70.893  1.00  0.00    -0.082 A  
HETATM   12  C   UNL     1      -6.393   5.680  70.825  1.00  0.00    -0.031 A  
HETATM   13  C   UNL     1      -6.548   4.438  71.447  1.00  0.00    -0.027 A  
HETATM   14  C   UNL     1      -8.508   6.395  71.698  1.00  0.00    -0.128 A  
HETATM   15  C   UNL     1      -7.701   4.165  72.173  1.00  0.00    -0.080 A  
HETATM   16  C   UNL     1      -8.671   5.151  72.318  1.00  0.00    -0.127 A  
ENDBRANCH   8  11
BRANCH  10  17
HETATM   17  C   UNL     1      -5.297   9.265  71.177  1.00  0.00    -0.043 C  
HETATM   18  N   UNL     1      -6.022   9.725  72.357  1.00  0.00    -0.273 NA 
HETATM   19  H2  UNL     1      -6.776   9.092  72.625  1.00  0.00     0.000 HD 
HETATM   20  H1  UNL     1      -5.352   9.877  73.111  1.00  0.00     0.000 HD 
ENDBRANCH  10  17
ENDBRANCH   5   8
ENDBRANCH   2   3
TORSDOF 5
ENDMDL
MODEL      244
REMARK 921   NORMALIZED FREE ENERGY PREDICTED BY IDOCK:   -1.41 KCAL/MOL
REMARK 922        TOTAL FREE ENERGY PREDICTED BY IDOCK:   -2.21 KCAL/MOL
REMARK 923 INTER-LIGAND FREE ENERGY PREDICTED BY IDOCK:   -2.13 KCAL/MOL
REMARK 924 INTRA-LIGAND FREE ENERGY PREDICTED BY IDOCK:   -0.08 KCAL/MOL
REMARK 927      BINDING AFFINITY PREDICTED BY RF-SCORE:    0.00 PKD
ROOT
HETATM    1  C   UNL     1      -5.953  10.100  70.514  1.00  0.00    -0.099 C  
HETATM    2  C   UNL     1      -6.584   9.543  69.249  1.00  0.00    -0.048 C  
ENDROOT
BRANCH   2   3
HETATM    3  N   UNL     1      -7.505   8.434  69.505  1.00  0.00    -0.086 N  
HETATM    4  O   UNL     1      -5.798   6.905  69.150  1.00  0.00    -0.017 OA 
HETATM    5  C   UNL     1      -6.982   7.133  69.392  1.00  0.00    -0.062 C  
BRANCH   3   6
HETATM    6  C   UNL     1      -8.951   8.667  69.478  1.00  0.00    -0.145 C  
HETATM    7  C   UNL     1      -9.519   9.519  68.355  1.00  0.00    -0.144 C  
ENDBRANCH   3   6
BRANCH   5   8
HETATM    8  C   UNL     1      -7.926   5.941  69.602  1.00  0.00    -0.101 C  
HETATM    9  C   UNL     1      -8.696   5.455  68.363  1.00  0.00    -0.098 C  
HETATM   10  C   UNL     1      -7.526   4.662  68.851  1.00  0.00    -0.060 C  
BRANCH   8  11
HETATM   11  C   UNL     1      -8.773   6.023  70.881  1.00  0.00    -0.135 A  
HETATM   12  C   UNL     1      -8.131   6.145  72.130  1.00  0.00    -0.110 A  
HETATM   13  C   UNL     1      -8.820   5.977  73.333  1.00  0.00    -0.126 A  
HETATM   14  C   UNL     1     -10.164   5.820  70.903  1.00  0.00    -0.275 A  
HETATM   15  C   UNL     1     -10.182   5.700  73.319  1.00  0.00    -0.217 A  
HETATM   16  C   UNL     1     -10.860   5.644  72.105  1.00  0.00    -0.300 A  
ENDBRANCH   8  11
BRANCH  10  17
HETATM   17  C   UNL     1      -7.744   3.262  69.303  1.00  0.00    -0.050 C  
HETATM   18  N   UNL     1      -7.840   2.404  68.126  1.00  0.00    -0.058 NA 
HETATM   19  H2  UNL     1      -7.033   2.495  67.508  1.00  0.00     0.000 HD 
HETATM   20  H1  UNL     1      -7.989   1.444  68.436  1.00  0.00     0.000 HD 
ENDBRANCH  10  17
ENDBRANCH   5   8
ENDBRANCH   2   3
TORSDOF 5
ENDMDL
MODEL      245
REMARK 921   NORMALIZED FREE ENERGY PREDICTED BY IDOCK:   -1.25 KCAL/MOL
REMARK 922        TOTAL FREE ENERGY PREDICTED BY IDOCK:   -2.01 KCAL/MOL
REMARK 923 INTER-LIGAND FREE ENERGY PREDICTED BY IDOCK:   -3.06 KCAL/MOL
REMARK 924 INTRA-LIGAND FREE ENERGY PREDICTED BY IDOCK:    1.06 KCAL/MOL
REMARK 927      BINDING AFFINITY PREDICTED BY RF-SCORE:    0.00 PKD
ROOT
HETATM    1  C   UNL     1      -5.765   8.442  63.140  1.00  0.00    -0.073 C  
HETATM    2  C   UNL     1      -6.924   9.423  63.200  1.00  0.00    -0.098 C  
ENDROOT
BRANCH   2   3
HETATM    3  N   UNL     1      -7.510   9.542  64.537  1.00  0.00    -0.109 N  
HETATM    4  O   UNL     1      -6.253   7.738  65.273  1.00  0.00    -0.038 OA 
HETATM    5  C   UNL     1      -7.102   8.598  65.497  1.00  0.00    -0.083 C  
BRANCH   3   6
HETATM    6  C   UNL     1      -8.727  10.333  64.731  1.00  0.00    -0.188 C  
HETATM    7  C   UNL     1      -9.686  10.472  63.560  1.00  0.00    -0.374 C  
ENDBRANCH   3   6
BRANCH   5   8
HETATM    8  C   UNL     1      -7.730   8.656  66.896  1.00  0.00    -0.091 C  
HETATM    9  C   UNL     1      -6.775   8.982  68.058  1.00  0.00    -0.068 C  
HETATM   10  C   UNL     1      -7.704  10.043  67.557  1.00  0.00    -0.091 C  
BRANCH   8  11
HETATM   11  C   UNL     1      -8.721   7.520  67.194  1.00  0.00    -0.121 A  
HETATM   12  C   UNL     1     -10.029   7.590  66.672  1.00  0.00    -0.270 A  
HETATM   13  C   UNL     1     -11.041   6.729  67.103  1.00  0.00    -0.404 A  
HETATM   14  C   UNL     1      -8.456   6.477  68.098  1.00  0.00    -0.116 A  
HETATM   15  C   UNL     1     -10.765   5.757  68.056  1.00  0.00    -0.290 A  
HETATM   16  C   UNL     1      -9.467   5.615  68.537  1.00  0.00    -0.149 A  
ENDBRANCH   8  11
BRANCH  10  17
HETATM   17  C   UNL     1      -8.722  10.604  68.484  1.00  0.00    -0.141 C  
HETATM   18  N   UNL     1      -8.304  10.328  69.855  1.00  0.00    -0.361 NA 
HETATM   19  H2  UNL     1      -7.363  10.670  70.054  1.00  0.00     0.000 HD 
HETATM   20  H1  UNL     1      -9.002  10.713  70.491  1.00  0.00     0.000 HD 
ENDBRANCH  10  17
ENDBRANCH   5   8
ENDBRANCH   2   3
TORSDOF 5
ENDMDL
MODEL      246
REMARK 921   NORMALIZED FREE ENERGY PREDICTED BY IDOCK:   -1.18 KCAL/MOL
REMARK 922        TOTAL FREE ENERGY PREDICTED BY IDOCK:   -1.92 KCAL/MOL
REMARK 923 INTER-LIGAND FREE ENERGY PREDICTED BY IDOCK:   -2.22 KCAL/MOL
REMARK 924 INTRA-LIGAND FREE ENERGY PREDICTED BY IDOCK:    0.30 KCAL/MOL
REMARK 927      BINDING AFFINITY PREDICTED BY RF-SCORE:    0.00 PKD
ROOT
HETATM    1  C   UNL     1      -8.114   5.328  67.367  1.00  0.00    -0.100 C  
HETATM    2  C   UNL     1      -8.986   6.513  67.746  1.00  0.00    -0.114 C  
ENDROOT
BRANCH   2   3
HETATM    3  N   UNL     1      -9.221   6.620  69.187  1.00  0.00    -0.137 N  
HETATM    4  O   UNL     1      -6.937   6.711  69.575  1.00  0.00    -0.062 OA 
HETATM    5  C   UNL     1      -8.085   6.684  70.014  1.00  0.00    -0.121 C  
BRANCH   3   6
HETATM    6  C   UNL     1     -10.533   6.274  69.739  1.00  0.00    -0.232 C  
HETATM    7  C   UNL     1     -11.674   7.259  69.547  1.00  0.00     0.308 C  
ENDBRANCH   3   6
BRANCH   5   8
HETATM    8  C   UNL     1      -8.286   6.745  71.534  1.00  0.00    -0.111 C  
HETATM    9  C   UNL     1      -7.667   7.955  72.255  1.00  0.00    -0.125 C  
HETATM   10  C   UNL     1      -9.145   7.921  72.024  1.00  0.00    -0.198 C  
BRANCH   8  11
HETATM   11  C   UNL     1      -8.075   5.405  72.256  1.00  0.00    -0.107 A  
HETATM   12  C   UNL     1      -9.153   4.505  72.372  1.00  0.00    -0.144 A  
HETATM   13  C   UNL     1      -9.100   3.395  73.218  1.00  0.00    -0.107 A  
HETATM   14  C   UNL     1      -6.902   5.079  72.959  1.00  0.00    -0.076 A  
HETATM   15  C   UNL     1      -7.951   3.143  73.959  1.00  0.00    -0.069 A  
HETATM   16  C   UNL     1      -6.843   3.972  73.812  1.00  0.00    -0.058 A  
ENDBRANCH   8  11
BRANCH  10  17
HETATM   17  C   UNL     1     -10.057   7.926  73.199  1.00  0.00    -0.294 C  
HETATM   18  N   UNL     1     -11.357   7.411  72.779  1.00  0.00    -0.469 NA 
HETATM   19  H2  UNL     1     -11.291   6.493  72.339  1.00  0.00     0.000 HD 
HETATM   20  H1  UNL     1     -11.982   7.415  73.585  1.00  0.00     0.000 HD 
ENDBRANCH  10  17
ENDBRANCH   5   8
ENDBRANCH   2   3
TORSDOF 5
ENDMDL
MODEL      247
REMARK 921   NORMALIZED FREE ENERGY PREDICTED BY IDOCK:    1.52 KCAL/MOL
REMARK 922        TOTAL FREE ENERGY PREDICTED BY IDOCK:    1.57 KCAL/MOL
REMARK 923 INTER-LIGAND FREE ENERGY PREDICTED BY IDOCK:   -0.68 KCAL/MOL
REMARK 924 INTRA-LIGAND FREE ENERGY PREDICTED BY IDOCK:    2.25 KCAL/MOL
REMARK 927      BINDING AFFINITY PREDICTED BY RF-SCORE:    0.00 PKD
ROOT
HETATM    1  C   UNL     1      -7.834  10.406  70.684  1.00  0.00     1.093 C  
HETATM    2  C   UNL     1      -9.065   9.903  69.949  1.00  0.00    -0.210 C  
ENDROOT
BRANCH   2   3
HETATM    3  N   UNL     1      -9.255   8.456  70.066  1.00  0.00    -0.157 N  
HETATM    4  O   UNL     1      -7.478   8.319  71.549  1.00  0.00    -0.074 OA 
HETATM    5  C   UNL     1      -8.356   7.761  70.894  1.00  0.00    -0.111 C  
BRANCH   3   6
HETATM    6  C   UNL     1     -10.066   7.745  69.073  1.00  0.00    -0.196 C  
HETATM    7  C   UNL     1     -11.321   7.033  69.550  1.00  0.00    -0.138 C  
ENDBRANCH   3   6
BRANCH   5   8
HETATM    8  C   UNL     1      -8.488   6.235  71.004  1.00  0.00    -0.128 C  
HETATM    9  C   UNL     1      -8.516   5.456  69.678  1.00  0.00    -0.100 C  
HETATM   10  C   UNL     1      -7.269   5.444  70.506  1.00  0.00    -0.066 C  
BRANCH   8  11
HETATM   11  C   UNL     1      -9.525   5.763  72.035  1.00  0.00    -0.166 A  
HETATM   12  C   UNL     1      -9.987   6.666  73.015  1.00  0.00    -0.191 A  
HETATM   13  C   UNL     1     -10.730   6.240  74.118  1.00  0.00     0.018 A  
HETATM   14  C   UNL     1      -9.932   4.424  72.169  1.00  0.00    -0.249 A  
HETATM   15  C   UNL     1     -11.050   4.895  74.261  1.00  0.00     0.331 A  
HETATM   16  C   UNL     1     -10.671   3.990  73.275  1.00  0.00    -0.286 A  
ENDBRANCH   8  11
BRANCH  10  17
HETATM   17  C   UNL     1      -6.772   4.148  71.040  1.00  0.00    -0.031 C  
HETATM   18  N   UNL     1      -6.015   3.474  69.991  1.00  0.00    -0.018 NA 
HETATM   19  H2  UNL     1      -5.266   4.054  69.614  1.00  0.00     0.000 HD 
HETATM   20  H1  UNL     1      -5.674   2.585  70.358  1.00  0.00     0.000 HD 
ENDBRANCH  10  17
ENDBRANCH   5   8
ENDBRANCH   2   3
TORSDOF 5
ENDMDL
MODEL      248
REMARK 921   NORMALIZED FREE ENERGY PREDICTED BY IDOCK:    1.72 KCAL/MOL
REMARK 922        TOTAL FREE ENERGY PREDICTED BY IDOCK:    1.83 KCAL/MOL
REMARK 923 INTER-LIGAND FREE ENERGY PREDICTED BY IDOCK:   -1.54 KCAL/MOL
REMARK 924 INTRA-LIGAND FREE ENERGY PREDICTED BY IDOCK:    3.37 KCAL/MOL
REMARK 927      BINDING AFFINITY PREDICTED BY RF-SCORE:    0.00 PKD
ROOT
HETATM    1  C   UNL     1      -7.719  10.161  68.366  1.00  0.00    -0.089 C  
HETATM    2  C   UNL     1      -6.878   9.370  69.355  1.00  0.00    -0.049 C  
ENDROOT
BRANCH   2   3
HETATM    3  N   UNL     1      -7.643   8.353  70.079  1.00  0.00    -0.067 N  
HETATM    4  O   UNL     1      -6.025   8.285  71.739  1.00  0.00    -0.036 OA 
HETATM    5  C   UNL     1      -7.079   7.861  71.270  1.00  0.00    -0.055 C  
BRANCH   3   6
HETATM    6  C   UNL     1      -8.712   7.621  69.394  1.00  0.00    -0.136 C  
HETATM    7  C   UNL     1      -8.349   6.808  68.163  1.00  0.00    -0.118 C  
ENDBRANCH   3   6
BRANCH   5   8
HETATM    8  C   UNL     1      -7.825   6.757  72.033  1.00  0.00    -0.096 C  
HETATM    9  C   UNL     1      -8.275   7.103  73.463  1.00  0.00    -0.138 C  
HETATM   10  C   UNL     1      -9.290   7.080  72.365  1.00  0.00    -0.152 C  
BRANCH   8  11
HETATM   11  C   UNL     1      -7.207   5.358  71.887  1.00  0.00    -0.086 A  
HETATM   12  C   UNL     1      -5.852   5.236  71.517  1.00  0.00    -0.024 A  
HETATM   13  C   UNL     1      -5.302   4.012  71.130  1.00  0.00    -0.004 A  
HETATM   14  C   UNL     1      -7.957   4.170  71.941  1.00  0.00    -0.084 A  
HETATM   15  C   UNL     1      -6.091   2.868  71.121  1.00  0.00    -0.018 A  
HETATM   16  C   UNL     1      -7.413   2.942  71.549  1.00  0.00    -0.040 A  
ENDBRANCH   8  11
BRANCH  10  17
HETATM   17  C   UNL     1     -10.416   6.112  72.446  1.00  0.00    -0.199 C  
HETATM   18  N   UNL     1      -9.864   4.764  72.549  1.00  0.00    -0.151 NA 
HETATM   19  H2  UNL     1      -9.208   4.668  73.324  1.00  0.00     0.000 HD 
HETATM   20  H1  UNL     1     -10.636   4.101  72.604  1.00  0.00     0.000 HD 
ENDBRANCH  10  17
ENDBRANCH   5   8
ENDBRANCH   2   3
TORSDOF 5
ENDMDL
