MODEL        1
REMARK 921   NORMALIZED FREE ENERGY PREDICTED BY IDOCK:   -6.13 KCAL/MOL
REMARK 922        TOTAL FREE ENERGY PREDICTED BY IDOCK:   -6.77 KCAL/MOL
REMARK 923 INTER-LIGAND FREE ENERGY PREDICTED BY IDOCK:   -6.49 KCAL/MOL
REMARK 924 INTRA-LIGAND FREE ENERGY PREDICTED BY IDOCK:   -0.29 KCAL/MOL
REMARK 927      BINDING AFFINITY PREDICTED BY RF-SCORE:    0.00 PKD
ROOT
HETATM    1  C   UNL     1     -12.555  11.729  71.413  1.00  0.00    -0.367 C  
HETATM    2  C   UNL     1     -12.274  12.539  70.176  1.00  0.00    -0.234 C  
HETATM    3  C   UNL     1     -12.242  13.891  70.095  1.00  0.00    -0.425 C  
HETATM    4  H   UNL     1     -12.063  10.774  69.135  1.00  0.00     0.000 HD 
HETATM    5  C   UNL     1     -11.914  14.502  68.809  1.00  0.00    -0.315 C  
HETATM    6  C   UNL     1     -11.682  13.778  67.701  1.00  0.00    -0.402 C  
HETATM    7  O   UNL     1     -11.593  11.562  66.828  1.00  0.00    -0.492 OA 
HETATM    8  C   UNL     1     -11.363  14.387  66.461  1.00  0.00    -0.350 C  
HETATM    9  N   UNL     1     -11.103  14.940  65.473  1.00  0.00    -0.340 NA 
HETATM   10  C   UNL     1     -11.762  12.298  67.793  1.00  0.00    -0.337 C  
HETATM   11  N   UNL     1     -12.035  11.789  69.040  1.00  0.00    -0.304 N  
ENDROOT
BRANCH   3  12
HETATM   12  C   UNL     1     -12.576  14.740  71.256  1.00  0.00    -0.403 A  
HETATM   13  C   UNL     1     -14.147  15.836  72.679  1.00  0.00    -0.406 A  
HETATM   14  C   UNL     1     -13.899  15.071  71.549  1.00  0.00    -0.570 A  
HETATM   15  N   UNL     1     -13.182  16.277  73.514  1.00  0.00    -0.605 NA 
HETATM   16  C   UNL     1     -11.912  15.936  73.214  1.00  0.00    -0.447 A  
HETATM   17  C   UNL     1     -11.561  15.178  72.110  1.00  0.00    -0.490 A  
ENDBRANCH   3  12
TORSDOF 1
ENDMDL
MODEL        2
REMARK 921   NORMALIZED FREE ENERGY PREDICTED BY IDOCK:   -6.10 KCAL/MOL
REMARK 922        TOTAL FREE ENERGY PREDICTED BY IDOCK:   -6.75 KCAL/MOL
REMARK 923 INTER-LIGAND FREE ENERGY PREDICTED BY IDOCK:   -6.51 KCAL/MOL
REMARK 924 INTRA-LIGAND FREE ENERGY PREDICTED BY IDOCK:   -0.24 KCAL/MOL
REMARK 927      BINDING AFFINITY PREDICTED BY RF-SCORE:    0.00 PKD
ROOT
HETATM    1  C   UNL     1     -12.243  11.817  70.514  1.00  0.00    -0.438 C  
HETATM    2  C   UNL     1     -11.908  12.823  69.446  1.00  0.00    -0.300 C  
HETATM    3  C   UNL     1     -11.935  14.171  69.578  1.00  0.00    -0.389 C  
HETATM    4  H   UNL     1     -11.531  11.255  68.165  1.00  0.00     0.000 HD 
HETATM    5  C   UNL     1     -11.539  14.990  68.435  1.00  0.00    -0.352 C  
HETATM    6  C   UNL     1     -11.187  14.460  67.251  1.00  0.00    -0.334 C  
HETATM    7  O   UNL     1     -10.923  12.415  66.056  1.00  0.00    -0.270 OA 
HETATM    8  C   UNL     1     -10.803  15.269  66.152  1.00  0.00    -0.320 C  
HETATM    9  N   UNL     1     -10.495  15.981  65.288  1.00  0.00    -0.531 NA 
HETATM   10  C   UNL     1     -11.201  12.982  67.106  1.00  0.00    -0.286 C  
HETATM   11  N   UNL     1     -11.545  12.272  68.231  1.00  0.00    -0.310 N  
ENDROOT
BRANCH   3  12
HETATM   12  C   UNL     1     -12.398  14.812  70.825  1.00  0.00    -0.397 A  
HETATM   13  C   UNL     1     -14.121  15.455  72.346  1.00  0.00    -0.549 A  
HETATM   14  C   UNL     1     -13.756  14.878  71.140  1.00  0.00    -0.452 A  
HETATM   15  N   UNL     1     -13.238  15.955  73.237  1.00  0.00    -0.580 NA 
HETATM   16  C   UNL     1     -11.931  15.872  72.915  1.00  0.00    -0.504 A  
HETATM   17  C   UNL     1     -11.466  15.316  71.735  1.00  0.00    -0.494 A  
ENDBRANCH   3  12
TORSDOF 1
ENDMDL
MODEL        3
REMARK 921   NORMALIZED FREE ENERGY PREDICTED BY IDOCK:   -5.89 KCAL/MOL
REMARK 922        TOTAL FREE ENERGY PREDICTED BY IDOCK:   -6.52 KCAL/MOL
REMARK 923 INTER-LIGAND FREE ENERGY PREDICTED BY IDOCK:   -6.26 KCAL/MOL
REMARK 924 INTRA-LIGAND FREE ENERGY PREDICTED BY IDOCK:   -0.27 KCAL/MOL
REMARK 927      BINDING AFFINITY PREDICTED BY RF-SCORE:    0.00 PKD
ROOT
HETATM    1  C   UNL     1     -12.642  12.111  63.816  1.00  0.00    -0.585 C  
HETATM    2  C   UNL     1     -11.765  13.163  64.441  1.00  0.00    -0.380 C  
HETATM    3  C   UNL     1     -10.805  12.955  65.374  1.00  0.00    -0.307 C  
HETATM    4  H   UNL     1     -12.726  14.571  63.285  1.00  0.00     0.000 HD 
HETATM    5  C   UNL     1     -10.026  14.101  65.838  1.00  0.00    -0.331 C  
HETATM    6  C   UNL     1     -10.252  15.353  65.404  1.00  0.00    -0.408 C  
HETATM    7  O   UNL     1     -11.627  16.684  63.984  1.00  0.00    -1.197 OA 
HETATM    8  C   UNL     1      -9.485  16.454  65.863  1.00  0.00    -0.254 C  
HETATM    9  N   UNL     1      -8.824  17.317  66.272  1.00  0.00    -0.415 NA 
HETATM   10  C   UNL     1     -11.334  15.574  64.413  1.00  0.00    -0.252 C  
HETATM   11  N   UNL     1     -12.000  14.448  63.990  1.00  0.00    -0.338 N  
ENDROOT
BRANCH   3  12
HETATM   12  C   UNL     1     -10.573  11.617  65.953  1.00  0.00    -0.318 A  
HETATM   13  C   UNL     1      -9.582   9.446  65.905  1.00  0.00    -0.270 A  
HETATM   14  C   UNL     1      -9.797  10.668  65.286  1.00  0.00    -0.334 A  
HETATM   15  N   UNL     1     -10.077   9.121  67.119  1.00  0.00    -0.216 NA 
HETATM   16  C   UNL     1     -10.817  10.058  67.748  1.00  0.00    -0.282 A  
HETATM   17  C   UNL     1     -11.090  11.307  67.213  1.00  0.00    -0.367 A  
ENDBRANCH   3  12
TORSDOF 1
ENDMDL
MODEL        4
REMARK 921   NORMALIZED FREE ENERGY PREDICTED BY IDOCK:   -5.82 KCAL/MOL
REMARK 922        TOTAL FREE ENERGY PREDICTED BY IDOCK:   -6.45 KCAL/MOL
REMARK 923 INTER-LIGAND FREE ENERGY PREDICTED BY IDOCK:   -6.19 KCAL/MOL
REMARK 924 INTRA-LIGAND FREE ENERGY PREDICTED BY IDOCK:   -0.26 KCAL/MOL
REMARK 927      BINDING AFFINITY PREDICTED BY RF-SCORE:    0.00 PKD
ROOT
HETATM    1  C   UNL     1     -10.082  16.147  67.398  1.00  0.00    -0.257 C  
HETATM    2  C   UNL     1     -10.912  15.461  68.450  1.00  0.00    -0.284 C  
HETATM    3  C   UNL     1     -11.545  14.270  68.319  1.00  0.00    -0.358 C  
HETATM    4  H   UNL     1     -10.519  17.040  69.712  1.00  0.00     0.000 HD 
HETATM    5  C   UNL     1     -12.277  13.742  69.468  1.00  0.00    -0.344 C  
HETATM    6  C   UNL     1     -12.377  14.408  70.631  1.00  0.00    -0.422 C  
HETATM    7  O   UNL     1     -11.777  16.419  71.760  1.00  0.00    -0.478 OA 
HETATM    8  C   UNL     1     -13.090  13.880  71.737  1.00  0.00    -0.377 C  
HETATM    9  N   UNL     1     -13.685  13.398  72.611  1.00  0.00    -0.722 NA 
HETATM   10  C   UNL     1     -11.714  15.731  70.748  1.00  0.00    -0.399 C  
HETATM   11  N   UNL     1     -11.010  16.149  69.644  1.00  0.00    -0.323 N  
ENDROOT
BRANCH   3  12
HETATM   12  C   UNL     1     -11.545  13.536  67.038  1.00  0.00    -0.394 A  
HETATM   13  C   UNL     1     -10.806  11.752  65.635  1.00  0.00    -0.292 A  
HETATM   14  C   UNL     1     -10.726  12.422  66.846  1.00  0.00    -0.269 A  
HETATM   15  N   UNL     1     -11.634  12.111  64.631  1.00  0.00    -0.336 NA 
HETATM   16  C   UNL     1     -12.422  13.185  64.843  1.00  0.00    -0.433 A  
HETATM   17  C   UNL     1     -12.416  13.922  66.016  1.00  0.00    -0.501 A  
ENDBRANCH   3  12
TORSDOF 1
ENDMDL
MODEL        5
REMARK 921   NORMALIZED FREE ENERGY PREDICTED BY IDOCK:   -5.81 KCAL/MOL
REMARK 922        TOTAL FREE ENERGY PREDICTED BY IDOCK:   -6.44 KCAL/MOL
REMARK 923 INTER-LIGAND FREE ENERGY PREDICTED BY IDOCK:   -6.21 KCAL/MOL
REMARK 924 INTRA-LIGAND FREE ENERGY PREDICTED BY IDOCK:   -0.23 KCAL/MOL
REMARK 927      BINDING AFFINITY PREDICTED BY RF-SCORE:    0.00 PKD
ROOT
HETATM    1  C   UNL     1      -9.941  15.669  69.744  1.00  0.00    -0.281 C  
HETATM    2  C   UNL     1     -10.707  14.927  68.682  1.00  0.00    -0.250 C  
HETATM    3  C   UNL     1     -11.892  14.292  68.847  1.00  0.00    -0.372 C  
HETATM    4  H   UNL     1      -9.214  15.408  67.347  1.00  0.00     0.000 HD 
HETATM    5  C   UNL     1     -12.506  13.653  67.684  1.00  0.00     0.177 C  
HETATM    6  C   UNL     1     -11.923  13.640  66.474  1.00  0.00    -0.465 C  
HETATM    7  O   UNL     1      -9.989  14.316  65.256  1.00  0.00    -0.351 OA 
HETATM    8  C   UNL     1     -12.533  13.017  65.355  1.00  0.00    -0.476 C  
HETATM    9  N   UNL     1     -13.081  12.494  64.475  1.00  0.00    -0.839 NA 
HETATM   10  C   UNL     1     -10.604  14.304  66.316  1.00  0.00    -0.291 C  
HETATM   11  N   UNL     1     -10.104  14.918  67.439  1.00  0.00    -0.228 N  
ENDROOT
BRANCH   3  12
HETATM   12  C   UNL     1     -12.536  14.196  70.172  1.00  0.00    -0.325 A  
HETATM   13  C   UNL     1     -13.839  15.112  71.950  1.00  0.00    -0.503 A  
HETATM   14  C   UNL     1     -13.219  15.282  70.721  1.00  0.00    -0.442 A  
HETATM   15  N   UNL     1     -13.823  13.955  72.646  1.00  0.00    -0.722 NA 
HETATM   16  C   UNL     1     -13.164  12.917  72.090  1.00  0.00    -0.448 A  
HETATM   17  C   UNL     1     -12.513  12.986  70.870  1.00  0.00    -0.396 A  
ENDBRANCH   3  12
TORSDOF 1
ENDMDL
MODEL        6
REMARK 921   NORMALIZED FREE ENERGY PREDICTED BY IDOCK:   -5.81 KCAL/MOL
REMARK 922        TOTAL FREE ENERGY PREDICTED BY IDOCK:   -6.43 KCAL/MOL
REMARK 923 INTER-LIGAND FREE ENERGY PREDICTED BY IDOCK:   -6.15 KCAL/MOL
REMARK 924 INTRA-LIGAND FREE ENERGY PREDICTED BY IDOCK:   -0.29 KCAL/MOL
REMARK 927      BINDING AFFINITY PREDICTED BY RF-SCORE:    0.00 PKD
ROOT
HETATM    1  C   UNL     1     -11.965  13.677  68.315  1.00  0.00    -0.385 C  
HETATM    2  C   UNL     1     -12.009  14.383  69.643  1.00  0.00    -0.336 C  
HETATM    3  C   UNL     1     -11.344  15.518  69.968  1.00  0.00    -0.332 C  
HETATM    4  H   UNL     1     -13.305  12.929  70.311  1.00  0.00     0.000 HD 
HETATM    5  C   UNL     1     -11.541  16.080  71.303  1.00  0.00    -0.506 C  
HETATM    6  C   UNL     1     -12.322  15.496  72.227  1.00  0.00    -0.482 C  
HETATM    7  O   UNL     1     -13.721  13.616  72.660  1.00  0.00    -0.668 OA 
HETATM    8  C   UNL     1     -12.504  16.056  73.517  1.00  0.00    -0.571 C  
HETATM    9  N   UNL     1     -12.618  16.562  74.556  1.00  0.00    -0.753 NA 
HETATM   10  C   UNL     1     -13.013  14.230  71.872  1.00  0.00    -0.350 C  
HETATM   11  N   UNL     1     -12.816  13.779  70.589  1.00  0.00    -0.243 N  
ENDROOT
BRANCH   3  12
HETATM   12  C   UNL     1     -10.403  16.155  69.026  1.00  0.00    -0.258 A  
HETATM   13  C   UNL     1      -8.233  16.402  68.064  1.00  0.00    -0.169 A  
HETATM   14  C   UNL     1      -9.055  15.797  69.002  1.00  0.00    -0.245 A  
HETATM   15  N   UNL     1      -8.662  17.318  67.169  1.00  0.00    -0.213 NA 
HETATM   16  C   UNL     1      -9.971  17.642  67.207  1.00  0.00    -0.322 A  
HETATM   17  C   UNL     1     -10.872  17.095  68.105  1.00  0.00    -0.316 A  
ENDBRANCH   3  12
TORSDOF 1
ENDMDL
MODEL        7
REMARK 921   NORMALIZED FREE ENERGY PREDICTED BY IDOCK:   -5.78 KCAL/MOL
REMARK 922        TOTAL FREE ENERGY PREDICTED BY IDOCK:   -6.41 KCAL/MOL
REMARK 923 INTER-LIGAND FREE ENERGY PREDICTED BY IDOCK:   -6.12 KCAL/MOL
REMARK 924 INTRA-LIGAND FREE ENERGY PREDICTED BY IDOCK:   -0.29 KCAL/MOL
REMARK 927      BINDING AFFINITY PREDICTED BY RF-SCORE:    0.00 PKD
ROOT
HETATM    1  C   UNL     1     -10.137  16.295  67.462  1.00  0.00    -0.258 C  
HETATM    2  C   UNL     1     -10.949  15.563  68.496  1.00  0.00    -0.288 C  
HETATM    3  C   UNL     1     -11.568  14.369  68.331  1.00  0.00    -0.351 C  
HETATM    4  H   UNL     1     -10.566  17.104  69.807  1.00  0.00     0.000 HD 
HETATM    5  C   UNL     1     -12.284  13.794  69.467  1.00  0.00    -0.344 C  
HETATM    6  C   UNL     1     -12.383  14.419  70.652  1.00  0.00    -0.422 C  
HETATM    7  O   UNL     1     -11.798  16.399  71.844  1.00  0.00    -0.497 OA 
HETATM    8  C   UNL     1     -13.080  13.845  71.746  1.00  0.00    -0.377 C  
HETATM    9  N   UNL     1     -13.661  13.327  72.607  1.00  0.00    -0.695 NA 
HETATM   10  C   UNL     1     -11.735  15.746  70.809  1.00  0.00    -0.399 C  
HETATM   11  N   UNL     1     -11.046  16.209  69.714  1.00  0.00    -0.334 N  
ENDROOT
BRANCH   3  12
HETATM   12  C   UNL     1     -11.570  13.678  67.026  1.00  0.00    -0.389 A  
HETATM   13  C   UNL     1     -12.438  13.330  64.830  1.00  0.00    -0.409 A  
HETATM   14  C   UNL     1     -12.518  13.984  66.049  1.00  0.00    -0.489 A  
HETATM   15  N   UNL     1     -11.492  12.413  64.531  1.00  0.00    -0.323 NA 
HETATM   16  C   UNL     1     -10.582  12.140  65.487  1.00  0.00    -0.277 A  
HETATM   17  C   UNL     1     -10.577  12.739  66.736  1.00  0.00    -0.266 A  
ENDBRANCH   3  12
TORSDOF 1
ENDMDL
MODEL        8
REMARK 921   NORMALIZED FREE ENERGY PREDICTED BY IDOCK:   -5.74 KCAL/MOL
REMARK 922        TOTAL FREE ENERGY PREDICTED BY IDOCK:   -6.36 KCAL/MOL
REMARK 923 INTER-LIGAND FREE ENERGY PREDICTED BY IDOCK:   -6.39 KCAL/MOL
REMARK 924 INTRA-LIGAND FREE ENERGY PREDICTED BY IDOCK:    0.03 KCAL/MOL
REMARK 927      BINDING AFFINITY PREDICTED BY RF-SCORE:    0.00 PKD
ROOT
HETATM    1  C   UNL     1     -10.164  15.926  69.784  1.00  0.00    -0.268 C  
HETATM    2  C   UNL     1     -10.733  15.407  68.491  1.00  0.00    -0.256 C  
HETATM    3  C   UNL     1     -11.594  14.369  68.355  1.00  0.00    -0.351 C  
HETATM    4  H   UNL     1      -9.662  16.860  67.500  1.00  0.00     0.000 HD 
HETATM    5  C   UNL     1     -12.069  14.032  67.015  1.00  0.00    -0.455 C  
HETATM    6  C   UNL     1     -11.656  14.683  65.915  1.00  0.00    -0.327 C  
HETATM    7  O   UNL     1     -10.230  16.421  65.123  1.00  0.00    -0.582 OA 
HETATM    8  C   UNL     1     -12.129  14.345  64.621  1.00  0.00    -0.471 C  
HETATM    9  N   UNL     1     -12.553  14.025  63.588  1.00  0.00    -0.792 NA 
HETATM   10  C   UNL     1     -10.681  15.792  66.073  1.00  0.00    -0.306 C  
HETATM   11  N   UNL     1     -10.307  16.082  67.363  1.00  0.00    -0.288 N  
ENDROOT
BRANCH   3  12
HETATM   12  C   UNL     1     -12.013  13.559  69.516  1.00  0.00    -0.390 A  
HETATM   13  C   UNL     1     -13.044  13.324  71.656  1.00  0.00    -0.363 A  
HETATM   14  C   UNL     1     -12.637  14.147  70.617  1.00  0.00    -0.421 A  
HETATM   15  N   UNL     1     -12.875  11.984  71.663  1.00  0.00    -0.342 NA 
HETATM   16  C   UNL     1     -12.278  11.438  70.584  1.00  0.00    -0.389 A  
HETATM   17  C   UNL     1     -11.834  12.174  69.497  1.00  0.00    -0.386 A  
ENDBRANCH   3  12
TORSDOF 1
ENDMDL
MODEL        9
REMARK 921   NORMALIZED FREE ENERGY PREDICTED BY IDOCK:   -5.72 KCAL/MOL
REMARK 922        TOTAL FREE ENERGY PREDICTED BY IDOCK:   -6.34 KCAL/MOL
REMARK 923 INTER-LIGAND FREE ENERGY PREDICTED BY IDOCK:   -6.04 KCAL/MOL
REMARK 924 INTRA-LIGAND FREE ENERGY PREDICTED BY IDOCK:   -0.31 KCAL/MOL
REMARK 927      BINDING AFFINITY PREDICTED BY RF-SCORE:    0.00 PKD
ROOT
HETATM    1  C   UNL     1     -11.112  10.723  67.429  1.00  0.00    -0.363 C  
HETATM    2  C   UNL     1     -11.617  11.583  68.556  1.00  0.00    -0.313 C  
HETATM    3  C   UNL     1     -11.734  12.933  68.543  1.00  0.00    -0.374 C  
HETATM    4  H   UNL     1     -11.885   9.871  69.669  1.00  0.00     0.000 HD 
HETATM    5  C   UNL     1     -12.282  13.595  69.724  1.00  0.00    -0.350 C  
HETATM    6  C   UNL     1     -12.636  12.922  70.832  1.00  0.00    -0.355 C  
HETATM    7  O   UNL     1     -12.735  10.758  71.826  1.00  0.00    -0.413 OA 
HETATM    8  C   UNL     1     -13.169  13.580  71.970  1.00  0.00    -0.439 C  
HETATM    9  N   UNL     1     -13.602  14.171  72.871  1.00  0.00    -0.657 NA 
HETATM   10  C   UNL     1     -12.464  11.447  70.850  1.00  0.00    -0.379 C  
HETATM   11  N   UNL     1     -11.982  10.886  69.692  1.00  0.00    -0.327 N  
ENDROOT
BRANCH   3  12
HETATM   12  C   UNL     1     -11.278  13.733  67.389  1.00  0.00    -0.330 A  
HETATM   13  C   UNL     1     -11.664  14.832  65.306  1.00  0.00    -0.311 A  
HETATM   14  C   UNL     1     -12.143  14.040  66.338  1.00  0.00    -0.483 A  
HETATM   15  N   UNL     1     -10.408  15.328  65.259  1.00  0.00    -0.392 NA 
HETATM   16  C   UNL     1      -9.594  15.024  66.291  1.00  0.00    -0.307 A  
HETATM   17  C   UNL     1      -9.976  14.241  67.367  1.00  0.00    -0.242 A  
ENDBRANCH   3  12
TORSDOF 1
ENDMDL
MODEL       10
REMARK 921   NORMALIZED FREE ENERGY PREDICTED BY IDOCK:   -5.71 KCAL/MOL
REMARK 922        TOTAL FREE ENERGY PREDICTED BY IDOCK:   -6.33 KCAL/MOL
REMARK 923 INTER-LIGAND FREE ENERGY PREDICTED BY IDOCK:   -6.04 KCAL/MOL
REMARK 924 INTRA-LIGAND FREE ENERGY PREDICTED BY IDOCK:   -0.29 KCAL/MOL
REMARK 927      BINDING AFFINITY PREDICTED BY RF-SCORE:    0.00 PKD
ROOT
HETATM    1  C   UNL     1     -11.272  10.491  67.609  1.00  0.00    -0.338 C  
HETATM    2  C   UNL     1     -11.717  11.408  68.717  1.00  0.00    -0.339 C  
HETATM    3  C   UNL     1     -11.768  12.761  68.664  1.00  0.00    -0.360 C  
HETATM    4  H   UNL     1     -12.053   9.745  69.884  1.00  0.00     0.000 HD 
HETATM    5  C   UNL     1     -12.265  13.484  69.832  1.00  0.00    -0.356 C  
HETATM    6  C   UNL     1     -12.636  12.863  70.964  1.00  0.00    -0.376 C  
HETATM    7  O   UNL     1     -12.827  10.736  72.024  1.00  0.00    -0.411 OA 
HETATM    8  C   UNL     1     -13.119  13.579  72.089  1.00  0.00    -0.391 C  
HETATM    9  N   UNL     1     -13.509  14.217  72.977  1.00  0.00    -0.635 NA 
HETATM   10  C   UNL     1     -12.537  11.382  71.024  1.00  0.00    -0.386 C  
HETATM   11  N   UNL     1     -12.100  10.764  69.878  1.00  0.00    -0.329 N  
ENDROOT
BRANCH   3  12
HETATM   12  C   UNL     1     -11.289  13.504  67.481  1.00  0.00    -0.335 A  
HETATM   13  C   UNL     1      -9.558  14.535  66.202  1.00  0.00    -0.297 A  
HETATM   14  C   UNL     1      -9.951  13.878  67.358  1.00  0.00    -0.240 A  
HETATM   15  N   UNL     1     -10.396  14.833  65.185  1.00  0.00    -0.406 NA 
HETATM   16  C   UNL     1     -11.683  14.453  65.324  1.00  0.00    -0.364 A  
HETATM   17  C   UNL     1     -12.173  13.794  66.439  1.00  0.00    -0.480 A  
ENDBRANCH   3  12
TORSDOF 1
ENDMDL
MODEL       11
REMARK 921   NORMALIZED FREE ENERGY PREDICTED BY IDOCK:   -5.68 KCAL/MOL
REMARK 922        TOTAL FREE ENERGY PREDICTED BY IDOCK:   -6.30 KCAL/MOL
REMARK 923 INTER-LIGAND FREE ENERGY PREDICTED BY IDOCK:   -5.99 KCAL/MOL
REMARK 924 INTRA-LIGAND FREE ENERGY PREDICTED BY IDOCK:   -0.31 KCAL/MOL
REMARK 927      BINDING AFFINITY PREDICTED BY RF-SCORE:    0.00 PKD
ROOT
HETATM    1  C   UNL     1      -9.862  15.731  69.274  1.00  0.00    -0.265 C  
HETATM    2  C   UNL     1     -10.408  15.389  67.914  1.00  0.00    -0.247 C  
HETATM    3  C   UNL     1     -10.357  16.173  66.810  1.00  0.00    -0.291 C  
HETATM    4  H   UNL     1     -11.030  13.581  68.680  1.00  0.00     0.000 HD 
HETATM    5  C   UNL     1     -10.911  15.652  65.561  1.00  0.00    -0.356 C  
HETATM    6  C   UNL     1     -11.500  14.448  65.477  1.00  0.00    -0.340 C  
HETATM    7  O   UNL     1     -12.130  12.517  66.725  1.00  0.00    -0.546 OA 
HETATM    8  C   UNL     1     -12.030  13.957  64.257  1.00  0.00    -0.444 C  
HETATM    9  N   UNL     1     -12.445  13.605  63.231  1.00  0.00    -0.773 NA 
HETATM   10  C   UNL     1     -11.586  13.615  66.704  1.00  0.00    -0.364 C  
HETATM   11  N   UNL     1     -11.010  14.148  67.832  1.00  0.00    -0.247 N  
ENDROOT
BRANCH   3  12
HETATM   12  C   UNL     1      -9.803  17.540  66.862  1.00  0.00    -0.302 A  
HETATM   13  C   UNL     1      -8.025  19.104  66.560  1.00  0.00    -0.284 A  
HETATM   14  C   UNL     1      -8.471  17.791  66.532  1.00  0.00    -0.288 A  
HETATM   15  N   UNL     1      -8.807  20.156  66.885  1.00  0.00    -0.335 NA 
HETATM   16  C   UNL     1     -10.093  19.889  67.192  1.00  0.00    -0.438 A  
HETATM   17  C   UNL     1     -10.633  18.613  67.195  1.00  0.00    -0.468 A  
ENDBRANCH   3  12
TORSDOF 1
ENDMDL
MODEL       12
REMARK 921   NORMALIZED FREE ENERGY PREDICTED BY IDOCK:   -5.65 KCAL/MOL
REMARK 922        TOTAL FREE ENERGY PREDICTED BY IDOCK:   -6.27 KCAL/MOL
REMARK 923 INTER-LIGAND FREE ENERGY PREDICTED BY IDOCK:   -5.98 KCAL/MOL
REMARK 924 INTRA-LIGAND FREE ENERGY PREDICTED BY IDOCK:   -0.29 KCAL/MOL
REMARK 927      BINDING AFFINITY PREDICTED BY RF-SCORE:    0.00 PKD
ROOT
HETATM    1  C   UNL     1      -9.901  15.767  69.256  1.00  0.00    -0.265 C  
HETATM    2  C   UNL     1     -10.450  15.431  67.896  1.00  0.00    -0.256 C  
HETATM    3  C   UNL     1     -10.405  16.222  66.797  1.00  0.00    -0.296 C  
HETATM    4  H   UNL     1     -11.061  13.616  68.652  1.00  0.00     0.000 HD 
HETATM    5  C   UNL     1     -10.961  15.708  65.547  1.00  0.00    -0.307 C  
HETATM    6  C   UNL     1     -11.545  14.501  65.457  1.00  0.00    -0.350 C  
HETATM    7  O   UNL     1     -12.163  12.560  66.694  1.00  0.00    -0.552 OA 
HETATM    8  C   UNL     1     -12.077  14.016  64.236  1.00  0.00    -0.445 C  
HETATM    9  N   UNL     1     -12.493  13.669  63.208  1.00  0.00    -0.773 NA 
HETATM   10  C   UNL     1     -11.624  13.660  66.678  1.00  0.00    -0.364 C  
HETATM   11  N   UNL     1     -11.047  14.188  67.808  1.00  0.00    -0.269 N  
ENDROOT
BRANCH   3  12
HETATM   12  C   UNL     1      -9.857  17.592  66.857  1.00  0.00    -0.306 A  
HETATM   13  C   UNL     1     -10.070  19.926  67.311  1.00  0.00    -0.432 A  
HETATM   14  C   UNL     1     -10.657  18.672  67.233  1.00  0.00    -0.480 A  
HETATM   15  N   UNL     1      -8.767  20.163  67.045  1.00  0.00    -0.332 NA 
HETATM   16  C   UNL     1      -8.013  19.102  66.692  1.00  0.00    -0.272 A  
HETATM   17  C   UNL     1      -8.505  17.812  66.585  1.00  0.00    -0.283 A  
ENDBRANCH   3  12
TORSDOF 1
ENDMDL
MODEL       13
REMARK 921   NORMALIZED FREE ENERGY PREDICTED BY IDOCK:   -5.64 KCAL/MOL
REMARK 922        TOTAL FREE ENERGY PREDICTED BY IDOCK:   -6.25 KCAL/MOL
REMARK 923 INTER-LIGAND FREE ENERGY PREDICTED BY IDOCK:   -6.04 KCAL/MOL
REMARK 924 INTRA-LIGAND FREE ENERGY PREDICTED BY IDOCK:   -0.22 KCAL/MOL
REMARK 927      BINDING AFFINITY PREDICTED BY RF-SCORE:    0.00 PKD
ROOT
HETATM    1  C   UNL     1     -11.291  10.882  68.600  1.00  0.00    -0.360 C  
HETATM    2  C   UNL     1     -11.837  11.815  69.648  1.00  0.00    -0.339 C  
HETATM    3  C   UNL     1     -12.336  11.458  70.856  1.00  0.00    -0.483 C  
HETATM    4  H   UNL     1     -11.422  13.388  68.384  1.00  0.00     0.000 HD 
HETATM    5  C   UNL     1     -12.788  12.513  71.761  1.00  0.00    -0.347 C  
HETATM    6  C   UNL     1     -12.763  13.814  71.425  1.00  0.00    -0.450 C  
HETATM    7  O   UNL     1     -12.220  15.347  69.683  1.00  0.00    -0.331 OA 
HETATM    8  C   UNL     1     -13.203  14.826  72.316  1.00  0.00    -0.374 C  
HETATM    9  N   UNL     1     -13.575  15.611  73.087  1.00  0.00    -0.528 NA 
HETATM   10  C   UNL     1     -12.252  14.189  70.082  1.00  0.00    -0.351 C  
HETATM   11  N   UNL     1     -11.807  13.152  69.299  1.00  0.00    -0.320 N  
ENDROOT
BRANCH   3  12
HETATM   12  C   UNL     1     -12.471  10.040  71.244  1.00  0.00    -0.494 A  
HETATM   13  C   UNL     1     -11.564   7.979  72.035  1.00  0.00    -0.316 A  
HETATM   14  C   UNL     1     -11.362   9.293  71.641  1.00  0.00    -0.467 A  
HETATM   15  N   UNL     1     -12.775   7.380  72.059  1.00  0.00    -0.252 NA 
HETATM   16  C   UNL     1     -13.833   8.126  71.680  1.00  0.00    -0.375 A  
HETATM   17  C   UNL     1     -13.735   9.445  71.269  1.00  0.00    -0.248 A  
ENDBRANCH   3  12
TORSDOF 1
ENDMDL
MODEL       14
REMARK 921   NORMALIZED FREE ENERGY PREDICTED BY IDOCK:   -5.60 KCAL/MOL
REMARK 922        TOTAL FREE ENERGY PREDICTED BY IDOCK:   -6.21 KCAL/MOL
REMARK 923 INTER-LIGAND FREE ENERGY PREDICTED BY IDOCK:   -6.05 KCAL/MOL
REMARK 924 INTRA-LIGAND FREE ENERGY PREDICTED BY IDOCK:   -0.16 KCAL/MOL
REMARK 927      BINDING AFFINITY PREDICTED BY RF-SCORE:    0.00 PKD
ROOT
HETATM    1  C   UNL     1     -12.788  13.239  71.691  1.00  0.00    -0.397 C  
HETATM    2  C   UNL     1     -12.373  12.817  70.307  1.00  0.00    -0.204 C  
HETATM    3  C   UNL     1     -12.108  11.552  69.902  1.00  0.00    -0.389 C  
HETATM    4  H   UNL     1     -12.472  14.793  69.735  1.00  0.00     0.000 HD 
HETATM    5  C   UNL     1     -11.753  11.330  68.502  1.00  0.00    -0.378 C  
HETATM    6  C   UNL     1     -11.642  12.334  67.616  1.00  0.00    -0.421 C  
HETATM    7  O   UNL     1     -11.789  14.698  67.350  1.00  0.00    -0.385 OA 
HETATM    8  C   UNL     1     -11.299  12.101  66.260  1.00  0.00    -0.357 C  
HETATM    9  N   UNL     1     -11.017  11.851  65.161  1.00  0.00    -0.306 NA 
HETATM   10  C   UNL     1     -11.895  13.721  68.082  1.00  0.00    -0.376 C  
HETATM   11  N   UNL     1     -12.263  13.853  69.399  1.00  0.00    -0.335 N  
ENDROOT
BRANCH   3  12
HETATM   12  C   UNL     1     -12.126  10.421  70.851  1.00  0.00    -0.477 A  
HETATM   13  C   UNL     1     -13.276   8.843  72.224  1.00  0.00    -0.447 A  
HETATM   14  C   UNL     1     -13.326   9.936  71.372  1.00  0.00    -0.447 A  
HETATM   15  N   UNL     1     -12.133   8.218  72.577  1.00  0.00    -0.380 NA 
HETATM   16  C   UNL     1     -10.986   8.699  72.054  1.00  0.00    -0.362 A  
HETATM   17  C   UNL     1     -10.930   9.785  71.196  1.00  0.00    -0.386 A  
ENDBRANCH   3  12
TORSDOF 1
ENDMDL
MODEL       15
REMARK 921   NORMALIZED FREE ENERGY PREDICTED BY IDOCK:   -5.59 KCAL/MOL
REMARK 922        TOTAL FREE ENERGY PREDICTED BY IDOCK:   -6.20 KCAL/MOL
REMARK 923 INTER-LIGAND FREE ENERGY PREDICTED BY IDOCK:   -5.89 KCAL/MOL
REMARK 924 INTRA-LIGAND FREE ENERGY PREDICTED BY IDOCK:   -0.31 KCAL/MOL
REMARK 927      BINDING AFFINITY PREDICTED BY RF-SCORE:    0.00 PKD
ROOT
HETATM    1  C   UNL     1     -11.538  15.244  69.285  1.00  0.00    -0.350 C  
HETATM    2  C   UNL     1     -11.952  13.920  69.869  1.00  0.00    -0.341 C  
HETATM    3  C   UNL     1     -11.687  12.698  69.349  1.00  0.00    -0.387 C  
HETATM    4  H   UNL     1     -12.851  14.945  71.413  1.00  0.00     0.000 HD 
HETATM    5  C   UNL     1     -12.141  11.517  70.081  1.00  0.00    -0.432 C  
HETATM    6  C   UNL     1     -12.841  11.599  71.224  1.00  0.00    -0.430 C  
HETATM    7  O   UNL     1     -13.819  13.115  72.783  1.00  0.00    -0.648 OA 
HETATM    8  C   UNL     1     -13.272  10.443  71.924  1.00  0.00    -0.429 C  
HETATM    9  N   UNL     1     -13.597   9.463  72.455  1.00  0.00    -0.461 NA 
HETATM   10  C   UNL     1     -13.162  12.946  71.763  1.00  0.00    -0.384 C  
HETATM   11  N   UNL     1     -12.670  14.010  71.046  1.00  0.00    -0.346 N  
ENDROOT
BRANCH   3  12
HETATM   12  C   UNL     1     -11.000  12.546  68.050  1.00  0.00    -0.266 A  
HETATM   13  C   UNL     1      -9.033  12.237  66.734  1.00  0.00    -0.209 A  
HETATM   14  C   UNL     1      -9.612  12.420  67.980  1.00  0.00    -0.211 A  
HETATM   15  N   UNL     1      -9.735  12.172  65.582  1.00  0.00    -0.234 NA 
HETATM   16  C   UNL     1     -11.076  12.288  65.677  1.00  0.00    -0.317 A  
HETATM   17  C   UNL     1     -11.748  12.474  66.873  1.00  0.00    -0.447 A  
ENDBRANCH   3  12
TORSDOF 1
ENDMDL
MODEL       16
REMARK 921   NORMALIZED FREE ENERGY PREDICTED BY IDOCK:   -5.58 KCAL/MOL
REMARK 922        TOTAL FREE ENERGY PREDICTED BY IDOCK:   -6.19 KCAL/MOL
REMARK 923 INTER-LIGAND FREE ENERGY PREDICTED BY IDOCK:   -5.92 KCAL/MOL
REMARK 924 INTRA-LIGAND FREE ENERGY PREDICTED BY IDOCK:   -0.27 KCAL/MOL
REMARK 927      BINDING AFFINITY PREDICTED BY RF-SCORE:    0.00 PKD
ROOT
HETATM    1  C   UNL     1     -11.943  14.587  68.464  1.00  0.00    -0.321 C  
HETATM    2  C   UNL     1     -11.905  13.246  69.147  1.00  0.00    -0.329 C  
HETATM    3  C   UNL     1     -12.235  12.995  70.436  1.00  0.00    -0.386 C  
HETATM    4  H   UNL     1     -11.249  12.424  67.376  1.00  0.00     0.000 HD 
HETATM    5  C   UNL     1     -12.171  11.615  70.915  1.00  0.00    -0.401 C  
HETATM    6  C   UNL     1     -11.762  10.598  70.138  1.00  0.00    -0.417 C  
HETATM    7  O   UNL     1     -10.953  10.032  67.968  1.00  0.00    -0.261 OA 
HETATM    8  C   UNL     1     -11.708   9.265  70.617  1.00  0.00    -0.222 C  
HETATM    9  N   UNL     1     -11.686   8.192  71.062  1.00  0.00    -0.285 NA 
HETATM   10  C   UNL     1     -11.364  10.893  68.738  1.00  0.00    -0.292 C  
HETATM   11  N   UNL     1     -11.486  12.203  68.343  1.00  0.00    -0.279 N  
ENDROOT
BRANCH   3  12
HETATM   12  C   UNL     1     -12.604  14.084  71.362  1.00  0.00    -0.451 A  
HETATM   13  C   UNL     1     -12.043  15.898  72.808  1.00  0.00    -0.505 A  
HETATM   14  C   UNL     1     -11.628  14.864  71.984  1.00  0.00    -0.314 A  
HETATM   15  N   UNL     1     -13.339  16.198  73.042  1.00  0.00    -0.458 NA 
HETATM   16  C   UNL     1     -14.264  15.436  72.423  1.00  0.00    -0.492 A  
HETATM   17  C   UNL     1     -13.951  14.381  71.583  1.00  0.00    -0.506 A  
ENDBRANCH   3  12
TORSDOF 1
ENDMDL
MODEL       17
REMARK 921   NORMALIZED FREE ENERGY PREDICTED BY IDOCK:   -5.56 KCAL/MOL
REMARK 922        TOTAL FREE ENERGY PREDICTED BY IDOCK:   -6.17 KCAL/MOL
REMARK 923 INTER-LIGAND FREE ENERGY PREDICTED BY IDOCK:   -5.99 KCAL/MOL
REMARK 924 INTRA-LIGAND FREE ENERGY PREDICTED BY IDOCK:   -0.18 KCAL/MOL
REMARK 927      BINDING AFFINITY PREDICTED BY RF-SCORE:    0.00 PKD
ROOT
HETATM    1  C   UNL     1     -11.111  15.177  66.902  1.00  0.00    -0.314 C  
HETATM    2  C   UNL     1     -11.456  14.026  67.809  1.00  0.00    -0.322 C  
HETATM    3  C   UNL     1     -11.581  12.728  67.443  1.00  0.00    -0.415 C  
HETATM    4  H   UNL     1     -11.553  15.361  69.374  1.00  0.00     0.000 HD 
HETATM    5  C   UNL     1     -11.887  11.740  68.476  1.00  0.00    -0.365 C  
HETATM    6  C   UNL     1     -12.085  12.076  69.762  1.00  0.00    -0.317 C  
HETATM    7  O   UNL     1     -12.180  13.906  71.285  1.00  0.00    -0.345 OA 
HETATM    8  C   UNL     1     -12.379  11.105  70.752  1.00  0.00    -0.406 C  
HETATM    9  N   UNL     1     -12.614  10.267  71.521  1.00  0.00    -0.407 NA 
HETATM   10  C   UNL     1     -11.987  13.508  70.143  1.00  0.00    -0.329 C  
HETATM   11  N   UNL     1     -11.657  14.376  69.130  1.00  0.00    -0.287 N  
ENDROOT
BRANCH   3  12
HETATM   12  C   UNL     1     -11.463  12.311  66.031  1.00  0.00    -0.434 A  
HETATM   13  C   UNL     1     -12.251  12.261  63.779  1.00  0.00    -0.546 A  
HETATM   14  C   UNL     1     -12.443  12.646  65.096  1.00  0.00    -0.531 A  
HETATM   15  N   UNL     1     -11.166  11.584  63.345  1.00  0.00    -0.336 NA 
HETATM   16  C   UNL     1     -10.227  11.279  64.265  1.00  0.00    -0.327 A  
HETATM   17  C   UNL     1     -10.328  11.617  65.605  1.00  0.00    -0.306 A  
ENDBRANCH   3  12
TORSDOF 1
ENDMDL
MODEL       18
REMARK 921   NORMALIZED FREE ENERGY PREDICTED BY IDOCK:   -5.55 KCAL/MOL
REMARK 922        TOTAL FREE ENERGY PREDICTED BY IDOCK:   -6.16 KCAL/MOL
REMARK 923 INTER-LIGAND FREE ENERGY PREDICTED BY IDOCK:   -6.08 KCAL/MOL
REMARK 924 INTRA-LIGAND FREE ENERGY PREDICTED BY IDOCK:   -0.08 KCAL/MOL
REMARK 927      BINDING AFFINITY PREDICTED BY RF-SCORE:    0.00 PKD
ROOT
HETATM    1  C   UNL     1     -12.413  13.487  70.966  1.00  0.00    -0.451 C  
HETATM    2  C   UNL     1     -12.098  12.970  69.588  1.00  0.00    -0.241 C  
HETATM    3  C   UNL     1     -11.885  11.677  69.248  1.00  0.00    -0.396 C  
HETATM    4  H   UNL     1     -12.197  14.909  68.899  1.00  0.00     0.000 HD 
HETATM    5  C   UNL     1     -11.628  11.360  67.844  1.00  0.00    -0.337 C  
HETATM    6  C   UNL     1     -11.557  12.305  66.891  1.00  0.00    -0.427 C  
HETATM    7  O   UNL     1     -11.676  14.650  66.486  1.00  0.00    -0.369 OA 
HETATM    8  C   UNL     1     -11.309  11.981  65.533  1.00  0.00    -0.328 C  
HETATM    9  N   UNL     1     -11.106  11.656  64.436  1.00  0.00    -0.329 NA 
HETATM   10  C   UNL     1     -11.751  13.723  67.284  1.00  0.00    -0.382 C  
HETATM   11  N   UNL     1     -12.029  13.945  68.611  1.00  0.00    -0.367 N  
ENDROOT
BRANCH   3  12
HETATM   12  C   UNL     1     -11.862  10.607  70.265  1.00  0.00    -0.430 A  
HETATM   13  C   UNL     1     -10.715   8.979  71.581  1.00  0.00    -0.371 A  
HETATM   14  C   UNL     1     -10.677   9.944  70.586  1.00  0.00    -0.372 A  
HETATM   15  N   UNL     1     -11.834   8.645  72.261  1.00  0.00    -0.376 NA 
HETATM   16  C   UNL     1     -12.965   9.305  71.938  1.00  0.00    -0.411 A  
HETATM   17  C   UNL     1     -13.030  10.283  70.960  1.00  0.00    -0.488 A  
ENDBRANCH   3  12
TORSDOF 1
ENDMDL
MODEL       19
REMARK 921   NORMALIZED FREE ENERGY PREDICTED BY IDOCK:   -5.51 KCAL/MOL
REMARK 922        TOTAL FREE ENERGY PREDICTED BY IDOCK:   -6.11 KCAL/MOL
REMARK 923 INTER-LIGAND FREE ENERGY PREDICTED BY IDOCK:   -5.85 KCAL/MOL
REMARK 924 INTRA-LIGAND FREE ENERGY PREDICTED BY IDOCK:   -0.27 KCAL/MOL
REMARK 927      BINDING AFFINITY PREDICTED BY RF-SCORE:    0.00 PKD
ROOT
HETATM    1  C   UNL     1     -11.894  13.676  68.225  1.00  0.00    -0.404 C  
HETATM    2  C   UNL     1     -11.261  14.902  67.625  1.00  0.00    -0.323 C  
HETATM    3  C   UNL     1     -10.903  15.066  66.329  1.00  0.00    -0.333 C  
HETATM    4  H   UNL     1     -11.326  15.779  69.488  1.00  0.00     0.000 HD 
HETATM    5  C   UNL     1     -10.333  16.348  65.921  1.00  0.00    -0.378 C  
HETATM    6  C   UNL     1     -10.116  17.352  66.788  1.00  0.00    -0.313 C  
HETATM    7  O   UNL     1     -10.285  17.995  69.077  1.00  0.00    -0.386 OA 
HETATM    8  C   UNL     1      -9.563  18.591  66.376  1.00  0.00    -0.316 C  
HETATM    9  N   UNL     1      -9.111  19.585  65.981  1.00  0.00    -0.422 NA 
HETATM   10  C   UNL     1     -10.474  17.146  68.214  1.00  0.00    -0.373 C  
HETATM   11  N   UNL     1     -11.042  15.932  68.520  1.00  0.00    -0.321 N  
ENDROOT
BRANCH   3  12
HETATM   12  C   UNL     1     -11.034  13.968  65.350  1.00  0.00    -0.321 A  
HETATM   13  C   UNL     1     -10.292  11.922  64.371  1.00  0.00    -0.299 A  
HETATM   14  C   UNL     1     -10.087  12.945  65.283  1.00  0.00    -0.254 A  
HETATM   15  N   UNL     1     -11.358  11.855  63.544  1.00  0.00    -0.430 NA 
HETATM   16  C   UNL     1     -12.264  12.850  63.634  1.00  0.00    -0.499 A  
HETATM   17  C   UNL     1     -12.149  13.916  64.510  1.00  0.00    -0.473 A  
ENDBRANCH   3  12
TORSDOF 1
ENDMDL
MODEL       20
REMARK 921   NORMALIZED FREE ENERGY PREDICTED BY IDOCK:   -5.51 KCAL/MOL
REMARK 922        TOTAL FREE ENERGY PREDICTED BY IDOCK:   -6.11 KCAL/MOL
REMARK 923 INTER-LIGAND FREE ENERGY PREDICTED BY IDOCK:   -6.01 KCAL/MOL
REMARK 924 INTRA-LIGAND FREE ENERGY PREDICTED BY IDOCK:   -0.10 KCAL/MOL
REMARK 927      BINDING AFFINITY PREDICTED BY RF-SCORE:    0.00 PKD
ROOT
HETATM    1  C   UNL     1     -10.650  16.896  69.256  1.00  0.00    -0.325 C  
HETATM    2  C   UNL     1     -10.890  15.427  69.033  1.00  0.00    -0.244 C  
HETATM    3  C   UNL     1     -11.668  14.619  69.792  1.00  0.00    -0.361 C  
HETATM    4  H   UNL     1      -9.656  15.532  67.388  1.00  0.00     0.000 HD 
HETATM    5  C   UNL     1     -11.811  13.219  69.397  1.00  0.00    -0.386 C  
HETATM    6  C   UNL     1     -11.171  12.698  68.337  1.00  0.00    -0.316 C  
HETATM    7  O   UNL     1      -9.646  13.187  66.572  1.00  0.00    -0.260 OA 
HETATM    8  C   UNL     1     -11.322  11.338  67.965  1.00  0.00    -0.304 C  
HETATM    9  N   UNL     1     -11.486  10.217  67.707  1.00  0.00    -0.296 NA 
HETATM   10  C   UNL     1     -10.288  13.584  67.537  1.00  0.00    -0.237 C  
HETATM   11  N   UNL     1     -10.231  14.896  67.940  1.00  0.00    -0.227 N  
ENDROOT
BRANCH   3  12
HETATM   12  C   UNL     1     -12.324  15.113  71.020  1.00  0.00    -0.408 A  
HETATM   13  C   UNL     1     -14.266  15.564  72.332  1.00  0.00    -0.481 A  
HETATM   14  C   UNL     1     -13.714  15.128  71.137  1.00  0.00    -0.510 A  
HETATM   15  N   UNL     1     -13.535  15.973  73.392  1.00  0.00    -0.585 NA 
HETATM   16  C   UNL     1     -12.193  15.941  73.257  1.00  0.00    -0.520 A  
HETATM   17  C   UNL     1     -11.547  15.524  72.105  1.00  0.00    -0.552 A  
ENDBRANCH   3  12
TORSDOF 1
ENDMDL
MODEL       21
REMARK 921   NORMALIZED FREE ENERGY PREDICTED BY IDOCK:   -5.50 KCAL/MOL
REMARK 922        TOTAL FREE ENERGY PREDICTED BY IDOCK:   -6.11 KCAL/MOL
REMARK 923 INTER-LIGAND FREE ENERGY PREDICTED BY IDOCK:   -6.14 KCAL/MOL
REMARK 924 INTRA-LIGAND FREE ENERGY PREDICTED BY IDOCK:    0.03 KCAL/MOL
REMARK 927      BINDING AFFINITY PREDICTED BY RF-SCORE:    0.00 PKD
ROOT
HETATM    1  C   UNL     1     -12.283  13.391  67.474  1.00  0.00    -0.231 C  
HETATM    2  C   UNL     1     -11.692  14.711  67.889  1.00  0.00    -0.351 C  
HETATM    3  C   UNL     1     -11.755  15.263  69.125  1.00  0.00    -0.355 C  
HETATM    4  H   UNL     1     -11.000  14.945  65.964  1.00  0.00     0.000 HD 
HETATM    5  C   UNL     1     -11.086  16.543  69.350  1.00  0.00    -0.253 C  
HETATM    6  C   UNL     1     -10.447  17.207  68.373  1.00  0.00    -0.376 C  
HETATM    7  O   UNL     1      -9.884  17.161  66.057  1.00  0.00    -0.420 OA 
HETATM    8  C   UNL     1      -9.800  18.447  68.609  1.00  0.00    -0.376 C  
HETATM    9  N   UNL     1      -9.287  19.458  68.861  1.00  0.00    -0.386 NA 
HETATM   10  C   UNL     1     -10.419  16.612  67.013  1.00  0.00    -0.283 C  
HETATM   11  N   UNL     1     -11.033  15.389  66.881  1.00  0.00    -0.315 N  
ENDROOT
BRANCH   3  12
HETATM   12  C   UNL     1     -12.519  14.624  70.215  1.00  0.00    -0.401 A  
HETATM   13  C   UNL     1     -12.958  12.797  71.687  1.00  0.00    -0.303 A  
HETATM   14  C   UNL     1     -12.233  13.323  70.629  1.00  0.00    -0.417 A  
HETATM   15  N   UNL     1     -13.926  13.473  72.343  1.00  0.00    -0.703 NA 
HETATM   16  C   UNL     1     -14.179  14.732  71.930  1.00  0.00    -0.544 A  
HETATM   17  C   UNL     1     -13.511  15.346  70.884  1.00  0.00    -0.427 A  
ENDBRANCH   3  12
TORSDOF 1
ENDMDL
MODEL       22
REMARK 921   NORMALIZED FREE ENERGY PREDICTED BY IDOCK:   -5.50 KCAL/MOL
REMARK 922        TOTAL FREE ENERGY PREDICTED BY IDOCK:   -6.10 KCAL/MOL
REMARK 923 INTER-LIGAND FREE ENERGY PREDICTED BY IDOCK:   -5.82 KCAL/MOL
REMARK 924 INTRA-LIGAND FREE ENERGY PREDICTED BY IDOCK:   -0.29 KCAL/MOL
REMARK 927      BINDING AFFINITY PREDICTED BY RF-SCORE:    0.00 PKD
ROOT
HETATM    1  C   UNL     1     -11.874  15.546  69.376  1.00  0.00    -0.392 C  
HETATM    2  C   UNL     1     -12.142  14.161  69.899  1.00  0.00    -0.347 C  
HETATM    3  C   UNL     1     -11.856  12.997  69.268  1.00  0.00    -0.370 C  
HETATM    4  H   UNL     1     -12.940  15.016  71.595  1.00  0.00     0.000 HD 
HETATM    5  C   UNL     1     -12.157  11.742  69.953  1.00  0.00    -0.359 C  
HETATM    6  C   UNL     1     -12.741  11.699  71.162  1.00  0.00    -0.426 C  
HETATM    7  O   UNL     1     -13.646  13.036  72.916  1.00  0.00    -0.501 OA 
HETATM    8  C   UNL     1     -13.024  10.472  71.815  1.00  0.00    -0.476 C  
HETATM    9  N   UNL     1     -13.231   9.439  72.302  1.00  0.00    -0.444 NA 
HETATM   10  C   UNL     1     -13.088  12.981  71.826  1.00  0.00    -0.373 C  
HETATM   11  N   UNL     1     -12.740  14.123  71.145  1.00  0.00    -0.341 N  
ENDROOT
BRANCH   3  12
HETATM   12  C   UNL     1     -11.297  12.980  67.901  1.00  0.00    -0.327 A  
HETATM   13  C   UNL     1     -11.537  13.080  65.529  1.00  0.00    -0.347 A  
HETATM   14  C   UNL     1     -12.128  13.056  66.782  1.00  0.00    -0.366 A  
HETATM   15  N   UNL     1     -10.202  13.036  65.326  1.00  0.00    -0.293 NA 
HETATM   16  C   UNL     1      -9.420  12.971  66.423  1.00  0.00    -0.224 A  
HETATM   17  C   UNL     1      -9.913  12.942  67.717  1.00  0.00    -0.230 A  
ENDBRANCH   3  12
TORSDOF 1
ENDMDL
MODEL       23
REMARK 921   NORMALIZED FREE ENERGY PREDICTED BY IDOCK:   -5.43 KCAL/MOL
REMARK 922        TOTAL FREE ENERGY PREDICTED BY IDOCK:   -6.03 KCAL/MOL
REMARK 923 INTER-LIGAND FREE ENERGY PREDICTED BY IDOCK:   -5.79 KCAL/MOL
REMARK 924 INTRA-LIGAND FREE ENERGY PREDICTED BY IDOCK:   -0.24 KCAL/MOL
REMARK 927      BINDING AFFINITY PREDICTED BY RF-SCORE:    0.00 PKD
ROOT
HETATM    1  C   UNL     1     -11.118  14.382  69.643  1.00  0.00    -0.241 C  
HETATM    2  C   UNL     1     -11.435  13.740  68.319  1.00  0.00    -0.312 C  
HETATM    3  C   UNL     1     -11.553  12.411  68.081  1.00  0.00    -0.395 C  
HETATM    4  H   UNL     1     -11.522  15.623  67.489  1.00  0.00     0.000 HD 
HETATM    5  C   UNL     1     -11.904  11.974  66.732  1.00  0.00    -0.244 C  
HETATM    6  C   UNL     1     -12.076  12.835  65.714  1.00  0.00    -0.505 C  
HETATM    7  O   UNL     1     -12.015  15.138  65.104  1.00  0.00    -0.201 OA 
HETATM    8  C   UNL     1     -12.419  12.395  64.411  1.00  0.00    -0.433 C  
HETATM    9  N   UNL     1     -12.702  11.977  63.364  1.00  0.00    -0.742 NA 
HETATM   10  C   UNL     1     -11.904  14.286  65.978  1.00  0.00    -0.391 C  
HETATM   11  N   UNL     1     -11.614  14.629  67.276  1.00  0.00    -0.379 N  
ENDROOT
BRANCH   3  12
HETATM   12  C   UNL     1     -11.287  11.414  69.138  1.00  0.00    -0.353 A  
HETATM   13  C   UNL     1     -11.945  10.153  71.054  1.00  0.00    -0.378 A  
HETATM   14  C   UNL     1     -12.240  11.130  70.117  1.00  0.00    -0.417 A  
HETATM   15  N   UNL     1     -10.788   9.455  71.073  1.00  0.00    -0.308 NA 
HETATM   16  C   UNL     1      -9.886   9.741  70.112  1.00  0.00    -0.255 A  
HETATM   17  C   UNL     1     -10.086  10.700  69.133  1.00  0.00    -0.234 A  
ENDBRANCH   3  12
TORSDOF 1
ENDMDL
MODEL       24
REMARK 921   NORMALIZED FREE ENERGY PREDICTED BY IDOCK:   -5.43 KCAL/MOL
REMARK 922        TOTAL FREE ENERGY PREDICTED BY IDOCK:   -6.03 KCAL/MOL
REMARK 923 INTER-LIGAND FREE ENERGY PREDICTED BY IDOCK:   -5.84 KCAL/MOL
REMARK 924 INTRA-LIGAND FREE ENERGY PREDICTED BY IDOCK:   -0.19 KCAL/MOL
REMARK 927      BINDING AFFINITY PREDICTED BY RF-SCORE:    0.00 PKD
ROOT
HETATM    1  C   UNL     1      -8.916  10.849  68.783  1.00  0.00    -0.166 C  
HETATM    2  C   UNL     1     -10.165  10.559  69.572  1.00  0.00    -0.200 C  
HETATM    3  C   UNL     1     -11.387  11.106  69.365  1.00  0.00    -0.352 C  
HETATM    4  H   UNL     1      -9.068   9.249  70.721  1.00  0.00     0.000 HD 
HETATM    5  C   UNL     1     -12.495  10.672  70.214  1.00  0.00    -0.381 C  
HETATM    6  C   UNL     1     -12.339   9.784  71.210  1.00  0.00    -0.465 C  
HETATM    7  O   UNL     1     -10.747   8.430  72.356  1.00  0.00    -0.318 OA 
HETATM    8  C   UNL     1     -13.426   9.371  72.023  1.00  0.00    -0.449 C  
HETATM    9  N   UNL     1     -14.352   9.068  72.654  1.00  0.00    -0.557 NA 
HETATM   10  C   UNL     1     -10.986   9.223  71.453  1.00  0.00    -0.359 C  
HETATM   11  N   UNL     1      -9.999   9.644  70.594  1.00  0.00    -0.269 N  
ENDROOT
BRANCH   3  12
HETATM   12  C   UNL     1     -11.600  12.152  68.345  1.00  0.00    -0.381 A  
HETATM   13  C   UNL     1     -11.874  14.431  67.694  1.00  0.00    -0.378 A  
HETATM   14  C   UNL     1     -11.719  13.495  68.704  1.00  0.00    -0.389 A  
HETATM   15  N   UNL     1     -11.915  14.120  66.380  1.00  0.00    -0.420 NA 
HETATM   16  C   UNL     1     -11.789  12.816  66.058  1.00  0.00    -0.439 A  
HETATM   17  C   UNL     1     -11.631  11.806  66.992  1.00  0.00    -0.321 A  
ENDBRANCH   3  12
TORSDOF 1
ENDMDL
MODEL       25
REMARK 921   NORMALIZED FREE ENERGY PREDICTED BY IDOCK:   -5.40 KCAL/MOL
REMARK 922        TOTAL FREE ENERGY PREDICTED BY IDOCK:   -6.00 KCAL/MOL
REMARK 923 INTER-LIGAND FREE ENERGY PREDICTED BY IDOCK:   -6.04 KCAL/MOL
REMARK 924 INTRA-LIGAND FREE ENERGY PREDICTED BY IDOCK:    0.04 KCAL/MOL
REMARK 927      BINDING AFFINITY PREDICTED BY RF-SCORE:    0.00 PKD
ROOT
HETATM    1  C   UNL     1     -11.046  11.156  69.508  1.00  0.00    -0.311 C  
HETATM    2  C   UNL     1     -11.400  12.098  68.389  1.00  0.00    -0.286 C  
HETATM    3  C   UNL     1     -11.805  13.383  68.523  1.00  0.00    -0.401 C  
HETATM    4  H   UNL     1     -10.977  10.586  67.056  1.00  0.00     0.000 HD 
HETATM    5  C   UNL     1     -12.070  14.159  67.313  1.00  0.00    -0.407 C  
HETATM    6  C   UNL     1     -11.964  13.635  66.080  1.00  0.00    -0.447 C  
HETATM    7  O   UNL     1     -11.465  11.646  64.865  1.00  0.00    -0.244 OA 
HETATM    8  C   UNL     1     -12.223  14.402  64.915  1.00  0.00    -0.433 C  
HETATM    9  N   UNL     1     -12.445  15.078  63.997  1.00  0.00    -0.774 NA 
HETATM   10  C   UNL     1     -11.560  12.212  65.948  1.00  0.00    -0.364 C  
HETATM   11  N   UNL     1     -11.288  11.555  67.123  1.00  0.00    -0.302 N  
ENDROOT
BRANCH   3  12
HETATM   12  C   UNL     1     -12.025  13.986  69.853  1.00  0.00    -0.399 A  
HETATM   13  C   UNL     1     -12.992  13.974  72.035  1.00  0.00    -0.363 A  
HETATM   14  C   UNL     1     -12.862  13.379  70.790  1.00  0.00    -0.221 A  
HETATM   15  N   UNL     1     -12.353  15.108  72.396  1.00  0.00    -0.341 NA 
HETATM   16  C   UNL     1     -11.543  15.672  71.476  1.00  0.00    -0.435 A  
HETATM   17  C   UNL     1     -11.348  15.156  70.206  1.00  0.00    -0.315 A  
ENDBRANCH   3  12
TORSDOF 1
ENDMDL
MODEL       26
REMARK 921   NORMALIZED FREE ENERGY PREDICTED BY IDOCK:   -5.40 KCAL/MOL
REMARK 922        TOTAL FREE ENERGY PREDICTED BY IDOCK:   -6.00 KCAL/MOL
REMARK 923 INTER-LIGAND FREE ENERGY PREDICTED BY IDOCK:   -5.72 KCAL/MOL
REMARK 924 INTRA-LIGAND FREE ENERGY PREDICTED BY IDOCK:   -0.28 KCAL/MOL
REMARK 927      BINDING AFFINITY PREDICTED BY RF-SCORE:    0.00 PKD
ROOT
HETATM    1  C   UNL     1     -10.880  15.133  65.845  1.00  0.00    -0.342 C  
HETATM    2  C   UNL     1     -10.982  15.439  67.315  1.00  0.00    -0.317 C  
HETATM    3  C   UNL     1     -10.563  16.573  67.927  1.00  0.00    -0.329 C  
HETATM    4  H   UNL     1     -11.872  13.601  67.581  1.00  0.00     0.000 HD 
HETATM    5  C   UNL     1     -10.781  16.708  69.366  1.00  0.00    -0.331 C  
HETATM    6  C   UNL     1     -11.344  15.738  70.107  1.00  0.00    -0.361 C  
HETATM    7  O   UNL     1     -12.258  13.538  70.033  1.00  0.00    -0.328 OA 
HETATM    8  C   UNL     1     -11.551  15.886  71.502  1.00  0.00    -0.465 C  
HETATM    9  N   UNL     1     -11.697  16.063  72.641  1.00  0.00    -0.457 NA 
HETATM   10  C   UNL     1     -11.762  14.484  69.431  1.00  0.00    -0.318 C  
HETATM   11  N   UNL     1     -11.564  14.440  68.072  1.00  0.00    -0.310 N  
ENDROOT
BRANCH   3  12
HETATM   12  C   UNL     1      -9.857  17.634  67.182  1.00  0.00    -0.306 A  
HETATM   13  C   UNL     1      -9.793  19.764  66.106  1.00  0.00    -0.448 A  
HETATM   14  C   UNL     1     -10.524  18.786  66.764  1.00  0.00    -0.478 A  
HETATM   15  N   UNL     1      -8.471  19.667  65.849  1.00  0.00    -0.412 NA 
HETATM   16  C   UNL     1      -7.846  18.548  66.270  1.00  0.00    -0.254 A  
HETATM   17  C   UNL     1      -8.487  17.515  66.934  1.00  0.00    -0.261 A  
ENDBRANCH   3  12
TORSDOF 1
ENDMDL
MODEL       27
REMARK 921   NORMALIZED FREE ENERGY PREDICTED BY IDOCK:   -5.35 KCAL/MOL
REMARK 922        TOTAL FREE ENERGY PREDICTED BY IDOCK:   -5.94 KCAL/MOL
REMARK 923 INTER-LIGAND FREE ENERGY PREDICTED BY IDOCK:   -5.95 KCAL/MOL
REMARK 924 INTRA-LIGAND FREE ENERGY PREDICTED BY IDOCK:    0.01 KCAL/MOL
REMARK 927      BINDING AFFINITY PREDICTED BY RF-SCORE:    0.00 PKD
ROOT
HETATM    1  C   UNL     1     -13.859  14.038  72.116  1.00  0.00    -0.627 C  
HETATM    2  C   UNL     1     -13.152  12.819  71.587  1.00  0.00    -0.331 C  
HETATM    3  C   UNL     1     -12.224  12.797  70.601  1.00  0.00    -0.374 C  
HETATM    4  H   UNL     1     -14.216  11.684  72.937  1.00  0.00     0.000 HD 
HETATM    5  C   UNL     1     -11.616  11.516  70.246  1.00  0.00    -0.305 C  
HETATM    6  C   UNL     1     -11.970  10.360  70.832  1.00  0.00    -0.478 C  
HETATM    7  O   UNL     1     -13.421   9.383  72.450  1.00  0.00    -0.457 OA 
HETATM    8  C   UNL     1     -11.369   9.126  70.477  1.00  0.00    -0.257 C  
HETATM    9  N   UNL     1     -10.841   8.145  70.148  1.00  0.00    -0.245 NA 
HETATM   10  C   UNL     1     -13.018  10.391  71.883  1.00  0.00    -0.450 C  
HETATM   11  N   UNL     1     -13.518  11.633  72.195  1.00  0.00    -0.320 N  
ENDROOT
BRANCH   3  12
HETATM   12  C   UNL     1     -11.860  14.021  69.859  1.00  0.00    -0.393 A  
HETATM   13  C   UNL     1     -10.983  16.238  69.759  1.00  0.00    -0.354 A  
HETATM   14  C   UNL     1     -11.345  15.137  70.519  1.00  0.00    -0.334 A  
HETATM   15  N   UNL     1     -11.098  16.294  68.414  1.00  0.00    -0.355 NA 
HETATM   16  C   UNL     1     -11.590  15.200  67.798  1.00  0.00    -0.289 A  
HETATM   17  C   UNL     1     -11.981  14.052  68.468  1.00  0.00    -0.383 A  
ENDBRANCH   3  12
TORSDOF 1
ENDMDL
MODEL       28
REMARK 921   NORMALIZED FREE ENERGY PREDICTED BY IDOCK:   -5.35 KCAL/MOL
REMARK 922        TOTAL FREE ENERGY PREDICTED BY IDOCK:   -5.94 KCAL/MOL
REMARK 923 INTER-LIGAND FREE ENERGY PREDICTED BY IDOCK:   -5.66 KCAL/MOL
REMARK 924 INTRA-LIGAND FREE ENERGY PREDICTED BY IDOCK:   -0.29 KCAL/MOL
REMARK 927      BINDING AFFINITY PREDICTED BY RF-SCORE:    0.00 PKD
ROOT
HETATM    1  C   UNL     1     -12.339  12.352  64.997  1.00  0.00    -0.441 C  
HETATM    2  C   UNL     1     -11.671  13.604  65.499  1.00  0.00    -0.337 C  
HETATM    3  C   UNL     1     -10.980  13.733  66.657  1.00  0.00    -0.298 C  
HETATM    4  H   UNL     1     -12.326  14.568  63.801  1.00  0.00     0.000 HD 
HETATM    5  C   UNL     1     -10.366  15.024  66.960  1.00  0.00    -0.269 C  
HETATM    6  C   UNL     1     -10.493  16.093  66.156  1.00  0.00    -0.334 C  
HETATM    7  O   UNL     1     -11.479  16.878  64.133  1.00  0.00    -1.174 OA 
HETATM    8  C   UNL     1      -9.889  17.338  66.463  1.00  0.00    -0.298 C  
HETATM    9  N   UNL     1      -9.370  18.333  66.765  1.00  0.00    -0.286 NA 
HETATM   10  C   UNL     1     -11.288  15.950  64.909  1.00  0.00    -0.256 C  
HETATM   11  N   UNL     1     -11.803  14.699  64.667  1.00  0.00    -0.441 N  
ENDROOT
BRANCH   3  12
HETATM   12  C   UNL     1     -10.881  12.620  67.623  1.00  0.00    -0.248 A  
HETATM   13  C   UNL     1     -11.734  11.331  69.441  1.00  0.00    -0.339 A  
HETATM   14  C   UNL     1     -11.864  12.420  68.593  1.00  0.00    -0.348 A  
HETATM   15  N   UNL     1     -10.712  10.450  69.382  1.00  0.00    -0.227 NA 
HETATM   16  C   UNL     1      -9.779  10.661  68.430  1.00  0.00    -0.166 A  
HETATM   17  C   UNL     1      -9.818  11.718  67.537  1.00  0.00    -0.195 A  
ENDBRANCH   3  12
TORSDOF 1
ENDMDL
MODEL       29
REMARK 921   NORMALIZED FREE ENERGY PREDICTED BY IDOCK:   -5.33 KCAL/MOL
REMARK 922        TOTAL FREE ENERGY PREDICTED BY IDOCK:   -5.93 KCAL/MOL
REMARK 923 INTER-LIGAND FREE ENERGY PREDICTED BY IDOCK:   -5.76 KCAL/MOL
REMARK 924 INTRA-LIGAND FREE ENERGY PREDICTED BY IDOCK:   -0.18 KCAL/MOL
REMARK 927      BINDING AFFINITY PREDICTED BY RF-SCORE:    0.00 PKD
ROOT
HETATM    1  C   UNL     1     -10.776   9.880  67.941  1.00  0.00    -0.316 C  
HETATM    2  C   UNL     1     -11.315  11.077  68.678  1.00  0.00    -0.281 C  
HETATM    3  C   UNL     1     -11.676  11.116  69.983  1.00  0.00    -0.438 C  
HETATM    4  H   UNL     1     -11.151  12.157  66.932  1.00  0.00     0.000 HD 
HETATM    5  C   UNL     1     -12.145  12.385  70.536  1.00  0.00    -0.363 C  
HETATM    6  C   UNL     1     -12.267  13.498  69.793  1.00  0.00    -0.330 C  
HETATM    7  O   UNL     1     -12.012  14.388  67.597  1.00  0.00    -0.377 OA 
HETATM    8  C   UNL     1     -12.721  14.722  70.346  1.00  0.00    -0.316 C  
HETATM    9  N   UNL     1     -13.096  15.698  70.853  1.00  0.00    -0.519 NA 
HETATM   10  C   UNL     1     -11.906  13.431  68.354  1.00  0.00    -0.366 C  
HETATM   11  N   UNL     1     -11.435  12.219  67.910  1.00  0.00    -0.307 N  
ENDROOT
BRANCH   3  12
HETATM   12  C   UNL     1     -11.650   9.905  70.827  1.00  0.00    -0.430 A  
HETATM   13  C   UNL     1     -10.489   8.239  72.080  1.00  0.00    -0.301 A  
HETATM   14  C   UNL     1     -10.443   9.351  71.255  1.00  0.00    -0.385 A  
HETATM   15  N   UNL     1     -11.636   7.660  72.498  1.00  0.00    -0.334 NA 
HETATM   16  C   UNL     1     -12.790   8.218  72.078  1.00  0.00    -0.340 A  
HETATM   17  C   UNL     1     -12.849   9.328  71.252  1.00  0.00    -0.354 A  
ENDBRANCH   3  12
TORSDOF 1
ENDMDL
MODEL       30
REMARK 921   NORMALIZED FREE ENERGY PREDICTED BY IDOCK:   -5.32 KCAL/MOL
REMARK 922        TOTAL FREE ENERGY PREDICTED BY IDOCK:   -5.91 KCAL/MOL
REMARK 923 INTER-LIGAND FREE ENERGY PREDICTED BY IDOCK:   -5.71 KCAL/MOL
REMARK 924 INTRA-LIGAND FREE ENERGY PREDICTED BY IDOCK:   -0.21 KCAL/MOL
REMARK 927      BINDING AFFINITY PREDICTED BY RF-SCORE:    0.00 PKD
ROOT
HETATM    1  C   UNL     1     -12.592   9.059  71.531  1.00  0.00    -0.400 C  
HETATM    2  C   UNL     1     -12.489  10.534  71.252  1.00  0.00    -0.419 C  
HETATM    3  C   UNL     1     -11.730  11.117  70.293  1.00  0.00    -0.431 C  
HETATM    4  H   UNL     1     -13.822  10.861  72.788  1.00  0.00     0.000 HD 
HETATM    5  C   UNL     1     -11.788  12.570  70.147  1.00  0.00    -0.336 C  
HETATM    6  C   UNL     1     -12.533  13.348  70.950  1.00  0.00    -0.439 C  
HETATM    7  O   UNL     1     -14.014  13.336  72.818  1.00  0.00    -0.701 OA 
HETATM    8  C   UNL     1     -12.580  14.757  70.794  1.00  0.00    -0.349 C  
HETATM    9  N   UNL     1     -12.582  15.905  70.618  1.00  0.00    -0.341 NA 
HETATM   10  C   UNL     1     -13.329  12.702  72.024  1.00  0.00    -0.454 C  
HETATM   11  N   UNL     1     -13.259  11.330  72.078  1.00  0.00    -0.459 N  
ENDROOT
BRANCH   3  12
HETATM   12  C   UNL     1     -10.824  10.322  69.440  1.00  0.00    -0.282 A  
HETATM   13  C   UNL     1     -10.184   9.403  67.333  1.00  0.00    -0.239 A  
HETATM   14  C   UNL     1     -11.098  10.122  68.087  1.00  0.00    -0.290 A  
HETATM   15  N   UNL     1      -9.041   8.885  67.831  1.00  0.00    -0.139 NA 
HETATM   16  C   UNL     1      -8.793   9.099  69.140  1.00  0.00    -0.146 A  
HETATM   17  C   UNL     1      -9.643   9.803  69.977  1.00  0.00    -0.282 A  
ENDBRANCH   3  12
TORSDOF 1
ENDMDL
MODEL       31
REMARK 921   NORMALIZED FREE ENERGY PREDICTED BY IDOCK:   -5.24 KCAL/MOL
REMARK 922        TOTAL FREE ENERGY PREDICTED BY IDOCK:   -5.83 KCAL/MOL
REMARK 923 INTER-LIGAND FREE ENERGY PREDICTED BY IDOCK:   -5.57 KCAL/MOL
REMARK 924 INTRA-LIGAND FREE ENERGY PREDICTED BY IDOCK:   -0.26 KCAL/MOL
REMARK 927      BINDING AFFINITY PREDICTED BY RF-SCORE:    0.00 PKD
ROOT
HETATM    1  C   UNL     1     -10.011  10.694  65.692  1.00  0.00    -0.327 C  
HETATM    2  C   UNL     1     -10.695  10.945  67.009  1.00  0.00    -0.271 C  
HETATM    3  C   UNL     1     -11.373  12.064  67.358  1.00  0.00    -0.393 C  
HETATM    4  H   UNL     1     -10.078   9.078  67.622  1.00  0.00     0.000 HD 
HETATM    5  C   UNL     1     -12.005  12.112  68.675  1.00  0.00    -0.290 C  
HETATM    6  C   UNL     1     -11.907  11.107  69.562  1.00  0.00    -0.423 C  
HETATM    7  O   UNL     1     -10.960   8.952  69.939  1.00  0.00    -0.235 OA 
HETATM    8  C   UNL     1     -12.529  11.168  70.835  1.00  0.00    -0.409 C  
HETATM    9  N   UNL     1     -13.061  11.272  71.862  1.00  0.00    -0.477 NA 
HETATM   10  C   UNL     1     -11.126   9.903  69.183  1.00  0.00    -0.159 C  
HETATM   11  N   UNL     1     -10.592   9.908  67.916  1.00  0.00    -0.237 N  
ENDROOT
BRANCH   3  12
HETATM   12  C   UNL     1     -11.440  13.236  66.461  1.00  0.00    -0.372 A  
HETATM   13  C   UNL     1     -10.626  15.341  65.686  1.00  0.00    -0.362 A  
HETATM   14  C   UNL     1     -10.536  14.292  66.587  1.00  0.00    -0.278 A  
HETATM   15  N   UNL     1     -11.536  15.399  64.689  1.00  0.00    -0.387 NA 
HETATM   16  C   UNL     1     -12.393  14.363  64.583  1.00  0.00    -0.418 A  
HETATM   17  C   UNL     1     -12.385  13.270  65.434  1.00  0.00    -0.528 A  
ENDBRANCH   3  12
TORSDOF 1
ENDMDL
MODEL       32
REMARK 921   NORMALIZED FREE ENERGY PREDICTED BY IDOCK:   -5.23 KCAL/MOL
REMARK 922        TOTAL FREE ENERGY PREDICTED BY IDOCK:   -5.82 KCAL/MOL
REMARK 923 INTER-LIGAND FREE ENERGY PREDICTED BY IDOCK:   -5.52 KCAL/MOL
REMARK 924 INTRA-LIGAND FREE ENERGY PREDICTED BY IDOCK:   -0.31 KCAL/MOL
REMARK 927      BINDING AFFINITY PREDICTED BY RF-SCORE:    0.00 PKD
ROOT
HETATM    1  C   UNL     1     -11.513  11.585  68.363  1.00  0.00    -0.364 C  
HETATM    2  C   UNL     1     -11.277  13.057  68.150  1.00  0.00    -0.272 C  
HETATM    3  C   UNL     1     -11.234  13.695  66.956  1.00  0.00    -0.328 C  
HETATM    4  H   UNL     1     -11.132  13.273  70.193  1.00  0.00     0.000 HD 
HETATM    5  C   UNL     1     -11.029  15.143  66.949  1.00  0.00    -0.323 C  
HETATM    6  C   UNL     1     -10.845  15.853  68.074  1.00  0.00    -0.317 C  
HETATM    7  O   UNL     1     -10.665  15.698  70.446  1.00  0.00    -0.317 OA 
HETATM    8  C   UNL     1     -10.650  17.257  68.050  1.00  0.00    -0.394 C  
HETATM    9  N   UNL     1     -10.497  18.406  67.970  1.00  0.00    -0.383 NA 
HETATM   10  C   UNL     1     -10.853  15.135  69.374  1.00  0.00    -0.262 C  
HETATM   11  N   UNL     1     -11.090  13.783  69.310  1.00  0.00    -0.238 N  
ENDROOT
BRANCH   3  12
HETATM   12  C   UNL     1     -11.340  12.955  65.682  1.00  0.00    -0.344 A  
HETATM   13  C   UNL     1     -12.588  12.157  63.811  1.00  0.00    -0.475 A  
HETATM   14  C   UNL     1     -12.564  12.827  65.024  1.00  0.00    -0.538 A  
HETATM   15  N   UNL     1     -11.493  11.623  63.226  1.00  0.00    -0.270 NA 
HETATM   16  C   UNL     1     -10.321  11.768  63.877  1.00  0.00    -0.385 A  
HETATM   17  C   UNL     1     -10.193  12.419  65.093  1.00  0.00    -0.305 A  
ENDBRANCH   3  12
TORSDOF 1
ENDMDL
MODEL       33
REMARK 921   NORMALIZED FREE ENERGY PREDICTED BY IDOCK:   -5.19 KCAL/MOL
REMARK 922        TOTAL FREE ENERGY PREDICTED BY IDOCK:   -5.78 KCAL/MOL
REMARK 923 INTER-LIGAND FREE ENERGY PREDICTED BY IDOCK:   -5.53 KCAL/MOL
REMARK 924 INTRA-LIGAND FREE ENERGY PREDICTED BY IDOCK:   -0.25 KCAL/MOL
REMARK 927      BINDING AFFINITY PREDICTED BY RF-SCORE:    0.00 PKD
ROOT
HETATM    1  C   UNL     1     -11.748  15.813  69.218  1.00  0.00    -0.384 C  
HETATM    2  C   UNL     1     -10.661  16.299  68.296  1.00  0.00    -0.322 C  
HETATM    3  C   UNL     1     -10.318  15.751  67.106  1.00  0.00    -0.291 C  
HETATM    4  H   UNL     1     -10.261  17.799  69.649  1.00  0.00     0.000 HD 
HETATM    5  C   UNL     1      -9.256  16.387  66.328  1.00  0.00    -0.350 C  
HETATM    6  C   UNL     1      -8.585  17.466  66.767  1.00  0.00    -0.284 C  
HETATM    7  O   UNL     1      -8.365  18.995  68.582  1.00  0.00    -0.350 OA 
HETATM    8  C   UNL     1      -7.559  18.072  65.999  1.00  0.00    -0.205 C  
HETATM    9  N   UNL     1      -6.729  18.528  65.327  1.00  0.00    -0.515 NA 
HETATM   10  C   UNL     1      -8.943  18.031  68.092  1.00  0.00    -0.283 C  
HETATM   11  N   UNL     1      -9.976  17.409  68.751  1.00  0.00    -0.317 N  
ENDROOT
BRANCH   3  12
HETATM   12  C   UNL     1     -10.958  14.515  66.614  1.00  0.00    -0.321 A  
HETATM   13  C   UNL     1     -12.439  13.352  65.147  1.00  0.00    -0.459 A  
HETATM   14  C   UNL     1     -11.908  14.553  65.592  1.00  0.00    -0.326 A  
HETATM   15  N   UNL     1     -12.088  12.146  65.642  1.00  0.00    -0.534 NA 
HETATM   16  C   UNL     1     -11.161  12.134  66.623  1.00  0.00    -0.324 A  
HETATM   17  C   UNL     1     -10.573  13.278  67.136  1.00  0.00    -0.259 A  
ENDBRANCH   3  12
TORSDOF 1
ENDMDL
MODEL       34
REMARK 921   NORMALIZED FREE ENERGY PREDICTED BY IDOCK:   -5.16 KCAL/MOL
REMARK 922        TOTAL FREE ENERGY PREDICTED BY IDOCK:   -5.75 KCAL/MOL
REMARK 923 INTER-LIGAND FREE ENERGY PREDICTED BY IDOCK:   -5.52 KCAL/MOL
REMARK 924 INTRA-LIGAND FREE ENERGY PREDICTED BY IDOCK:   -0.23 KCAL/MOL
REMARK 927      BINDING AFFINITY PREDICTED BY RF-SCORE:    0.00 PKD
ROOT
HETATM    1  C   UNL     1     -10.583  16.055  65.001  1.00  0.00    -0.342 C  
HETATM    2  C   UNL     1     -10.882  15.378  66.311  1.00  0.00    -0.301 C  
HETATM    3  C   UNL     1     -10.709  15.911  67.545  1.00  0.00    -0.318 C  
HETATM    4  H   UNL     1     -11.499  13.723  65.252  1.00  0.00     0.000 HD 
HETATM    5  C   UNL     1     -11.093  15.112  68.707  1.00  0.00    -0.272 C  
HETATM    6  C   UNL     1     -11.572  13.861  68.599  1.00  0.00    -0.363 C  
HETATM    7  O   UNL     1     -12.120  12.131  67.053  1.00  0.00    -0.591 OA 
HETATM    8  C   UNL     1     -11.942  13.100  69.737  1.00  0.00    -0.314 C  
HETATM    9  N   UNL     1     -12.231  12.524  70.704  1.00  0.00    -0.351 NA 
HETATM   10  C   UNL     1     -11.718  13.273  67.243  1.00  0.00    -0.377 C  
HETATM   11  N   UNL     1     -11.377  14.093  66.195  1.00  0.00    -0.329 N  
ENDROOT
BRANCH   3  12
HETATM   12  C   UNL     1     -10.104  17.244  67.730  1.00  0.00    -0.311 A  
HETATM   13  C   UNL     1     -10.228  19.628  67.745  1.00  0.00    -0.436 A  
HETATM   14  C   UNL     1     -10.843  18.408  67.511  1.00  0.00    -0.304 A  
HETATM   15  N   UNL     1      -8.954  19.757  68.174  1.00  0.00    -0.326 NA 
HETATM   16  C   UNL     1      -8.262  18.618  68.386  1.00  0.00    -0.334 A  
HETATM   17  C   UNL     1      -8.786  17.352  68.182  1.00  0.00    -0.253 A  
ENDBRANCH   3  12
TORSDOF 1
ENDMDL
MODEL       35
REMARK 921   NORMALIZED FREE ENERGY PREDICTED BY IDOCK:   -5.16 KCAL/MOL
REMARK 922        TOTAL FREE ENERGY PREDICTED BY IDOCK:   -5.75 KCAL/MOL
REMARK 923 INTER-LIGAND FREE ENERGY PREDICTED BY IDOCK:   -5.55 KCAL/MOL
REMARK 924 INTRA-LIGAND FREE ENERGY PREDICTED BY IDOCK:   -0.20 KCAL/MOL
REMARK 927      BINDING AFFINITY PREDICTED BY RF-SCORE:    0.00 PKD
ROOT
HETATM    1  C   UNL     1      -9.037  10.847  68.827  1.00  0.00    -0.174 C  
HETATM    2  C   UNL     1      -9.934  11.350  67.728  1.00  0.00    -0.178 C  
HETATM    3  C   UNL     1     -11.149  11.928  67.888  1.00  0.00    -0.297 C  
HETATM    4  H   UNL     1      -8.511  10.748  66.366  1.00  0.00     0.000 HD 
HETATM    5  C   UNL     1     -11.862  12.389  66.698  1.00  0.00    -0.394 C  
HETATM    6  C   UNL     1     -11.376  12.227  65.456  1.00  0.00    -0.394 C  
HETATM    7  O   UNL     1      -9.558  11.341  64.195  1.00  0.00    -0.232 OA 
HETATM    8  C   UNL     1     -12.080  12.683  64.312  1.00  0.00    -0.426 C  
HETATM    9  N   UNL     1     -12.699  13.078  63.412  1.00  0.00    -0.660 NA 
HETATM   10  C   UNL     1     -10.063  11.555  65.291  1.00  0.00    -0.269 C  
HETATM   11  N   UNL     1      -9.430  11.184  66.452  1.00  0.00    -0.187 N  
ENDROOT
BRANCH   3  12
HETATM   12  C   UNL     1     -11.773  12.052  69.221  1.00  0.00    -0.389 A  
HETATM   13  C   UNL     1     -12.548  13.347  71.069  1.00  0.00    -0.343 A  
HETATM   14  C   UNL     1     -11.914  13.295  69.838  1.00  0.00    -0.400 A  
HETATM   15  N   UNL     1     -13.040  12.263  71.707  1.00  0.00    -0.408 NA 
HETATM   16  C   UNL     1     -12.900  11.074  71.087  1.00  0.00    -0.392 A  
HETATM   17  C   UNL     1     -12.282  10.917  69.857  1.00  0.00    -0.408 A  
ENDBRANCH   3  12
TORSDOF 1
ENDMDL
MODEL       36
REMARK 921   NORMALIZED FREE ENERGY PREDICTED BY IDOCK:   -5.11 KCAL/MOL
REMARK 922        TOTAL FREE ENERGY PREDICTED BY IDOCK:   -5.70 KCAL/MOL
REMARK 923 INTER-LIGAND FREE ENERGY PREDICTED BY IDOCK:   -5.42 KCAL/MOL
REMARK 924 INTRA-LIGAND FREE ENERGY PREDICTED BY IDOCK:   -0.28 KCAL/MOL
REMARK 927      BINDING AFFINITY PREDICTED BY RF-SCORE:    0.00 PKD
ROOT
HETATM    1  C   UNL     1      -8.544  11.084  68.142  1.00  0.00    -0.140 C  
HETATM    2  C   UNL     1      -9.711  10.787  69.046  1.00  0.00    -0.187 C  
HETATM    3  C   UNL     1     -10.964  11.285  68.924  1.00  0.00    -0.274 C  
HETATM    4  H   UNL     1      -8.475   9.561  70.147  1.00  0.00     0.000 HD 
HETATM    5  C   UNL     1     -11.981  10.852  69.880  1.00  0.00    -0.430 C  
HETATM    6  C   UNL     1     -11.710  10.011  70.893  1.00  0.00    -0.462 C  
HETATM    7  O   UNL     1      -9.980   8.758  71.950  1.00  0.00    -0.290 OA 
HETATM    8  C   UNL     1     -12.709   9.598  71.811  1.00  0.00    -0.420 C  
HETATM    9  N   UNL     1     -13.567   9.292  72.531  1.00  0.00    -0.460 NA 
HETATM   10  C   UNL     1     -10.322   9.505  71.041  1.00  0.00    -0.283 C  
HETATM   11  N   UNL     1      -9.427   9.921  70.085  1.00  0.00    -0.218 N  
ENDROOT
BRANCH   3  12
HETATM   12  C   UNL     1     -11.300  12.281  67.886  1.00  0.00    -0.356 A  
HETATM   13  C   UNL     1     -11.958  12.868  65.669  1.00  0.00    -0.440 A  
HETATM   14  C   UNL     1     -11.610  11.887  66.584  1.00  0.00    -0.337 A  
HETATM   15  N   UNL     1     -12.017  14.185  65.964  1.00  0.00    -0.396 NA 
HETATM   16  C   UNL     1     -11.721  14.540  67.232  1.00  0.00    -0.406 A  
HETATM   17  C   UNL     1     -11.361  13.636  68.218  1.00  0.00    -0.322 A  
ENDBRANCH   3  12
TORSDOF 1
ENDMDL
MODEL       37
REMARK 921   NORMALIZED FREE ENERGY PREDICTED BY IDOCK:   -5.09 KCAL/MOL
REMARK 922        TOTAL FREE ENERGY PREDICTED BY IDOCK:   -5.67 KCAL/MOL
REMARK 923 INTER-LIGAND FREE ENERGY PREDICTED BY IDOCK:   -5.61 KCAL/MOL
REMARK 924 INTRA-LIGAND FREE ENERGY PREDICTED BY IDOCK:   -0.06 KCAL/MOL
REMARK 927      BINDING AFFINITY PREDICTED BY RF-SCORE:    0.00 PKD
ROOT
HETATM    1  C   UNL     1     -12.008  14.773  69.264  1.00  0.00    -0.329 C  
HETATM    2  C   UNL     1     -11.681  13.432  68.663  1.00  0.00    -0.349 C  
HETATM    3  C   UNL     1     -11.375  13.190  67.366  1.00  0.00    -0.344 C  
HETATM    4  H   UNL     1     -11.942  12.595  70.527  1.00  0.00     0.000 HD 
HETATM    5  C   UNL     1     -11.048  11.821  66.973  1.00  0.00    -0.358 C  
HETATM    6  C   UNL     1     -11.078  10.793  67.838  1.00  0.00    -0.369 C  
HETATM    7  O   UNL     1     -11.536  10.184  70.096  1.00  0.00    -0.261 OA 
HETATM    8  C   UNL     1     -10.756   9.470  67.441  1.00  0.00    -0.227 C  
HETATM    9  N   UNL     1     -10.480   8.408  67.059  1.00  0.00    -0.318 NA 
HETATM   10  C   UNL     1     -11.456  11.064  69.248  1.00  0.00    -0.300 C  
HETATM   11  N   UNL     1     -11.711  12.379  69.557  1.00  0.00    -0.315 N  
ENDROOT
BRANCH   3  12
HETATM   12  C   UNL     1     -11.413  14.263  66.353  1.00  0.00    -0.361 A  
HETATM   13  C   UNL     1     -10.608  16.308  65.422  1.00  0.00    -0.352 A  
HETATM   14  C   UNL     1     -10.550  15.357  66.429  1.00  0.00    -0.307 A  
HETATM   15  N   UNL     1     -11.449  16.236  64.368  1.00  0.00    -0.712 NA 
HETATM   16  C   UNL     1     -12.267  15.164  64.312  1.00  0.00    -0.240 A  
HETATM   17  C   UNL     1     -12.287  14.162  65.268  1.00  0.00    -0.469 A  
ENDBRANCH   3  12
TORSDOF 1
ENDMDL
MODEL       38
REMARK 921   NORMALIZED FREE ENERGY PREDICTED BY IDOCK:   -5.05 KCAL/MOL
REMARK 922        TOTAL FREE ENERGY PREDICTED BY IDOCK:   -5.63 KCAL/MOL
REMARK 923 INTER-LIGAND FREE ENERGY PREDICTED BY IDOCK:   -5.32 KCAL/MOL
REMARK 924 INTRA-LIGAND FREE ENERGY PREDICTED BY IDOCK:   -0.31 KCAL/MOL
REMARK 927      BINDING AFFINITY PREDICTED BY RF-SCORE:    0.00 PKD
ROOT
HETATM    1  C   UNL     1     -12.754  15.172  70.377  1.00  0.00    -0.378 C  
HETATM    2  C   UNL     1     -12.368  13.720  70.282  1.00  0.00    -0.337 C  
HETATM    3  C   UNL     1     -11.593  13.159  69.324  1.00  0.00    -0.370 C  
HETATM    4  H   UNL     1     -13.456  13.377  71.997  1.00  0.00     0.000 HD 
HETATM    5  C   UNL     1     -11.294  11.731  69.419  1.00  0.00    -0.337 C  
HETATM    6  C   UNL     1     -11.789  10.952  70.395  1.00  0.00    -0.449 C  
HETATM    7  O   UNL     1     -13.189  10.931  72.324  1.00  0.00    -0.406 OA 
HETATM    8  C   UNL     1     -11.488   9.569  70.474  1.00  0.00    -0.276 C  
HETATM    9  N   UNL     1     -11.205   8.442  70.490  1.00  0.00    -0.254 NA 
HETATM   10  C   UNL     1     -12.672  11.571  71.416  1.00  0.00    -0.364 C  
HETATM   11  N   UNL     1     -12.878  12.924  71.290  1.00  0.00    -0.329 N  
ENDROOT
BRANCH   3  12
HETATM   12  C   UNL     1     -11.094  13.946  68.179  1.00  0.00    -0.278 A  
HETATM   13  C   UNL     1      -9.400  15.216  67.076  1.00  0.00    -0.230 A  
HETATM   14  C   UNL     1      -9.825  14.526  68.201  1.00  0.00    -0.223 A  
HETATM   15  N   UNL     1     -10.143  15.357  65.957  1.00  0.00    -0.300 NA 
HETATM   16  C   UNL     1     -11.362  14.780  65.956  1.00  0.00    -0.332 A  
HETATM   17  C   UNL     1     -11.877  14.072  67.029  1.00  0.00    -0.458 A  
ENDBRANCH   3  12
TORSDOF 1
ENDMDL
MODEL       39
REMARK 921   NORMALIZED FREE ENERGY PREDICTED BY IDOCK:   -4.89 KCAL/MOL
REMARK 922        TOTAL FREE ENERGY PREDICTED BY IDOCK:   -5.47 KCAL/MOL
REMARK 923 INTER-LIGAND FREE ENERGY PREDICTED BY IDOCK:   -5.18 KCAL/MOL
REMARK 924 INTRA-LIGAND FREE ENERGY PREDICTED BY IDOCK:   -0.28 KCAL/MOL
REMARK 927      BINDING AFFINITY PREDICTED BY RF-SCORE:    0.00 PKD
ROOT
HETATM    1  C   UNL     1     -12.035  15.290  68.484  1.00  0.00    -0.228 C  
HETATM    2  C   UNL     1     -11.466  14.568  67.292  1.00  0.00    -0.365 C  
HETATM    3  C   UNL     1     -10.175  14.591  66.883  1.00  0.00    -0.264 C  
HETATM    4  H   UNL     1     -13.350  13.827  66.912  1.00  0.00     0.000 HD 
HETATM    5  C   UNL     1      -9.801  13.793  65.717  1.00  0.00    -0.242 C  
HETATM    6  C   UNL     1     -10.692  13.071  65.017  1.00  0.00    -0.333 C  
HETATM    7  O   UNL     1     -12.996  12.482  64.856  1.00  0.00    -0.821 OA 
HETATM    8  C   UNL     1     -10.312  12.300  63.890  1.00  0.00    -0.429 C  
HETATM    9  N   UNL     1      -9.943  11.685  62.976  1.00  0.00    -0.363 NA 
HETATM   10  C   UNL     1     -12.112  13.087  65.451  1.00  0.00    -0.444 C  
HETATM   11  N   UNL     1     -12.387  13.826  66.577  1.00  0.00    -0.416 N  
ENDROOT
BRANCH   3  12
HETATM   12  C   UNL     1      -9.169  15.435  67.558  1.00  0.00    -0.201 A  
HETATM   13  C   UNL     1      -8.104  17.535  67.947  1.00  0.00    -0.230 A  
HETATM   14  C   UNL     1      -9.038  16.789  67.246  1.00  0.00    -0.228 A  
HETATM   15  N   UNL     1      -7.313  17.028  68.918  1.00  0.00    -0.240 NA 
HETATM   16  C   UNL     1      -7.464  15.719  69.207  1.00  0.00    -0.220 A  
HETATM   17  C   UNL     1      -8.368  14.890  68.564  1.00  0.00    -0.160 A  
ENDBRANCH   3  12
TORSDOF 1
ENDMDL
MODEL       40
REMARK 921   NORMALIZED FREE ENERGY PREDICTED BY IDOCK:   -4.84 KCAL/MOL
REMARK 922        TOTAL FREE ENERGY PREDICTED BY IDOCK:   -5.41 KCAL/MOL
REMARK 923 INTER-LIGAND FREE ENERGY PREDICTED BY IDOCK:   -5.24 KCAL/MOL
REMARK 924 INTRA-LIGAND FREE ENERGY PREDICTED BY IDOCK:   -0.17 KCAL/MOL
REMARK 927      BINDING AFFINITY PREDICTED BY RF-SCORE:    0.00 PKD
ROOT
HETATM    1  C   UNL     1     -13.648   9.399  71.331  1.00  0.00    -0.362 C  
HETATM    2  C   UNL     1     -12.186   9.124  71.562  1.00  0.00    -0.349 C  
HETATM    3  C   UNL     1     -11.152   9.661  70.872  1.00  0.00    -0.422 C  
HETATM    4  H   UNL     1     -12.725   7.847  73.086  1.00  0.00     0.000 HD 
HETATM    5  C   UNL     1      -9.791   9.301  71.267  1.00  0.00    -0.318 C  
HETATM    6  C   UNL     1      -9.531   8.432  72.258  1.00  0.00    -0.367 C  
HETATM    7  O   UNL     1     -10.530   6.996  73.877  1.00  0.00    -0.375 OA 
HETATM    8  C   UNL     1      -8.205   8.096  72.630  1.00  0.00    -0.170 C  
HETATM    9  N   UNL     1      -7.098   7.859  72.893  1.00  0.00    -0.083 NA 
HETATM   10  C   UNL     1     -10.675   7.818  72.980  1.00  0.00    -0.384 C  
HETATM   11  N   UNL     1     -11.924   8.231  72.584  1.00  0.00    -0.368 N  
ENDROOT
BRANCH   3  12
HETATM   12  C   UNL     1     -11.377  10.551  69.716  1.00  0.00    -0.367 A  
HETATM   13  C   UNL     1     -11.999  12.651  68.767  1.00  0.00    -0.237 A  
HETATM   14  C   UNL     1     -11.850  11.853  69.890  1.00  0.00    -0.418 A  
HETATM   15  N   UNL     1     -11.710  12.244  67.512  1.00  0.00    -0.459 NA 
HETATM   16  C   UNL     1     -11.247  10.985  67.370  1.00  0.00    -0.285 A  
HETATM   17  C   UNL     1     -11.065  10.110  68.428  1.00  0.00    -0.273 A  
ENDBRANCH   3  12
TORSDOF 1
ENDMDL
MODEL       41
REMARK 921   NORMALIZED FREE ENERGY PREDICTED BY IDOCK:   -4.83 KCAL/MOL
REMARK 922        TOTAL FREE ENERGY PREDICTED BY IDOCK:   -5.40 KCAL/MOL
REMARK 923 INTER-LIGAND FREE ENERGY PREDICTED BY IDOCK:   -5.16 KCAL/MOL
REMARK 924 INTRA-LIGAND FREE ENERGY PREDICTED BY IDOCK:   -0.24 KCAL/MOL
REMARK 927      BINDING AFFINITY PREDICTED BY RF-SCORE:    0.00 PKD
ROOT
HETATM    1  C   UNL     1     -10.287  11.589  63.242  1.00  0.00    -0.435 C  
HETATM    2  C   UNL     1     -10.544  11.400  64.713  1.00  0.00    -0.316 C  
HETATM    3  C   UNL     1     -10.967  12.351  65.580  1.00  0.00    -0.321 C  
HETATM    4  H   UNL     1      -9.999   9.426  64.499  1.00  0.00     0.000 HD 
HETATM    5  C   UNL     1     -11.199  11.970  66.972  1.00  0.00    -0.377 C  
HETATM    6  C   UNL     1     -10.973  10.726  67.429  1.00  0.00    -0.361 C  
HETATM    7  O   UNL     1     -10.212   8.553  66.813  1.00  0.00    -0.276 OA 
HETATM    8  C   UNL     1     -11.206  10.372  68.782  1.00  0.00    -0.241 C  
HETATM    9  N   UNL     1     -11.417  10.138  69.900  1.00  0.00    -0.260 NA 
HETATM   10  C   UNL     1     -10.471   9.703  66.478  1.00  0.00    -0.143 C  
HETATM   11  N   UNL     1     -10.313  10.119  65.177  1.00  0.00    -0.171 N  
ENDROOT
BRANCH   3  12
HETATM   12  C   UNL     1     -11.146  13.754  65.156  1.00  0.00    -0.330 A  
HETATM   13  C   UNL     1     -12.409  15.495  64.123  1.00  0.00     0.066 A  
HETATM   14  C   UNL     1     -12.282  14.155  64.453  1.00  0.00    -0.466 A  
HETATM   15  N   UNL     1     -11.497  16.438  64.445  1.00  0.00    -0.830 NA 
HETATM   16  C   UNL     1     -10.411  16.028  65.132  1.00  0.00    -0.303 A  
HETATM   17  C   UNL     1     -10.192  14.713  65.508  1.00  0.00    -0.395 A  
ENDBRANCH   3  12
TORSDOF 1
ENDMDL
MODEL       42
REMARK 921   NORMALIZED FREE ENERGY PREDICTED BY IDOCK:   -4.80 KCAL/MOL
REMARK 922        TOTAL FREE ENERGY PREDICTED BY IDOCK:   -5.37 KCAL/MOL
REMARK 923 INTER-LIGAND FREE ENERGY PREDICTED BY IDOCK:   -5.11 KCAL/MOL
REMARK 924 INTRA-LIGAND FREE ENERGY PREDICTED BY IDOCK:   -0.26 KCAL/MOL
REMARK 927      BINDING AFFINITY PREDICTED BY RF-SCORE:    0.00 PKD
ROOT
HETATM    1  C   UNL     1     -10.326   8.101  68.064  1.00  0.00    -0.267 C  
HETATM    2  C   UNL     1     -10.724   9.535  68.289  1.00  0.00    -0.194 C  
HETATM    3  C   UNL     1     -10.963  10.121  69.487  1.00  0.00    -0.295 C  
HETATM    4  H   UNL     1     -10.653   9.816  66.250  1.00  0.00     0.000 HD 
HETATM    5  C   UNL     1     -11.303  11.542  69.510  1.00  0.00    -0.342 C  
HETATM    6  C   UNL     1     -11.424  12.276  68.391  1.00  0.00    -0.356 C  
HETATM    7  O   UNL     1     -11.315  12.197  66.011  1.00  0.00    -0.329 OA 
HETATM    8  C   UNL     1     -11.752  13.654  68.431  1.00  0.00    -0.358 C  
HETATM    9  N   UNL     1     -12.021  14.781  68.525  1.00  0.00    -0.286 NA 
HETATM   10  C   UNL     1     -11.199  11.612  67.082  1.00  0.00    -0.309 C  
HETATM   11  N   UNL     1     -10.844  10.286  67.135  1.00  0.00    -0.246 N  
ENDROOT
BRANCH   3  12
HETATM   12  C   UNL     1     -10.934   9.345  70.743  1.00  0.00    -0.371 A  
HETATM   13  C   UNL     1     -12.003   8.066  72.452  1.00  0.00    -0.350 A  
HETATM   14  C   UNL     1     -12.105   8.822  71.294  1.00  0.00    -0.344 A  
HETATM   15  N   UNL     1     -10.834   7.803  73.077  1.00  0.00    -0.398 NA 
HETATM   16  C   UNL     1      -9.716   8.312  72.520  1.00  0.00    -0.298 A  
HETATM   17  C   UNL     1      -9.713   9.079  71.367  1.00  0.00    -0.369 A  
ENDBRANCH   3  12
TORSDOF 1
ENDMDL
MODEL       43
REMARK 921   NORMALIZED FREE ENERGY PREDICTED BY IDOCK:   -4.76 KCAL/MOL
REMARK 922        TOTAL FREE ENERGY PREDICTED BY IDOCK:   -5.33 KCAL/MOL
REMARK 923 INTER-LIGAND FREE ENERGY PREDICTED BY IDOCK:   -5.05 KCAL/MOL
REMARK 924 INTRA-LIGAND FREE ENERGY PREDICTED BY IDOCK:   -0.27 KCAL/MOL
REMARK 927      BINDING AFFINITY PREDICTED BY RF-SCORE:    0.00 PKD
ROOT
HETATM    1  C   UNL     1     -11.367   6.285  70.407  1.00  0.00    -0.440 C  
HETATM    2  C   UNL     1     -11.725   7.708  70.741  1.00  0.00    -0.239 C  
HETATM    3  C   UNL     1     -11.071   8.818  70.322  1.00  0.00    -0.240 C  
HETATM    4  H   UNL     1     -13.305   6.992  71.851  1.00  0.00     0.000 HD 
HETATM    5  C   UNL     1     -11.591  10.124  70.721  1.00  0.00    -0.445 C  
HETATM    6  C   UNL     1     -12.666  10.263  71.515  1.00  0.00    -0.557 C  
HETATM    7  O   UNL     1     -14.319   9.071  72.751  1.00  0.00    -0.596 OA 
HETATM    8  C   UNL     1     -13.159  11.539  71.891  1.00  0.00    -0.387 C  
HETATM    9  N   UNL     1     -13.520  12.608  72.165  1.00  0.00    -0.531 NA 
HETATM   10  C   UNL     1     -13.350   9.039  72.002  1.00  0.00    -0.438 C  
HETATM   11  N   UNL     1     -12.833   7.846  71.556  1.00  0.00    -0.325 N  
ENDROOT
BRANCH   3  12
HETATM   12  C   UNL     1      -9.833   8.726  69.522  1.00  0.00    -0.180 A  
HETATM   13  C   UNL     1      -7.458   8.597  69.329  1.00  0.00    -0.082 A  
HETATM   14  C   UNL     1      -8.578   8.731  70.133  1.00  0.00    -0.149 A  
HETATM   15  N   UNL     1      -7.509   8.460  67.986  1.00  0.00    -0.096 NA 
HETATM   16  C   UNL     1      -8.733   8.449  67.420  1.00  0.00    -0.135 A  
HETATM   17  C   UNL     1      -9.911   8.577  68.136  1.00  0.00    -0.214 A  
ENDBRANCH   3  12
TORSDOF 1
ENDMDL
MODEL       44
REMARK 921   NORMALIZED FREE ENERGY PREDICTED BY IDOCK:   -4.72 KCAL/MOL
REMARK 922        TOTAL FREE ENERGY PREDICTED BY IDOCK:   -5.29 KCAL/MOL
REMARK 923 INTER-LIGAND FREE ENERGY PREDICTED BY IDOCK:   -5.03 KCAL/MOL
REMARK 924 INTRA-LIGAND FREE ENERGY PREDICTED BY IDOCK:   -0.26 KCAL/MOL
REMARK 927      BINDING AFFINITY PREDICTED BY RF-SCORE:    0.00 PKD
ROOT
HETATM    1  C   UNL     1     -10.124   8.132  69.428  1.00  0.00    -0.194 C  
HETATM    2  C   UNL     1     -10.965   9.148  70.153  1.00  0.00    -0.239 C  
HETATM    3  C   UNL     1     -11.545   8.987  71.366  1.00  0.00    -0.396 C  
HETATM    4  H   UNL     1     -10.682  10.432  68.568  1.00  0.00     0.000 HD 
HETATM    5  C   UNL     1     -12.298  10.105  71.931  1.00  0.00    -0.300 C  
HETATM    6  C   UNL     1     -12.468  11.267  71.277  1.00  0.00    -0.441 C  
HETATM    7  O   UNL     1     -11.989  12.428  69.251  1.00  0.00    -0.298 OA 
HETATM    8  C   UNL     1     -13.200  12.343  71.839  1.00  0.00    -0.382 C  
HETATM    9  N   UNL     1     -13.807  13.191  72.350  1.00  0.00    -0.633 NA 
HETATM   10  C   UNL     1     -11.862  11.416  69.929  1.00  0.00    -0.359 C  
HETATM   11  N   UNL     1     -11.134  10.341  69.477  1.00  0.00    -0.248 N  
ENDROOT
BRANCH   3  12
HETATM   12  C   UNL     1     -11.468   7.703  72.092  1.00  0.00    -0.345 A  
HETATM   13  C   UNL     1     -12.124   5.433  72.427  1.00  0.00     0.233 A  
HETATM   14  C   UNL     1     -12.276   6.624  71.734  1.00  0.00    -0.400 A  
HETATM   15  N   UNL     1     -11.237   5.256  73.430  1.00  0.00    -0.295 NA 
HETATM   16  C   UNL     1     -10.461   6.312  73.753  1.00  0.00    -0.290 A  
HETATM   17  C   UNL     1     -10.537   7.542  73.121  1.00  0.00    -0.442 A  
ENDBRANCH   3  12
TORSDOF 1
ENDMDL
MODEL       45
REMARK 921   NORMALIZED FREE ENERGY PREDICTED BY IDOCK:   -4.70 KCAL/MOL
REMARK 922        TOTAL FREE ENERGY PREDICTED BY IDOCK:   -5.26 KCAL/MOL
REMARK 923 INTER-LIGAND FREE ENERGY PREDICTED BY IDOCK:   -5.17 KCAL/MOL
REMARK 924 INTRA-LIGAND FREE ENERGY PREDICTED BY IDOCK:   -0.09 KCAL/MOL
REMARK 927      BINDING AFFINITY PREDICTED BY RF-SCORE:    0.00 PKD
ROOT
HETATM    1  C   UNL     1     -12.736  10.938  71.457  1.00  0.00    -0.533 C  
HETATM    2  C   UNL     1     -11.940  10.499  70.258  1.00  0.00    -0.325 C  
HETATM    3  C   UNL     1     -11.001   9.523  70.234  1.00  0.00    -0.317 C  
HETATM    4  H   UNL     1     -12.942  11.913  69.144  1.00  0.00     0.000 HD 
HETATM    5  C   UNL     1     -10.356   9.209  68.961  1.00  0.00    -0.229 C  
HETATM    6  C   UNL     1     -10.630   9.876  67.827  1.00  0.00    -0.313 C  
HETATM    7  O   UNL     1     -11.922  11.650  66.896  1.00  0.00    -0.567 OA 
HETATM    8  C   UNL     1      -9.997   9.558  66.599  1.00  0.00    -0.247 C  
HETATM    9  N   UNL     1      -9.449   9.252  65.622  1.00  0.00    -0.258 NA 
HETATM   10  C   UNL     1     -11.631  10.972  67.875  1.00  0.00    -0.226 C  
HETATM   11  N   UNL     1     -12.228  11.186  69.094  1.00  0.00    -0.280 N  
ENDROOT
BRANCH   3  12
HETATM   12  C   UNL     1     -10.593   8.817  71.465  1.00  0.00    -0.379 A  
HETATM   13  C   UNL     1     -11.029   7.331  73.281  1.00  0.00    -0.311 A  
HETATM   14  C   UNL     1     -11.488   8.000  72.157  1.00  0.00    -0.393 A  
HETATM   15  N   UNL     1      -9.764   7.423  73.746  1.00  0.00    -0.287 NA 
HETATM   16  C   UNL     1      -8.916   8.213  73.056  1.00  0.00    -0.266 A  
HETATM   17  C   UNL     1      -9.278   8.922  71.922  1.00  0.00    -0.240 A  
ENDBRANCH   3  12
TORSDOF 1
ENDMDL
MODEL       46
REMARK 921   NORMALIZED FREE ENERGY PREDICTED BY IDOCK:   -4.67 KCAL/MOL
REMARK 922        TOTAL FREE ENERGY PREDICTED BY IDOCK:   -5.23 KCAL/MOL
REMARK 923 INTER-LIGAND FREE ENERGY PREDICTED BY IDOCK:   -4.92 KCAL/MOL
REMARK 924 INTRA-LIGAND FREE ENERGY PREDICTED BY IDOCK:   -0.31 KCAL/MOL
REMARK 927      BINDING AFFINITY PREDICTED BY RF-SCORE:    0.00 PKD
ROOT
HETATM    1  C   UNL     1     -11.207  15.509  64.625  1.00  0.00    -0.381 C  
HETATM    2  C   UNL     1     -10.886  14.099  65.042  1.00  0.00    -0.398 C  
HETATM    3  C   UNL     1     -10.688  13.665  66.310  1.00  0.00    -0.285 C  
HETATM    4  H   UNL     1     -10.951  13.555  63.057  1.00  0.00     0.000 HD 
HETATM    5  C   UNL     1     -10.422  12.244  66.525  1.00  0.00    -0.254 C  
HETATM    6  C   UNL     1     -10.329  11.364  65.514  1.00  0.00    -0.317 C  
HETATM    7  O   UNL     1     -10.411  11.134  63.143  1.00  0.00    -0.343 OA 
HETATM    8  C   UNL     1     -10.072   9.988  65.740  1.00  0.00    -0.250 C  
HETATM    9  N   UNL     1      -9.862   8.872  65.985  1.00  0.00    -0.257 NA 
HETATM   10  C   UNL     1     -10.506  11.860  64.126  1.00  0.00    -0.349 C  
HETATM   11  N   UNL     1     -10.794  13.198  63.999  1.00  0.00    -0.372 N  
ENDROOT
BRANCH   3  12
HETATM   12  C   UNL     1     -10.690  14.600  67.453  1.00  0.00    -0.280 A  
HETATM   13  C   UNL     1     -11.773  15.687  69.281  1.00  0.00    -0.375 A  
HETATM   14  C   UNL     1     -11.850  14.830  68.194  1.00  0.00    -0.318 A  
HETATM   15  N   UNL     1     -10.638  16.310  69.668  1.00  0.00    -0.310 NA 
HETATM   16  C   UNL     1      -9.529  16.065  68.941  1.00  0.00    -0.235 A  
HETATM   17  C   UNL     1      -9.503  15.228  67.838  1.00  0.00    -0.197 A  
ENDBRANCH   3  12
TORSDOF 1
ENDMDL
MODEL       47
REMARK 921   NORMALIZED FREE ENERGY PREDICTED BY IDOCK:   -4.67 KCAL/MOL
REMARK 922        TOTAL FREE ENERGY PREDICTED BY IDOCK:   -5.23 KCAL/MOL
REMARK 923 INTER-LIGAND FREE ENERGY PREDICTED BY IDOCK:   -4.93 KCAL/MOL
REMARK 924 INTRA-LIGAND FREE ENERGY PREDICTED BY IDOCK:   -0.30 KCAL/MOL
REMARK 927      BINDING AFFINITY PREDICTED BY RF-SCORE:    0.00 PKD
ROOT
HETATM    1  C   UNL     1     -10.722   5.683  73.099  1.00  0.00    -0.301 C  
HETATM    2  C   UNL     1     -10.694   5.623  71.595  1.00  0.00    -0.251 C  
HETATM    3  C   UNL     1     -11.319   6.477  70.749  1.00  0.00    -0.399 C  
HETATM    4  H   UNL     1      -9.489   3.959  71.739  1.00  0.00     0.000 HD 
HETATM    5  C   UNL     1     -11.145   6.281  69.311  1.00  0.00    -0.461 C  
HETATM    6  C   UNL     1     -10.424   5.269  68.800  1.00  0.00    -0.166 C  
HETATM    7  O   UNL     1      -9.127   3.349  69.360  1.00  0.00    -0.104 OA 
HETATM    8  C   UNL     1     -10.264   5.095  67.402  1.00  0.00    -0.172 C  
HETATM    9  N   UNL     1     -10.165   5.003  66.248  1.00  0.00    -0.249 NA 
HETATM   10  C   UNL     1      -9.778   4.316  69.738  1.00  0.00    -0.220 C  
HETATM   11  N   UNL     1      -9.949   4.582  71.075  1.00  0.00    -0.199 N  
ENDROOT
BRANCH   3  12
HETATM   12  C   UNL     1     -12.196   7.553  71.250  1.00  0.00    -0.357 A  
HETATM   13  C   UNL     1     -12.613   9.831  71.827  1.00  0.00    -0.416 A  
HETATM   14  C   UNL     1     -11.725   8.859  71.393  1.00  0.00    -0.385 A  
HETATM   15  N   UNL     1     -13.909   9.589  72.118  1.00  0.00    -0.362 NA 
HETATM   16  C   UNL     1     -14.343   8.321  71.964  1.00  0.00    -0.450 A  
HETATM   17  C   UNL     1     -13.536   7.280  71.538  1.00  0.00    -0.439 A  
ENDBRANCH   3  12
TORSDOF 1
ENDMDL
MODEL       48
REMARK 921   NORMALIZED FREE ENERGY PREDICTED BY IDOCK:   -4.65 KCAL/MOL
REMARK 922        TOTAL FREE ENERGY PREDICTED BY IDOCK:   -5.21 KCAL/MOL
REMARK 923 INTER-LIGAND FREE ENERGY PREDICTED BY IDOCK:   -4.92 KCAL/MOL
REMARK 924 INTRA-LIGAND FREE ENERGY PREDICTED BY IDOCK:   -0.28 KCAL/MOL
REMARK 927      BINDING AFFINITY PREDICTED BY RF-SCORE:    0.00 PKD
ROOT
HETATM    1  C   UNL     1     -12.279  13.570  70.184  1.00  0.00    -0.400 C  
HETATM    2  C   UNL     1     -12.000  12.091  70.170  1.00  0.00    -0.321 C  
HETATM    3  C   UNL     1     -11.322  11.413  69.212  1.00  0.00    -0.355 C  
HETATM    4  H   UNL     1     -13.008  11.939  71.959  1.00  0.00     0.000 HD 
HETATM    5  C   UNL     1     -11.118   9.977  69.389  1.00  0.00    -0.265 C  
HETATM    6  C   UNL     1     -11.609   9.300  70.441  1.00  0.00    -0.215 C  
HETATM    7  O   UNL     1     -12.893   9.506  72.438  1.00  0.00    -0.363 OA 
HETATM    8  C   UNL     1     -11.399   7.907  70.599  1.00  0.00    -0.259 C  
HETATM    9  N   UNL     1     -11.195   6.766  70.677  1.00  0.00    -0.291 NA 
HETATM   10  C   UNL     1     -12.386  10.047  71.463  1.00  0.00    -0.419 C  
HETATM   11  N   UNL     1     -12.505  11.400  71.255  1.00  0.00    -0.350 N  
ENDROOT
BRANCH   3  12
HETATM   12  C   UNL     1     -10.837  12.086  67.991  1.00  0.00    -0.254 A  
HETATM   13  C   UNL     1     -11.139  12.858  65.753  1.00  0.00    -0.284 A  
HETATM   14  C   UNL     1     -11.637  12.175  66.851  1.00  0.00    -0.408 A  
HETATM   15  N   UNL     1      -9.923  13.446  65.721  1.00  0.00    -0.277 NA 
HETATM   16  C   UNL     1      -9.172  13.354  66.838  1.00  0.00    -0.248 A  
HETATM   17  C   UNL     1      -9.579  12.693  67.985  1.00  0.00    -0.213 A  
ENDBRANCH   3  12
TORSDOF 1
ENDMDL
MODEL       49
REMARK 921   NORMALIZED FREE ENERGY PREDICTED BY IDOCK:   -4.64 KCAL/MOL
REMARK 922        TOTAL FREE ENERGY PREDICTED BY IDOCK:   -5.20 KCAL/MOL
REMARK 923 INTER-LIGAND FREE ENERGY PREDICTED BY IDOCK:   -4.93 KCAL/MOL
REMARK 924 INTRA-LIGAND FREE ENERGY PREDICTED BY IDOCK:   -0.26 KCAL/MOL
REMARK 927      BINDING AFFINITY PREDICTED BY RF-SCORE:    0.00 PKD
ROOT
HETATM    1  C   UNL     1      -8.696  13.454  67.255  1.00  0.00    -0.219 C  
HETATM    2  C   UNL     1      -9.252  12.102  67.612  1.00  0.00    -0.181 C  
HETATM    3  C   UNL     1     -10.297  11.483  67.013  1.00  0.00    -0.254 C  
HETATM    4  H   UNL     1      -7.818  11.962  69.084  1.00  0.00     0.000 HD 
HETATM    5  C   UNL     1     -10.672  10.148  67.475  1.00  0.00    -0.347 C  
HETATM    6  C   UNL     1     -10.047   9.531  68.492  1.00  0.00    -0.198 C  
HETATM    7  O   UNL     1      -8.321   9.762  70.120  1.00  0.00    -0.181 OA 
HETATM    8  C   UNL     1     -10.422   8.234  68.926  1.00  0.00    -0.191 C  
HETATM    9  N   UNL     1     -10.770   7.171  69.237  1.00  0.00    -0.227 NA 
HETATM   10  C   UNL     1      -8.929  10.237  69.167  1.00  0.00    -0.180 C  
HETATM   11  N   UNL     1      -8.603  11.471  68.657  1.00  0.00    -0.142 N  
ENDROOT
BRANCH   3  12
HETATM   12  C   UNL     1     -11.080  12.147  65.951  1.00  0.00    -0.360 A  
HETATM   13  C   UNL     1     -12.719  13.717  65.216  1.00  0.00    -0.439 A  
HETATM   14  C   UNL     1     -12.051  13.099  66.261  1.00  0.00    -0.460 A  
HETATM   15  N   UNL     1     -12.483  13.453  63.913  1.00  0.00    -0.699 NA 
HETATM   16  C   UNL     1     -11.534  12.535  63.638  1.00  0.00    -0.493 A  
HETATM   17  C   UNL     1     -10.812  11.862  64.610  1.00  0.00    -0.363 A  
ENDBRANCH   3  12
TORSDOF 1
ENDMDL
MODEL       50
REMARK 921   NORMALIZED FREE ENERGY PREDICTED BY IDOCK:   -4.62 KCAL/MOL
REMARK 922        TOTAL FREE ENERGY PREDICTED BY IDOCK:   -5.18 KCAL/MOL
REMARK 923 INTER-LIGAND FREE ENERGY PREDICTED BY IDOCK:   -4.96 KCAL/MOL
REMARK 924 INTRA-LIGAND FREE ENERGY PREDICTED BY IDOCK:   -0.22 KCAL/MOL
REMARK 927      BINDING AFFINITY PREDICTED BY RF-SCORE:    0.00 PKD
ROOT
HETATM    1  C   UNL     1     -11.054  15.682  64.906  1.00  0.00    -0.414 C  
HETATM    2  C   UNL     1     -10.781  14.258  65.308  1.00  0.00    -0.366 C  
HETATM    3  C   UNL     1     -10.661  13.793  66.575  1.00  0.00    -0.279 C  
HETATM    4  H   UNL     1     -10.744  13.759  63.311  1.00  0.00     0.000 HD 
HETATM    5  C   UNL     1     -10.431  12.363  66.772  1.00  0.00    -0.242 C  
HETATM    6  C   UNL     1     -10.296  11.504  65.748  1.00  0.00    -0.295 C  
HETATM    7  O   UNL     1     -10.250  11.327  63.371  1.00  0.00    -0.346 OA 
HETATM    8  C   UNL     1     -10.076  10.119  65.956  1.00  0.00    -0.248 C  
HETATM    9  N   UNL     1      -9.899   8.994  66.187  1.00  0.00    -0.286 NA 
HETATM   10  C   UNL     1     -10.388  12.033  64.363  1.00  0.00    -0.305 C  
HETATM   11  N   UNL     1     -10.645  13.378  64.251  1.00  0.00    -0.402 N  
ENDROOT
BRANCH   3  12
HETATM   12  C   UNL     1     -10.710  14.703  67.737  1.00  0.00    -0.265 A  
HETATM   13  C   UNL     1      -9.769  16.409  69.115  1.00  0.00    -0.260 A  
HETATM   14  C   UNL     1      -9.641  15.548  68.036  1.00  0.00    -0.203 A  
HETATM   15  N   UNL     1     -10.870  16.479  69.894  1.00  0.00    -0.334 NA 
HETATM   16  C   UNL     1     -11.893  15.658  69.580  1.00  0.00    -0.372 A  
HETATM   17  C   UNL     1     -11.863  14.763  68.524  1.00  0.00    -0.340 A  
ENDBRANCH   3  12
TORSDOF 1
ENDMDL
MODEL       51
REMARK 921   NORMALIZED FREE ENERGY PREDICTED BY IDOCK:   -4.62 KCAL/MOL
REMARK 922        TOTAL FREE ENERGY PREDICTED BY IDOCK:   -5.17 KCAL/MOL
REMARK 923 INTER-LIGAND FREE ENERGY PREDICTED BY IDOCK:   -4.94 KCAL/MOL
REMARK 924 INTRA-LIGAND FREE ENERGY PREDICTED BY IDOCK:   -0.23 KCAL/MOL
REMARK 927      BINDING AFFINITY PREDICTED BY RF-SCORE:    0.00 PKD
ROOT
HETATM    1  C   UNL     1      -8.239   9.590  69.694  1.00  0.00    -0.143 C  
HETATM    2  C   UNL     1      -9.623   9.561  70.284  1.00  0.00    -0.265 C  
HETATM    3  C   UNL     1     -10.714  10.200  69.799  1.00  0.00    -0.317 C  
HETATM    4  H   UNL     1      -8.904   8.326  71.768  1.00  0.00     0.000 HD 
HETATM    5  C   UNL     1     -11.989  10.023  70.491  1.00  0.00    -0.357 C  
HETATM    6  C   UNL     1     -12.111   9.285  71.606  1.00  0.00    -0.451 C  
HETATM    7  O   UNL     1     -10.912   7.953  73.179  1.00  0.00    -0.383 OA 
HETATM    8  C   UNL     1     -13.356   9.121  72.264  1.00  0.00    -0.477 C  
HETATM    9  N   UNL     1     -14.402   9.020  72.759  1.00  0.00    -0.518 NA 
HETATM   10  C   UNL     1     -10.899   8.622  72.152  1.00  0.00    -0.354 C  
HETATM   11  N   UNL     1      -9.743   8.798  71.430  1.00  0.00    -0.253 N  
ENDROOT
BRANCH   3  12
HETATM   12  C   UNL     1     -10.623  11.097  68.629  1.00  0.00    -0.222 A  
HETATM   13  C   UNL     1     -11.060  11.624  66.343  1.00  0.00    -0.291 A  
HETATM   14  C   UNL     1     -11.139  10.718  67.389  1.00  0.00    -0.363 A  
HETATM   15  N   UNL     1     -10.515  12.855  66.454  1.00  0.00    -0.263 NA 
HETATM   16  C   UNL     1     -10.031  13.201  67.664  1.00  0.00    -0.219 A  
HETATM   17  C   UNL     1     -10.061  12.368  68.770  1.00  0.00    -0.068 A  
ENDBRANCH   3  12
TORSDOF 1
ENDMDL
MODEL       52
REMARK 921   NORMALIZED FREE ENERGY PREDICTED BY IDOCK:   -4.60 KCAL/MOL
REMARK 922        TOTAL FREE ENERGY PREDICTED BY IDOCK:   -5.15 KCAL/MOL
REMARK 923 INTER-LIGAND FREE ENERGY PREDICTED BY IDOCK:   -4.84 KCAL/MOL
REMARK 924 INTRA-LIGAND FREE ENERGY PREDICTED BY IDOCK:   -0.31 KCAL/MOL
REMARK 927      BINDING AFFINITY PREDICTED BY RF-SCORE:    0.00 PKD
ROOT
HETATM    1  C   UNL     1      -9.035  18.270  67.304  1.00  0.00    -0.259 C  
HETATM    2  C   UNL     1      -9.460  17.018  66.584  1.00  0.00    -0.263 C  
HETATM    3  C   UNL     1      -8.990  15.768  66.808  1.00  0.00    -0.289 C  
HETATM    4  H   UNL     1     -10.756  18.166  65.468  1.00  0.00     0.000 HD 
HETATM    5  C   UNL     1      -9.552  14.664  66.032  1.00  0.00    -0.322 C  
HETATM    6  C   UNL     1     -10.484  14.849  65.082  1.00  0.00    -0.442 C  
HETATM    7  O   UNL     1     -11.788  16.494  63.952  1.00  0.00    -1.059 OA 
HETATM    8  C   UNL     1     -11.021  13.767  64.339  1.00  0.00    -0.343 C  
HETATM    9  N   UNL     1     -11.426  12.843  63.763  1.00  0.00    -0.443 NA 
HETATM   10  C   UNL     1     -10.961  16.230  64.817  1.00  0.00    -0.272 C  
HETATM   11  N   UNL     1     -10.420  17.214  65.610  1.00  0.00    -0.277 N  
ENDROOT
BRANCH   3  12
HETATM   12  C   UNL     1      -7.903  15.515  67.775  1.00  0.00    -0.158 A  
HETATM   13  C   UNL     1      -7.115  14.917  69.947  1.00  0.00    -0.109 A  
HETATM   14  C   UNL     1      -8.181  15.184  69.102  1.00  0.00    -0.214 A  
HETATM   15  N   UNL     1      -5.822  14.956  69.561  1.00  0.00    -0.099 NA 
HETATM   16  C   UNL     1      -5.579  15.270  68.271  1.00  0.00    -0.121 A  
HETATM   17  C   UNL     1      -6.573  15.554  67.350  1.00  0.00    -0.174 A  
ENDBRANCH   3  12
TORSDOF 1
ENDMDL
MODEL       53
REMARK 921   NORMALIZED FREE ENERGY PREDICTED BY IDOCK:   -4.59 KCAL/MOL
REMARK 922        TOTAL FREE ENERGY PREDICTED BY IDOCK:   -5.14 KCAL/MOL
REMARK 923 INTER-LIGAND FREE ENERGY PREDICTED BY IDOCK:   -4.97 KCAL/MOL
REMARK 924 INTRA-LIGAND FREE ENERGY PREDICTED BY IDOCK:   -0.18 KCAL/MOL
REMARK 927      BINDING AFFINITY PREDICTED BY RF-SCORE:    0.00 PKD
ROOT
HETATM    1  C   UNL     1     -10.648   9.420  67.122  1.00  0.00    -0.294 C  
HETATM    2  C   UNL     1     -10.689  10.898  67.406  1.00  0.00    -0.257 C  
HETATM    3  C   UNL     1     -10.957  11.477  68.601  1.00  0.00    -0.270 C  
HETATM    4  H   UNL     1     -10.222  11.234  65.428  1.00  0.00     0.000 HD 
HETATM    5  C   UNL     1     -10.915  12.935  68.693  1.00  0.00    -0.295 C  
HETATM    6  C   UNL     1     -10.659  13.719  67.632  1.00  0.00    -0.244 C  
HETATM    7  O   UNL     1     -10.194  13.713  65.294  1.00  0.00    -0.326 OA 
HETATM    8  C   UNL     1     -10.619  15.133  67.739  1.00  0.00    -0.264 C  
HETATM    9  N   UNL     1     -10.597  16.285  67.885  1.00  0.00    -0.309 NA 
HETATM   10  C   UNL     1     -10.408  13.074  66.318  1.00  0.00    -0.285 C  
HETATM   11  N   UNL     1     -10.423  11.700  66.312  1.00  0.00    -0.238 N  
ENDROOT
BRANCH   3  12
HETATM   12  C   UNL     1     -11.332  10.670  69.780  1.00  0.00    -0.371 A  
HETATM   13  C   UNL     1     -10.796   9.194  71.576  1.00  0.00    -0.366 A  
HETATM   14  C   UNL     1     -10.388   9.893  70.451  1.00  0.00    -0.322 A  
HETATM   15  N   UNL     1     -12.055   9.223  72.063  1.00  0.00    -0.359 NA 
HETATM   16  C   UNL     1     -12.948   9.989  71.402  1.00  0.00    -0.418 A  
HETATM   17  C   UNL     1     -12.639  10.723  70.269  1.00  0.00    -0.350 A  
ENDBRANCH   3  12
TORSDOF 1
ENDMDL
MODEL       54
REMARK 921   NORMALIZED FREE ENERGY PREDICTED BY IDOCK:   -4.56 KCAL/MOL
REMARK 922        TOTAL FREE ENERGY PREDICTED BY IDOCK:   -5.12 KCAL/MOL
REMARK 923 INTER-LIGAND FREE ENERGY PREDICTED BY IDOCK:   -4.83 KCAL/MOL
REMARK 924 INTRA-LIGAND FREE ENERGY PREDICTED BY IDOCK:   -0.29 KCAL/MOL
REMARK 927      BINDING AFFINITY PREDICTED BY RF-SCORE:    0.00 PKD
ROOT
HETATM    1  C   UNL     1     -11.827  12.821  69.083  1.00  0.00    -0.352 C  
HETATM    2  C   UNL     1     -11.287  11.593  68.402  1.00  0.00    -0.279 C  
HETATM    3  C   UNL     1     -10.923  11.494  67.100  1.00  0.00    -0.338 C  
HETATM    4  H   UNL     1     -11.451  10.594  70.195  1.00  0.00     0.000 HD 
HETATM    5  C   UNL     1     -10.383  10.222  66.624  1.00  0.00    -0.283 C  
HETATM    6  C   UNL     1     -10.270   9.142  67.415  1.00  0.00    -0.310 C  
HETATM    7  O   UNL     1     -10.671   8.310  69.613  1.00  0.00    -0.230 OA 
HETATM    8  C   UNL     1      -9.741   7.916  66.938  1.00  0.00    -0.219 C  
HETATM    9  N   UNL     1      -9.299   6.938  66.494  1.00  0.00    -0.163 NA 
HETATM   10  C   UNL     1     -10.711   9.251  68.829  1.00  0.00    -0.154 C  
HETATM   11  N   UNL     1     -11.171  10.485  69.220  1.00  0.00    -0.246 N  
ENDROOT
BRANCH   3  12
HETATM   12  C   UNL     1     -11.107  12.619  66.162  1.00  0.00    -0.327 A  
HETATM   13  C   UNL     1     -12.422  13.878  64.619  1.00  0.00    -0.325 A  
HETATM   14  C   UNL     1     -12.297  12.777  65.451  1.00  0.00    -0.528 A  
HETATM   15  N   UNL     1     -11.458  14.811  64.458  1.00  0.00    -0.360 NA 
HETATM   16  C   UNL     1     -10.321  14.642  65.163  1.00  0.00    -0.403 A  
HETATM   17  C   UNL     1     -10.099  13.575  66.018  1.00  0.00    -0.316 A  
ENDBRANCH   3  12
TORSDOF 1
ENDMDL
MODEL       55
REMARK 921   NORMALIZED FREE ENERGY PREDICTED BY IDOCK:   -4.56 KCAL/MOL
REMARK 922        TOTAL FREE ENERGY PREDICTED BY IDOCK:   -5.11 KCAL/MOL
REMARK 923 INTER-LIGAND FREE ENERGY PREDICTED BY IDOCK:   -5.00 KCAL/MOL
REMARK 924 INTRA-LIGAND FREE ENERGY PREDICTED BY IDOCK:   -0.11 KCAL/MOL
REMARK 927      BINDING AFFINITY PREDICTED BY RF-SCORE:    0.00 PKD
ROOT
HETATM    1  C   UNL     1     -11.994  15.518  69.937  1.00  0.00    -0.381 C  
HETATM    2  C   UNL     1     -11.516  14.644  68.808  1.00  0.00    -0.296 C  
HETATM    3  C   UNL     1     -10.658  15.006  67.824  1.00  0.00    -0.264 C  
HETATM    4  H   UNL     1     -12.670  13.119  69.574  1.00  0.00     0.000 HD 
HETATM    5  C   UNL     1     -10.279  14.004  66.830  1.00  0.00    -0.264 C  
HETATM    6  C   UNL     1     -10.777  12.756  66.833  1.00  0.00    -0.272 C  
HETATM    7  O   UNL     1     -12.272  11.278  67.956  1.00  0.00    -0.621 OA 
HETATM    8  C   UNL     1     -10.396  11.795  65.862  1.00  0.00    -0.241 C  
HETATM    9  N   UNL     1     -10.047  11.050  65.043  1.00  0.00    -0.275 NA 
HETATM   10  C   UNL     1     -11.748  12.384  67.893  1.00  0.00    -0.360 C  
HETATM   11  N   UNL     1     -12.029  13.361  68.818  1.00  0.00    -0.343 N  
ENDROOT
BRANCH   3  12
HETATM   12  C   UNL     1     -10.149  16.387  67.717  1.00  0.00    -0.262 A  
HETATM   13  C   UNL     1     -10.089  18.533  66.673  1.00  0.00    -0.389 A  
HETATM   14  C   UNL     1     -10.573  17.234  66.692  1.00  0.00    -0.179 A  
HETATM   15  N   UNL     1      -9.232  19.029  67.592  1.00  0.00    -0.291 NA 
HETATM   16  C   UNL     1      -8.843  18.194  68.577  1.00  0.00    -0.299 A  
HETATM   17  C   UNL     1      -9.269  16.880  68.683  1.00  0.00    -0.265 A  
ENDBRANCH   3  12
TORSDOF 1
ENDMDL
MODEL       56
REMARK 921   NORMALIZED FREE ENERGY PREDICTED BY IDOCK:   -4.53 KCAL/MOL
REMARK 922        TOTAL FREE ENERGY PREDICTED BY IDOCK:   -5.08 KCAL/MOL
REMARK 923 INTER-LIGAND FREE ENERGY PREDICTED BY IDOCK:   -5.11 KCAL/MOL
REMARK 924 INTRA-LIGAND FREE ENERGY PREDICTED BY IDOCK:    0.03 KCAL/MOL
REMARK 927      BINDING AFFINITY PREDICTED BY RF-SCORE:    0.00 PKD
ROOT
HETATM    1  C   UNL     1     -10.331  10.634  69.241  1.00  0.00    -0.240 C  
HETATM    2  C   UNL     1     -10.742  11.317  67.964  1.00  0.00    -0.203 C  
HETATM    3  C   UNL     1     -10.631  10.809  66.713  1.00  0.00    -0.307 C  
HETATM    4  H   UNL     1     -11.351  12.931  69.089  1.00  0.00     0.000 HD 
HETATM    5  C   UNL     1     -11.122  11.609  65.592  1.00  0.00    -0.308 C  
HETATM    6  C   UNL     1     -11.641  12.838  65.752  1.00  0.00    -0.419 C  
HETATM    7  O   UNL     1     -12.152  14.522  67.360  1.00  0.00    -0.380 OA 
HETATM    8  C   UNL     1     -12.115  13.600  64.654  1.00  0.00    -0.412 C  
HETATM    9  N   UNL     1     -12.490  14.177  63.718  1.00  0.00    -0.806 NA 
HETATM   10  C   UNL     1     -11.719  13.400  67.125  1.00  0.00    -0.379 C  
HETATM   11  N   UNL     1     -11.278  12.580  68.135  1.00  0.00    -0.247 N  
ENDROOT
BRANCH   3  12
HETATM   12  C   UNL     1      -9.988   9.503  66.467  1.00  0.00    -0.329 A  
HETATM   13  C   UNL     1      -8.263   8.153  65.521  1.00  0.00    -0.144 A  
HETATM   14  C   UNL     1      -8.842   9.402  65.677  1.00  0.00    -0.208 A  
HETATM   15  N   UNL     1      -8.742   7.026  66.091  1.00  0.00    -0.142 NA 
HETATM   16  C   UNL     1      -9.846   7.150  66.856  1.00  0.00    -0.208 A  
HETATM   17  C   UNL     1     -10.498   8.353  67.073  1.00  0.00    -0.375 A  
ENDBRANCH   3  12
TORSDOF 1
ENDMDL
MODEL       57
REMARK 921   NORMALIZED FREE ENERGY PREDICTED BY IDOCK:   -4.52 KCAL/MOL
REMARK 922        TOTAL FREE ENERGY PREDICTED BY IDOCK:   -5.07 KCAL/MOL
REMARK 923 INTER-LIGAND FREE ENERGY PREDICTED BY IDOCK:   -5.75 KCAL/MOL
REMARK 924 INTRA-LIGAND FREE ENERGY PREDICTED BY IDOCK:    0.68 KCAL/MOL
REMARK 927      BINDING AFFINITY PREDICTED BY RF-SCORE:    0.00 PKD
ROOT
HETATM    1  C   UNL     1     -11.414  11.606  67.323  1.00  0.00    -0.350 C  
HETATM    2  C   UNL     1     -11.302  13.092  67.533  1.00  0.00    -0.298 C  
HETATM    3  C   UNL     1     -11.583  13.762  68.676  1.00  0.00    -0.369 C  
HETATM    4  H   UNL     1     -10.664  13.264  65.583  1.00  0.00     0.000 HD 
HETATM    5  C   UNL     1     -11.377  15.209  68.703  1.00  0.00    -0.322 C  
HETATM    6  C   UNL     1     -10.959  15.900  67.629  1.00  0.00    -0.298 C  
HETATM    7  O   UNL     1     -10.338  15.713  65.336  1.00  0.00    -0.355 OA 
HETATM    8  C   UNL     1     -10.763  17.304  67.672  1.00  0.00    -0.307 C  
HETATM    9  N   UNL     1     -10.617  18.453  67.766  1.00  0.00    -0.411 NA 
HETATM   10  C   UNL     1     -10.695  15.160  66.369  1.00  0.00    -0.317 C  
HETATM   11  N   UNL     1     -10.870  13.798  66.427  1.00  0.00    -0.286 N  
ENDROOT
BRANCH   3  12
HETATM   12  C   UNL     1     -12.130  13.070  69.860  1.00  0.00    -0.347 A  
HETATM   13  C   UNL     1     -13.309  13.062  71.935  1.00  0.00    -0.446 A  
HETATM   14  C   UNL     1     -12.780  13.777  70.872  1.00  0.00    -0.394 A  
HETATM   15  N   UNL     1     -13.235  11.718  72.047  1.00  0.00    -0.464 NA 
HETATM   16  C   UNL     1     -12.610  11.055  71.052  1.00  0.00    -0.411 A  
HETATM   17  C   UNL     1     -12.048  11.678  69.950  1.00  0.00    -0.373 A  
ENDBRANCH   3  12
TORSDOF 1
ENDMDL
MODEL       58
REMARK 921   NORMALIZED FREE ENERGY PREDICTED BY IDOCK:   -4.51 KCAL/MOL
REMARK 922        TOTAL FREE ENERGY PREDICTED BY IDOCK:   -5.06 KCAL/MOL
REMARK 923 INTER-LIGAND FREE ENERGY PREDICTED BY IDOCK:   -4.89 KCAL/MOL
REMARK 924 INTRA-LIGAND FREE ENERGY PREDICTED BY IDOCK:   -0.17 KCAL/MOL
REMARK 927      BINDING AFFINITY PREDICTED BY RF-SCORE:    0.00 PKD
ROOT
HETATM    1  C   UNL     1      -8.857  10.690  62.897  1.00  0.00    -0.252 C  
HETATM    2  C   UNL     1      -9.297  10.181  64.243  1.00  0.00    -0.295 C  
HETATM    3  C   UNL     1     -10.258  10.722  65.029  1.00  0.00    -0.373 C  
HETATM    4  H   UNL     1      -7.911   8.668  64.061  1.00  0.00     0.000 HD 
HETATM    5  C   UNL     1     -10.575  10.063  66.294  1.00  0.00    -0.115 C  
HETATM    6  C   UNL     1      -9.925   8.967  66.722  1.00  0.00    -0.332 C  
HETATM    7  O   UNL     1      -8.182   7.429  66.195  1.00  0.00    -0.116 OA 
HETATM    8  C   UNL     1     -10.246   8.338  67.952  1.00  0.00    -0.220 C  
HETATM    9  N   UNL     1     -10.554   7.864  68.966  1.00  0.00    -0.200 NA 
HETATM   10  C   UNL     1      -8.845   8.407  65.871  1.00  0.00    -0.175 C  
HETATM   11  N   UNL     1      -8.627   9.053  64.677  1.00  0.00    -0.178 N  
ENDROOT
BRANCH   3  12
HETATM   12  C   UNL     1     -10.944  11.975  64.654  1.00  0.00    -0.367 A  
HETATM   13  C   UNL     1     -12.517  13.202  63.344  1.00  0.00    -0.242 A  
HETATM   14  C   UNL     1     -11.877  12.003  63.617  1.00  0.00    -0.602 A  
HETATM   15  N   UNL     1     -12.291  14.346  64.026  1.00  0.00    -0.748 NA 
HETATM   16  C   UNL     1     -11.391  14.292  65.029  1.00  0.00    -0.365 A  
HETATM   17  C   UNL     1     -10.699  13.144  65.378  1.00  0.00    -0.308 A  
ENDBRANCH   3  12
TORSDOF 1
ENDMDL
MODEL       59
REMARK 921   NORMALIZED FREE ENERGY PREDICTED BY IDOCK:   -4.50 KCAL/MOL
REMARK 922        TOTAL FREE ENERGY PREDICTED BY IDOCK:   -5.05 KCAL/MOL
REMARK 923 INTER-LIGAND FREE ENERGY PREDICTED BY IDOCK:   -4.82 KCAL/MOL
REMARK 924 INTRA-LIGAND FREE ENERGY PREDICTED BY IDOCK:   -0.24 KCAL/MOL
REMARK 927      BINDING AFFINITY PREDICTED BY RF-SCORE:    0.00 PKD
ROOT
HETATM    1  C   UNL     1      -9.675  14.694  67.487  1.00  0.00    -0.210 C  
HETATM    2  C   UNL     1     -10.639  14.254  68.555  1.00  0.00    -0.257 C  
HETATM    3  C   UNL     1     -11.063  12.987  68.778  1.00  0.00    -0.311 C  
HETATM    4  H   UNL     1     -10.771  16.216  69.167  1.00  0.00     0.000 HD 
HETATM    5  C   UNL     1     -11.978  12.746  69.892  1.00  0.00    -0.368 C  
HETATM    6  C   UNL     1     -12.442  13.735  70.675  1.00  0.00    -0.429 C  
HETATM    7  O   UNL     1     -12.396  16.090  71.039  1.00  0.00    -0.399 OA 
HETATM    8  C   UNL     1     -13.327  13.483  71.754  1.00  0.00    -0.397 C  
HETATM    9  N   UNL     1     -14.049  13.218  72.624  1.00  0.00    -0.674 NA 
HETATM   10  C   UNL     1     -12.002  15.125  70.394  1.00  0.00    -0.320 C  
HETATM   11  N   UNL     1     -11.111  15.274  69.359  1.00  0.00    -0.262 N  
ENDROOT
BRANCH   3  12
HETATM   12  C   UNL     1     -10.658  11.873  67.897  1.00  0.00    -0.229 A  
HETATM   13  C   UNL     1     -10.765  10.676  65.835  1.00  0.00    -0.035 A  
HETATM   14  C   UNL     1     -11.220  11.717  66.629  1.00  0.00    -0.383 A  
HETATM   15  N   UNL     1      -9.806   9.805  66.216  1.00  0.00    -0.232 NA 
HETATM   16  C   UNL     1      -9.272   9.982  67.442  1.00  0.00    -0.137 A  
HETATM   17  C   UNL     1      -9.659  10.989  68.310  1.00  0.00    -0.172 A  
ENDBRANCH   3  12
TORSDOF 1
ENDMDL
MODEL       60
REMARK 921   NORMALIZED FREE ENERGY PREDICTED BY IDOCK:   -4.49 KCAL/MOL
REMARK 922        TOTAL FREE ENERGY PREDICTED BY IDOCK:   -5.04 KCAL/MOL
REMARK 923 INTER-LIGAND FREE ENERGY PREDICTED BY IDOCK:   -4.84 KCAL/MOL
REMARK 924 INTRA-LIGAND FREE ENERGY PREDICTED BY IDOCK:   -0.20 KCAL/MOL
REMARK 927      BINDING AFFINITY PREDICTED BY RF-SCORE:    0.00 PKD
ROOT
HETATM    1  C   UNL     1     -10.483  19.710  68.078  1.00  0.00    -0.537 C  
HETATM    2  C   UNL     1      -9.823  18.368  67.904  1.00  0.00    -0.329 C  
HETATM    3  C   UNL     1      -8.491  18.123  67.920  1.00  0.00    -0.259 C  
HETATM    4  H   UNL     1     -11.697  17.535  67.706  1.00  0.00     0.000 HD 
HETATM    5  C   UNL     1      -8.037  16.742  67.771  1.00  0.00    -0.186 C  
HETATM    6  C   UNL     1      -8.885  15.717  67.580  1.00  0.00    -0.196 C  
HETATM    7  O   UNL     1     -11.182  15.137  67.324  1.00  0.00    -0.329 OA 
HETATM    8  C   UNL     1      -8.427  14.382  67.439  1.00  0.00    -0.203 C  
HETATM    9  N   UNL     1      -7.996  13.309  67.332  1.00  0.00    -0.178 NA 
HETATM   10  C   UNL     1     -10.341  16.005  67.522  1.00  0.00    -0.287 C  
HETATM   11  N   UNL     1     -10.700  17.318  67.710  1.00  0.00    -0.361 N  
ENDROOT
BRANCH   3  12
HETATM   12  C   UNL     1      -7.508  19.218  68.037  1.00  0.00    -0.312 A  
HETATM   13  C   UNL     1      -6.380  21.134  67.168  1.00  0.00    -0.343 A  
HETATM   14  C   UNL     1      -7.284  20.101  66.979  1.00  0.00    -0.295 A  
HETATM   15  N   UNL     1      -5.703  21.338  68.319  1.00  0.00    -0.311 NA 
HETATM   16  C   UNL     1      -5.943  20.477  69.330  1.00  0.00    -0.348 A  
HETATM   17  C   UNL     1      -6.826  19.414  69.240  1.00  0.00    -0.367 A  
ENDBRANCH   3  12
TORSDOF 1
ENDMDL
MODEL       61
REMARK 921   NORMALIZED FREE ENERGY PREDICTED BY IDOCK:   -4.46 KCAL/MOL
REMARK 922        TOTAL FREE ENERGY PREDICTED BY IDOCK:   -5.01 KCAL/MOL
REMARK 923 INTER-LIGAND FREE ENERGY PREDICTED BY IDOCK:   -4.91 KCAL/MOL
REMARK 924 INTRA-LIGAND FREE ENERGY PREDICTED BY IDOCK:   -0.10 KCAL/MOL
REMARK 927      BINDING AFFINITY PREDICTED BY RF-SCORE:    0.00 PKD
ROOT
HETATM    1  C   UNL     1     -14.379   8.597  71.428  1.00  0.00    -0.332 C  
HETATM    2  C   UNL     1     -12.908   8.340  71.612  1.00  0.00    -0.329 C  
HETATM    3  C   UNL     1     -11.925   9.271  71.601  1.00  0.00    -0.448 C  
HETATM    4  H   UNL     1     -13.340   6.336  71.810  1.00  0.00     0.000 HD 
HETATM    5  C   UNL     1     -10.550   8.834  71.835  1.00  0.00    -0.425 C  
HETATM    6  C   UNL     1     -10.222   7.544  72.020  1.00  0.00    -0.234 C  
HETATM    7  O   UNL     1     -11.092   5.328  72.119  1.00  0.00    -0.207 OA 
HETATM    8  C   UNL     1      -8.883   7.137  72.247  1.00  0.00    -0.128 C  
HETATM    9  N   UNL     1      -7.770   6.861  72.432  1.00  0.00    -0.095 NA 
HETATM   10  C   UNL     1     -11.304   6.527  71.987  1.00  0.00    -0.285 C  
HETATM   11  N   UNL     1     -12.576   7.012  71.804  1.00  0.00    -0.356 N  
ENDROOT
BRANCH   3  12
HETATM   12  C   UNL     1     -12.212  10.691  71.314  1.00  0.00    -0.447 A  
HETATM   13  C   UNL     1     -13.174  12.800  71.884  1.00  0.00    -0.412 A  
HETATM   14  C   UNL     1     -12.977  11.462  72.191  1.00  0.00    -0.210 A  
HETATM   15  N   UNL     1     -12.665  13.402  70.787  1.00  0.00    -0.269 NA 
HETATM   16  C   UNL     1     -11.923  12.637  69.960  1.00  0.00    -0.306 A  
HETATM   17  C   UNL     1     -11.670  11.293  70.177  1.00  0.00    -0.429 A  
ENDBRANCH   3  12
TORSDOF 1
ENDMDL
MODEL       62
REMARK 921   NORMALIZED FREE ENERGY PREDICTED BY IDOCK:   -4.46 KCAL/MOL
REMARK 922        TOTAL FREE ENERGY PREDICTED BY IDOCK:   -5.00 KCAL/MOL
REMARK 923 INTER-LIGAND FREE ENERGY PREDICTED BY IDOCK:   -5.09 KCAL/MOL
REMARK 924 INTRA-LIGAND FREE ENERGY PREDICTED BY IDOCK:    0.09 KCAL/MOL
REMARK 927      BINDING AFFINITY PREDICTED BY RF-SCORE:    0.00 PKD
ROOT
HETATM    1  C   UNL     1      -9.947   8.675  66.472  1.00  0.00    -0.353 C  
HETATM    2  C   UNL     1     -10.221  10.133  66.216  1.00  0.00    -0.219 C  
HETATM    3  C   UNL     1     -10.616  11.046  67.135  1.00  0.00    -0.294 C  
HETATM    4  H   UNL     1      -9.740   9.819  64.238  1.00  0.00     0.000 HD 
HETATM    5  C   UNL     1     -10.798  12.431  66.705  1.00  0.00    -0.283 C  
HETATM    6  C   UNL     1     -10.627  12.822  65.431  1.00  0.00    -0.309 C  
HETATM    7  O   UNL     1     -10.083  12.065  63.238  1.00  0.00    -0.430 OA 
HETATM    8  C   UNL     1     -10.806  14.171  65.031  1.00  0.00    -0.398 C  
HETATM    9  N   UNL     1     -10.964  15.289  64.762  1.00  0.00    -0.410 NA 
HETATM   10  C   UNL     1     -10.234  11.803  64.425  1.00  0.00    -0.289 C  
HETATM   11  N   UNL     1     -10.041  10.530  64.905  1.00  0.00    -0.329 N  
ENDROOT
BRANCH   3  12
HETATM   12  C   UNL     1     -10.907  10.658  68.530  1.00  0.00    -0.275 A  
HETATM   13  C   UNL     1     -12.379  10.475  70.400  1.00  0.00    -0.324 A  
HETATM   14  C   UNL     1     -12.157  10.903  69.100  1.00  0.00    -0.292 A  
HETATM   15  N   UNL     1     -11.455   9.831  71.147  1.00  0.00    -0.373 NA 
HETATM   16  C   UNL     1     -10.258   9.599  70.571  1.00  0.00    -0.287 A  
HETATM   17  C   UNL     1      -9.938   9.987  69.280  1.00  0.00    -0.226 A  
ENDBRANCH   3  12
TORSDOF 1
ENDMDL
MODEL       63
REMARK 921   NORMALIZED FREE ENERGY PREDICTED BY IDOCK:   -4.45 KCAL/MOL
REMARK 922        TOTAL FREE ENERGY PREDICTED BY IDOCK:   -4.99 KCAL/MOL
REMARK 923 INTER-LIGAND FREE ENERGY PREDICTED BY IDOCK:   -4.70 KCAL/MOL
REMARK 924 INTRA-LIGAND FREE ENERGY PREDICTED BY IDOCK:   -0.30 KCAL/MOL
REMARK 927      BINDING AFFINITY PREDICTED BY RF-SCORE:    0.00 PKD
ROOT
HETATM    1  C   UNL     1      -9.899  10.718  62.746  1.00  0.00    -0.239 C  
HETATM    2  C   UNL     1     -10.339  11.526  63.936  1.00  0.00    -0.371 C  
HETATM    3  C   UNL     1      -9.951  11.336  65.220  1.00  0.00    -0.301 C  
HETATM    4  H   UNL     1     -11.494  12.665  62.667  1.00  0.00     0.000 HD 
HETATM    5  C   UNL     1     -10.458  12.250  66.242  1.00  0.00    -0.266 C  
HETATM    6  C   UNL     1     -11.320  13.242  65.963  1.00  0.00    -0.329 C  
HETATM    7  O   UNL     1     -12.576  14.273  64.219  1.00  0.00    -0.678 OA 
HETATM    8  C   UNL     1     -11.801  14.121  66.967  1.00  0.00    -0.429 C  
HETATM    9  N   UNL     1     -12.159  14.812  67.829  1.00  0.00    -0.214 NA 
HETATM   10  C   UNL     1     -11.771  13.414  64.559  1.00  0.00    -0.384 C  
HETATM   11  N   UNL     1     -11.224  12.547  63.644  1.00  0.00    -0.454 N  
ENDROOT
BRANCH   3  12
HETATM   12  C   UNL     1      -9.077  10.209  65.601  1.00  0.00    -0.216 A  
HETATM   13  C   UNL     1      -6.924   9.241  65.951  1.00  0.00    -0.089 A  
HETATM   14  C   UNL     1      -7.687  10.322  65.538  1.00  0.00    -0.149 A  
HETATM   15  N   UNL     1      -7.446   8.085  66.415  1.00  0.00    -0.086 NA 
HETATM   16  C   UNL     1      -8.791   8.004  66.475  1.00  0.00    -0.151 A  
HETATM   17  C   UNL     1      -9.640   9.026  66.085  1.00  0.00    -0.341 A  
ENDBRANCH   3  12
TORSDOF 1
ENDMDL
MODEL       64
REMARK 921   NORMALIZED FREE ENERGY PREDICTED BY IDOCK:   -4.43 KCAL/MOL
REMARK 922        TOTAL FREE ENERGY PREDICTED BY IDOCK:   -4.97 KCAL/MOL
REMARK 923 INTER-LIGAND FREE ENERGY PREDICTED BY IDOCK:   -4.71 KCAL/MOL
REMARK 924 INTRA-LIGAND FREE ENERGY PREDICTED BY IDOCK:   -0.26 KCAL/MOL
REMARK 927      BINDING AFFINITY PREDICTED BY RF-SCORE:    0.00 PKD
ROOT
HETATM    1  C   UNL     1     -11.343  13.589  68.174  1.00  0.00    -0.319 C  
HETATM    2  C   UNL     1     -11.443  12.363  69.042  1.00  0.00    -0.300 C  
HETATM    3  C   UNL     1     -10.815  11.181  68.833  1.00  0.00    -0.261 C  
HETATM    4  H   UNL     1     -12.721  13.407  70.275  1.00  0.00     0.000 HD 
HETATM    5  C   UNL     1     -11.005  10.110  69.810  1.00  0.00    -0.325 C  
HETATM    6  C   UNL     1     -11.805  10.241  70.881  1.00  0.00    -0.473 C  
HETATM    7  O   UNL     1     -13.290  11.725  72.010  1.00  0.00    -0.487 OA 
HETATM    8  C   UNL     1     -11.976   9.193  71.821  1.00  0.00    -0.379 C  
HETATM    9  N   UNL     1     -12.077   8.302  72.558  1.00  0.00    -0.380 NA 
HETATM   10  C   UNL     1     -12.520  11.528  71.077  1.00  0.00    -0.356 C  
HETATM   11  N   UNL     1     -12.265  12.504  70.144  1.00  0.00    -0.276 N  
ENDROOT
BRANCH   3  12
HETATM   12  C   UNL     1      -9.995  10.948  67.627  1.00  0.00    -0.197 A  
HETATM   13  C   UNL     1      -9.763  10.488  65.297  1.00  0.00    -0.270 A  
HETATM   14  C   UNL     1     -10.588  10.653  66.399  1.00  0.00    -0.240 A  
HETATM   15  N   UNL     1      -8.418  10.599  65.342  1.00  0.00    -0.170 NA 
HETATM   16  C   UNL     1      -7.869  10.893  66.538  1.00  0.00    -0.152 A  
HETATM   17  C   UNL     1      -8.606  11.075  67.697  1.00  0.00    -0.125 A  
ENDBRANCH   3  12
TORSDOF 1
ENDMDL
MODEL       65
REMARK 921   NORMALIZED FREE ENERGY PREDICTED BY IDOCK:   -4.42 KCAL/MOL
REMARK 922        TOTAL FREE ENERGY PREDICTED BY IDOCK:   -4.97 KCAL/MOL
REMARK 923 INTER-LIGAND FREE ENERGY PREDICTED BY IDOCK:   -5.40 KCAL/MOL
REMARK 924 INTRA-LIGAND FREE ENERGY PREDICTED BY IDOCK:    0.44 KCAL/MOL
REMARK 927      BINDING AFFINITY PREDICTED BY RF-SCORE:    0.00 PKD
ROOT
HETATM    1  C   UNL     1     -13.342  12.058  71.834  1.00  0.00    -0.408 C  
HETATM    2  C   UNL     1     -12.509  10.920  71.308  1.00  0.00    -0.388 C  
HETATM    3  C   UNL     1     -11.747  10.938  70.188  1.00  0.00    -0.433 C  
HETATM    4  H   UNL     1     -13.140   9.789  72.909  1.00  0.00     0.000 HD 
HETATM    5  C   UNL     1     -10.974   9.744  69.854  1.00  0.00    -0.299 C  
HETATM    6  C   UNL     1     -11.021   8.621  70.591  1.00  0.00    -0.274 C  
HETATM    7  O   UNL     1     -12.018   7.612  72.507  1.00  0.00    -0.288 OA 
HETATM    8  C   UNL     1     -10.263   7.471  70.255  1.00  0.00    -0.204 C  
HETATM    9  N   UNL     1      -9.618   6.561  69.932  1.00  0.00    -0.154 NA 
HETATM   10  C   UNL     1     -11.893   8.600  71.793  1.00  0.00    -0.337 C  
HETATM   11  N   UNL     1     -12.560   9.769  72.071  1.00  0.00    -0.371 N  
ENDROOT
BRANCH   3  12
HETATM   12  C   UNL     1     -11.725  12.110  69.291  1.00  0.00    -0.386 A  
HETATM   13  C   UNL     1     -11.673  13.096  67.118  1.00  0.00    -0.377 A  
HETATM   14  C   UNL     1     -11.646  11.956  67.906  1.00  0.00    -0.393 A  
HETATM   15  N   UNL     1     -11.774  14.349  67.612  1.00  0.00    -0.375 NA 
HETATM   16  C   UNL     1     -11.858  14.472  68.953  1.00  0.00    -0.324 A  
HETATM   17  C   UNL     1     -11.838  13.396  69.825  1.00  0.00    -0.393 A  
ENDBRANCH   3  12
TORSDOF 1
ENDMDL
MODEL       66
REMARK 921   NORMALIZED FREE ENERGY PREDICTED BY IDOCK:   -4.42 KCAL/MOL
REMARK 922        TOTAL FREE ENERGY PREDICTED BY IDOCK:   -4.96 KCAL/MOL
REMARK 923 INTER-LIGAND FREE ENERGY PREDICTED BY IDOCK:   -4.68 KCAL/MOL
REMARK 924 INTRA-LIGAND FREE ENERGY PREDICTED BY IDOCK:   -0.28 KCAL/MOL
REMARK 927      BINDING AFFINITY PREDICTED BY RF-SCORE:    0.00 PKD
ROOT
HETATM    1  C   UNL     1      -7.210  13.638  68.183  1.00  0.00    -0.117 C  
HETATM    2  C   UNL     1      -8.272  14.122  67.232  1.00  0.00    -0.181 C  
HETATM    3  C   UNL     1      -9.290  13.385  66.728  1.00  0.00    -0.260 C  
HETATM    4  H   UNL     1      -7.379  15.978  67.266  1.00  0.00     0.000 HD 
HETATM    5  C   UNL     1     -10.251  14.040  65.843  1.00  0.00    -0.332 C  
HETATM    6  C   UNL     1     -10.140  15.330  65.482  1.00  0.00    -0.408 C  
HETATM    7  O   UNL     1      -8.802  17.289  65.711  1.00  0.00    -0.530 OA 
HETATM    8  C   UNL     1     -11.083  15.952  64.624  1.00  0.00    -0.354 C  
HETATM    9  N   UNL     1     -11.886  16.409  63.921  1.00  0.00    -0.948 NA 
HETATM   10  C   UNL     1      -8.996  16.116  66.009  1.00  0.00    -0.298 C  
HETATM   11  N   UNL     1      -8.154  15.449  66.867  1.00  0.00    -0.232 N  
ENDROOT
BRANCH   3  12
HETATM   12  C   UNL     1      -9.413  11.942  67.016  1.00  0.00    -0.192 A  
HETATM   13  C   UNL     1      -8.820   9.662  66.633  1.00  0.00    -0.138 A  
HETATM   14  C   UNL     1      -8.693  10.997  66.283  1.00  0.00    -0.178 A  
HETATM   15  N   UNL     1      -9.598   9.221  67.646  1.00  0.00    -0.139 NA 
HETATM   16  C   UNL     1     -10.277  10.154  68.345  1.00  0.00    -0.169 A  
HETATM   17  C   UNL     1     -10.218  11.511  68.073  1.00  0.00    -0.205 A  
ENDBRANCH   3  12
TORSDOF 1
ENDMDL
MODEL       67
REMARK 921   NORMALIZED FREE ENERGY PREDICTED BY IDOCK:   -4.39 KCAL/MOL
REMARK 922        TOTAL FREE ENERGY PREDICTED BY IDOCK:   -4.93 KCAL/MOL
REMARK 923 INTER-LIGAND FREE ENERGY PREDICTED BY IDOCK:   -4.67 KCAL/MOL
REMARK 924 INTRA-LIGAND FREE ENERGY PREDICTED BY IDOCK:   -0.26 KCAL/MOL
REMARK 927      BINDING AFFINITY PREDICTED BY RF-SCORE:    0.00 PKD
ROOT
HETATM    1  C   UNL     1      -8.605   8.952  65.001  1.00  0.00    -0.202 C  
HETATM    2  C   UNL     1      -9.638  10.025  65.217  1.00  0.00    -0.291 C  
HETATM    3  C   UNL     1     -10.239  10.332  66.392  1.00  0.00    -0.290 C  
HETATM    4  H   UNL     1      -9.503  10.483  63.214  1.00  0.00     0.000 HD 
HETATM    5  C   UNL     1     -11.195  11.437  66.416  1.00  0.00    -0.250 C  
HETATM    6  C   UNL     1     -11.528  12.130  65.314  1.00  0.00    -0.388 C  
HETATM    7  O   UNL     1     -11.159  12.316  62.967  1.00  0.00    -0.265 OA 
HETATM    8  C   UNL     1     -12.457  13.201  65.355  1.00  0.00    -0.481 C  
HETATM    9  N   UNL     1     -13.222  14.070  65.449  1.00  0.00    -0.691 NA 
HETATM   10  C   UNL     1     -10.894  11.757  64.025  1.00  0.00    -0.385 C  
HETATM   11  N   UNL     1      -9.975  10.737  64.082  1.00  0.00    -0.319 N  
ENDROOT
BRANCH   3  12
HETATM   12  C   UNL     1      -9.981   9.548  67.617  1.00  0.00    -0.226 A  
HETATM   13  C   UNL     1     -10.282   7.610  68.977  1.00  0.00    -0.206 A  
HETATM   14  C   UNL     1     -10.601   8.316  67.827  1.00  0.00    -0.236 A  
HETATM   15  N   UNL     1      -9.403   8.045  69.906  1.00  0.00    -0.156 NA 
HETATM   16  C   UNL     1      -8.811   9.235  69.676  1.00  0.00    -0.155 A  
HETATM   17  C   UNL     1      -9.062  10.015  68.559  1.00  0.00    -0.127 A  
ENDBRANCH   3  12
TORSDOF 1
ENDMDL
MODEL       68
REMARK 921   NORMALIZED FREE ENERGY PREDICTED BY IDOCK:   -4.38 KCAL/MOL
REMARK 922        TOTAL FREE ENERGY PREDICTED BY IDOCK:   -4.92 KCAL/MOL
REMARK 923 INTER-LIGAND FREE ENERGY PREDICTED BY IDOCK:   -4.67 KCAL/MOL
REMARK 924 INTRA-LIGAND FREE ENERGY PREDICTED BY IDOCK:   -0.25 KCAL/MOL
REMARK 927      BINDING AFFINITY PREDICTED BY RF-SCORE:    0.00 PKD
ROOT
HETATM    1  C   UNL     1     -10.876  18.037  67.392  1.00  0.00    -0.236 C  
HETATM    2  C   UNL     1      -9.721  17.080  67.518  1.00  0.00    -0.251 C  
HETATM    3  C   UNL     1      -9.650  15.837  66.984  1.00  0.00    -0.236 C  
HETATM    4  H   UNL     1      -8.740  18.498  68.644  1.00  0.00     0.000 HD 
HETATM    5  C   UNL     1      -8.426  15.063  67.183  1.00  0.00    -0.244 C  
HETATM    6  C   UNL     1      -7.389  15.522  67.904  1.00  0.00    -0.155 C  
HETATM    7  O   UNL     1      -6.611  17.355  69.214  1.00  0.00    -0.236 OA 
HETATM    8  C   UNL     1      -6.207  14.760  68.085  1.00  0.00    -0.140 C  
HETATM    9  N   UNL     1      -5.263  14.093  68.198  1.00  0.00    -0.113 NA 
HETATM   10  C   UNL     1      -7.496  16.870  68.519  1.00  0.00    -0.217 C  
HETATM   11  N   UNL     1      -8.657  17.557  68.259  1.00  0.00    -0.259 N  
ENDROOT
BRANCH   3  12
HETATM   12  C   UNL     1     -10.792  15.244  66.259  1.00  0.00    -0.312 A  
HETATM   13  C   UNL     1     -12.118  14.960  64.295  1.00  0.00    -0.353 A  
HETATM   14  C   UNL     1     -11.057  15.585  64.932  1.00  0.00    -0.428 A  
HETATM   15  N   UNL     1     -12.910  14.037  64.884  1.00  0.00    -0.716 NA 
HETATM   16  C   UNL     1     -12.628  13.718  66.164  1.00  0.00    -0.371 A  
HETATM   17  C   UNL     1     -11.592  14.286  66.887  1.00  0.00    -0.405 A  
ENDBRANCH   3  12
TORSDOF 1
ENDMDL
MODEL       69
REMARK 921   NORMALIZED FREE ENERGY PREDICTED BY IDOCK:   -4.37 KCAL/MOL
REMARK 922        TOTAL FREE ENERGY PREDICTED BY IDOCK:   -4.91 KCAL/MOL
REMARK 923 INTER-LIGAND FREE ENERGY PREDICTED BY IDOCK:   -4.64 KCAL/MOL
REMARK 924 INTRA-LIGAND FREE ENERGY PREDICTED BY IDOCK:   -0.27 KCAL/MOL
REMARK 927      BINDING AFFINITY PREDICTED BY RF-SCORE:    0.00 PKD
ROOT
HETATM    1  C   UNL     1     -12.795  12.832  64.709  1.00  0.00    -0.374 C  
HETATM    2  C   UNL     1     -11.448  12.220  64.987  1.00  0.00    -0.336 C  
HETATM    3  C   UNL     1     -10.670  12.458  66.070  1.00  0.00    -0.294 C  
HETATM    4  H   UNL     1     -11.617  11.180  63.218  1.00  0.00     0.000 HD 
HETATM    5  C   UNL     1      -9.402  11.739  66.187  1.00  0.00    -0.236 C  
HETATM    6  C   UNL     1      -8.966  10.884  65.246  1.00  0.00    -0.202 C  
HETATM    7  O   UNL     1      -9.478   9.923  63.126  1.00  0.00    -0.271 OA 
HETATM    8  C   UNL     1      -7.735  10.193  65.376  1.00  0.00    -0.143 C  
HETATM    9  N   UNL     1      -6.719   9.653  65.537  1.00  0.00    -0.080 NA 
HETATM   10  C   UNL     1      -9.810  10.663  64.045  1.00  0.00    -0.338 C  
HETATM   11  N   UNL     1     -11.006  11.340  64.019  1.00  0.00    -0.362 N  
ENDROOT
BRANCH   3  12
HETATM   12  C   UNL     1     -11.054  13.453  67.091  1.00  0.00    -0.303 A  
HETATM   13  C   UNL     1     -11.266  15.702  67.863  1.00  0.00    -0.328 A  
HETATM   14  C   UNL     1     -10.843  14.817  66.883  1.00  0.00    -0.316 A  
HETATM   15  N   UNL     1     -11.875  15.321  69.007  1.00  0.00    -0.330 NA 
HETATM   16  C   UNL     1     -12.076  13.998  69.181  1.00  0.00    -0.337 A  
HETATM   17  C   UNL     1     -11.689  13.036  68.263  1.00  0.00    -0.390 A  
ENDBRANCH   3  12
TORSDOF 1
ENDMDL
MODEL       70
REMARK 921   NORMALIZED FREE ENERGY PREDICTED BY IDOCK:   -4.35 KCAL/MOL
REMARK 922        TOTAL FREE ENERGY PREDICTED BY IDOCK:   -4.90 KCAL/MOL
REMARK 923 INTER-LIGAND FREE ENERGY PREDICTED BY IDOCK:   -4.61 KCAL/MOL
REMARK 924 INTRA-LIGAND FREE ENERGY PREDICTED BY IDOCK:   -0.28 KCAL/MOL
REMARK 927      BINDING AFFINITY PREDICTED BY RF-SCORE:    0.00 PKD
ROOT
HETATM    1  C   UNL     1     -12.112   7.397  71.937  1.00  0.00    -0.341 C  
HETATM    2  C   UNL     1     -11.966   8.777  71.354  1.00  0.00    -0.310 C  
HETATM    3  C   UNL     1     -11.148   9.133  70.335  1.00  0.00    -0.293 C  
HETATM    4  H   UNL     1     -13.369   9.438  72.710  1.00  0.00     0.000 HD 
HETATM    5  C   UNL     1     -11.169  10.521  69.878  1.00  0.00    -0.374 C  
HETATM    6  C   UNL     1     -11.939  11.461  70.453  1.00  0.00    -0.465 C  
HETATM    7  O   UNL     1     -13.513  11.863  72.197  1.00  0.00    -0.458 OA 
HETATM    8  C   UNL     1     -11.950  12.803  69.996  1.00  0.00    -0.301 C  
HETATM    9  N   UNL     1     -11.920  13.886  69.578  1.00  0.00    -0.325 NA 
HETATM   10  C   UNL     1     -12.801  11.067  71.596  1.00  0.00    -0.435 C  
HETATM   11  N   UNL     1     -12.762   9.739  71.948  1.00  0.00    -0.404 N  
ENDROOT
BRANCH   3  12
HETATM   12  C   UNL     1     -10.214   8.166  69.724  1.00  0.00    -0.203 A  
HETATM   13  C   UNL     1      -8.106   7.052  69.622  1.00  0.00    -0.130 A  
HETATM   14  C   UNL     1      -8.917   8.008  70.213  1.00  0.00    -0.147 A  
HETATM   15  N   UNL     1      -8.500   6.261  68.600  1.00  0.00    -0.122 NA 
HETATM   16  C   UNL     1      -9.760   6.427  68.150  1.00  0.00    -0.122 A  
HETATM   17  C   UNL     1     -10.647   7.354  68.672  1.00  0.00    -0.182 A  
ENDBRANCH   3  12
TORSDOF 1
ENDMDL
MODEL       71
REMARK 921   NORMALIZED FREE ENERGY PREDICTED BY IDOCK:   -4.34 KCAL/MOL
REMARK 922        TOTAL FREE ENERGY PREDICTED BY IDOCK:   -4.88 KCAL/MOL
REMARK 923 INTER-LIGAND FREE ENERGY PREDICTED BY IDOCK:   -4.59 KCAL/MOL
REMARK 924 INTRA-LIGAND FREE ENERGY PREDICTED BY IDOCK:   -0.29 KCAL/MOL
REMARK 927      BINDING AFFINITY PREDICTED BY RF-SCORE:    0.00 PKD
ROOT
HETATM    1  C   UNL     1     -12.669  13.859  65.578  1.00  0.00    -0.536 C  
HETATM    2  C   UNL     1     -11.322  13.260  65.886  1.00  0.00    -0.311 C  
HETATM    3  C   UNL     1     -10.282  13.892  66.481  1.00  0.00    -0.280 C  
HETATM    4  H   UNL     1     -11.983  11.492  65.062  1.00  0.00     0.000 HD 
HETATM    5  C   UNL     1      -9.059  13.133  66.732  1.00  0.00    -0.214 C  
HETATM    6  C   UNL     1      -8.915  11.849  66.361  1.00  0.00    -0.180 C  
HETATM    7  O   UNL     1      -9.994  10.022  65.275  1.00  0.00    -0.315 OA 
HETATM    8  C   UNL     1      -7.722  11.125  66.615  1.00  0.00    -0.155 C  
HETATM    9  N   UNL     1      -6.723  10.582  66.850  1.00  0.00    -0.081 NA 
HETATM   10  C   UNL     1     -10.048  11.180  65.672  1.00  0.00    -0.253 C  
HETATM   11  N   UNL     1     -11.180  11.940  65.505  1.00  0.00    -0.317 N  
ENDROOT
BRANCH   3  12
HETATM   12  C   UNL     1     -10.350  15.325  66.829  1.00  0.00    -0.279 A  
HETATM   13  C   UNL     1     -10.117  17.637  66.282  1.00  0.00    -0.341 A  
HETATM   14  C   UNL     1      -9.989  16.309  65.907  1.00  0.00    -0.366 A  
HETATM   15  N   UNL     1     -10.573  18.036  67.489  1.00  0.00    -0.403 NA 
HETATM   16  C   UNL     1     -10.923  17.067  68.361  1.00  0.00    -0.263 A  
HETATM   17  C   UNL     1     -10.831  15.714  68.081  1.00  0.00    -0.301 A  
ENDBRANCH   3  12
TORSDOF 1
ENDMDL
MODEL       72
REMARK 921   NORMALIZED FREE ENERGY PREDICTED BY IDOCK:   -4.32 KCAL/MOL
REMARK 922        TOTAL FREE ENERGY PREDICTED BY IDOCK:   -4.85 KCAL/MOL
REMARK 923 INTER-LIGAND FREE ENERGY PREDICTED BY IDOCK:   -4.55 KCAL/MOL
REMARK 924 INTRA-LIGAND FREE ENERGY PREDICTED BY IDOCK:   -0.31 KCAL/MOL
REMARK 927      BINDING AFFINITY PREDICTED BY RF-SCORE:    0.00 PKD
ROOT
HETATM    1  C   UNL     1     -10.213  10.660  64.300  1.00  0.00    -0.391 C  
HETATM    2  C   UNL     1     -10.642  11.264  65.610  1.00  0.00    -0.244 C  
HETATM    3  C   UNL     1     -10.453  10.726  66.839  1.00  0.00    -0.304 C  
HETATM    4  H   UNL     1     -11.412  12.859  64.560  1.00  0.00     0.000 HD 
HETATM    5  C   UNL     1     -10.908  11.480  68.006  1.00  0.00    -0.259 C  
HETATM    6  C   UNL     1     -11.539  12.662  67.902  1.00  0.00    -0.401 C  
HETATM    7  O   UNL     1     -12.369  14.277  66.359  1.00  0.00    -0.448 OA 
HETATM    8  C   UNL     1     -11.973  13.382  69.045  1.00  0.00    -0.315 C  
HETATM    9  N   UNL     1     -12.303  13.928  70.015  1.00  0.00    -0.333 NA 
HETATM   10  C   UNL     1     -11.778  13.221  66.548  1.00  0.00    -0.377 C  
HETATM   11  N   UNL     1     -11.288  12.480  65.499  1.00  0.00    -0.317 N  
ENDROOT
BRANCH   3  12
HETATM   12  C   UNL     1      -9.846   9.391  67.010  1.00  0.00    -0.258 A  
HETATM   13  C   UNL     1      -7.975   7.965  67.413  1.00  0.00    -0.122 A  
HETATM   14  C   UNL     1      -8.474   9.243  67.217  1.00  0.00    -0.125 A  
HETATM   15  N   UNL     1      -8.741   6.852  67.419  1.00  0.00    -0.120 NA 
HETATM   16  C   UNL     1     -10.065   7.021  67.226  1.00  0.00    -0.204 A  
HETATM   17  C   UNL     1     -10.660   8.255  67.020  1.00  0.00    -0.328 A  
ENDBRANCH   3  12
TORSDOF 1
ENDMDL
MODEL       73
REMARK 921   NORMALIZED FREE ENERGY PREDICTED BY IDOCK:   -4.31 KCAL/MOL
REMARK 922        TOTAL FREE ENERGY PREDICTED BY IDOCK:   -4.84 KCAL/MOL
REMARK 923 INTER-LIGAND FREE ENERGY PREDICTED BY IDOCK:   -4.56 KCAL/MOL
REMARK 924 INTRA-LIGAND FREE ENERGY PREDICTED BY IDOCK:   -0.29 KCAL/MOL
REMARK 927      BINDING AFFINITY PREDICTED BY RF-SCORE:    0.00 PKD
ROOT
HETATM    1  C   UNL     1     -11.549  16.173  64.369  1.00  0.00    -0.146 C  
HETATM    2  C   UNL     1     -11.303  15.022  65.307  1.00  0.00    -0.349 C  
HETATM    3  C   UNL     1     -10.603  15.069  66.466  1.00  0.00    -0.305 C  
HETATM    4  H   UNL     1     -12.385  13.822  64.029  1.00  0.00     0.000 HD 
HETATM    5  C   UNL     1     -10.501  13.850  67.267  1.00  0.00    -0.271 C  
HETATM    6  C   UNL     1     -11.040  12.682  66.879  1.00  0.00    -0.315 C  
HETATM    7  O   UNL     1     -12.269  11.606  65.142  1.00  0.00    -0.129 OA 
HETATM    8  C   UNL     1     -10.935  11.509  67.669  1.00  0.00    -0.242 C  
HETATM    9  N   UNL     1     -10.818  10.582  68.358  1.00  0.00    -0.222 NA 
HETATM   10  C   UNL     1     -11.770  12.634  65.586  1.00  0.00    -0.412 C  
HETATM   11  N   UNL     1     -11.861  13.824  64.905  1.00  0.00    -0.358 N  
ENDROOT
BRANCH   3  12
HETATM   12  C   UNL     1      -9.912  16.300  66.899  1.00  0.00    -0.263 A  
HETATM   13  C   UNL     1      -8.053  17.796  66.857  1.00  0.00    -0.228 A  
HETATM   14  C   UNL     1      -8.627  16.603  66.446  1.00  0.00    -0.345 A  
HETATM   15  N   UNL     1      -8.666  18.685  67.667  1.00  0.00    -0.270 NA 
HETATM   16  C   UNL     1      -9.911  18.374  68.084  1.00  0.00    -0.342 A  
HETATM   17  C   UNL     1     -10.570  17.208  67.732  1.00  0.00    -0.360 A  
ENDBRANCH   3  12
TORSDOF 1
ENDMDL
MODEL       74
REMARK 921   NORMALIZED FREE ENERGY PREDICTED BY IDOCK:   -4.28 KCAL/MOL
REMARK 922        TOTAL FREE ENERGY PREDICTED BY IDOCK:   -4.82 KCAL/MOL
REMARK 923 INTER-LIGAND FREE ENERGY PREDICTED BY IDOCK:   -5.01 KCAL/MOL
REMARK 924 INTRA-LIGAND FREE ENERGY PREDICTED BY IDOCK:    0.19 KCAL/MOL
REMARK 927      BINDING AFFINITY PREDICTED BY RF-SCORE:    0.00 PKD
ROOT
HETATM    1  C   UNL     1      -9.746  12.271  67.318  1.00  0.00    -0.195 C  
HETATM    2  C   UNL     1     -10.691  12.415  68.480  1.00  0.00    -0.238 C  
HETATM    3  C   UNL     1     -11.163  11.411  69.257  1.00  0.00    -0.342 C  
HETATM    4  H   UNL     1     -10.713  14.446  68.138  1.00  0.00     0.000 HD 
HETATM    5  C   UNL     1     -12.049  11.751  70.370  1.00  0.00    -0.440 C  
HETATM    6  C   UNL     1     -12.440  13.011  70.624  1.00  0.00    -0.347 C  
HETATM    7  O   UNL     1     -12.277  15.269  69.881  1.00  0.00    -0.329 OA 
HETATM    8  C   UNL     1     -13.298  13.323  71.709  1.00  0.00    -0.393 C  
HETATM    9  N   UNL     1     -14.000  13.521  72.614  1.00  0.00    -0.754 NA 
HETATM   10  C   UNL     1     -11.949  14.097  69.740  1.00  0.00    -0.339 C  
HETATM   11  N   UNL     1     -11.089  13.713  68.739  1.00  0.00    -0.260 N  
ENDROOT
BRANCH   3  12
HETATM   12  C   UNL     1     -10.840   9.999  68.972  1.00  0.00    -0.253 A  
HETATM   13  C   UNL     1     -10.531   8.175  67.464  1.00  0.00    -0.256 A  
HETATM   14  C   UNL     1     -10.888   9.498  67.670  1.00  0.00    -0.253 A  
HETATM   15  N   UNL     1     -10.135   7.341  68.451  1.00  0.00    -0.166 NA 
HETATM   16  C   UNL     1     -10.088   7.851  69.699  1.00  0.00    -0.197 A  
HETATM   17  C   UNL     1     -10.426   9.158  70.007  1.00  0.00    -0.244 A  
ENDBRANCH   3  12
TORSDOF 1
ENDMDL
MODEL       75
REMARK 921   NORMALIZED FREE ENERGY PREDICTED BY IDOCK:   -4.25 KCAL/MOL
REMARK 922        TOTAL FREE ENERGY PREDICTED BY IDOCK:   -4.78 KCAL/MOL
REMARK 923 INTER-LIGAND FREE ENERGY PREDICTED BY IDOCK:   -4.53 KCAL/MOL
REMARK 924 INTRA-LIGAND FREE ENERGY PREDICTED BY IDOCK:   -0.25 KCAL/MOL
REMARK 927      BINDING AFFINITY PREDICTED BY RF-SCORE:    0.00 PKD
ROOT
HETATM    1  C   UNL     1     -12.056  14.110  66.075  1.00  0.00    -0.449 C  
HETATM    2  C   UNL     1     -11.383  12.926  66.715  1.00  0.00    -0.322 C  
HETATM    3  C   UNL     1     -11.057  12.802  68.025  1.00  0.00    -0.284 C  
HETATM    4  H   UNL     1     -11.348  12.017  64.868  1.00  0.00     0.000 HD 
HETATM    5  C   UNL     1     -10.438  11.556  68.472  1.00  0.00    -0.228 C  
HETATM    6  C   UNL     1     -10.145  10.551  67.630  1.00  0.00    -0.211 C  
HETATM    7  O   UNL     1     -10.213   9.862  65.350  1.00  0.00    -0.273 OA 
HETATM    8  C   UNL     1      -9.546   9.347  68.081  1.00  0.00    -0.142 C  
HETATM    9  N   UNL     1      -9.057   8.383  68.507  1.00  0.00    -0.136 NA 
HETATM   10  C   UNL     1     -10.469  10.715  66.191  1.00  0.00    -0.194 C  
HETATM   11  N   UNL     1     -11.087  11.894  65.846  1.00  0.00    -0.312 N  
ENDROOT
BRANCH   3  12
HETATM   12  C   UNL     1     -11.272  13.908  68.979  1.00  0.00    -0.312 A  
HETATM   13  C   UNL     1     -12.445  14.925  70.792  1.00  0.00    -0.339 A  
HETATM   14  C   UNL     1     -12.325  13.876  69.894  1.00  0.00    -0.358 A  
HETATM   15  N   UNL     1     -11.599  15.977  70.835  1.00  0.00    -0.409 NA 
HETATM   16  C   UNL     1     -10.584  15.982  69.946  1.00  0.00    -0.314 A  
HETATM   17  C   UNL     1     -10.380  14.982  69.010  1.00  0.00    -0.243 A  
ENDBRANCH   3  12
TORSDOF 1
ENDMDL
MODEL       76
REMARK 921   NORMALIZED FREE ENERGY PREDICTED BY IDOCK:   -4.22 KCAL/MOL
REMARK 922        TOTAL FREE ENERGY PREDICTED BY IDOCK:   -4.75 KCAL/MOL
REMARK 923 INTER-LIGAND FREE ENERGY PREDICTED BY IDOCK:   -4.49 KCAL/MOL
REMARK 924 INTRA-LIGAND FREE ENERGY PREDICTED BY IDOCK:   -0.26 KCAL/MOL
REMARK 927      BINDING AFFINITY PREDICTED BY RF-SCORE:    0.00 PKD
ROOT
HETATM    1  C   UNL     1     -12.866  13.538  65.853  1.00  0.00    -0.253 C  
HETATM    2  C   UNL     1     -11.592  14.089  66.435  1.00  0.00    -0.369 C  
HETATM    3  C   UNL     1     -10.342  13.616  66.216  1.00  0.00    -0.293 C  
HETATM    4  H   UNL     1     -12.718  15.513  67.409  1.00  0.00     0.000 HD 
HETATM    5  C   UNL     1      -9.217  14.309  66.842  1.00  0.00    -0.268 C  
HETATM    6  C   UNL     1      -9.380  15.367  67.653  1.00  0.00    -0.203 C  
HETATM    7  O   UNL     1     -11.001  16.791  68.667  1.00  0.00    -0.338 OA 
HETATM    8  C   UNL     1      -8.277  16.029  68.251  1.00  0.00    -0.159 C  
HETATM    9  N   UNL     1      -7.337  16.533  68.711  1.00  0.00    -0.195 NA 
HETATM   10  C   UNL     1     -10.758  15.851  67.919  1.00  0.00    -0.312 C  
HETATM   11  N   UNL     1     -11.765  15.179  67.267  1.00  0.00    -0.239 N  
ENDROOT
BRANCH   3  12
HETATM   12  C   UNL     1     -10.109  12.403  65.407  1.00  0.00    -0.289 A  
HETATM   13  C   UNL     1      -9.829  11.292  63.313  1.00  0.00    -0.389 A  
HETATM   14  C   UNL     1     -10.097  12.459  64.013  1.00  0.00    -0.342 A  
HETATM   15  N   UNL     1      -9.575  10.104  63.903  1.00  0.00    -0.284 NA 
HETATM   16  C   UNL     1      -9.583  10.078  65.252  1.00  0.00    -0.291 A  
HETATM   17  C   UNL     1      -9.841  11.187  66.040  1.00  0.00    -0.270 A  
ENDBRANCH   3  12
TORSDOF 1
ENDMDL
MODEL       77
REMARK 921   NORMALIZED FREE ENERGY PREDICTED BY IDOCK:   -4.21 KCAL/MOL
REMARK 922        TOTAL FREE ENERGY PREDICTED BY IDOCK:   -4.74 KCAL/MOL
REMARK 923 INTER-LIGAND FREE ENERGY PREDICTED BY IDOCK:   -4.47 KCAL/MOL
REMARK 924 INTRA-LIGAND FREE ENERGY PREDICTED BY IDOCK:   -0.27 KCAL/MOL
REMARK 927      BINDING AFFINITY PREDICTED BY RF-SCORE:    0.00 PKD
ROOT
HETATM    1  C   UNL     1     -12.298  14.416  65.369  1.00  0.00    -0.359 C  
HETATM    2  C   UNL     1     -10.965  14.875  65.894  1.00  0.00    -0.338 C  
HETATM    3  C   UNL     1     -10.011  14.091  66.452  1.00  0.00    -0.301 C  
HETATM    4  H   UNL     1     -11.474  16.795  65.349  1.00  0.00     0.000 HD 
HETATM    5  C   UNL     1      -8.758  14.714  66.873  1.00  0.00    -0.251 C  
HETATM    6  C   UNL     1      -8.533  16.034  66.763  1.00  0.00    -0.295 C  
HETATM    7  O   UNL     1      -9.493  18.104  66.075  1.00  0.00    -0.503 OA 
HETATM    8  C   UNL     1      -7.309  16.622  67.173  1.00  0.00    -0.185 C  
HETATM    9  N   UNL     1      -6.287  17.048  67.524  1.00  0.00    -0.139 NA 
HETATM   10  C   UNL     1      -9.602  16.889  66.188  1.00  0.00    -0.254 C  
HETATM   11  N   UNL     1     -10.737  16.233  65.777  1.00  0.00    -0.294 N  
ENDROOT
BRANCH   3  12
HETATM   12  C   UNL     1     -10.237  12.650  66.682  1.00  0.00    -0.246 A  
HETATM   13  C   UNL     1     -11.198  10.839  67.903  1.00  0.00    -0.318 A  
HETATM   14  C   UNL     1     -10.987  12.202  67.770  1.00  0.00    -0.278 A  
HETATM   15  N   UNL     1     -10.721   9.917  67.039  1.00  0.00    -0.206 NA 
HETATM   16  C   UNL     1     -10.005  10.375  65.991  1.00  0.00    -0.241 A  
HETATM   17  C   UNL     1      -9.739  11.716  65.770  1.00  0.00    -0.262 A  
ENDBRANCH   3  12
TORSDOF 1
ENDMDL
MODEL       78
REMARK 921   NORMALIZED FREE ENERGY PREDICTED BY IDOCK:   -4.19 KCAL/MOL
REMARK 922        TOTAL FREE ENERGY PREDICTED BY IDOCK:   -4.72 KCAL/MOL
REMARK 923 INTER-LIGAND FREE ENERGY PREDICTED BY IDOCK:   -4.42 KCAL/MOL
REMARK 924 INTRA-LIGAND FREE ENERGY PREDICTED BY IDOCK:   -0.30 KCAL/MOL
REMARK 927      BINDING AFFINITY PREDICTED BY RF-SCORE:    0.00 PKD
ROOT
HETATM    1  C   UNL     1     -10.408  13.488  66.490  1.00  0.00    -0.282 C  
HETATM    2  C   UNL     1     -11.035  13.524  67.858  1.00  0.00    -0.256 C  
HETATM    3  C   UNL     1     -10.964  14.546  68.744  1.00  0.00    -0.262 C  
HETATM    4  H   UNL     1     -11.778  11.635  67.506  1.00  0.00     0.000 HD 
HETATM    5  C   UNL     1     -11.672  14.414  70.016  1.00  0.00    -0.360 C  
HETATM    6  C   UNL     1     -12.357  13.308  70.352  1.00  0.00    -0.365 C  
HETATM    7  O   UNL     1     -12.969  11.122  69.623  1.00  0.00    -0.035 OA 
HETATM    8  C   UNL     1     -13.041  13.197  71.589  1.00  0.00    -0.353 C  
HETATM    9  N   UNL     1     -13.584  13.163  72.615  1.00  0.00    -0.622 NA 
HETATM   10  C   UNL     1     -12.393  12.178  69.388  1.00  0.00     0.070 C  
HETATM   11  N   UNL     1     -11.740  12.385  68.197  1.00  0.00    -0.341 N  
ENDROOT
BRANCH   3  12
HETATM   12  C   UNL     1     -10.153  15.749  68.469  1.00  0.00    -0.215 A  
HETATM   13  C   UNL     1      -9.929  18.020  67.771  1.00  0.00    -0.326 A  
HETATM   14  C   UNL     1     -10.738  16.912  67.967  1.00  0.00    -0.364 A  
HETATM   15  N   UNL     1      -8.605  18.041  68.040  1.00  0.00    -0.258 NA 
HETATM   16  C   UNL     1      -8.065  16.907  68.533  1.00  0.00    -0.244 A  
HETATM   17  C   UNL     1      -8.788  15.749  68.762  1.00  0.00    -0.207 A  
ENDBRANCH   3  12
TORSDOF 1
ENDMDL
MODEL       79
REMARK 921   NORMALIZED FREE ENERGY PREDICTED BY IDOCK:   -4.18 KCAL/MOL
REMARK 922        TOTAL FREE ENERGY PREDICTED BY IDOCK:   -4.71 KCAL/MOL
REMARK 923 INTER-LIGAND FREE ENERGY PREDICTED BY IDOCK:   -4.42 KCAL/MOL
REMARK 924 INTRA-LIGAND FREE ENERGY PREDICTED BY IDOCK:   -0.29 KCAL/MOL
REMARK 927      BINDING AFFINITY PREDICTED BY RF-SCORE:    0.00 PKD
ROOT
HETATM    1  C   UNL     1      -6.697  16.144  67.569  1.00  0.00    -0.198 C  
HETATM    2  C   UNL     1      -7.956  15.368  67.287  1.00  0.00    -0.202 C  
HETATM    3  C   UNL     1      -9.184  15.892  67.056  1.00  0.00    -0.231 C  
HETATM    4  H   UNL     1      -6.857  13.634  67.447  1.00  0.00     0.000 HD 
HETATM    5  C   UNL     1     -10.286  14.978  66.762  1.00  0.00    -0.260 C  
HETATM    6  C   UNL     1     -10.134  13.642  66.750  1.00  0.00    -0.269 C  
HETATM    7  O   UNL     1      -8.571  11.875  67.083  1.00  0.00    -0.158 OA 
HETATM    8  C   UNL     1     -11.213  12.769  66.460  1.00  0.00    -0.307 C  
HETATM    9  N   UNL     1     -12.132  12.103  66.214  1.00  0.00    -0.589 NA 
HETATM   10  C   UNL     1      -8.792  13.079  67.045  1.00  0.00    -0.212 C  
HETATM   11  N   UNL     1      -7.795  13.996  67.273  1.00  0.00    -0.162 N  
ENDROOT
BRANCH   3  12
HETATM   12  C   UNL     1      -9.430  17.345  67.144  1.00  0.00    -0.257 A  
HETATM   13  C   UNL     1      -9.770  19.486  66.146  1.00  0.00    -0.387 A  
HETATM   14  C   UNL     1      -9.493  18.136  65.997  1.00  0.00    -0.046 A  
HETATM   15  N   UNL     1      -9.987  20.081  67.340  1.00  0.00    -0.406 NA 
HETATM   16  C   UNL     1      -9.930  19.294  68.433  1.00  0.00    -0.419 A  
HETATM   17  C   UNL     1      -9.659  17.936  68.389  1.00  0.00    -0.320 A  
ENDBRANCH   3  12
TORSDOF 1
ENDMDL
MODEL       80
REMARK 921   NORMALIZED FREE ENERGY PREDICTED BY IDOCK:   -4.15 KCAL/MOL
REMARK 922        TOTAL FREE ENERGY PREDICTED BY IDOCK:   -4.68 KCAL/MOL
REMARK 923 INTER-LIGAND FREE ENERGY PREDICTED BY IDOCK:   -5.29 KCAL/MOL
REMARK 924 INTRA-LIGAND FREE ENERGY PREDICTED BY IDOCK:    0.61 KCAL/MOL
REMARK 927      BINDING AFFINITY PREDICTED BY RF-SCORE:    0.00 PKD
ROOT
HETATM    1  C   UNL     1     -13.966   8.873  72.269  1.00  0.00    -0.531 C  
HETATM    2  C   UNL     1     -12.771   8.674  71.376  1.00  0.00    -0.276 C  
HETATM    3  C   UNL     1     -11.999   9.651  70.842  1.00  0.00    -0.391 C  
HETATM    4  H   UNL     1     -13.070   6.642  71.521  1.00  0.00     0.000 HD 
HETATM    5  C   UNL     1     -10.852   9.263  70.025  1.00  0.00    -0.264 C  
HETATM    6  C   UNL     1     -10.559   7.980  69.753  1.00  0.00    -0.238 C  
HETATM    7  O   UNL     1     -11.260   5.727  70.089  1.00  0.00    -0.319 OA 
HETATM    8  C   UNL     1      -9.440   7.620  68.959  1.00  0.00    -0.150 C  
HETATM    9  N   UNL     1      -8.509   7.383  68.305  1.00  0.00    -0.124 NA 
HETATM   10  C   UNL     1     -11.436   6.920  70.309  1.00  0.00    -0.323 C  
HETATM   11  N   UNL     1     -12.472   7.353  71.101  1.00  0.00    -0.330 N  
ENDROOT
BRANCH   3  12
HETATM   12  C   UNL     1     -12.325  11.079  71.032  1.00  0.00    -0.490 A  
HETATM   13  C   UNL     1     -12.270  13.361  70.334  1.00  0.00    -0.345 A  
HETATM   14  C   UNL     1     -11.894  12.044  70.121  1.00  0.00    -0.383 A  
HETATM   15  N   UNL     1     -13.032  13.765  71.373  1.00  0.00    -0.352 NA 
HETATM   16  C   UNL     1     -13.444  12.813  72.235  1.00  0.00    -0.490 A  
HETATM   17  C   UNL     1     -13.121  11.472  72.110  1.00  0.00    -0.286 A  
ENDBRANCH   3  12
TORSDOF 1
ENDMDL
MODEL       81
REMARK 921   NORMALIZED FREE ENERGY PREDICTED BY IDOCK:   -4.14 KCAL/MOL
REMARK 922        TOTAL FREE ENERGY PREDICTED BY IDOCK:   -4.67 KCAL/MOL
REMARK 923 INTER-LIGAND FREE ENERGY PREDICTED BY IDOCK:   -4.41 KCAL/MOL
REMARK 924 INTRA-LIGAND FREE ENERGY PREDICTED BY IDOCK:   -0.25 KCAL/MOL
REMARK 927      BINDING AFFINITY PREDICTED BY RF-SCORE:    0.00 PKD
ROOT
HETATM    1  C   UNL     1      -9.884  10.092  65.108  1.00  0.00    -0.394 C  
HETATM    2  C   UNL     1     -10.467  10.323  66.477  1.00  0.00    -0.173 C  
HETATM    3  C   UNL     1     -10.517   9.422  67.487  1.00  0.00    -0.343 C  
HETATM    4  H   UNL     1     -10.932  12.242  65.894  1.00  0.00     0.000 HD 
HETATM    5  C   UNL     1     -11.091   9.842  68.764  1.00  0.00    -0.140 C  
HETATM    6  C   UNL     1     -11.602  11.069  68.960  1.00  0.00    -0.392 C  
HETATM    7  O   UNL     1     -12.047  13.163  67.912  1.00  0.00    -0.321 OA 
HETATM    8  C   UNL     1     -12.153  11.461  70.206  1.00  0.00    -0.374 C  
HETATM    9  N   UNL     1     -12.589  11.727  71.249  1.00  0.00    -0.346 NA 
HETATM   10  C   UNL     1     -11.578  12.034  67.831  1.00  0.00    -0.337 C  
HETATM   11  N   UNL     1     -10.989  11.587  66.673  1.00  0.00    -0.288 N  
ENDROOT
BRANCH   3  12
HETATM   12  C   UNL     1     -10.053   8.033  67.304  1.00  0.00    -0.309 A  
HETATM   13  C   UNL     1     -10.442   5.734  66.792  1.00  0.00    -0.287 A  
HETATM   14  C   UNL     1     -10.949   7.009  66.994  1.00  0.00    -0.357 A  
HETATM   15  N   UNL     1      -9.130   5.426  66.875  1.00  0.00    -0.113 NA 
HETATM   16  C   UNL     1      -8.283   6.434  67.168  1.00  0.00    -0.113 A  
HETATM   17  C   UNL     1      -8.690   7.739  67.388  1.00  0.00    -0.128 A  
ENDBRANCH   3  12
TORSDOF 1
ENDMDL
MODEL       82
REMARK 921   NORMALIZED FREE ENERGY PREDICTED BY IDOCK:   -4.12 KCAL/MOL
REMARK 922        TOTAL FREE ENERGY PREDICTED BY IDOCK:   -4.65 KCAL/MOL
REMARK 923 INTER-LIGAND FREE ENERGY PREDICTED BY IDOCK:   -4.39 KCAL/MOL
REMARK 924 INTRA-LIGAND FREE ENERGY PREDICTED BY IDOCK:   -0.26 KCAL/MOL
REMARK 927      BINDING AFFINITY PREDICTED BY RF-SCORE:    0.00 PKD
ROOT
HETATM    1  C   UNL     1      -9.489   7.932  73.179  1.00  0.00    -0.344 C  
HETATM    2  C   UNL     1      -9.355   8.643  71.859  1.00  0.00    -0.287 C  
HETATM    3  C   UNL     1     -10.370   9.016  71.044  1.00  0.00    -0.348 C  
HETATM    4  H   UNL     1      -7.312   8.626  72.122  1.00  0.00     0.000 HD 
HETATM    5  C   UNL     1     -10.046   9.734  69.813  1.00  0.00    -0.268 C  
HETATM    6  C   UNL     1      -8.782  10.001  69.443  1.00  0.00    -0.195 C  
HETATM    7  O   UNL     1      -6.494   9.726  70.052  1.00  0.00    -0.056 OA 
HETATM    8  C   UNL     1      -8.485  10.701  68.246  1.00  0.00    -0.127 C  
HETATM    9  N   UNL     1      -8.301  11.279  67.256  1.00  0.00    -0.140 NA 
HETATM   10  C   UNL     1      -7.676   9.550  70.325  1.00  0.00    -0.161 C  
HETATM   11  N   UNL     1      -8.054   8.917  71.485  1.00  0.00    -0.116 N  
ENDROOT
BRANCH   3  12
HETATM   12  C   UNL     1     -11.772   8.671  71.354  1.00  0.00    -0.355 A  
HETATM   13  C   UNL     1     -13.581   7.118  71.468  1.00  0.00    -0.319 A  
HETATM   14  C   UNL     1     -12.269   7.389  71.114  1.00  0.00    -0.357 A  
HETATM   15  N   UNL     1     -14.409   8.024  72.034  1.00  0.00    -0.416 NA 
HETATM   16  C   UNL     1     -13.904   9.253  72.263  1.00  0.00    -0.426 A  
HETATM   17  C   UNL     1     -12.607   9.622  71.946  1.00  0.00    -0.481 A  
ENDBRANCH   3  12
TORSDOF 1
ENDMDL
MODEL       83
REMARK 921   NORMALIZED FREE ENERGY PREDICTED BY IDOCK:   -4.12 KCAL/MOL
REMARK 922        TOTAL FREE ENERGY PREDICTED BY IDOCK:   -4.64 KCAL/MOL
REMARK 923 INTER-LIGAND FREE ENERGY PREDICTED BY IDOCK:   -4.36 KCAL/MOL
REMARK 924 INTRA-LIGAND FREE ENERGY PREDICTED BY IDOCK:   -0.28 KCAL/MOL
REMARK 927      BINDING AFFINITY PREDICTED BY RF-SCORE:    0.00 PKD
ROOT
HETATM    1  C   UNL     1      -8.239  12.004  68.134  1.00  0.00    -0.163 C  
HETATM    2  C   UNL     1      -9.017  10.749  68.428  1.00  0.00    -0.153 C  
HETATM    3  C   UNL     1     -10.043  10.254  67.694  1.00  0.00    -0.229 C  
HETATM    4  H   UNL     1      -7.835  10.471  70.091  1.00  0.00     0.000 HD 
HETATM    5  C   UNL     1     -10.656   8.996  68.117  1.00  0.00    -0.225 C  
HETATM    6  C   UNL     1     -10.267   8.337  69.221  1.00  0.00    -0.207 C  
HETATM    7  O   UNL     1      -8.770   8.392  71.075  1.00  0.00    -0.133 OA 
HETATM    8  C   UNL     1     -10.871   7.116  69.615  1.00  0.00    -0.234 C  
HETATM    9  N   UNL     1     -11.400   6.118  69.889  1.00  0.00    -0.421 NA 
HETATM   10  C   UNL     1      -9.169   8.911  70.039  1.00  0.00    -0.174 C  
HETATM   11  N   UNL     1      -8.612  10.074  69.563  1.00  0.00    -0.176 N  
ENDROOT
BRANCH   3  12
HETATM   12  C   UNL     1     -10.573  10.980  66.523  1.00  0.00    -0.310 A  
HETATM   13  C   UNL     1     -11.932  12.676  65.536  1.00  0.00    -0.456 A  
HETATM   14  C   UNL     1     -11.507  12.006  66.673  1.00  0.00    -0.411 A  
HETATM   15  N   UNL     1     -11.491  12.397  64.290  1.00  0.00    -0.340 NA 
HETATM   16  C   UNL     1     -10.582  11.407  64.172  1.00  0.00    -0.369 A  
HETATM   17  C   UNL     1     -10.097  10.678  65.245  1.00  0.00    -0.363 A  
ENDBRANCH   3  12
TORSDOF 1
ENDMDL
MODEL       84
REMARK 921   NORMALIZED FREE ENERGY PREDICTED BY IDOCK:   -4.09 KCAL/MOL
REMARK 922        TOTAL FREE ENERGY PREDICTED BY IDOCK:   -4.61 KCAL/MOL
REMARK 923 INTER-LIGAND FREE ENERGY PREDICTED BY IDOCK:   -4.33 KCAL/MOL
REMARK 924 INTRA-LIGAND FREE ENERGY PREDICTED BY IDOCK:   -0.28 KCAL/MOL
REMARK 927      BINDING AFFINITY PREDICTED BY RF-SCORE:    0.00 PKD
ROOT
HETATM    1  C   UNL     1     -10.596   5.606  71.082  1.00  0.00    -0.312 C  
HETATM    2  C   UNL     1     -11.088   7.013  71.291  1.00  0.00    -0.252 C  
HETATM    3  C   UNL     1     -10.319   8.125  71.382  1.00  0.00    -0.258 C  
HETATM    4  H   UNL     1     -13.011   6.277  71.322  1.00  0.00     0.000 HD 
HETATM    5  C   UNL     1     -10.981   9.417  71.549  1.00  0.00    -0.429 C  
HETATM    6  C   UNL     1     -12.315   9.538  71.655  1.00  0.00    -0.480 C  
HETATM    7  O   UNL     1     -14.364   8.322  71.712  1.00  0.00    -0.431 OA 
HETATM    8  C   UNL     1     -12.942  10.800  71.815  1.00  0.00    -0.463 C  
HETATM    9  N   UNL     1     -13.401  11.859  71.943  1.00  0.00    -0.405 NA 
HETATM   10  C   UNL     1     -13.144   8.308  71.596  1.00  0.00    -0.334 C  
HETATM   11  N   UNL     1     -12.461   7.132  71.397  1.00  0.00    -0.371 N  
ENDROOT
BRANCH   3  12
HETATM   12  C   UNL     1      -8.844   8.044  71.362  1.00  0.00    -0.170 A  
HETATM   13  C   UNL     1      -6.737   7.775  72.450  1.00  0.00    -0.065 A  
HETATM   14  C   UNL     1      -8.116   7.887  72.542  1.00  0.00    -0.167 A  
HETATM   15  N   UNL     1      -6.057   7.806  71.283  1.00  0.00    -0.035 NA 
HETATM   16  C   UNL     1      -6.784   7.950  70.156  1.00  0.00    -0.038 A  
HETATM   17  C   UNL     1      -8.164   8.071  70.143  1.00  0.00    -0.120 A  
ENDBRANCH   3  12
TORSDOF 1
ENDMDL
MODEL       85
REMARK 921   NORMALIZED FREE ENERGY PREDICTED BY IDOCK:   -4.08 KCAL/MOL
REMARK 922        TOTAL FREE ENERGY PREDICTED BY IDOCK:   -4.61 KCAL/MOL
REMARK 923 INTER-LIGAND FREE ENERGY PREDICTED BY IDOCK:   -4.38 KCAL/MOL
REMARK 924 INTRA-LIGAND FREE ENERGY PREDICTED BY IDOCK:   -0.24 KCAL/MOL
REMARK 927      BINDING AFFINITY PREDICTED BY RF-SCORE:    0.00 PKD
ROOT
HETATM    1  C   UNL     1     -10.443   8.842  70.192  1.00  0.00    -0.230 C  
HETATM    2  C   UNL     1     -10.788   9.838  69.118  1.00  0.00    -0.207 C  
HETATM    3  C   UNL     1     -10.724   9.628  67.781  1.00  0.00    -0.316 C  
HETATM    4  H   UNL     1     -11.244  11.194  70.599  1.00  0.00     0.000 HD 
HETATM    5  C   UNL     1     -11.137  10.707  66.887  1.00  0.00    -0.162 C  
HETATM    6  C   UNL     1     -11.539  11.907  67.339  1.00  0.00    -0.367 C  
HETATM    7  O   UNL     1     -11.892  13.210  69.303  1.00  0.00    -0.302 OA 
HETATM    8  C   UNL     1     -11.939  12.944  66.457  1.00  0.00    -0.377 C  
HETATM    9  N   UNL     1     -12.257  13.755  65.689  1.00  0.00    -0.424 NA 
HETATM   10  C   UNL     1     -11.566  12.139  68.805  1.00  0.00    -0.327 C  
HETATM   11  N   UNL     1     -11.203  11.069  69.588  1.00  0.00    -0.266 N  
ENDROOT
BRANCH   3  12
HETATM   12  C   UNL     1     -10.205   8.362  67.225  1.00  0.00    -0.349 A  
HETATM   13  C   UNL     1     -10.464   6.068  66.618  1.00  0.00    -0.228 A  
HETATM   14  C   UNL     1     -10.995   7.212  67.193  1.00  0.00    -0.342 A  
HETATM   15  N   UNL     1      -9.225   6.002  66.084  1.00  0.00    -0.156 NA 
HETATM   16  C   UNL     1      -8.484   7.129  66.119  1.00  0.00    -0.142 A  
HETATM   17  C   UNL     1      -8.924   8.320  66.672  1.00  0.00    -0.179 A  
ENDBRANCH   3  12
TORSDOF 1
ENDMDL
MODEL       86
REMARK 921   NORMALIZED FREE ENERGY PREDICTED BY IDOCK:   -4.08 KCAL/MOL
REMARK 922        TOTAL FREE ENERGY PREDICTED BY IDOCK:   -4.60 KCAL/MOL
REMARK 923 INTER-LIGAND FREE ENERGY PREDICTED BY IDOCK:   -4.34 KCAL/MOL
REMARK 924 INTRA-LIGAND FREE ENERGY PREDICTED BY IDOCK:   -0.26 KCAL/MOL
REMARK 927      BINDING AFFINITY PREDICTED BY RF-SCORE:    0.00 PKD
ROOT
HETATM    1  C   UNL     1     -12.444  10.966  70.894  1.00  0.00    -0.507 C  
HETATM    2  C   UNL     1     -11.883   9.603  70.590  1.00  0.00    -0.256 C  
HETATM    3  C   UNL     1     -10.973   9.308  69.631  1.00  0.00    -0.192 C  
HETATM    4  H   UNL     1     -13.054   8.844  72.104  1.00  0.00     0.000 HD 
HETATM    5  C   UNL     1     -10.516   7.925  69.509  1.00  0.00    -0.226 C  
HETATM    6  C   UNL     1     -10.991   6.934  70.282  1.00  0.00    -0.322 C  
HETATM    7  O   UNL     1     -12.527   6.419  72.031  1.00  0.00    -0.333 OA 
HETATM    8  C   UNL     1     -10.535   5.598  70.152  1.00  0.00    -0.296 C  
HETATM    9  N   UNL     1     -10.123   4.522  70.002  1.00  0.00    -0.207 NA 
HETATM   10  C   UNL     1     -12.019   7.264  71.302  1.00  0.00    -0.324 C  
HETATM   11  N   UNL     1     -12.373   8.588  71.390  1.00  0.00    -0.301 N  
ENDROOT
BRANCH   3  12
HETATM   12  C   UNL     1     -10.481  10.337  68.693  1.00  0.00    -0.215 A  
HETATM   13  C   UNL     1      -8.801  11.840  67.910  1.00  0.00    -0.165 A  
HETATM   14  C   UNL     1      -9.219  10.911  68.850  1.00  0.00    -0.168 A  
HETATM   15  N   UNL     1      -9.543  12.220  66.847  1.00  0.00    -0.207 NA 
HETATM   16  C   UNL     1     -10.756  11.644  66.712  1.00  0.00    -0.260 A  
HETATM   17  C   UNL     1     -11.264  10.708  67.598  1.00  0.00    -0.361 A  
ENDBRANCH   3  12
TORSDOF 1
ENDMDL
MODEL       87
REMARK 921   NORMALIZED FREE ENERGY PREDICTED BY IDOCK:   -4.07 KCAL/MOL
REMARK 922        TOTAL FREE ENERGY PREDICTED BY IDOCK:   -4.59 KCAL/MOL
REMARK 923 INTER-LIGAND FREE ENERGY PREDICTED BY IDOCK:   -4.30 KCAL/MOL
REMARK 924 INTRA-LIGAND FREE ENERGY PREDICTED BY IDOCK:   -0.29 KCAL/MOL
REMARK 927      BINDING AFFINITY PREDICTED BY RF-SCORE:    0.00 PKD
ROOT
HETATM    1  C   UNL     1     -10.174   4.994  72.504  1.00  0.00    -0.247 C  
HETATM    2  C   UNL     1     -10.218   5.041  71.000  1.00  0.00    -0.213 C  
HETATM    3  C   UNL     1     -10.812   5.998  70.247  1.00  0.00    -0.398 C  
HETATM    4  H   UNL     1      -9.140   3.287  70.968  1.00  0.00     0.000 HD 
HETATM    5  C   UNL     1     -10.719   5.894  68.792  1.00  0.00    -0.354 C  
HETATM    6  C   UNL     1     -10.102   4.871  68.177  1.00  0.00    -0.141 C  
HETATM    7  O   UNL     1      -8.933   2.826  68.537  1.00  0.00    -0.109 OA 
HETATM    8  C   UNL     1     -10.018   4.787  66.764  1.00  0.00    -0.228 C  
HETATM    9  N   UNL     1      -9.978   4.772  65.603  1.00  0.00    -0.188 NA 
HETATM   10  C   UNL     1      -9.490   3.808  69.013  1.00  0.00    -0.163 C  
HETATM   11  N   UNL     1      -9.580   3.988  70.373  1.00  0.00    -0.183 N  
ENDROOT
BRANCH   3  12
HETATM   12  C   UNL     1     -11.581   7.097  70.864  1.00  0.00    -0.350 A  
HETATM   13  C   UNL     1     -13.575   7.989  71.824  1.00  0.00    -0.348 A  
HETATM   14  C   UNL     1     -12.923   6.933  71.208  1.00  0.00    -0.309 A  
HETATM   15  N   UNL     1     -12.986   9.170  72.114  1.00  0.00    -0.402 NA 
HETATM   16  C   UNL     1     -11.686   9.301  71.779  1.00  0.00    -0.386 A  
HETATM   17  C   UNL     1     -10.948   8.306  71.161  1.00  0.00    -0.286 A  
ENDBRANCH   3  12
TORSDOF 1
ENDMDL
MODEL       88
REMARK 921   NORMALIZED FREE ENERGY PREDICTED BY IDOCK:   -4.04 KCAL/MOL
REMARK 922        TOTAL FREE ENERGY PREDICTED BY IDOCK:   -4.57 KCAL/MOL
REMARK 923 INTER-LIGAND FREE ENERGY PREDICTED BY IDOCK:   -4.26 KCAL/MOL
REMARK 924 INTRA-LIGAND FREE ENERGY PREDICTED BY IDOCK:   -0.31 KCAL/MOL
REMARK 927      BINDING AFFINITY PREDICTED BY RF-SCORE:    0.00 PKD
ROOT
HETATM    1  C   UNL     1     -10.885   7.396  70.187  1.00  0.00    -0.270 C  
HETATM    2  C   UNL     1     -11.155   8.874  70.105  1.00  0.00    -0.201 C  
HETATM    3  C   UNL     1     -10.652   9.729  69.182  1.00  0.00    -0.237 C  
HETATM    4  H   UNL     1     -12.363   8.690  71.763  1.00  0.00     0.000 HD 
HETATM    5  C   UNL     1     -11.059  11.132  69.240  1.00  0.00    -0.318 C  
HETATM    6  C   UNL     1     -11.878  11.610  70.192  1.00  0.00    -0.428 C  
HETATM    7  O   UNL     1     -13.117  11.025  72.143  1.00  0.00    -0.460 OA 
HETATM    8  C   UNL     1     -12.264  12.973  70.233  1.00  0.00    -0.296 C  
HETATM    9  N   UNL     1     -12.549  14.099  70.215  1.00  0.00    -0.339 NA 
HETATM   10  C   UNL     1     -12.389  10.670  71.223  1.00  0.00    -0.383 C  
HETATM   11  N   UNL     1     -11.999   9.360  71.085  1.00  0.00    -0.317 N  
ENDROOT
BRANCH   3  12
HETATM   12  C   UNL     1      -9.679   9.281  68.167  1.00  0.00    -0.169 A  
HETATM   13  C   UNL     1      -9.129   8.495  65.981  1.00  0.00    -0.194 A  
HETATM   14  C   UNL     1     -10.097   8.863  66.903  1.00  0.00    -0.343 A  
HETATM   15  N   UNL     1      -7.803   8.521  66.234  1.00  0.00    -0.097 NA 
HETATM   16  C   UNL     1      -7.423   8.936  67.460  1.00  0.00    -0.085 A  
HETATM   17  C   UNL     1      -8.312   9.323  68.449  1.00  0.00    -0.119 A  
ENDBRANCH   3  12
TORSDOF 1
ENDMDL
MODEL       89
REMARK 921   NORMALIZED FREE ENERGY PREDICTED BY IDOCK:   -4.02 KCAL/MOL
REMARK 922        TOTAL FREE ENERGY PREDICTED BY IDOCK:   -4.54 KCAL/MOL
REMARK 923 INTER-LIGAND FREE ENERGY PREDICTED BY IDOCK:   -4.37 KCAL/MOL
REMARK 924 INTRA-LIGAND FREE ENERGY PREDICTED BY IDOCK:   -0.17 KCAL/MOL
REMARK 927      BINDING AFFINITY PREDICTED BY RF-SCORE:    0.00 PKD
ROOT
HETATM    1  C   UNL     1      -9.287  10.952  64.604  1.00  0.00    -0.256 C  
HETATM    2  C   UNL     1      -9.735  10.069  65.737  1.00  0.00    -0.257 C  
HETATM    3  C   UNL     1     -10.473  10.452  66.807  1.00  0.00    -0.287 C  
HETATM    4  H   UNL     1      -8.779   8.495  64.816  1.00  0.00     0.000 HD 
HETATM    5  C   UNL     1     -10.845   9.440  67.794  1.00  0.00    -0.223 C  
HETATM    6  C   UNL     1     -10.451   8.159  67.700  1.00  0.00    -0.300 C  
HETATM    7  O   UNL     1      -9.182   6.621  66.394  1.00  0.00    -0.156 OA 
HETATM    8  C   UNL     1     -10.823   7.189  68.665  1.00  0.00    -0.108 C  
HETATM    9  N   UNL     1     -11.160   6.437  69.484  1.00  0.00    -0.363 NA 
HETATM   10  C   UNL     1      -9.608   7.760  66.544  1.00  0.00    -0.201 C  
HETATM   11  N   UNL     1      -9.330   8.752  65.635  1.00  0.00    -0.191 N  
ENDROOT
BRANCH   3  12
HETATM   12  C   UNL     1     -10.858  11.863  67.011  1.00  0.00    -0.303 A  
HETATM   13  C   UNL     1     -10.593  13.984  68.072  1.00  0.00    -0.247 A  
HETATM   14  C   UNL     1     -10.213  12.656  67.961  1.00  0.00    -0.230 A  
HETATM   15  N   UNL     1     -11.551  14.558  67.311  1.00  0.00    -0.371 NA 
HETATM   16  C   UNL     1     -12.153  13.774  66.394  1.00  0.00    -0.444 A  
HETATM   17  C   UNL     1     -11.846  12.436  66.206  1.00  0.00    -0.431 A  
ENDBRANCH   3  12
TORSDOF 1
ENDMDL
MODEL       90
REMARK 921   NORMALIZED FREE ENERGY PREDICTED BY IDOCK:   -4.01 KCAL/MOL
REMARK 922        TOTAL FREE ENERGY PREDICTED BY IDOCK:   -4.54 KCAL/MOL
REMARK 923 INTER-LIGAND FREE ENERGY PREDICTED BY IDOCK:   -4.98 KCAL/MOL
REMARK 924 INTRA-LIGAND FREE ENERGY PREDICTED BY IDOCK:    0.44 KCAL/MOL
REMARK 927      BINDING AFFINITY PREDICTED BY RF-SCORE:    0.00 PKD
ROOT
HETATM    1  C   UNL     1     -11.324  13.092  67.762  1.00  0.00    -0.333 C  
HETATM    2  C   UNL     1     -11.248  11.778  68.492  1.00  0.00    -0.252 C  
HETATM    3  C   UNL     1     -11.667  11.541  69.758  1.00  0.00    -0.426 C  
HETATM    4  H   UNL     1     -10.385  10.957  66.812  1.00  0.00     0.000 HD 
HETATM    5  C   UNL     1     -11.545  10.184  70.288  1.00  0.00    -0.379 C  
HETATM    6  C   UNL     1     -10.999   9.178  69.584  1.00  0.00    -0.168 C  
HETATM    7  O   UNL     1      -9.969   8.611  67.511  1.00  0.00    -0.171 OA 
HETATM    8  C   UNL     1     -10.890   7.867  70.113  1.00  0.00    -0.243 C  
HETATM    9  N   UNL     1     -10.829   6.813  70.596  1.00  0.00    -0.238 NA 
HETATM   10  C   UNL     1     -10.505   9.461  68.213  1.00  0.00    -0.217 C  
HETATM   11  N   UNL     1     -10.688  10.746  67.763  1.00  0.00    -0.230 N  
ENDROOT
BRANCH   3  12
HETATM   12  C   UNL     1     -12.193  12.626  70.611  1.00  0.00    -0.373 A  
HETATM   13  C   UNL     1     -13.544  13.420  72.410  1.00  0.00    -0.606 A  
HETATM   14  C   UNL     1     -13.124  12.364  71.617  1.00  0.00    -0.408 A  
HETATM   15  N   UNL     1     -13.102  14.689  72.269  1.00  0.00    -0.338 NA 
HETATM   16  C   UNL     1     -12.196  14.915  71.295  1.00  0.00    -0.325 A  
HETATM   17  C   UNL     1     -11.715  13.928  70.450  1.00  0.00    -0.269 A  
ENDBRANCH   3  12
TORSDOF 1
ENDMDL
MODEL       91
REMARK 921   NORMALIZED FREE ENERGY PREDICTED BY IDOCK:   -3.99 KCAL/MOL
REMARK 922        TOTAL FREE ENERGY PREDICTED BY IDOCK:   -4.51 KCAL/MOL
REMARK 923 INTER-LIGAND FREE ENERGY PREDICTED BY IDOCK:   -4.21 KCAL/MOL
REMARK 924 INTRA-LIGAND FREE ENERGY PREDICTED BY IDOCK:   -0.30 KCAL/MOL
REMARK 927      BINDING AFFINITY PREDICTED BY RF-SCORE:    0.00 PKD
ROOT
HETATM    1  C   UNL     1     -11.741  11.048  69.230  1.00  0.00    -0.397 C  
HETATM    2  C   UNL     1     -10.960  10.024  68.451  1.00  0.00    -0.217 C  
HETATM    3  C   UNL     1     -10.466   8.858  68.933  1.00  0.00    -0.225 C  
HETATM    4  H   UNL     1     -11.138  11.231  66.792  1.00  0.00     0.000 HD 
HETATM    5  C   UNL     1      -9.762   7.968  68.012  1.00  0.00    -0.184 C  
HETATM    6  C   UNL     1      -9.554   8.280  66.721  1.00  0.00    -0.288 C  
HETATM    7  O   UNL     1      -9.895   9.957  65.062  1.00  0.00    -0.317 OA 
HETATM    8  C   UNL     1      -8.871   7.404  65.840  1.00  0.00    -0.120 C  
HETATM    9  N   UNL     1      -8.306   6.646  65.164  1.00  0.00    -0.122 NA 
HETATM   10  C   UNL     1     -10.064   9.579  66.216  1.00  0.00    -0.257 C  
HETATM   11  N   UNL     1     -10.750  10.348  67.124  1.00  0.00    -0.266 N  
ENDROOT
BRANCH   3  12
HETATM   12  C   UNL     1     -10.586   8.503  70.361  1.00  0.00    -0.242 A  
HETATM   13  C   UNL     1     -11.734   7.479  72.186  1.00  0.00    -0.303 A  
HETATM   14  C   UNL     1     -11.704   7.821  70.843  1.00  0.00    -0.281 A  
HETATM   15  N   UNL     1     -10.742   7.766  73.056  1.00  0.00    -0.382 NA 
HETATM   16  C   UNL     1      -9.668   8.418  72.565  1.00  0.00    -0.289 A  
HETATM   17  C   UNL     1      -9.544   8.803  71.241  1.00  0.00    -0.323 A  
ENDBRANCH   3  12
TORSDOF 1
ENDMDL
MODEL       92
REMARK 921   NORMALIZED FREE ENERGY PREDICTED BY IDOCK:   -3.97 KCAL/MOL
REMARK 922        TOTAL FREE ENERGY PREDICTED BY IDOCK:   -4.49 KCAL/MOL
REMARK 923 INTER-LIGAND FREE ENERGY PREDICTED BY IDOCK:   -4.23 KCAL/MOL
REMARK 924 INTRA-LIGAND FREE ENERGY PREDICTED BY IDOCK:   -0.25 KCAL/MOL
REMARK 927      BINDING AFFINITY PREDICTED BY RF-SCORE:    0.00 PKD
ROOT
HETATM    1  C   UNL     1      -9.419   7.650  73.261  1.00  0.00    -0.317 C  
HETATM    2  C   UNL     1      -9.648   7.036  71.906  1.00  0.00    -0.150 C  
HETATM    3  C   UNL     1     -10.535   7.460  70.975  1.00  0.00    -0.223 C  
HETATM    4  H   UNL     1      -8.196   5.645  72.353  1.00  0.00     0.000 HD 
HETATM    5  C   UNL     1     -10.591   6.756  69.696  1.00  0.00    -0.267 C  
HETATM    6  C   UNL     1      -9.825   5.686  69.425  1.00  0.00    -0.232 C  
HETATM    7  O   UNL     1      -8.171   4.221  70.319  1.00  0.00    -0.061 OA 
HETATM    8  C   UNL     1      -9.889   5.015  68.177  1.00  0.00    -0.146 C  
HETATM    9  N   UNL     1      -9.983   4.507  67.137  1.00  0.00    -0.187 NA 
HETATM   10  C   UNL     1      -8.886   5.205  70.470  1.00  0.00    -0.119 C  
HETATM   11  N   UNL     1      -8.856   5.937  71.632  1.00  0.00    -0.139 N  
ENDROOT
BRANCH   3  12
HETATM   12  C   UNL     1     -11.465   8.574  71.249  1.00  0.00    -0.329 A  
HETATM   13  C   UNL     1     -13.412   9.483  72.288  1.00  0.00    -0.440 A  
HETATM   14  C   UNL     1     -12.603   8.386  72.034  1.00  0.00    -0.400 A  
HETATM   15  N   UNL     1     -13.160  10.726  71.823  1.00  0.00    -0.478 NA 
HETATM   16  C   UNL     1     -12.049  10.884  71.074  1.00  0.00    -0.320 A  
HETATM   17  C   UNL     1     -11.180   9.852  70.763  1.00  0.00    -0.427 A  
ENDBRANCH   3  12
TORSDOF 1
ENDMDL
MODEL       93
REMARK 921   NORMALIZED FREE ENERGY PREDICTED BY IDOCK:   -3.96 KCAL/MOL
REMARK 922        TOTAL FREE ENERGY PREDICTED BY IDOCK:   -4.47 KCAL/MOL
REMARK 923 INTER-LIGAND FREE ENERGY PREDICTED BY IDOCK:   -4.17 KCAL/MOL
REMARK 924 INTRA-LIGAND FREE ENERGY PREDICTED BY IDOCK:   -0.31 KCAL/MOL
REMARK 927      BINDING AFFINITY PREDICTED BY RF-SCORE:    0.00 PKD
ROOT
HETATM    1  C   UNL     1     -10.197   9.987  66.042  1.00  0.00    -0.277 C  
HETATM    2  C   UNL     1     -10.539  11.260  66.768  1.00  0.00    -0.260 C  
HETATM    3  C   UNL     1     -10.444  11.471  68.103  1.00  0.00    -0.216 C  
HETATM    4  H   UNL     1     -11.047  12.093  64.955  1.00  0.00     0.000 HD 
HETATM    5  C   UNL     1     -10.789  12.792  68.625  1.00  0.00    -0.284 C  
HETATM    6  C   UNL     1     -11.230  13.788  67.839  1.00  0.00    -0.299 C  
HETATM    7  O   UNL     1     -11.790  14.373  65.597  1.00  0.00    -0.353 OA 
HETATM    8  C   UNL     1     -11.557  15.065  68.361  1.00  0.00    -0.331 C  
HETATM    9  N   UNL     1     -11.809  16.092  68.844  1.00  0.00    -0.338 NA 
HETATM   10  C   UNL     1     -11.369  13.532  66.383  1.00  0.00    -0.316 C  
HETATM   11  N   UNL     1     -10.990  12.283  65.955  1.00  0.00    -0.281 N  
ENDROOT
BRANCH   3  12
HETATM   12  C   UNL     1     -10.052  10.388  69.027  1.00  0.00    -0.227 A  
HETATM   13  C   UNL     1      -8.417   9.171  70.269  1.00  0.00    -0.191 A  
HETATM   14  C   UNL     1      -8.714  10.177  69.363  1.00  0.00    -0.186 A  
HETATM   15  N   UNL     1      -9.348   8.384  70.850  1.00  0.00    -0.158 NA 
HETATM   16  C   UNL     1     -10.635   8.613  70.517  1.00  0.00    -0.217 A  
HETATM   17  C   UNL     1     -11.034   9.592  69.621  1.00  0.00    -0.233 A  
ENDBRANCH   3  12
TORSDOF 1
ENDMDL
MODEL       94
REMARK 921   NORMALIZED FREE ENERGY PREDICTED BY IDOCK:   -3.93 KCAL/MOL
REMARK 922        TOTAL FREE ENERGY PREDICTED BY IDOCK:   -4.44 KCAL/MOL
REMARK 923 INTER-LIGAND FREE ENERGY PREDICTED BY IDOCK:   -4.16 KCAL/MOL
REMARK 924 INTRA-LIGAND FREE ENERGY PREDICTED BY IDOCK:   -0.28 KCAL/MOL
REMARK 927      BINDING AFFINITY PREDICTED BY RF-SCORE:    0.00 PKD
ROOT
HETATM    1  C   UNL     1     -10.592  12.559  65.544  1.00  0.00    -0.304 C  
HETATM    2  C   UNL     1     -10.624  11.670  66.758  1.00  0.00    -0.244 C  
HETATM    3  C   UNL     1     -10.705  12.078  68.047  1.00  0.00    -0.244 C  
HETATM    4  H   UNL     1     -10.505  10.043  65.501  1.00  0.00     0.000 HD 
HETATM    5  C   UNL     1     -10.762  11.062  69.096  1.00  0.00    -0.274 C  
HETATM    6  C   UNL     1     -10.699   9.746  68.833  1.00  0.00    -0.241 C  
HETATM    7  O   UNL     1     -10.477   8.136  67.090  1.00  0.00    -0.295 OA 
HETATM    8  C   UNL     1     -10.758   8.773  69.863  1.00  0.00    -0.223 C  
HETATM    9  N   UNL     1     -10.813   8.021  70.746  1.00  0.00    -0.228 NA 
HETATM   10  C   UNL     1     -10.569   9.312  67.419  1.00  0.00    -0.255 C  
HETATM   11  N   UNL     1     -10.562  10.318  66.482  1.00  0.00    -0.175 N  
ENDROOT
BRANCH   3  12
HETATM   12  C   UNL     1     -10.687  13.511  68.404  1.00  0.00    -0.273 A  
HETATM   13  C   UNL     1      -9.541  15.566  68.802  1.00  0.00    -0.208 A  
HETATM   14  C   UNL     1      -9.485  14.213  68.507  1.00  0.00    -0.202 A  
HETATM   15  N   UNL     1     -10.692  16.247  68.993  1.00  0.00    -0.278 NA 
HETATM   16  C   UNL     1     -11.840  15.549  68.880  1.00  0.00    -0.338 A  
HETATM   17  C   UNL     1     -11.891  14.196  68.589  1.00  0.00    -0.383 A  
ENDBRANCH   3  12
TORSDOF 1
ENDMDL
MODEL       95
REMARK 921   NORMALIZED FREE ENERGY PREDICTED BY IDOCK:   -3.91 KCAL/MOL
REMARK 922        TOTAL FREE ENERGY PREDICTED BY IDOCK:   -4.43 KCAL/MOL
REMARK 923 INTER-LIGAND FREE ENERGY PREDICTED BY IDOCK:   -4.13 KCAL/MOL
REMARK 924 INTRA-LIGAND FREE ENERGY PREDICTED BY IDOCK:   -0.30 KCAL/MOL
REMARK 927      BINDING AFFINITY PREDICTED BY RF-SCORE:    0.00 PKD
ROOT
HETATM    1  C   UNL     1      -7.692  12.515  67.195  1.00  0.00    -0.109 C  
HETATM    2  C   UNL     1      -8.917  12.147  67.989  1.00  0.00    -0.189 C  
HETATM    3  C   UNL     1     -10.108  12.792  67.967  1.00  0.00    -0.230 C  
HETATM    4  H   UNL     1      -7.857  10.576  68.793  1.00  0.00     0.000 HD 
HETATM    5  C   UNL     1     -11.200  12.264  68.782  1.00  0.00    -0.312 C  
HETATM    6  C   UNL     1     -11.056  11.190  69.576  1.00  0.00    -0.311 C  
HETATM    7  O   UNL     1      -9.505   9.549  70.340  1.00  0.00    -0.242 OA 
HETATM    8  C   UNL     1     -12.127  10.688  70.359  1.00  0.00    -0.341 C  
HETATM    9  N   UNL     1     -13.039  10.320  70.976  1.00  0.00    -0.388 NA 
HETATM   10  C   UNL     1      -9.733  10.516  69.623  1.00  0.00    -0.056 C  
HETATM   11  N   UNL     1      -8.764  11.041  68.802  1.00  0.00    -0.159 N  
ENDROOT
BRANCH   3  12
HETATM   12  C   UNL     1     -10.300  14.029  67.183  1.00  0.00    -0.265 A  
HETATM   13  C   UNL     1     -10.874  15.177  65.171  1.00  0.00    -0.422 A  
HETATM   14  C   UNL     1     -10.668  13.979  65.838  1.00  0.00    -0.293 A  
HETATM   15  N   UNL     1     -10.741  16.391  65.748  1.00  0.00    -0.282 NA 
HETATM   16  C   UNL     1     -10.393  16.413  67.051  1.00  0.00    -0.293 A  
HETATM   17  C   UNL     1     -10.164  15.273  67.804  1.00  0.00    -0.237 A  
ENDBRANCH   3  12
TORSDOF 1
ENDMDL
MODEL       96
REMARK 921   NORMALIZED FREE ENERGY PREDICTED BY IDOCK:   -3.90 KCAL/MOL
REMARK 922        TOTAL FREE ENERGY PREDICTED BY IDOCK:   -4.41 KCAL/MOL
REMARK 923 INTER-LIGAND FREE ENERGY PREDICTED BY IDOCK:   -4.28 KCAL/MOL
REMARK 924 INTRA-LIGAND FREE ENERGY PREDICTED BY IDOCK:   -0.13 KCAL/MOL
REMARK 927      BINDING AFFINITY PREDICTED BY RF-SCORE:    0.00 PKD
ROOT
HETATM    1  C   UNL     1      -7.230  10.872  66.512  1.00  0.00    -0.142 C  
HETATM    2  C   UNL     1      -8.229   9.918  67.111  1.00  0.00    -0.121 C  
HETATM    3  C   UNL     1      -9.537   9.813  66.775  1.00  0.00    -0.228 C  
HETATM    4  H   UNL     1      -6.728   9.193  68.321  1.00  0.00     0.000 HD 
HETATM    5  C   UNL     1     -10.347   8.797  67.443  1.00  0.00    -0.349 C  
HETATM    6  C   UNL     1      -9.855   7.993  68.400  1.00  0.00    -0.184 C  
HETATM    7  O   UNL     1      -7.906   7.474  69.671  1.00  0.00    -0.113 OA 
HETATM    8  C   UNL     1     -10.654   7.010  69.037  1.00  0.00    -0.217 C  
HETATM    9  N   UNL     1     -11.355   6.221  69.523  1.00  0.00    -0.430 NA 
HETATM   10  C   UNL     1      -8.430   8.145  68.789  1.00  0.00    -0.126 C  
HETATM   11  N   UNL     1      -7.717   9.091  68.093  1.00  0.00    -0.095 N  
ENDROOT
BRANCH   3  12
HETATM   12  C   UNL     1     -10.155  10.728  65.795  1.00  0.00    -0.320 A  
HETATM   13  C   UNL     1     -10.472  11.524  63.567  1.00  0.00    -0.428 A  
HETATM   14  C   UNL     1      -9.823  10.665  64.441  1.00  0.00    -0.395 A  
HETATM   15  N   UNL     1     -11.411  12.417  63.950  1.00  0.00    -0.396 NA 
HETATM   16  C   UNL     1     -11.721  12.452  65.262  1.00  0.00    -0.390 A  
HETATM   17  C   UNL     1     -11.129  11.638  66.213  1.00  0.00    -0.345 A  
ENDBRANCH   3  12
TORSDOF 1
ENDMDL
MODEL       97
REMARK 921   NORMALIZED FREE ENERGY PREDICTED BY IDOCK:   -3.89 KCAL/MOL
REMARK 922        TOTAL FREE ENERGY PREDICTED BY IDOCK:   -4.41 KCAL/MOL
REMARK 923 INTER-LIGAND FREE ENERGY PREDICTED BY IDOCK:   -4.12 KCAL/MOL
REMARK 924 INTRA-LIGAND FREE ENERGY PREDICTED BY IDOCK:   -0.28 KCAL/MOL
REMARK 927      BINDING AFFINITY PREDICTED BY RF-SCORE:    0.00 PKD
ROOT
HETATM    1  C   UNL     1     -12.534  10.667  69.730  1.00  0.00    -0.187 C  
HETATM    2  C   UNL     1     -11.047  10.660  69.498  1.00  0.00    -0.274 C  
HETATM    3  C   UNL     1     -10.379  11.377  68.563  1.00  0.00    -0.219 C  
HETATM    4  H   UNL     1     -10.869   9.304  71.038  1.00  0.00     0.000 HD 
HETATM    5  C   UNL     1      -8.923  11.268  68.512  1.00  0.00    -0.166 C  
HETATM    6  C   UNL     1      -8.229  10.458  69.329  1.00  0.00    -0.163 C  
HETATM    7  O   UNL     1      -8.427   8.861  71.087  1.00  0.00    -0.174 OA 
HETATM    8  C   UNL     1      -6.815  10.366  69.268  1.00  0.00    -0.073 C  
HETATM    9  N   UNL     1      -5.658  10.333  69.175  1.00  0.00    -0.038 NA 
HETATM   10  C   UNL     1      -8.976   9.646  70.323  1.00  0.00    -0.219 C  
HETATM   11  N   UNL     1     -10.338   9.827  70.343  1.00  0.00    -0.283 N  
ENDROOT
BRANCH   3  12
HETATM   12  C   UNL     1     -11.095  12.215  67.579  1.00  0.00    -0.328 A  
HETATM   13  C   UNL     1     -12.115  14.266  66.909  1.00  0.00    -0.409 A  
HETATM   14  C   UNL     1     -11.485  13.518  67.892  1.00  0.00    -0.353 A  
HETATM   15  N   UNL     1     -12.371  13.808  65.664  1.00  0.00    -0.452 NA 
HETATM   16  C   UNL     1     -11.976  12.549  65.384  1.00  0.00    -0.437 A  
HETATM   17  C   UNL     1     -11.342  11.722  66.296  1.00  0.00    -0.350 A  
ENDBRANCH   3  12
TORSDOF 1
ENDMDL
MODEL       98
REMARK 921   NORMALIZED FREE ENERGY PREDICTED BY IDOCK:   -3.89 KCAL/MOL
REMARK 922        TOTAL FREE ENERGY PREDICTED BY IDOCK:   -4.41 KCAL/MOL
REMARK 923 INTER-LIGAND FREE ENERGY PREDICTED BY IDOCK:   -4.10 KCAL/MOL
REMARK 924 INTRA-LIGAND FREE ENERGY PREDICTED BY IDOCK:   -0.31 KCAL/MOL
REMARK 927      BINDING AFFINITY PREDICTED BY RF-SCORE:    0.00 PKD
ROOT
HETATM    1  C   UNL     1     -12.304  11.070  70.527  1.00  0.00    -0.462 C  
HETATM    2  C   UNL     1     -11.704  11.086  69.147  1.00  0.00    -0.333 C  
HETATM    3  C   UNL     1     -10.883  10.146  68.621  1.00  0.00    -0.272 C  
HETATM    4  H   UNL     1     -12.673  12.871  68.806  1.00  0.00     0.000 HD 
HETATM    5  C   UNL     1     -10.427  10.314  67.242  1.00  0.00    -0.307 C  
HETATM    6  C   UNL     1     -10.759  11.381  66.495  1.00  0.00    -0.325 C  
HETATM    7  O   UNL     1     -11.954  13.443  66.500  1.00  0.00    -0.374 OA 
HETATM    8  C   UNL     1     -10.309  11.528  65.158  1.00  0.00    -0.278 C  
HETATM    9  N   UNL     1      -9.914  11.594  64.068  1.00  0.00    -0.281 NA 
HETATM   10  C   UNL     1     -11.625  12.425  67.098  1.00  0.00    -0.365 C  
HETATM   11  N   UNL     1     -12.050  12.184  68.382  1.00  0.00    -0.184 N  
ENDROOT
BRANCH   3  12
HETATM   12  C   UNL     1     -10.412   8.999  69.422  1.00  0.00    -0.229 A  
HETATM   13  C   UNL     1     -10.607   6.748  70.191  1.00  0.00    -0.218 A  
HETATM   14  C   UNL     1     -11.126   7.800  69.453  1.00  0.00     0.040 A  
HETATM   15  N   UNL     1      -9.447   6.814  70.881  1.00  0.00    -0.158 NA 
HETATM   16  C   UNL     1      -8.771   7.980  70.828  1.00  0.00    -0.138 A  
HETATM   17  C   UNL     1      -9.206   9.089  70.121  1.00  0.00    -0.212 A  
ENDBRANCH   3  12
TORSDOF 1
ENDMDL
MODEL       99
REMARK 921   NORMALIZED FREE ENERGY PREDICTED BY IDOCK:   -3.88 KCAL/MOL
REMARK 922        TOTAL FREE ENERGY PREDICTED BY IDOCK:   -4.39 KCAL/MOL
REMARK 923 INTER-LIGAND FREE ENERGY PREDICTED BY IDOCK:   -4.44 KCAL/MOL
REMARK 924 INTRA-LIGAND FREE ENERGY PREDICTED BY IDOCK:    0.05 KCAL/MOL
REMARK 927      BINDING AFFINITY PREDICTED BY RF-SCORE:    0.00 PKD
ROOT
HETATM    1  C   UNL     1      -9.888   9.588  70.425  1.00  0.00    -0.329 C  
HETATM    2  C   UNL     1     -10.097   8.592  69.316  1.00  0.00    -0.202 C  
HETATM    3  C   UNL     1     -10.327   8.882  68.013  1.00  0.00    -0.271 C  
HETATM    4  H   UNL     1      -9.865   7.085  70.701  1.00  0.00     0.000 HD 
HETATM    5  C   UNL     1     -10.470   7.775  67.070  1.00  0.00    -0.419 C  
HETATM    6  C   UNL     1     -10.420   6.487  67.451  1.00  0.00    -0.314 C  
HETATM    7  O   UNL     1     -10.179   5.040  69.329  1.00  0.00    -0.216 OA 
HETATM    8  C   UNL     1     -10.559   5.425  66.522  1.00  0.00    -0.289 C  
HETATM    9  N   UNL     1     -10.676   4.596  65.717  1.00  0.00    -0.265 NA 
HETATM   10  C   UNL     1     -10.209   6.183  68.889  1.00  0.00    -0.188 C  
HETATM   11  N   UNL     1     -10.043   7.270  69.714  1.00  0.00    -0.190 N  
ENDROOT
BRANCH   3  12
HETATM   12  C   UNL     1     -10.481  10.275  67.550  1.00  0.00    -0.293 A  
HETATM   13  C   UNL     1      -9.954  12.070  66.068  1.00  0.00    -0.234 A  
HETATM   14  C   UNL     1      -9.730  10.766  66.481  1.00  0.00    -0.236 A  
HETATM   15  N   UNL     1     -10.860  12.894  66.638  1.00  0.00    -0.265 NA 
HETATM   16  C   UNL     1     -11.579  12.394  67.664  1.00  0.00    -0.357 A  
HETATM   17  C   UNL     1     -11.429  11.106  68.151  1.00  0.00    -0.373 A  
ENDBRANCH   3  12
TORSDOF 1
ENDMDL
MODEL      100
REMARK 921   NORMALIZED FREE ENERGY PREDICTED BY IDOCK:   -3.85 KCAL/MOL
REMARK 922        TOTAL FREE ENERGY PREDICTED BY IDOCK:   -4.37 KCAL/MOL
REMARK 923 INTER-LIGAND FREE ENERGY PREDICTED BY IDOCK:   -4.18 KCAL/MOL
REMARK 924 INTRA-LIGAND FREE ENERGY PREDICTED BY IDOCK:   -0.19 KCAL/MOL
REMARK 927      BINDING AFFINITY PREDICTED BY RF-SCORE:    0.00 PKD
ROOT
HETATM    1  C   UNL     1     -11.035  10.129  67.559  1.00  0.00    -0.319 C  
HETATM    2  C   UNL     1     -10.195   9.795  66.357  1.00  0.00    -0.217 C  
HETATM    3  C   UNL     1     -10.000  10.583  65.272  1.00  0.00    -0.364 C  
HETATM    4  H   UNL     1      -9.749   7.988  67.239  1.00  0.00     0.000 HD 
HETATM    5  C   UNL     1      -9.116  10.102  64.213  1.00  0.00    -0.288 C  
HETATM    6  C   UNL     1      -8.523   8.897  64.257  1.00  0.00    -0.165 C  
HETATM    7  O   UNL     1      -8.300   6.902  65.541  1.00  0.00    -0.137 OA 
HETATM    8  C   UNL     1      -7.665   8.447  63.221  1.00  0.00    -0.140 C  
HETATM    9  N   UNL     1      -6.971   8.131  62.345  1.00  0.00    -0.086 NA 
HETATM   10  C   UNL     1      -8.777   8.026  65.431  1.00  0.00    -0.068 C  
HETATM   11  N   UNL     1      -9.585   8.556  66.408  1.00  0.00    -0.231 N  
ENDROOT
BRANCH   3  12
HETATM   12  C   UNL     1     -10.696  11.878  65.127  1.00  0.00    -0.339 A  
HETATM   13  C   UNL     1     -10.988  14.183  65.672  1.00  0.00    -0.308 A  
HETATM   14  C   UNL     1     -10.323  12.986  65.889  1.00  0.00    -0.296 A  
HETATM   15  N   UNL     1     -11.974  14.341  64.764  1.00  0.00    -0.417 NA 
HETATM   16  C   UNL     1     -12.311  13.258  64.033  1.00  0.00    -0.346 A  
HETATM   17  C   UNL     1     -11.708  12.019  64.175  1.00  0.00    -0.457 A  
ENDBRANCH   3  12
TORSDOF 1
ENDMDL
MODEL      101
REMARK 921   NORMALIZED FREE ENERGY PREDICTED BY IDOCK:   -3.82 KCAL/MOL
REMARK 922        TOTAL FREE ENERGY PREDICTED BY IDOCK:   -4.33 KCAL/MOL
REMARK 923 INTER-LIGAND FREE ENERGY PREDICTED BY IDOCK:   -4.09 KCAL/MOL
REMARK 924 INTRA-LIGAND FREE ENERGY PREDICTED BY IDOCK:   -0.24 KCAL/MOL
REMARK 927      BINDING AFFINITY PREDICTED BY RF-SCORE:    0.00 PKD
ROOT
HETATM    1  C   UNL     1     -11.220  10.280  69.014  1.00  0.00    -0.260 C  
HETATM    2  C   UNL     1     -10.167   9.768  69.959  1.00  0.00    -0.263 C  
HETATM    3  C   UNL     1     -10.379   8.989  71.047  1.00  0.00    -0.348 C  
HETATM    4  H   UNL     1      -8.752  10.741  68.822  1.00  0.00     0.000 HD 
HETATM    5  C   UNL     1      -9.222   8.558  71.829  1.00  0.00    -0.316 C  
HETATM    6  C   UNL     1      -7.967   8.935  71.533  1.00  0.00    -0.119 C  
HETATM    7  O   UNL     1      -6.646  10.239  70.037  1.00  0.00    -0.093 OA 
HETATM    8  C   UNL     1      -6.854   8.506  72.301  1.00  0.00    -0.077 C  
HETATM    9  N   UNL     1      -5.982   8.122  72.964  1.00  0.00    -0.061 NA 
HETATM   10  C   UNL     1      -7.752   9.824  70.362  1.00  0.00    -0.137 C  
HETATM   11  N   UNL     1      -8.878  10.158  69.649  1.00  0.00    -0.190 N  
ENDROOT
BRANCH   3  12
HETATM   12  C   UNL     1     -11.742   8.616  71.473  1.00  0.00    -0.369 A  
HETATM   13  C   UNL     1     -13.858   9.136  72.448  1.00  0.00    -0.457 A  
HETATM   14  C   UNL     1     -12.574   9.537  72.113  1.00  0.00    -0.411 A  
HETATM   15  N   UNL     1     -14.353   7.906  72.190  1.00  0.00    -0.334 NA 
HETATM   16  C   UNL     1     -13.533   7.037  71.563  1.00  0.00    -0.277 A  
HETATM   17  C   UNL     1     -12.235   7.340  71.189  1.00  0.00    -0.376 A  
ENDBRANCH   3  12
TORSDOF 1
ENDMDL
MODEL      102
REMARK 921   NORMALIZED FREE ENERGY PREDICTED BY IDOCK:   -3.80 KCAL/MOL
REMARK 922        TOTAL FREE ENERGY PREDICTED BY IDOCK:   -4.31 KCAL/MOL
REMARK 923 INTER-LIGAND FREE ENERGY PREDICTED BY IDOCK:   -4.06 KCAL/MOL
REMARK 924 INTRA-LIGAND FREE ENERGY PREDICTED BY IDOCK:   -0.24 KCAL/MOL
REMARK 927      BINDING AFFINITY PREDICTED BY RF-SCORE:    0.00 PKD
ROOT
HETATM    1  C   UNL     1     -10.237   8.525  66.610  1.00  0.00    -0.345 C  
HETATM    2  C   UNL     1     -10.364   8.425  68.106  1.00  0.00    -0.204 C  
HETATM    3  C   UNL     1     -10.551   9.456  68.964  1.00  0.00    -0.233 C  
HETATM    4  H   UNL     1     -10.137   6.385  67.933  1.00  0.00     0.000 HD 
HETATM    5  C   UNL     1     -10.689   9.159  70.388  1.00  0.00    -0.282 C  
HETATM    6  C   UNL     1     -10.600   7.912  70.880  1.00  0.00    -0.227 C  
HETATM    7  O   UNL     1     -10.231   5.630  70.297  1.00  0.00    -0.205 OA 
HETATM    8  C   UNL     1     -10.739   7.641  72.265  1.00  0.00    -0.260 C  
HETATM    9  N   UNL     1     -10.863   7.478  73.408  1.00  0.00    -0.367 NA 
HETATM   10  C   UNL     1     -10.354   6.794  69.933  1.00  0.00    -0.203 C  
HETATM   11  N   UNL     1     -10.274   7.140  68.606  1.00  0.00    -0.173 N  
ENDROOT
BRANCH   3  12
HETATM   12  C   UNL     1     -10.567  10.856  68.494  1.00  0.00    -0.219 A  
HETATM   13  C   UNL     1      -9.475  12.814  67.676  1.00  0.00    -0.190 A  
HETATM   14  C   UNL     1      -9.386  11.515  68.152  1.00  0.00    -0.185 A  
HETATM   15  N   UNL     1     -10.640  13.479  67.520  1.00  0.00    -0.243 NA 
HETATM   16  C   UNL     1     -11.769  12.817  67.849  1.00  0.00    -0.357 A  
HETATM   17  C   UNL     1     -11.785  11.520  68.333  1.00  0.00    -0.372 A  
ENDBRANCH   3  12
TORSDOF 1
ENDMDL
MODEL      103
REMARK 921   NORMALIZED FREE ENERGY PREDICTED BY IDOCK:   -3.78 KCAL/MOL
REMARK 922        TOTAL FREE ENERGY PREDICTED BY IDOCK:   -4.29 KCAL/MOL
REMARK 923 INTER-LIGAND FREE ENERGY PREDICTED BY IDOCK:   -4.05 KCAL/MOL
REMARK 924 INTRA-LIGAND FREE ENERGY PREDICTED BY IDOCK:   -0.24 KCAL/MOL
REMARK 927      BINDING AFFINITY PREDICTED BY RF-SCORE:    0.00 PKD
ROOT
HETATM    1  C   UNL     1     -11.827  12.516  70.046  1.00  0.00    -0.363 C  
HETATM    2  C   UNL     1     -11.069  12.119  68.808  1.00  0.00    -0.250 C  
HETATM    3  C   UNL     1     -10.310  12.935  68.038  1.00  0.00    -0.230 C  
HETATM    4  H   UNL     1     -11.766  10.198  69.064  1.00  0.00     0.000 HD 
HETATM    5  C   UNL     1      -9.615  12.359  66.889  1.00  0.00    -0.219 C  
HETATM    6  C   UNL     1      -9.732  11.065  66.547  1.00  0.00    -0.230 C  
HETATM    7  O   UNL     1     -10.785   9.005  67.121  1.00  0.00    -0.259 OA 
HETATM    8  C   UNL     1      -9.049  10.521  65.430  1.00  0.00    -0.187 C  
HETATM    9  N   UNL     1      -8.464  10.130  64.506  1.00  0.00    -0.169 NA 
HETATM   10  C   UNL     1     -10.600  10.189  67.375  1.00  0.00    -0.272 C  
HETATM   11  N   UNL     1     -11.190  10.786  68.462  1.00  0.00    -0.258 N  
ENDROOT
BRANCH   3  12
HETATM   12  C   UNL     1     -10.216  14.383  68.311  1.00  0.00    -0.241 A  
HETATM   13  C   UNL     1      -9.024  16.310  69.061  1.00  0.00    -0.254 A  
HETATM   14  C   UNL     1      -9.064  14.938  68.870  1.00  0.00    -0.191 A  
HETATM   15  N   UNL     1     -10.036  17.144  68.735  1.00  0.00    -0.299 NA 
HETATM   16  C   UNL     1     -11.136  16.585  68.189  1.00  0.00    -0.303 A  
HETATM   17  C   UNL     1     -11.273  15.226  67.959  1.00  0.00    -0.330 A  
ENDBRANCH   3  12
TORSDOF 1
ENDMDL
MODEL      104
REMARK 921   NORMALIZED FREE ENERGY PREDICTED BY IDOCK:   -3.77 KCAL/MOL
REMARK 922        TOTAL FREE ENERGY PREDICTED BY IDOCK:   -4.28 KCAL/MOL
REMARK 923 INTER-LIGAND FREE ENERGY PREDICTED BY IDOCK:   -3.99 KCAL/MOL
REMARK 924 INTRA-LIGAND FREE ENERGY PREDICTED BY IDOCK:   -0.29 KCAL/MOL
REMARK 927      BINDING AFFINITY PREDICTED BY RF-SCORE:    0.00 PKD
ROOT
HETATM    1  C   UNL     1      -7.562  12.055  67.814  1.00  0.00    -0.130 C  
HETATM    2  C   UNL     1      -8.349  11.199  68.768  1.00  0.00    -0.136 C  
HETATM    3  C   UNL     1      -9.695  11.206  68.927  1.00  0.00    -0.163 C  
HETATM    4  H   UNL     1      -6.576  10.357  69.390  1.00  0.00     0.000 HD 
HETATM    5  C   UNL     1     -10.288  10.272  69.882  1.00  0.00    -0.281 C  
HETATM    6  C   UNL     1      -9.548   9.437  70.632  1.00  0.00    -0.331 C  
HETATM    7  O   UNL     1      -7.320   8.762  71.141  1.00  0.00    -0.079 OA 
HETATM    8  C   UNL     1     -10.140   8.535  71.552  1.00  0.00    -0.245 C  
HETATM    9  N   UNL     1     -10.679   7.816  72.288  1.00  0.00    -0.248 NA 
HETATM   10  C   UNL     1      -8.072   9.468  70.479  1.00  0.00    -0.166 C  
HETATM   11  N   UNL     1      -7.585  10.340  69.536  1.00  0.00    -0.135 N  
ENDROOT
BRANCH   3  12
HETATM   12  C   UNL     1     -10.550  12.163  68.197  1.00  0.00    -0.236 A  
HETATM   13  C   UNL     1     -11.540  14.317  67.924  1.00  0.00    -0.336 A  
HETATM   14  C   UNL     1     -10.761  13.455  68.680  1.00  0.00    -0.275 A  
HETATM   15  N   UNL     1     -12.105  13.981  66.744  1.00  0.00    -0.447 NA 
HETATM   16  C   UNL     1     -11.880  12.729  66.294  1.00  0.00    -0.423 A  
HETATM   17  C   UNL     1     -11.118  11.794  66.975  1.00  0.00    -0.358 A  
ENDBRANCH   3  12
TORSDOF 1
ENDMDL
MODEL      105
REMARK 921   NORMALIZED FREE ENERGY PREDICTED BY IDOCK:   -3.76 KCAL/MOL
REMARK 922        TOTAL FREE ENERGY PREDICTED BY IDOCK:   -4.27 KCAL/MOL
REMARK 923 INTER-LIGAND FREE ENERGY PREDICTED BY IDOCK:   -4.53 KCAL/MOL
REMARK 924 INTRA-LIGAND FREE ENERGY PREDICTED BY IDOCK:    0.26 KCAL/MOL
REMARK 927      BINDING AFFINITY PREDICTED BY RF-SCORE:    0.00 PKD
ROOT
HETATM    1  C   UNL     1     -10.522   7.734  68.521  1.00  0.00    -0.202 C  
HETATM    2  C   UNL     1     -11.129   8.897  69.260  1.00  0.00     0.092 C  
HETATM    3  C   UNL     1     -11.193  10.177  68.822  1.00  0.00    -0.217 C  
HETATM    4  H   UNL     1     -11.597   7.607  70.795  1.00  0.00     0.000 HD 
HETATM    5  C   UNL     1     -11.857  11.169  69.666  1.00  0.00    -0.419 C  
HETATM    6  C   UNL     1     -12.370  10.866  70.871  1.00  0.00    -0.501 C  
HETATM    7  O   UNL     1     -12.672   9.110  72.453  1.00  0.00    -0.382 OA 
HETATM    8  C   UNL     1     -13.014  11.839  71.676  1.00  0.00    -0.362 C  
HETATM    9  N   UNL     1     -13.532  12.677  72.292  1.00  0.00    -0.534 NA 
HETATM   10  C   UNL     1     -12.257   9.468  71.357  1.00  0.00    -0.371 C  
HETATM   11  N   UNL     1     -11.658   8.580  70.496  1.00  0.00    -0.194 N  
ENDROOT
BRANCH   3  12
HETATM   12  C   UNL     1     -10.569  10.588  67.548  1.00  0.00    -0.306 A  
HETATM   13  C   UNL     1      -8.820  10.471  65.929  1.00  0.00    -0.165 A  
HETATM   14  C   UNL     1      -9.330  10.078  67.156  1.00  0.00    -0.173 A  
HETATM   15  N   UNL     1      -9.453  11.317  65.087  1.00  0.00    -0.222 NA 
HETATM   16  C   UNL     1     -10.652  11.789  65.485  1.00  0.00    -0.276 A  
HETATM   17  C   UNL     1     -11.246  11.458  66.691  1.00  0.00    -0.298 A  
ENDBRANCH   3  12
TORSDOF 1
ENDMDL
MODEL      106
REMARK 921   NORMALIZED FREE ENERGY PREDICTED BY IDOCK:   -3.75 KCAL/MOL
REMARK 922        TOTAL FREE ENERGY PREDICTED BY IDOCK:   -4.26 KCAL/MOL
REMARK 923 INTER-LIGAND FREE ENERGY PREDICTED BY IDOCK:   -4.09 KCAL/MOL
REMARK 924 INTRA-LIGAND FREE ENERGY PREDICTED BY IDOCK:   -0.17 KCAL/MOL
REMARK 927      BINDING AFFINITY PREDICTED BY RF-SCORE:    0.00 PKD
ROOT
HETATM    1  C   UNL     1      -8.072   7.886  67.916  1.00  0.00    -0.129 C  
HETATM    2  C   UNL     1      -9.094   8.927  67.546  1.00  0.00    -0.133 C  
HETATM    3  C   UNL     1     -10.235   9.203  68.222  1.00  0.00    -0.242 C  
HETATM    4  H   UNL     1      -7.930   9.413  65.918  1.00  0.00     0.000 HD 
HETATM    5  C   UNL     1     -11.092  10.280  67.729  1.00  0.00    -0.335 C  
HETATM    6  C   UNL     1     -10.810  10.977  66.615  1.00  0.00    -0.284 C  
HETATM    7  O   UNL     1      -9.257  11.201  64.821  1.00  0.00    -0.202 OA 
HETATM    8  C   UNL     1     -11.651  12.020  66.152  1.00  0.00    -0.304 C  
HETATM    9  N   UNL     1     -12.375  12.866  65.821  1.00  0.00    -0.550 NA 
HETATM   10  C   UNL     1      -9.577  10.637  65.861  1.00  0.00    -0.205 C  
HETATM   11  N   UNL     1      -8.798   9.642  66.401  1.00  0.00    -0.147 N  
ENDROOT
BRANCH   3  12
HETATM   12  C   UNL     1     -10.643   8.412  69.400  1.00  0.00    -0.204 A  
HETATM   13  C   UNL     1     -11.375   6.384  70.422  1.00  0.00    -0.389 A  
HETATM   14  C   UNL     1     -11.047   7.083  69.271  1.00  0.00    -0.166 A  
HETATM   15  N   UNL     1     -11.324   6.913  71.664  1.00  0.00    -0.250 NA 
HETATM   16  C   UNL     1     -10.922   8.197  71.763  1.00  0.00    -0.261 A  
HETATM   17  C   UNL     1     -10.574   8.980  70.675  1.00  0.00    -0.290 A  
ENDBRANCH   3  12
TORSDOF 1
ENDMDL
MODEL      107
REMARK 921   NORMALIZED FREE ENERGY PREDICTED BY IDOCK:   -3.75 KCAL/MOL
REMARK 922        TOTAL FREE ENERGY PREDICTED BY IDOCK:   -4.25 KCAL/MOL
REMARK 923 INTER-LIGAND FREE ENERGY PREDICTED BY IDOCK:   -4.04 KCAL/MOL
REMARK 924 INTRA-LIGAND FREE ENERGY PREDICTED BY IDOCK:   -0.21 KCAL/MOL
REMARK 927      BINDING AFFINITY PREDICTED BY RF-SCORE:    0.00 PKD
ROOT
HETATM    1  C   UNL     1      -8.754   7.971  71.300  1.00  0.00    -0.159 C  
HETATM    2  C   UNL     1      -9.159   8.465  69.937  1.00  0.00    -0.146 C  
HETATM    3  C   UNL     1     -10.387   8.912  69.580  1.00  0.00    -0.214 C  
HETATM    4  H   UNL     1      -7.237   8.100  69.294  1.00  0.00     0.000 HD 
HETATM    5  C   UNL     1     -10.583   9.388  68.212  1.00  0.00    -0.256 C  
HETATM    6  C   UNL     1      -9.607   9.363  67.290  1.00  0.00    -0.194 C  
HETATM    7  O   UNL     1      -7.338   8.747  66.899  1.00  0.00    -0.078 OA 
HETATM    8  C   UNL     1      -9.813   9.832  65.968  1.00  0.00    -0.274 C  
HETATM    9  N   UNL     1     -10.038  10.231  64.900  1.00  0.00    -0.326 NA 
HETATM   10  C   UNL     1      -8.276   8.832  67.682  1.00  0.00    -0.110 C  
HETATM   11  N   UNL     1      -8.150   8.439  68.993  1.00  0.00    -0.115 N  
ENDROOT
BRANCH   3  12
HETATM   12  C   UNL     1     -11.522   8.880  70.524  1.00  0.00    -0.231 A  
HETATM   13  C   UNL     1     -13.133   9.959  71.916  1.00  0.00    -0.459 A  
HETATM   14  C   UNL     1     -12.039  10.055  71.070  1.00  0.00    -0.469 A  
HETATM   15  N   UNL     1     -13.731   8.792  72.240  1.00  0.00    -0.434 NA 
HETATM   16  C   UNL     1     -13.219   7.670  71.693  1.00  0.00    -0.352 A  
HETATM   17  C   UNL     1     -12.129   7.661  70.839  1.00  0.00    -0.226 A  
ENDBRANCH   3  12
TORSDOF 1
ENDMDL
MODEL      108
REMARK 921   NORMALIZED FREE ENERGY PREDICTED BY IDOCK:   -3.73 KCAL/MOL
REMARK 922        TOTAL FREE ENERGY PREDICTED BY IDOCK:   -4.23 KCAL/MOL
REMARK 923 INTER-LIGAND FREE ENERGY PREDICTED BY IDOCK:   -3.93 KCAL/MOL
REMARK 924 INTRA-LIGAND FREE ENERGY PREDICTED BY IDOCK:   -0.31 KCAL/MOL
REMARK 927      BINDING AFFINITY PREDICTED BY RF-SCORE:    0.00 PKD
ROOT
HETATM    1  C   UNL     1      -8.089   9.526  68.580  1.00  0.00    -0.101 C  
HETATM    2  C   UNL     1      -8.851  10.121  67.426  1.00  0.00    -0.131 C  
HETATM    3  C   UNL     1      -9.529   9.434  66.476  1.00  0.00    -0.246 C  
HETATM    4  H   UNL     1      -8.309  11.989  68.103  1.00  0.00     0.000 HD 
HETATM    5  C   UNL     1     -10.244  10.189  65.449  1.00  0.00    -0.281 C  
HETATM    6  C   UNL     1     -10.221  11.532  65.390  1.00  0.00    -0.311 C  
HETATM    7  O   UNL     1      -9.340  13.493  66.419  1.00  0.00    -0.248 OA 
HETATM    8  C   UNL     1     -10.922  12.250  64.388  1.00  0.00    -0.329 C  
HETATM    9  N   UNL     1     -11.517  12.785  63.546  1.00  0.00    -0.481 NA 
HETATM   10  C   UNL     1      -9.439  12.272  66.413  1.00  0.00    -0.237 C  
HETATM   11  N   UNL     1      -8.826  11.502  67.371  1.00  0.00    -0.153 N  
ENDROOT
BRANCH   3  12
HETATM   12  C   UNL     1      -9.517   7.958  66.436  1.00  0.00    -0.258 A  
HETATM   13  C   UNL     1     -10.490   5.832  66.915  1.00  0.00    -0.285 A  
HETATM   14  C   UNL     1     -10.539   7.213  67.026  1.00  0.00    -0.413 A  
HETATM   15  N   UNL     1      -9.510   5.165  66.268  1.00  0.00    -0.149 NA 
HETATM   16  C   UNL     1      -8.538   5.907  65.699  1.00  0.00    -0.155 A  
HETATM   17  C   UNL     1      -8.497   7.290  65.754  1.00  0.00    -0.148 A  
ENDBRANCH   3  12
TORSDOF 1
ENDMDL
MODEL      109
REMARK 921   NORMALIZED FREE ENERGY PREDICTED BY IDOCK:   -3.63 KCAL/MOL
REMARK 922        TOTAL FREE ENERGY PREDICTED BY IDOCK:   -4.13 KCAL/MOL
REMARK 923 INTER-LIGAND FREE ENERGY PREDICTED BY IDOCK:   -4.10 KCAL/MOL
REMARK 924 INTRA-LIGAND FREE ENERGY PREDICTED BY IDOCK:   -0.03 KCAL/MOL
REMARK 927      BINDING AFFINITY PREDICTED BY RF-SCORE:    0.00 PKD
ROOT
HETATM    1  C   UNL     1     -11.529  16.467  68.085  1.00  0.00    -0.108 C  
HETATM    2  C   UNL     1     -10.388  17.243  67.485  1.00  0.00    -0.346 C  
HETATM    3  C   UNL     1      -9.180  16.744  67.129  1.00  0.00    -0.233 C  
HETATM    4  H   UNL     1     -11.563  18.932  67.574  1.00  0.00     0.000 HD 
HETATM    5  C   UNL     1      -8.205  17.649  66.523  1.00  0.00    -0.307 C  
HETATM    6  C   UNL     1      -8.447  18.959  66.343  1.00  0.00    -0.302 C  
HETATM    7  O   UNL     1     -10.055  20.687  66.675  1.00  0.00    -0.327 OA 
HETATM    8  C   UNL     1      -7.491  19.823  65.752  1.00  0.00    -0.311 C  
HETATM    9  N   UNL     1      -6.671  20.482  65.260  1.00  0.00    -0.260 NA 
HETATM   10  C   UNL     1      -9.760  19.502  66.775  1.00  0.00    -0.366 C  
HETATM   11  N   UNL     1     -10.643  18.589  67.299  1.00  0.00    -0.419 N  
ENDROOT
BRANCH   3  12
HETATM   12  C   UNL     1      -8.824  15.334  67.385  1.00  0.00    -0.191 A  
HETATM   13  C   UNL     1      -7.553  13.656  68.507  1.00  0.00    -0.130 A  
HETATM   14  C   UNL     1      -7.808  14.999  68.280  1.00  0.00    -0.119 A  
HETATM   15  N   UNL     1      -8.233  12.651  67.914  1.00  0.00    -0.157 NA 
HETATM   16  C   UNL     1      -9.216  13.000  67.060  1.00  0.00    -0.232 A  
HETATM   17  C   UNL     1      -9.547  14.312  66.765  1.00  0.00    -0.290 A  
ENDBRANCH   3  12
TORSDOF 1
ENDMDL
MODEL      110
REMARK 921   NORMALIZED FREE ENERGY PREDICTED BY IDOCK:   -3.62 KCAL/MOL
REMARK 922        TOTAL FREE ENERGY PREDICTED BY IDOCK:   -4.12 KCAL/MOL
REMARK 923 INTER-LIGAND FREE ENERGY PREDICTED BY IDOCK:   -4.13 KCAL/MOL
REMARK 924 INTRA-LIGAND FREE ENERGY PREDICTED BY IDOCK:    0.01 KCAL/MOL
REMARK 927      BINDING AFFINITY PREDICTED BY RF-SCORE:    0.00 PKD
ROOT
HETATM    1  C   UNL     1      -7.652   8.400  70.303  1.00  0.00    -0.068 C  
HETATM    2  C   UNL     1      -9.093   8.635  70.671  1.00  0.00    -0.171 C  
HETATM    3  C   UNL     1      -9.985   9.383  69.979  1.00  0.00    -0.253 C  
HETATM    4  H   UNL     1      -8.803   7.450  72.331  1.00  0.00     0.000 HD 
HETATM    5  C   UNL     1     -11.357   9.464  70.474  1.00  0.00    -0.328 C  
HETATM    6  C   UNL     1     -11.755   8.859  71.606  1.00  0.00    -0.411 C  
HETATM    7  O   UNL     1     -11.026   7.515  73.434  1.00  0.00    -0.380 OA 
HETATM    8  C   UNL     1     -13.092   8.946  72.072  1.00  0.00    -0.402 C  
HETATM    9  N   UNL     1     -14.200   9.051  72.404  1.00  0.00    -0.510 NA 
HETATM   10  C   UNL     1     -10.758   8.076  72.378  1.00  0.00    -0.320 C  
HETATM   11  N   UNL     1      -9.498   8.008  71.835  1.00  0.00    -0.168 N  
ENDROOT
BRANCH   3  12
HETATM   12  C   UNL     1      -9.584  10.143  68.778  1.00  0.00    -0.170 A  
HETATM   13  C   UNL     1      -8.179  11.710  67.652  1.00  0.00    -0.141 A  
HETATM   14  C   UNL     1      -8.534  11.061  68.824  1.00  0.00    -0.144 A  
HETATM   15  N   UNL     1      -8.789  11.503  66.464  1.00  0.00    -0.187 NA 
HETATM   16  C   UNL     1      -9.795  10.604  66.443  1.00  0.00    -0.211 A  
HETATM   17  C   UNL     1     -10.225   9.906  67.560  1.00  0.00    -0.265 A  
ENDBRANCH   3  12
TORSDOF 1
ENDMDL
MODEL      111
REMARK 921   NORMALIZED FREE ENERGY PREDICTED BY IDOCK:   -3.62 KCAL/MOL
REMARK 922        TOTAL FREE ENERGY PREDICTED BY IDOCK:   -4.12 KCAL/MOL
REMARK 923 INTER-LIGAND FREE ENERGY PREDICTED BY IDOCK:   -3.83 KCAL/MOL
REMARK 924 INTRA-LIGAND FREE ENERGY PREDICTED BY IDOCK:   -0.29 KCAL/MOL
REMARK 927      BINDING AFFINITY PREDICTED BY RF-SCORE:    0.00 PKD
ROOT
HETATM    1  C   UNL     1     -10.566  10.713  65.183  1.00  0.00    -0.190 C  
HETATM    2  C   UNL     1     -10.297  12.170  65.447  1.00  0.00    -0.269 C  
HETATM    3  C   UNL     1      -9.350  12.672  66.275  1.00  0.00    -0.162 C  
HETATM    4  H   UNL     1     -11.822  12.631  64.142  1.00  0.00     0.000 HD 
HETATM    5  C   UNL     1      -9.212  14.123  66.376  1.00  0.00    -0.209 C  
HETATM    6  C   UNL     1     -10.012  14.974  65.711  1.00  0.00    -0.376 C  
HETATM    7  O   UNL     1     -11.865  15.112  64.218  1.00  0.00    -0.380 OA 
HETATM    8  C   UNL     1      -9.863  16.380  65.818  1.00  0.00    -0.271 C  
HETATM    9  N   UNL     1      -9.694  17.522  65.942  1.00  0.00    -0.538 NA 
HETATM   10  C   UNL     1     -11.074  14.411  64.838  1.00  0.00    -0.398 C  
HETATM   11  N   UNL     1     -11.121  13.040  64.759  1.00  0.00    -0.309 N  
ENDROOT
BRANCH   3  12
HETATM   12  C   UNL     1      -8.501  11.788  67.099  1.00  0.00    -0.170 A  
HETATM   13  C   UNL     1      -6.556  10.444  67.426  1.00  0.00    -0.067 A  
HETATM   14  C   UNL     1      -7.329  11.230  66.586  1.00  0.00    -0.131 A  
HETATM   15  N   UNL     1      -6.869  10.188  68.715  1.00  0.00    -0.060 NA 
HETATM   16  C   UNL     1      -8.002  10.745  69.190  1.00  0.00    -0.134 A  
HETATM   17  C   UNL     1      -8.842  11.543  68.432  1.00  0.00    -0.163 A  
ENDBRANCH   3  12
TORSDOF 1
ENDMDL
MODEL      112
REMARK 921   NORMALIZED FREE ENERGY PREDICTED BY IDOCK:   -3.59 KCAL/MOL
REMARK 922        TOTAL FREE ENERGY PREDICTED BY IDOCK:   -4.09 KCAL/MOL
REMARK 923 INTER-LIGAND FREE ENERGY PREDICTED BY IDOCK:   -4.51 KCAL/MOL
REMARK 924 INTRA-LIGAND FREE ENERGY PREDICTED BY IDOCK:    0.42 KCAL/MOL
REMARK 927      BINDING AFFINITY PREDICTED BY RF-SCORE:    0.00 PKD
ROOT
HETATM    1  C   UNL     1     -11.875  13.016  68.747  1.00  0.00    -0.355 C  
HETATM    2  C   UNL     1     -11.179  11.858  68.083  1.00  0.00    -0.258 C  
HETATM    3  C   UNL     1     -11.073  10.600  68.573  1.00  0.00    -0.318 C  
HETATM    4  H   UNL     1     -10.710  13.110  66.517  1.00  0.00     0.000 HD 
HETATM    5  C   UNL     1     -10.389   9.593  67.764  1.00  0.00    -0.286 C  
HETATM    6  C   UNL     1      -9.831   9.878  66.575  1.00  0.00    -0.274 C  
HETATM    7  O   UNL     1      -9.414  11.624  65.008  1.00  0.00    -0.205 OA 
HETATM    8  C   UNL     1      -9.173   8.889  65.801  1.00  0.00    -0.221 C  
HETATM    9  N   UNL     1      -8.648   8.038  65.209  1.00  0.00    -0.129 NA 
HETATM   10  C   UNL     1      -9.918  11.270  66.067  1.00  0.00    -0.231 C  
HETATM   11  N   UNL     1     -10.609  12.155  66.860  1.00  0.00    -0.225 N  
ENDROOT
BRANCH   3  12
HETATM   12  C   UNL     1     -11.588  10.250  69.912  1.00  0.00    -0.326 A  
HETATM   13  C   UNL     1     -13.176  10.470  71.680  1.00  0.00    -0.391 A  
HETATM   14  C   UNL     1     -12.720  10.875  70.435  1.00  0.00    -0.326 A  
HETATM   15  N   UNL     1     -12.590   9.501  72.416  1.00  0.00    -0.259 NA 
HETATM   16  C   UNL     1     -11.502   8.905  71.886  1.00  0.00    -0.372 A  
HETATM   17  C   UNL     1     -10.968   9.240  70.652  1.00  0.00    -0.336 A  
ENDBRANCH   3  12
TORSDOF 1
ENDMDL
MODEL      113
REMARK 921   NORMALIZED FREE ENERGY PREDICTED BY IDOCK:   -3.57 KCAL/MOL
REMARK 922        TOTAL FREE ENERGY PREDICTED BY IDOCK:   -4.07 KCAL/MOL
REMARK 923 INTER-LIGAND FREE ENERGY PREDICTED BY IDOCK:   -3.77 KCAL/MOL
REMARK 924 INTRA-LIGAND FREE ENERGY PREDICTED BY IDOCK:   -0.30 KCAL/MOL
REMARK 927      BINDING AFFINITY PREDICTED BY RF-SCORE:    0.00 PKD
ROOT
HETATM    1  C   UNL     1     -10.960   6.480  67.038  1.00  0.00    -0.466 C  
HETATM    2  C   UNL     1     -10.610   6.885  68.445  1.00  0.00    -0.210 C  
HETATM    3  C   UNL     1     -10.186   8.108  68.844  1.00  0.00    -0.221 C  
HETATM    4  H   UNL     1     -11.074   4.972  69.051  1.00  0.00     0.000 HD 
HETATM    5  C   UNL     1      -9.929   8.325  70.266  1.00  0.00    -0.188 C  
HETATM    6  C   UNL     1     -10.060   7.350  71.182  1.00  0.00    -0.189 C  
HETATM    7  O   UNL     1     -10.604   5.050  71.487  1.00  0.00    -0.190 OA 
HETATM    8  C   UNL     1      -9.809   7.578  72.559  1.00  0.00    -0.176 C  
HETATM    9  N   UNL     1      -9.591   7.823  73.673  1.00  0.00    -0.277 NA 
HETATM   10  C   UNL     1     -10.486   6.003  70.726  1.00  0.00    -0.239 C  
HETATM   11  N   UNL     1     -10.749   5.880  69.383  1.00  0.00    -0.306 N  
ENDROOT
BRANCH   3  12
HETATM   12  C   UNL     1      -9.937   9.191  67.872  1.00  0.00    -0.228 A  
HETATM   13  C   UNL     1     -10.589  11.181  66.727  1.00  0.00    -0.263 A  
HETATM   14  C   UNL     1     -10.902  10.167  67.618  1.00  0.00    -0.346 A  
HETATM   15  N   UNL     1      -9.402  11.282  66.090  1.00  0.00    -0.204 NA 
HETATM   16  C   UNL     1      -8.483  10.332  66.358  1.00  0.00    -0.130 A  
HETATM   17  C   UNL     1      -8.699   9.278  67.231  1.00  0.00    -0.132 A  
ENDBRANCH   3  12
TORSDOF 1
ENDMDL
MODEL      114
REMARK 921   NORMALIZED FREE ENERGY PREDICTED BY IDOCK:   -3.55 KCAL/MOL
REMARK 922        TOTAL FREE ENERGY PREDICTED BY IDOCK:   -4.04 KCAL/MOL
REMARK 923 INTER-LIGAND FREE ENERGY PREDICTED BY IDOCK:   -3.73 KCAL/MOL
REMARK 924 INTRA-LIGAND FREE ENERGY PREDICTED BY IDOCK:   -0.31 KCAL/MOL
REMARK 927      BINDING AFFINITY PREDICTED BY RF-SCORE:    0.00 PKD
ROOT
HETATM    1  C   UNL     1     -11.955  13.732  68.264  1.00  0.00    -0.392 C  
HETATM    2  C   UNL     1     -10.846  13.016  67.542  1.00  0.00    -0.247 C  
HETATM    3  C   UNL     1     -10.238  13.425  66.402  1.00  0.00    -0.293 C  
HETATM    4  H   UNL     1     -10.919  11.555  68.991  1.00  0.00     0.000 HD 
HETATM    5  C   UNL     1      -9.149  12.612  65.865  1.00  0.00     0.182 C  
HETATM    6  C   UNL     1      -8.756  11.460  66.434  1.00  0.00    -0.185 C  
HETATM    7  O   UNL     1      -9.185   9.951  68.229  1.00  0.00    -0.128 OA 
HETATM    8  C   UNL     1      -7.696  10.684  65.901  1.00  0.00    -0.146 C  
HETATM    9  N   UNL     1      -6.819  10.091  65.422  1.00  0.00    -0.116 NA 
HETATM   10  C   UNL     1      -9.458  11.001  67.660  1.00  0.00    -0.164 C  
HETATM   11  N   UNL     1     -10.444  11.833  68.133  1.00  0.00    -0.194 N  
ENDROOT
BRANCH   3  12
HETATM   12  C   UNL     1     -10.685  14.634  65.682  1.00  0.00    -0.340 A  
HETATM   13  C   UNL     1     -10.518  16.958  65.165  1.00  0.00     0.006 A  
HETATM   14  C   UNL     1     -10.079  15.871  65.906  1.00  0.00    -0.376 A  
HETATM   15  N   UNL     1     -11.496  16.889  64.237  1.00  0.00    -1.039 NA 
HETATM   16  C   UNL     1     -12.061  15.681  64.033  1.00  0.00     0.125 A  
HETATM   17  C   UNL     1     -11.694  14.536  64.722  1.00  0.00    -0.425 A  
ENDBRANCH   3  12
TORSDOF 1
ENDMDL
MODEL      115
REMARK 921   NORMALIZED FREE ENERGY PREDICTED BY IDOCK:   -3.54 KCAL/MOL
REMARK 922        TOTAL FREE ENERGY PREDICTED BY IDOCK:   -4.04 KCAL/MOL
REMARK 923 INTER-LIGAND FREE ENERGY PREDICTED BY IDOCK:   -4.08 KCAL/MOL
REMARK 924 INTRA-LIGAND FREE ENERGY PREDICTED BY IDOCK:    0.04 KCAL/MOL
REMARK 927      BINDING AFFINITY PREDICTED BY RF-SCORE:    0.00 PKD
ROOT
HETATM    1  C   UNL     1     -11.771  11.593  68.450  1.00  0.00    -0.374 C  
HETATM    2  C   UNL     1     -10.460  11.052  68.954  1.00  0.00    -0.204 C  
HETATM    3  C   UNL     1     -10.299  10.098  69.902  1.00  0.00    -0.308 C  
HETATM    4  H   UNL     1      -9.497  12.325  67.653  1.00  0.00     0.000 HD 
HETATM    5  C   UNL     1      -8.942   9.671  70.237  1.00  0.00    -0.263 C  
HETATM    6  C   UNL     1      -7.852  10.214  69.669  1.00  0.00    -0.181 C  
HETATM    7  O   UNL     1      -7.103  11.858  68.114  1.00  0.00    -0.071 OA 
HETATM    8  C   UNL     1      -6.542   9.787  70.003  1.00  0.00    -0.081 C  
HETATM    9  N   UNL     1      -5.493   9.395  70.314  1.00  0.00    -0.030 NA 
HETATM   10  C   UNL     1      -8.040  11.288  68.661  1.00  0.00    -0.145 C  
HETATM   11  N   UNL     1      -9.342  11.612  68.365  1.00  0.00    -0.194 N  
ENDROOT
BRANCH   3  12
HETATM   12  C   UNL     1     -11.455   9.529  70.625  1.00  0.00    -0.362 A  
HETATM   13  C   UNL     1     -12.731   7.678  71.426  1.00  0.00    -0.327 A  
HETATM   14  C   UNL     1     -11.651   8.149  70.696  1.00  0.00    -0.199 A  
HETATM   15  N   UNL     1     -13.604   8.478  72.076  1.00  0.00    -0.380 NA 
HETATM   16  C   UNL     1     -13.389   9.807  71.999  1.00  0.00    -0.451 A  
HETATM   17  C   UNL     1     -12.340  10.375  71.295  1.00  0.00    -0.507 A  
ENDBRANCH   3  12
TORSDOF 1
ENDMDL
MODEL      116
REMARK 921   NORMALIZED FREE ENERGY PREDICTED BY IDOCK:   -3.52 KCAL/MOL
REMARK 922        TOTAL FREE ENERGY PREDICTED BY IDOCK:   -4.01 KCAL/MOL
REMARK 923 INTER-LIGAND FREE ENERGY PREDICTED BY IDOCK:   -3.72 KCAL/MOL
REMARK 924 INTRA-LIGAND FREE ENERGY PREDICTED BY IDOCK:   -0.29 KCAL/MOL
REMARK 927      BINDING AFFINITY PREDICTED BY RF-SCORE:    0.00 PKD
ROOT
HETATM    1  C   UNL     1     -10.140   7.519  73.495  1.00  0.00    -0.378 C  
HETATM    2  C   UNL     1     -10.316   7.089  72.063  1.00  0.00    -0.198 C  
HETATM    3  C   UNL     1     -10.304   5.816  71.602  1.00  0.00    -0.266 C  
HETATM    4  H   UNL     1     -10.511   9.074  71.550  1.00  0.00     0.000 HD 
HETATM    5  C   UNL     1     -10.530   5.590  70.176  1.00  0.00    -0.370 C  
HETATM    6  C   UNL     1     -10.710   6.596  69.304  1.00  0.00    -0.307 C  
HETATM    7  O   UNL     1     -10.808   8.968  69.088  1.00  0.00    -0.193 OA 
HETATM    8  C   UNL     1     -10.931   6.360  67.923  1.00  0.00    -0.325 C  
HETATM    9  N   UNL     1     -11.110   6.107  66.804  1.00  0.00    -0.272 NA 
HETATM   10  C   UNL     1     -10.681   7.990  69.815  1.00  0.00    -0.231 C  
HETATM   11  N   UNL     1     -10.504   8.128  71.171  1.00  0.00    -0.197 N  
ENDROOT
BRANCH   3  12
HETATM   12  C   UNL     1     -10.021   4.676  72.497  1.00  0.00    -0.220 A  
HETATM   13  C   UNL     1     -10.713   2.986  74.034  1.00  0.00    -0.198 A  
HETATM   14  C   UNL     1     -11.036   4.080  73.247  1.00  0.00    -0.301 A  
HETATM   15  N   UNL     1      -9.471   2.461  74.117  1.00  0.00    -0.079 NA 
HETATM   16  C   UNL     1      -8.509   3.049  73.376  1.00  0.00    -0.073 A  
HETATM   17  C   UNL     1      -8.731   4.145  72.560  1.00  0.00    -0.112 A  
ENDBRANCH   3  12
TORSDOF 1
ENDMDL
MODEL      117
REMARK 921   NORMALIZED FREE ENERGY PREDICTED BY IDOCK:   -3.48 KCAL/MOL
REMARK 922        TOTAL FREE ENERGY PREDICTED BY IDOCK:   -3.97 KCAL/MOL
REMARK 923 INTER-LIGAND FREE ENERGY PREDICTED BY IDOCK:   -3.69 KCAL/MOL
REMARK 924 INTRA-LIGAND FREE ENERGY PREDICTED BY IDOCK:   -0.29 KCAL/MOL
REMARK 927      BINDING AFFINITY PREDICTED BY RF-SCORE:    0.00 PKD
ROOT
HETATM    1  C   UNL     1     -11.059  16.010  67.147  1.00  0.00    -0.104 C  
HETATM    2  C   UNL     1     -11.180  15.778  68.629  1.00  0.00    -0.351 C  
HETATM    3  C   UNL     1     -10.157  15.574  69.493  1.00  0.00    -0.278 C  
HETATM    4  H   UNL     1     -13.224  15.940  68.431  1.00  0.00     0.000 HD 
HETATM    5  C   UNL     1     -10.468  15.402  70.911  1.00  0.00     0.139 C  
HETATM    6  C   UNL     1     -11.727  15.401  71.381  1.00  0.00    -0.453 C  
HETATM    7  O   UNL     1     -14.021  15.570  70.753  1.00  0.00    -0.421 OA 
HETATM    8  C   UNL     1     -12.012  15.236  72.760  1.00  0.00    -0.416 C  
HETATM    9  N   UNL     1     -12.186  15.099  73.900  1.00  0.00    -0.575 NA 
HETATM   10  C   UNL     1     -12.842  15.585  70.417  1.00  0.00    -0.281 C  
HETATM   11  N   UNL     1     -12.477  15.780  69.107  1.00  0.00     0.046 N  
ENDROOT
BRANCH   3  12
HETATM   12  C   UNL     1      -8.761  15.475  69.024  1.00  0.00    -0.235 A  
HETATM   13  C   UNL     1      -6.937  14.253  68.087  1.00  0.00    -0.129 A  
HETATM   14  C   UNL     1      -8.242  14.268  68.553  1.00  0.00    -0.145 A  
HETATM   15  N   UNL     1      -6.137  15.341  68.058  1.00  0.00    -0.134 NA 
HETATM   16  C   UNL     1      -6.664  16.498  68.510  1.00  0.00    -0.145 A  
HETATM   17  C   UNL     1      -7.955  16.616  68.997  1.00  0.00    -0.208 A  
ENDBRANCH   3  12
TORSDOF 1
ENDMDL
MODEL      118
REMARK 921   NORMALIZED FREE ENERGY PREDICTED BY IDOCK:   -3.45 KCAL/MOL
REMARK 922        TOTAL FREE ENERGY PREDICTED BY IDOCK:   -3.94 KCAL/MOL
REMARK 923 INTER-LIGAND FREE ENERGY PREDICTED BY IDOCK:   -3.65 KCAL/MOL
REMARK 924 INTRA-LIGAND FREE ENERGY PREDICTED BY IDOCK:   -0.29 KCAL/MOL
REMARK 927      BINDING AFFINITY PREDICTED BY RF-SCORE:    0.00 PKD
ROOT
HETATM    1  C   UNL     1      -7.758   9.622  69.463  1.00  0.00    -0.109 C  
HETATM    2  C   UNL     1      -8.514   8.566  68.703  1.00  0.00    -0.131 C  
HETATM    3  C   UNL     1      -9.861   8.476  68.583  1.00  0.00    -0.180 C  
HETATM    4  H   UNL     1      -6.708   7.717  68.194  1.00  0.00     0.000 HD 
HETATM    5  C   UNL     1     -10.416   7.396  67.769  1.00  0.00    -0.298 C  
HETATM    6  C   UNL     1      -9.646   6.472  67.171  1.00  0.00    -0.162 C  
HETATM    7  O   UNL     1      -7.399   5.742  66.857  1.00  0.00    -0.077 OA 
HETATM    8  C   UNL     1     -10.200   5.431  66.382  1.00  0.00    -0.226 C  
HETATM    9  N   UNL     1     -10.710   4.603  65.747  1.00  0.00    -0.265 NA 
HETATM   10  C   UNL     1      -8.173   6.557  67.344  1.00  0.00    -0.121 C  
HETATM   11  N   UNL     1      -7.718   7.619  68.087  1.00  0.00    -0.117 N  
ENDROOT
BRANCH   3  12
HETATM   12  C   UNL     1     -10.760   9.408  69.291  1.00  0.00    -0.228 A  
HETATM   13  C   UNL     1     -11.971  10.103  71.227  1.00  0.00    -0.382 A  
HETATM   14  C   UNL     1     -11.160   9.166  70.605  1.00  0.00    -0.320 A  
HETATM   15  N   UNL     1     -12.395  11.240  70.634  1.00  0.00    -0.373 NA 
HETATM   16  C   UNL     1     -11.988  11.457  69.367  1.00  0.00    -0.339 A  
HETATM   17  C   UNL     1     -11.180  10.582  68.660  1.00  0.00    -0.328 A  
ENDBRANCH   3  12
TORSDOF 1
ENDMDL
MODEL      119
REMARK 921   NORMALIZED FREE ENERGY PREDICTED BY IDOCK:   -3.45 KCAL/MOL
REMARK 922        TOTAL FREE ENERGY PREDICTED BY IDOCK:   -3.94 KCAL/MOL
REMARK 923 INTER-LIGAND FREE ENERGY PREDICTED BY IDOCK:   -3.69 KCAL/MOL
REMARK 924 INTRA-LIGAND FREE ENERGY PREDICTED BY IDOCK:   -0.24 KCAL/MOL
REMARK 927      BINDING AFFINITY PREDICTED BY RF-SCORE:    0.00 PKD
ROOT
HETATM    1  C   UNL     1      -7.332  12.958  67.437  1.00  0.00    -0.132 C  
HETATM    2  C   UNL     1      -8.632  13.415  68.042  1.00  0.00    -0.174 C  
HETATM    3  C   UNL     1      -9.756  12.671  68.179  1.00  0.00    -0.219 C  
HETATM    4  H   UNL     1      -7.768  15.255  68.371  1.00  0.00     0.000 HD 
HETATM    5  C   UNL     1     -10.916  13.278  68.829  1.00  0.00    -0.294 C  
HETATM    6  C   UNL     1     -10.921  14.551  69.260  1.00  0.00    -0.282 C  
HETATM    7  O   UNL     1      -9.622  16.544  69.403  1.00  0.00    -0.211 OA 
HETATM    8  C   UNL     1     -12.054  15.123  69.891  1.00  0.00    -0.336 C  
HETATM    9  N   UNL     1     -13.010  15.539  70.404  1.00  0.00    -0.322 NA 
HETATM   10  C   UNL     1      -9.696  15.368  69.067  1.00  0.00    -0.239 C  
HETATM   11  N   UNL     1      -8.631  14.724  68.485  1.00  0.00    -0.163 N  
ENDROOT
BRANCH   3  12
HETATM   12  C   UNL     1      -9.840  11.297  67.645  1.00  0.00    -0.190 A  
HETATM   13  C   UNL     1      -9.920   8.929  67.934  1.00  0.00    -0.179 A  
HETATM   14  C   UNL     1      -9.792  10.191  68.494  1.00  0.00    -0.165 A  
HETATM   15  N   UNL     1     -10.091   8.708  66.612  1.00  0.00    -0.287 NA 
HETATM   16  C   UNL     1     -10.142   9.794  65.813  1.00  0.00    -0.238 A  
HETATM   17  C   UNL     1     -10.024  11.094  66.276  1.00  0.00    -0.261 A  
ENDBRANCH   3  12
TORSDOF 1
ENDMDL
MODEL      120
REMARK 921   NORMALIZED FREE ENERGY PREDICTED BY IDOCK:   -3.41 KCAL/MOL
REMARK 922        TOTAL FREE ENERGY PREDICTED BY IDOCK:   -3.89 KCAL/MOL
REMARK 923 INTER-LIGAND FREE ENERGY PREDICTED BY IDOCK:   -3.59 KCAL/MOL
REMARK 924 INTRA-LIGAND FREE ENERGY PREDICTED BY IDOCK:   -0.30 KCAL/MOL
REMARK 927      BINDING AFFINITY PREDICTED BY RF-SCORE:    0.00 PKD
ROOT
HETATM    1  C   UNL     1     -11.669  11.101  69.792  1.00  0.00    -0.419 C  
HETATM    2  C   UNL     1     -11.038  12.081  68.839  1.00  0.00    -0.247 C  
HETATM    3  C   UNL     1      -9.945  11.858  68.070  1.00  0.00    -0.192 C  
HETATM    4  H   UNL     1     -12.488  13.444  69.367  1.00  0.00     0.000 HD 
HETATM    5  C   UNL     1      -9.498  12.922  67.173  1.00  0.00    -0.229 C  
HETATM    6  C   UNL     1     -10.104  14.120  67.112  1.00  0.00    -0.258 C  
HETATM    7  O   UNL     1     -11.871  15.436  68.020  1.00  0.00    -0.294 OA 
HETATM    8  C   UNL     1      -9.658  15.141  66.234  1.00  0.00    -0.297 C  
HETATM    9  N   UNL     1      -9.251  15.939  65.495  1.00  0.00    -0.289 NA 
HETATM   10  C   UNL     1     -11.276  14.366  67.990  1.00  0.00    -0.280 C  
HETATM   11  N   UNL     1     -11.666  13.310  68.778  1.00  0.00    -0.308 N  
ENDROOT
BRANCH   3  12
HETATM   12  C   UNL     1      -9.185  10.596  68.160  1.00  0.00    -0.148 A  
HETATM   13  C   UNL     1      -8.755   8.346  67.488  1.00  0.00    -0.136 A  
HETATM   14  C   UNL     1      -9.537   9.487  67.389  1.00  0.00    -0.178 A  
HETATM   15  N   UNL     1      -7.670   8.246  68.286  1.00  0.00    -0.104 NA 
HETATM   16  C   UNL     1      -7.345   9.334  69.015  1.00  0.00    -0.072 A  
HETATM   17  C   UNL     1      -8.062  10.519  68.987  1.00  0.00    -0.143 A  
ENDBRANCH   3  12
TORSDOF 1
ENDMDL
MODEL      121
REMARK 921   NORMALIZED FREE ENERGY PREDICTED BY IDOCK:   -3.40 KCAL/MOL
REMARK 922        TOTAL FREE ENERGY PREDICTED BY IDOCK:   -3.88 KCAL/MOL
REMARK 923 INTER-LIGAND FREE ENERGY PREDICTED BY IDOCK:   -3.58 KCAL/MOL
REMARK 924 INTRA-LIGAND FREE ENERGY PREDICTED BY IDOCK:   -0.30 KCAL/MOL
REMARK 927      BINDING AFFINITY PREDICTED BY RF-SCORE:    0.00 PKD
ROOT
HETATM    1  C   UNL     1     -10.785  16.987  67.490  1.00  0.00    -0.266 C  
HETATM    2  C   UNL     1      -9.954  15.737  67.381  1.00  0.00    -0.237 C  
HETATM    3  C   UNL     1      -8.603  15.665  67.451  1.00  0.00    -0.192 C  
HETATM    4  H   UNL     1     -11.696  14.665  67.143  1.00  0.00     0.000 HD 
HETATM    5  C   UNL     1      -7.970  14.351  67.360  1.00  0.00    -0.220 C  
HETATM    6  C   UNL     1      -8.673  13.221  67.171  1.00  0.00    -0.215 C  
HETATM    7  O   UNL     1     -10.866  12.344  66.852  1.00  0.00    -0.239 OA 
HETATM    8  C   UNL     1      -8.043  11.953  67.086  1.00  0.00    -0.172 C  
HETATM    9  N   UNL     1      -7.475  10.942  67.028  1.00  0.00    -0.115 NA 
HETATM   10  C   UNL     1     -10.150  13.318  67.053  1.00  0.00    -0.242 C  
HETATM   11  N   UNL     1     -10.681  14.578  67.189  1.00  0.00    -0.282 N  
ENDROOT
BRANCH   3  12
HETATM   12  C   UNL     1      -7.773  16.881  67.569  1.00  0.00    -0.187 A  
HETATM   13  C   UNL     1      -6.485  18.435  68.843  1.00  0.00    -0.239 A  
HETATM   14  C   UNL     1      -7.295  17.311  68.807  1.00  0.00    -0.250 A  
HETATM   15  N   UNL     1      -6.128  19.139  67.746  1.00  0.00    -0.200 NA 
HETATM   16  C   UNL     1      -6.595  18.699  66.560  1.00  0.00    -0.193 A  
HETATM   17  C   UNL     1      -7.411  17.588  66.420  1.00  0.00    -0.334 A  
ENDBRANCH   3  12
TORSDOF 1
ENDMDL
MODEL      122
REMARK 921   NORMALIZED FREE ENERGY PREDICTED BY IDOCK:   -3.38 KCAL/MOL
REMARK 922        TOTAL FREE ENERGY PREDICTED BY IDOCK:   -3.86 KCAL/MOL
REMARK 923 INTER-LIGAND FREE ENERGY PREDICTED BY IDOCK:   -3.70 KCAL/MOL
REMARK 924 INTRA-LIGAND FREE ENERGY PREDICTED BY IDOCK:   -0.16 KCAL/MOL
REMARK 927      BINDING AFFINITY PREDICTED BY RF-SCORE:    0.00 PKD
ROOT
HETATM    1  C   UNL     1      -7.721  10.428  69.462  1.00  0.00    -0.159 C  
HETATM    2  C   UNL     1      -8.363  10.512  68.103  1.00  0.00    -0.119 C  
HETATM    3  C   UNL     1      -9.684  10.667  67.850  1.00  0.00    -0.177 C  
HETATM    4  H   UNL     1      -6.492  10.301  67.268  1.00  0.00     0.000 HD 
HETATM    5  C   UNL     1     -10.119  10.766  66.458  1.00  0.00    -0.277 C  
HETATM    6  C   UNL     1      -9.265  10.669  65.424  1.00  0.00    -0.226 C  
HETATM    7  O   UNL     1      -6.981  10.331  64.834  1.00  0.00    -0.136 OA 
HETATM    8  C   UNL     1      -9.703  10.769  64.079  1.00  0.00    -0.313 C  
HETATM    9  N   UNL     1     -10.118  10.861  62.998  1.00  0.00    -0.272 NA 
HETATM   10  C   UNL     1      -7.825  10.457  65.714  1.00  0.00    -0.150 C  
HETATM   11  N   UNL     1      -7.480  10.415  67.044  1.00  0.00    -0.095 N  
ENDROOT
BRANCH   3  12
HETATM   12  C   UNL     1     -10.680  10.690  68.940  1.00  0.00    -0.254 A  
HETATM   13  C   UNL     1     -11.861   9.646  70.732  1.00  0.00    -0.300 A  
HETATM   14  C   UNL     1     -10.947   9.547  69.695  1.00  0.00    -0.233 A  
HETATM   15  N   UNL     1     -12.506  10.787  71.058  1.00  0.00    -0.384 NA 
HETATM   16  C   UNL     1     -12.224  11.880  70.320  1.00  0.00    -0.271 A  
HETATM   17  C   UNL     1     -11.329  11.883  69.263  1.00  0.00    -0.338 A  
ENDBRANCH   3  12
TORSDOF 1
ENDMDL
MODEL      123
REMARK 921   NORMALIZED FREE ENERGY PREDICTED BY IDOCK:   -3.38 KCAL/MOL
REMARK 922        TOTAL FREE ENERGY PREDICTED BY IDOCK:   -3.86 KCAL/MOL
REMARK 923 INTER-LIGAND FREE ENERGY PREDICTED BY IDOCK:   -3.58 KCAL/MOL
REMARK 924 INTRA-LIGAND FREE ENERGY PREDICTED BY IDOCK:   -0.28 KCAL/MOL
REMARK 927      BINDING AFFINITY PREDICTED BY RF-SCORE:    0.00 PKD
ROOT
HETATM    1  C   UNL     1     -10.839   5.917  73.407  1.00  0.00    -0.275 C  
HETATM    2  C   UNL     1     -10.996   7.053  72.432  1.00  0.00    -0.248 C  
HETATM    3  C   UNL     1     -10.235   7.277  71.335  1.00  0.00    -0.199 C  
HETATM    4  H   UNL     1     -12.584   7.726  73.559  1.00  0.00     0.000 HD 
HETATM    5  C   UNL     1     -10.563   8.417  70.482  1.00  0.00    -0.236 C  
HETATM    6  C   UNL     1     -11.563   9.269  70.765  1.00  0.00    -0.345 C  
HETATM    7  O   UNL     1     -13.275   9.778  72.344  1.00  0.00    -0.404 OA 
HETATM    8  C   UNL     1     -11.870  10.370  69.926  1.00  0.00    -0.238 C  
HETATM    9  N   UNL     1     -12.078  11.253  69.200  1.00  0.00    -0.392 NA 
HETATM   10  C   UNL     1     -12.364   9.036  71.994  1.00  0.00    -0.384 C  
HETATM   11  N   UNL     1     -12.027   7.924  72.727  1.00  0.00    -0.251 N  
ENDROOT
BRANCH   3  12
HETATM   12  C   UNL     1      -9.068   6.428  71.021  1.00  0.00    -0.154 A  
HETATM   13  C   UNL     1      -6.755   5.873  71.219  1.00  0.00    -0.061 A  
HETATM   14  C   UNL     1      -7.800   6.735  71.516  1.00  0.00    -0.101 A  
HETATM   15  N   UNL     1      -6.894   4.751  70.481  1.00  0.00    -0.036 NA 
HETATM   16  C   UNL     1      -8.131   4.471  70.021  1.00  0.00    -0.067 A  
HETATM   17  C   UNL     1      -9.237   5.268  70.261  1.00  0.00    -0.185 A  
ENDBRANCH   3  12
TORSDOF 1
ENDMDL
MODEL      124
REMARK 921   NORMALIZED FREE ENERGY PREDICTED BY IDOCK:   -3.34 KCAL/MOL
REMARK 922        TOTAL FREE ENERGY PREDICTED BY IDOCK:   -3.82 KCAL/MOL
REMARK 923 INTER-LIGAND FREE ENERGY PREDICTED BY IDOCK:   -3.51 KCAL/MOL
REMARK 924 INTRA-LIGAND FREE ENERGY PREDICTED BY IDOCK:   -0.31 KCAL/MOL
REMARK 927      BINDING AFFINITY PREDICTED BY RF-SCORE:    0.00 PKD
ROOT
HETATM    1  C   UNL     1      -8.264   7.897  69.311  1.00  0.00    -0.128 C  
HETATM    2  C   UNL     1      -8.900   6.937  68.342  1.00  0.00    -0.123 C  
HETATM    3  C   UNL     1      -9.922   6.089  68.610  1.00  0.00    -0.183 C  
HETATM    4  H   UNL     1      -7.592   7.611  66.901  1.00  0.00     0.000 HD 
HETATM    5  C   UNL     1     -10.435   5.254  67.526  1.00  0.00    -0.193 C  
HETATM    6  C   UNL     1      -9.909   5.269  66.290  1.00  0.00    -0.202 C  
HETATM    7  O   UNL     1      -8.205   6.231  64.930  1.00  0.00    -0.140 OA 
HETATM    8  C   UNL     1     -10.421   4.454  65.248  1.00  0.00    -0.179 C  
HETATM    9  N   UNL     1     -10.883   3.767  64.433  1.00  0.00    -0.207 NA 
HETATM   10  C   UNL     1      -8.763   6.173  66.019  1.00  0.00    -0.153 C  
HETATM   11  N   UNL     1      -8.357   6.958  67.071  1.00  0.00    -0.119 N  
ENDROOT
BRANCH   3  12
HETATM   12  C   UNL     1     -10.481   5.963  69.971  1.00  0.00    -0.334 A  
HETATM   13  C   UNL     1     -12.096   6.508  71.641  1.00  0.00    -0.328 A  
HETATM   14  C   UNL     1     -11.595   6.705  70.364  1.00  0.00    -0.457 A  
HETATM   15  N   UNL     1     -11.570   5.636  72.528  1.00  0.00    -0.290 NA 
HETATM   16  C   UNL     1     -10.499   4.924  72.123  1.00  0.00    -0.192 A  
HETATM   17  C   UNL     1      -9.924   5.049  70.869  1.00  0.00    -0.286 A  
ENDBRANCH   3  12
TORSDOF 1
ENDMDL
MODEL      125
REMARK 921   NORMALIZED FREE ENERGY PREDICTED BY IDOCK:   -3.28 KCAL/MOL
REMARK 922        TOTAL FREE ENERGY PREDICTED BY IDOCK:   -3.76 KCAL/MOL
REMARK 923 INTER-LIGAND FREE ENERGY PREDICTED BY IDOCK:   -3.47 KCAL/MOL
REMARK 924 INTRA-LIGAND FREE ENERGY PREDICTED BY IDOCK:   -0.29 KCAL/MOL
REMARK 927      BINDING AFFINITY PREDICTED BY RF-SCORE:    0.00 PKD
ROOT
HETATM    1  C   UNL     1      -6.807   7.735  65.297  1.00  0.00    -0.051 C  
HETATM    2  C   UNL     1      -7.964   8.681  65.119  1.00  0.00    -0.127 C  
HETATM    3  C   UNL     1      -9.018   8.824  65.958  1.00  0.00    -0.235 C  
HETATM    4  H   UNL     1      -7.096   9.324  63.366  1.00  0.00     0.000 HD 
HETATM    5  C   UNL     1     -10.032   9.826  65.636  1.00  0.00    -0.352 C  
HETATM    6  C   UNL     1      -9.979  10.578  64.524  1.00  0.00    -0.413 C  
HETATM    7  O   UNL     1      -8.727  11.004  62.541  1.00  0.00    -0.271 OA 
HETATM    8  C   UNL     1     -10.971  11.548  64.228  1.00  0.00    -0.341 C  
HETATM    9  N   UNL     1     -11.810  12.328  64.037  1.00  0.00    -0.407 NA 
HETATM   10  C   UNL     1      -8.841  10.382  63.591  1.00  0.00    -0.214 C  
HETATM   11  N   UNL     1      -7.904   9.454  63.975  1.00  0.00    -0.121 N  
ENDROOT
BRANCH   3  12
HETATM   12  C   UNL     1      -9.177   7.964  67.148  1.00  0.00    -0.175 A  
HETATM   13  C   UNL     1      -9.879   5.942  68.204  1.00  0.00    -0.133 A  
HETATM   14  C   UNL     1      -9.801   6.719  67.058  1.00  0.00    -0.217 A  
HETATM   15  N   UNL     1      -9.384   6.319  69.403  1.00  0.00    -0.140 NA 
HETATM   16  C   UNL     1      -8.777   7.523  69.462  1.00  0.00    -0.137 A  
HETATM   17  C   UNL     1      -8.650   8.372  68.375  1.00  0.00    -0.139 A  
ENDBRANCH   3  12
TORSDOF 1
ENDMDL
MODEL      126
REMARK 921   NORMALIZED FREE ENERGY PREDICTED BY IDOCK:   -3.26 KCAL/MOL
REMARK 922        TOTAL FREE ENERGY PREDICTED BY IDOCK:   -3.74 KCAL/MOL
REMARK 923 INTER-LIGAND FREE ENERGY PREDICTED BY IDOCK:   -3.44 KCAL/MOL
REMARK 924 INTRA-LIGAND FREE ENERGY PREDICTED BY IDOCK:   -0.31 KCAL/MOL
REMARK 927      BINDING AFFINITY PREDICTED BY RF-SCORE:    0.00 PKD
ROOT
HETATM    1  C   UNL     1     -11.400   7.407  71.576  1.00  0.00    -0.285 C  
HETATM    2  C   UNL     1     -10.873   6.516  70.484  1.00  0.00    -0.271 C  
HETATM    3  C   UNL     1     -10.095   5.419  70.652  1.00  0.00    -0.300 C  
HETATM    4  H   UNL     1     -11.829   7.720  69.115  1.00  0.00     0.000 HD 
HETATM    5  C   UNL     1      -9.709   4.653  69.468  1.00  0.00    -0.278 C  
HETATM    6  C   UNL     1     -10.062   5.017  68.224  1.00  0.00    -0.170 C  
HETATM    7  O   UNL     1     -11.224   6.664  66.951  1.00  0.00    -0.391 OA 
HETATM    8  C   UNL     1      -9.681   4.261  67.086  1.00  0.00    -0.196 C  
HETATM    9  N   UNL     1      -9.342   3.602  66.191  1.00  0.00    -0.171 NA 
HETATM   10  C   UNL     1     -10.880   6.244  68.050  1.00  0.00    -0.326 C  
HETATM   11  N   UNL     1     -11.241   6.892  69.207  1.00  0.00    -0.180 N  
ENDROOT
BRANCH   3  12
HETATM   12  C   UNL     1      -9.601   5.022  71.985  1.00  0.00    -0.200 A  
HETATM   13  C   UNL     1      -9.800   3.797  74.024  1.00  0.00    -0.115 A  
HETATM   14  C   UNL     1     -10.340   4.165  72.801  1.00  0.00    -0.243 A  
HETATM   15  N   UNL     1      -8.597   4.217  74.470  1.00  0.00    -0.092 NA 
HETATM   16  C   UNL     1      -7.897   5.038  73.660  1.00  0.00    -0.099 A  
HETATM   17  C   UNL     1      -8.350   5.464  72.422  1.00  0.00    -0.118 A  
ENDBRANCH   3  12
TORSDOF 1
ENDMDL
MODEL      127
REMARK 921   NORMALIZED FREE ENERGY PREDICTED BY IDOCK:   -3.22 KCAL/MOL
REMARK 922        TOTAL FREE ENERGY PREDICTED BY IDOCK:   -3.70 KCAL/MOL
REMARK 923 INTER-LIGAND FREE ENERGY PREDICTED BY IDOCK:   -3.45 KCAL/MOL
REMARK 924 INTRA-LIGAND FREE ENERGY PREDICTED BY IDOCK:   -0.24 KCAL/MOL
REMARK 927      BINDING AFFINITY PREDICTED BY RF-SCORE:    0.00 PKD
ROOT
HETATM    1  C   UNL     1      -9.486   5.393  67.848  1.00  0.00    -0.137 C  
HETATM    2  C   UNL     1      -9.682   6.883  67.767  1.00  0.00    -0.129 C  
HETATM    3  C   UNL     1     -10.070   7.696  68.779  1.00  0.00    -0.202 C  
HETATM    4  H   UNL     1      -9.140   6.791  65.782  1.00  0.00     0.000 HD 
HETATM    5  C   UNL     1     -10.172   9.130  68.519  1.00  0.00    -0.223 C  
HETATM    6  C   UNL     1      -9.933   9.665  67.310  1.00  0.00    -0.250 C  
HETATM    7  O   UNL     1      -9.340   9.157  65.058  1.00  0.00    -0.195 OA 
HETATM    8  C   UNL     1     -10.033  11.060  67.075  1.00  0.00    -0.190 C  
HETATM    9  N   UNL     1     -10.129  12.210  66.941  1.00  0.00    -0.205 NA 
HETATM   10  C   UNL     1      -9.549   8.759  66.198  1.00  0.00    -0.253 C  
HETATM   11  N   UNL     1      -9.433   7.429  66.522  1.00  0.00    -0.184 N  
ENDROOT
BRANCH   3  12
HETATM   12  C   UNL     1     -10.433   7.155  70.105  1.00  0.00    -0.231 A  
HETATM   13  C   UNL     1     -12.034   6.370  71.691  1.00  0.00    -0.291 A  
HETATM   14  C   UNL     1     -11.765   6.919  70.446  1.00  0.00    -0.377 A  
HETATM   15  N   UNL     1     -11.080   6.047  72.591  1.00  0.00    -0.260 NA 
HETATM   16  C   UNL     1      -9.800   6.277  72.234  1.00  0.00    -0.161 A  
HETATM   17  C   UNL     1      -9.429   6.822  71.017  1.00  0.00    -0.165 A  
ENDBRANCH   3  12
TORSDOF 1
ENDMDL
MODEL      128
REMARK 921   NORMALIZED FREE ENERGY PREDICTED BY IDOCK:   -3.21 KCAL/MOL
REMARK 922        TOTAL FREE ENERGY PREDICTED BY IDOCK:   -3.68 KCAL/MOL
REMARK 923 INTER-LIGAND FREE ENERGY PREDICTED BY IDOCK:   -4.12 KCAL/MOL
REMARK 924 INTRA-LIGAND FREE ENERGY PREDICTED BY IDOCK:    0.44 KCAL/MOL
REMARK 927      BINDING AFFINITY PREDICTED BY RF-SCORE:    0.00 PKD
ROOT
HETATM    1  C   UNL     1      -7.383  15.078  67.754  1.00  0.00    -0.183 C  
HETATM    2  C   UNL     1      -8.177  13.809  67.590  1.00  0.00    -0.177 C  
HETATM    3  C   UNL     1      -9.279  13.649  66.819  1.00  0.00    -0.251 C  
HETATM    4  H   UNL     1      -6.865  12.887  68.882  1.00  0.00     0.000 HD 
HETATM    5  C   UNL     1      -9.897  12.326  66.755  1.00  0.00    -0.218 C  
HETATM    6  C   UNL     1      -9.437  11.278  67.459  1.00  0.00    -0.177 C  
HETATM    7  O   UNL     1      -7.784  10.585  69.030  1.00  0.00    -0.104 OA 
HETATM    8  C   UNL     1     -10.046  10.000  67.384  1.00  0.00    -0.208 C  
HETATM    9  N   UNL     1     -10.585   8.976  67.282  1.00  0.00    -0.269 NA 
HETATM   10  C   UNL     1      -8.253  11.477  68.333  1.00  0.00    -0.152 C  
HETATM   11  N   UNL     1      -7.699  12.734  68.314  1.00  0.00    -0.129 N  
ENDROOT
BRANCH   3  12
HETATM   12  C   UNL     1      -9.882  14.785  66.093  1.00  0.00    -0.335 A  
HETATM   13  C   UNL     1     -10.310  17.116  65.815  1.00  0.00    -0.240 A  
HETATM   14  C   UNL     1      -9.757  16.091  66.567  1.00  0.00    -0.284 A  
HETATM   15  N   UNL     1     -10.961  16.925  64.648  1.00  0.00    -0.963 NA 
HETATM   16  C   UNL     1     -11.062  15.654  64.206  1.00  0.00     0.018 A  
HETATM   17  C   UNL     1     -10.545  14.562  64.884  1.00  0.00    -0.450 A  
ENDBRANCH   3  12
TORSDOF 1
ENDMDL
MODEL      129
REMARK 921   NORMALIZED FREE ENERGY PREDICTED BY IDOCK:   -3.20 KCAL/MOL
REMARK 922        TOTAL FREE ENERGY PREDICTED BY IDOCK:   -3.67 KCAL/MOL
REMARK 923 INTER-LIGAND FREE ENERGY PREDICTED BY IDOCK:   -3.42 KCAL/MOL
REMARK 924 INTRA-LIGAND FREE ENERGY PREDICTED BY IDOCK:   -0.26 KCAL/MOL
REMARK 927      BINDING AFFINITY PREDICTED BY RF-SCORE:    0.00 PKD
ROOT
HETATM    1  C   UNL     1      -7.171   9.608  65.127  1.00  0.00    -0.115 C  
HETATM    2  C   UNL     1      -8.417  10.439  65.280  1.00  0.00    -0.169 C  
HETATM    3  C   UNL     1      -8.792  11.122  66.388  1.00  0.00    -0.182 C  
HETATM    4  H   UNL     1      -8.912   9.955  63.341  1.00  0.00     0.000 HD 
HETATM    5  C   UNL     1     -10.024  11.907  66.338  1.00  0.00    -0.237 C  
HETATM    6  C   UNL     1     -10.813  11.946  65.251  1.00  0.00    -0.347 C  
HETATM    7  O   UNL     1     -11.086  11.115  63.034  1.00  0.00     0.009 OA 
HETATM    8  C   UNL     1     -12.004  12.715  65.217  1.00  0.00    -0.439 C  
HETATM    9  N   UNL     1     -12.967  13.365  65.246  1.00  0.00    -0.677 NA 
HETATM   10  C   UNL     1     -10.412  11.160  64.057  1.00  0.00    -0.383 C  
HETATM   11  N   UNL     1      -9.224  10.477  64.159  1.00  0.00    -0.227 N  
ENDROOT
BRANCH   3  12
HETATM   12  C   UNL     1      -8.013  11.045  67.640  1.00  0.00    -0.115 A  
HETATM   13  C   UNL     1      -7.315   9.907  69.618  1.00  0.00    -0.115 A  
HETATM   14  C   UNL     1      -8.106   9.935  68.480  1.00  0.00    -0.101 A  
HETATM   15  N   UNL     1      -6.456  10.891  69.961  1.00  0.00    -0.142 NA 
HETATM   16  C   UNL     1      -6.378  11.950  69.129  1.00  0.00    -0.092 A  
HETATM   17  C   UNL     1      -7.126  12.073  67.970  1.00  0.00    -0.086 A  
ENDBRANCH   3  12
TORSDOF 1
ENDMDL
MODEL      130
REMARK 921   NORMALIZED FREE ENERGY PREDICTED BY IDOCK:   -3.20 KCAL/MOL
REMARK 922        TOTAL FREE ENERGY PREDICTED BY IDOCK:   -3.67 KCAL/MOL
REMARK 923 INTER-LIGAND FREE ENERGY PREDICTED BY IDOCK:   -3.36 KCAL/MOL
REMARK 924 INTRA-LIGAND FREE ENERGY PREDICTED BY IDOCK:   -0.31 KCAL/MOL
REMARK 927      BINDING AFFINITY PREDICTED BY RF-SCORE:    0.00 PKD
ROOT
HETATM    1  C   UNL     1      -9.442   8.768  70.711  1.00  0.00    -0.253 C  
HETATM    2  C   UNL     1      -9.747   7.739  69.656  1.00  0.00    -0.172 C  
HETATM    3  C   UNL     1     -10.131   6.458  69.874  1.00  0.00    -0.206 C  
HETATM    4  H   UNL     1      -9.320   9.158  68.226  1.00  0.00     0.000 HD 
HETATM    5  C   UNL     1     -10.420   5.612  68.718  1.00  0.00    -0.289 C  
HETATM    6  C   UNL     1     -10.283   6.043  67.453  1.00  0.00    -0.230 C  
HETATM    7  O   UNL     1      -9.642   7.904  66.108  1.00  0.00    -0.159 OA 
HETATM    8  C   UNL     1     -10.570   5.210  66.342  1.00  0.00    -0.276 C  
HETATM    9  N   UNL     1     -10.822   4.484  65.471  1.00  0.00    -0.196 NA 
HETATM   10  C   UNL     1      -9.822   7.437  67.226  1.00  0.00    -0.175 C  
HETATM   11  N   UNL     1      -9.607   8.188  68.357  1.00  0.00    -0.146 N  
ENDROOT
BRANCH   3  12
HETATM   12  C   UNL     1     -10.213   5.901  71.239  1.00  0.00    -0.262 A  
HETATM   13  C   UNL     1     -11.435   5.318  73.204  1.00  0.00    -0.246 A  
HETATM   14  C   UNL     1     -11.417   5.895  71.944  1.00  0.00    -0.287 A  
HETATM   15  N   UNL     1     -10.354   4.758  73.790  1.00  0.00    -0.196 NA 
HETATM   16  C   UNL     1      -9.204   4.769  73.086  1.00  0.00    -0.115 A  
HETATM   17  C   UNL     1      -9.083   5.321  71.821  1.00  0.00    -0.154 A  
ENDBRANCH   3  12
TORSDOF 1
ENDMDL
MODEL      131
REMARK 921   NORMALIZED FREE ENERGY PREDICTED BY IDOCK:   -3.18 KCAL/MOL
REMARK 922        TOTAL FREE ENERGY PREDICTED BY IDOCK:   -3.65 KCAL/MOL
REMARK 923 INTER-LIGAND FREE ENERGY PREDICTED BY IDOCK:   -3.79 KCAL/MOL
REMARK 924 INTRA-LIGAND FREE ENERGY PREDICTED BY IDOCK:    0.14 KCAL/MOL
REMARK 927      BINDING AFFINITY PREDICTED BY RF-SCORE:    0.00 PKD
ROOT
HETATM    1  C   UNL     1      -9.001  11.248  66.803  1.00  0.00    -0.173 C  
HETATM    2  C   UNL     1      -9.279   9.769  66.835  1.00  0.00    -0.147 C  
HETATM    3  C   UNL     1     -10.130   9.133  67.675  1.00  0.00    -0.273 C  
HETATM    4  H   UNL     1      -7.945   9.541  65.282  1.00  0.00     0.000 HD 
HETATM    5  C   UNL     1     -10.298   7.688  67.532  1.00  0.00    -0.326 C  
HETATM    6  C   UNL     1      -9.614   6.966  66.628  1.00  0.00    -0.218 C  
HETATM    7  O   UNL     1      -7.969   7.087  64.907  1.00  0.00    -0.120 OA 
HETATM    8  C   UNL     1      -9.791   5.565  66.500  1.00  0.00    -0.172 C  
HETATM    9  N   UNL     1      -9.978   4.420  66.438  1.00  0.00    -0.229 NA 
HETATM   10  C   UNL     1      -8.654   7.669  65.740  1.00  0.00    -0.139 C  
HETATM   11  N   UNL     1      -8.575   9.032  65.902  1.00  0.00    -0.145 N  
ENDROOT
BRANCH   3  12
HETATM   12  C   UNL     1     -10.840   9.859  68.747  1.00  0.00    -0.240 A  
HETATM   13  C   UNL     1     -12.234  11.636  69.518  1.00  0.00    -0.193 A  
HETATM   14  C   UNL     1     -11.554  11.027  68.475  1.00  0.00    -0.380 A  
HETATM   15  N   UNL     1     -12.249  11.163  70.783  1.00  0.00    -0.372 NA 
HETATM   16  C   UNL     1     -11.559  10.029  71.019  1.00  0.00    -0.393 A  
HETATM   17  C   UNL     1     -10.847   9.347  70.046  1.00  0.00    -0.271 A  
ENDBRANCH   3  12
TORSDOF 1
ENDMDL
MODEL      132
REMARK 921   NORMALIZED FREE ENERGY PREDICTED BY IDOCK:   -3.13 KCAL/MOL
REMARK 922        TOTAL FREE ENERGY PREDICTED BY IDOCK:   -3.60 KCAL/MOL
REMARK 923 INTER-LIGAND FREE ENERGY PREDICTED BY IDOCK:   -3.31 KCAL/MOL
REMARK 924 INTRA-LIGAND FREE ENERGY PREDICTED BY IDOCK:   -0.29 KCAL/MOL
REMARK 927      BINDING AFFINITY PREDICTED BY RF-SCORE:    0.00 PKD
ROOT
HETATM    1  C   UNL     1      -9.106   8.316  66.402  1.00  0.00    -0.226 C  
HETATM    2  C   UNL     1      -9.761   7.723  67.621  1.00  0.00    -0.155 C  
HETATM    3  C   UNL     1      -9.997   6.407  67.842  1.00  0.00    -0.145 C  
HETATM    4  H   UNL     1      -9.947   9.628  68.380  1.00  0.00     0.000 HD 
HETATM    5  C   UNL     1     -10.613   6.015  69.108  1.00  0.00    -0.362 C  
HETATM    6  C   UNL     1     -10.987   6.909  70.039  1.00  0.00    -0.320 C  
HETATM    7  O   UNL     1     -11.095   9.235  70.546  1.00  0.00    -0.240 OA 
HETATM    8  C   UNL     1     -11.581   6.511  71.263  1.00  0.00    -0.327 C  
HETATM    9  N   UNL     1     -12.061   6.127  72.249  1.00  0.00    -0.266 NA 
HETATM   10  C   UNL     1     -10.761   8.351  69.766  1.00  0.00    -0.211 C  
HETATM   11  N   UNL     1     -10.142   8.646  68.576  1.00  0.00    -0.185 N  
ENDROOT
BRANCH   3  12
HETATM   12  C   UNL     1      -9.690   5.387  66.819  1.00  0.00    -0.170 A  
HETATM   13  C   UNL     1      -8.204   3.847  65.764  1.00  0.00    -0.105 A  
HETATM   14  C   UNL     1      -8.414   4.831  66.717  1.00  0.00    -0.105 A  
HETATM   15  N   UNL     1      -9.163   3.392  64.929  1.00  0.00    -0.139 NA 
HETATM   16  C   UNL     1     -10.390   3.940  65.053  1.00  0.00    -0.105 A  
HETATM   17  C   UNL     1     -10.700   4.928  65.972  1.00  0.00    -0.247 A  
ENDBRANCH   3  12
TORSDOF 1
ENDMDL
MODEL      133
REMARK 921   NORMALIZED FREE ENERGY PREDICTED BY IDOCK:   -3.09 KCAL/MOL
REMARK 922        TOTAL FREE ENERGY PREDICTED BY IDOCK:   -3.55 KCAL/MOL
REMARK 923 INTER-LIGAND FREE ENERGY PREDICTED BY IDOCK:   -3.27 KCAL/MOL
REMARK 924 INTRA-LIGAND FREE ENERGY PREDICTED BY IDOCK:   -0.29 KCAL/MOL
REMARK 927      BINDING AFFINITY PREDICTED BY RF-SCORE:    0.00 PKD
ROOT
HETATM    1  C   UNL     1     -10.628   8.886  67.544  1.00  0.00    -0.307 C  
HETATM    2  C   UNL     1      -9.539   9.431  68.430  1.00  0.00    -0.146 C  
HETATM    3  C   UNL     1      -9.398   9.201  69.757  1.00  0.00    -0.190 C  
HETATM    4  H   UNL     1      -8.756  10.389  66.784  1.00  0.00     0.000 HD 
HETATM    5  C   UNL     1      -8.251   9.789  70.446  1.00  0.00    -0.119 C  
HETATM    6  C   UNL     1      -7.358  10.576  69.823  1.00  0.00    -0.139 C  
HETATM    7  O   UNL     1      -6.798  11.583  67.736  1.00  0.00    -0.070 OA 
HETATM    8  C   UNL     1      -6.249  11.137  70.506  1.00  0.00    -0.021 C  
HETATM    9  N   UNL     1      -5.358  11.567  71.115  1.00  0.00    -0.285 NA 
HETATM   10  C   UNL     1      -7.547  10.855  68.377  1.00  0.00    -0.104 C  
HETATM   11  N   UNL     1      -8.623  10.238  67.784  1.00  0.00    -0.118 N  
ENDROOT
BRANCH   3  12
HETATM   12  C   UNL     1     -10.395   8.418  70.514  1.00  0.00    -0.220 A  
HETATM   13  C   UNL     1     -12.429   8.235  71.749  1.00  0.00    -0.332 A  
HETATM   14  C   UNL     1     -11.508   9.034  71.090  1.00  0.00    -0.376 A  
HETATM   15  N   UNL     1     -12.315   6.895  71.865  1.00  0.00    -0.338 NA 
HETATM   16  C   UNL     1     -11.236   6.322  71.293  1.00  0.00    -0.297 A  
HETATM   17  C   UNL     1     -10.260   7.032  70.614  1.00  0.00    -0.205 A  
ENDBRANCH   3  12
TORSDOF 1
ENDMDL
MODEL      134
REMARK 921   NORMALIZED FREE ENERGY PREDICTED BY IDOCK:   -3.08 KCAL/MOL
REMARK 922        TOTAL FREE ENERGY PREDICTED BY IDOCK:   -3.55 KCAL/MOL
REMARK 923 INTER-LIGAND FREE ENERGY PREDICTED BY IDOCK:   -3.26 KCAL/MOL
REMARK 924 INTRA-LIGAND FREE ENERGY PREDICTED BY IDOCK:   -0.28 KCAL/MOL
REMARK 927      BINDING AFFINITY PREDICTED BY RF-SCORE:    0.00 PKD
ROOT
HETATM    1  C   UNL     1     -10.464   8.921  71.248  1.00  0.00    -0.357 C  
HETATM    2  C   UNL     1     -10.350   9.507  69.866  1.00  0.00    -0.236 C  
HETATM    3  C   UNL     1     -10.027   8.835  68.736  1.00  0.00    -0.197 C  
HETATM    4  H   UNL     1     -10.852  11.339  70.662  1.00  0.00     0.000 HD 
HETATM    5  C   UNL     1     -10.002   9.569  67.473  1.00  0.00    -0.235 C  
HETATM    6  C   UNL     1     -10.250  10.888  67.397  1.00  0.00    -0.236 C  
HETATM    7  O   UNL     1     -10.774  12.829  68.678  1.00  0.00    -0.245 OA 
HETATM    8  C   UNL     1     -10.224  11.585  66.163  1.00  0.00    -0.232 C  
HETATM    9  N   UNL     1     -10.192  12.104  65.124  1.00  0.00    -0.274 NA 
HETATM   10  C   UNL     1     -10.563  11.622  68.649  1.00  0.00    -0.209 C  
HETATM   11  N   UNL     1     -10.608  10.863  69.794  1.00  0.00    -0.146 N  
ENDROOT
BRANCH   3  12
HETATM   12  C   UNL     1      -9.657   7.406  68.770  1.00  0.00    -0.147 A  
HETATM   13  C   UNL     1      -8.083   5.647  69.123  1.00  0.00    -0.096 A  
HETATM   14  C   UNL     1      -8.354   7.005  69.065  1.00  0.00    -0.126 A  
HETATM   15  N   UNL     1      -9.010   4.687  68.913  1.00  0.00    -0.102 NA 
HETATM   16  C   UNL     1     -10.264   5.099  68.638  1.00  0.00    -0.122 A  
HETATM   17  C   UNL     1     -10.635   6.431  68.556  1.00  0.00    -0.302 A  
ENDBRANCH   3  12
TORSDOF 1
ENDMDL
MODEL      135
REMARK 921   NORMALIZED FREE ENERGY PREDICTED BY IDOCK:   -3.04 KCAL/MOL
REMARK 922        TOTAL FREE ENERGY PREDICTED BY IDOCK:   -3.51 KCAL/MOL
REMARK 923 INTER-LIGAND FREE ENERGY PREDICTED BY IDOCK:   -3.20 KCAL/MOL
REMARK 924 INTRA-LIGAND FREE ENERGY PREDICTED BY IDOCK:   -0.31 KCAL/MOL
REMARK 927      BINDING AFFINITY PREDICTED BY RF-SCORE:    0.00 PKD
ROOT
HETATM    1  C   UNL     1      -9.919   5.709  73.844  1.00  0.00    -0.203 C  
HETATM    2  C   UNL     1      -9.421   5.630  72.426  1.00  0.00    -0.143 C  
HETATM    3  C   UNL     1      -9.885   6.346  71.373  1.00  0.00    -0.195 C  
HETATM    4  H   UNL     1      -8.066   4.205  73.039  1.00  0.00     0.000 HD 
HETATM    5  C   UNL     1      -9.249   6.159  70.071  1.00  0.00    -0.158 C  
HETATM    6  C   UNL     1      -8.252   5.280  69.871  1.00  0.00    -0.094 C  
HETATM    7  O   UNL     1      -6.897   3.628  70.927  1.00  0.00    -0.031 OA 
HETATM    8  C   UNL     1      -7.644   5.113  68.601  1.00  0.00    -0.078 C  
HETATM    9  N   UNL     1      -7.182   5.020  67.540  1.00  0.00    -0.070 NA 
HETATM   10  C   UNL     1      -7.781   4.471  71.024  1.00  0.00    -0.072 C  
HETATM   11  N   UNL     1      -8.395   4.726  72.226  1.00  0.00    -0.114 N  
ENDROOT
BRANCH   3  12
HETATM   12  C   UNL     1     -11.036   7.260  71.512  1.00  0.00    -0.259 A  
HETATM   13  C   UNL     1     -11.971   9.428  71.862  1.00  0.00    -0.346 A  
HETATM   14  C   UNL     1     -10.850   8.616  71.788  1.00  0.00    -0.395 A  
HETATM   15  N   UNL     1     -13.234   8.985  71.680  1.00  0.00    -0.355 NA 
HETATM   16  C   UNL     1     -13.387   7.673  71.406  1.00  0.00    -0.288 A  
HETATM   17  C   UNL     1     -12.332   6.780  71.312  1.00  0.00    -0.395 A  
ENDBRANCH   3  12
TORSDOF 1
ENDMDL
MODEL      136
REMARK 921   NORMALIZED FREE ENERGY PREDICTED BY IDOCK:   -3.01 KCAL/MOL
REMARK 922        TOTAL FREE ENERGY PREDICTED BY IDOCK:   -3.47 KCAL/MOL
REMARK 923 INTER-LIGAND FREE ENERGY PREDICTED BY IDOCK:   -3.19 KCAL/MOL
REMARK 924 INTRA-LIGAND FREE ENERGY PREDICTED BY IDOCK:   -0.28 KCAL/MOL
REMARK 927      BINDING AFFINITY PREDICTED BY RF-SCORE:    0.00 PKD
ROOT
HETATM    1  C   UNL     1      -7.936  11.905  68.902  1.00  0.00     0.040 C  
HETATM    2  C   UNL     1      -8.928  12.007  67.775  1.00  0.00    -0.176 C  
HETATM    3  C   UNL     1      -9.526  13.141  67.336  1.00  0.00    -0.214 C  
HETATM    4  H   UNL     1      -8.758   9.972  67.513  1.00  0.00     0.000 HD 
HETATM    5  C   UNL     1     -10.439  13.050  66.199  1.00  0.00    -0.289 C  
HETATM    6  C   UNL     1     -10.736  11.884  65.601  1.00  0.00    -0.325 C  
HETATM    7  O   UNL     1     -10.340   9.534  65.651  1.00  0.00    -0.130 OA 
HETATM    8  C   UNL     1     -11.622  11.813  64.496  1.00  0.00    -0.223 C  
HETATM    9  N   UNL     1     -12.354  11.816  63.594  1.00  0.00    -0.445 NA 
HETATM   10  C   UNL     1     -10.106  10.643  66.117  1.00  0.00    -0.249 C  
HETATM   11  N   UNL     1      -9.228  10.806  67.162  1.00  0.00    -0.147 N  
ENDROOT
BRANCH   3  12
HETATM   12  C   UNL     1      -9.309  14.437  68.011  1.00  0.00    -0.200 A  
HETATM   13  C   UNL     1      -9.863  16.069  69.661  1.00  0.00    -0.196 A  
HETATM   14  C   UNL     1     -10.148  14.862  69.041  1.00  0.00    -0.237 A  
HETATM   15  N   UNL     1      -8.817  16.856  69.328  1.00  0.00    -0.050 NA 
HETATM   16  C   UNL     1      -8.015  16.419  68.336  1.00  0.00    -0.178 A  
HETATM   17  C   UNL     1      -8.216  15.230  67.654  1.00  0.00    -0.175 A  
ENDBRANCH   3  12
TORSDOF 1
ENDMDL
MODEL      137
REMARK 921   NORMALIZED FREE ENERGY PREDICTED BY IDOCK:   -3.00 KCAL/MOL
REMARK 922        TOTAL FREE ENERGY PREDICTED BY IDOCK:   -3.46 KCAL/MOL
REMARK 923 INTER-LIGAND FREE ENERGY PREDICTED BY IDOCK:   -3.17 KCAL/MOL
REMARK 924 INTRA-LIGAND FREE ENERGY PREDICTED BY IDOCK:   -0.28 KCAL/MOL
REMARK 927      BINDING AFFINITY PREDICTED BY RF-SCORE:    0.00 PKD
ROOT
HETATM    1  C   UNL     1      -6.301  14.096  70.177  1.00  0.00    -0.125 C  
HETATM    2  C   UNL     1      -7.175  14.674  69.096  1.00  0.00    -0.142 C  
HETATM    3  C   UNL     1      -7.743  13.988  68.075  1.00  0.00    -0.149 C  
HETATM    4  H   UNL     1      -6.948  16.522  69.976  1.00  0.00     0.000 HD 
HETATM    5  C   UNL     1      -8.595  14.717  67.137  1.00  0.00    -0.248 C  
HETATM    6  C   UNL     1      -8.803  16.042  67.227  1.00  0.00    -0.207 C  
HETATM    7  O   UNL     1      -8.252  18.001  68.468  1.00  0.00    -0.296 OA 
HETATM    8  C   UNL     1      -9.635  16.734  66.311  1.00  0.00    -0.289 C  
HETATM    9  N   UNL     1     -10.328  17.247  65.533  1.00  0.00    -0.642 NA 
HETATM   10  C   UNL     1      -8.141  16.789  68.327  1.00  0.00    -0.202 C  
HETATM   11  N   UNL     1      -7.387  16.036  69.194  1.00  0.00    -0.198 N  
ENDROOT
BRANCH   3  12
HETATM   12  C   UNL     1      -7.480  12.550  67.872  1.00  0.00    -0.120 A  
HETATM   13  C   UNL     1      -6.128  10.750  67.078  1.00  0.00    -0.068 A  
HETATM   14  C   UNL     1      -6.339  12.115  67.197  1.00  0.00    -0.139 A  
HETATM   15  N   UNL     1      -6.963   9.815  67.582  1.00  0.00    -0.085 NA 
HETATM   16  C   UNL     1      -8.054  10.260  68.238  1.00  0.00    -0.107 A  
HETATM   17  C   UNL     1      -8.353  11.601  68.409  1.00  0.00    -0.157 A  
ENDBRANCH   3  12
TORSDOF 1
ENDMDL
MODEL      138
REMARK 921   NORMALIZED FREE ENERGY PREDICTED BY IDOCK:   -2.98 KCAL/MOL
REMARK 922        TOTAL FREE ENERGY PREDICTED BY IDOCK:   -3.44 KCAL/MOL
REMARK 923 INTER-LIGAND FREE ENERGY PREDICTED BY IDOCK:   -3.38 KCAL/MOL
REMARK 924 INTRA-LIGAND FREE ENERGY PREDICTED BY IDOCK:   -0.07 KCAL/MOL
REMARK 927      BINDING AFFINITY PREDICTED BY RF-SCORE:    0.00 PKD
ROOT
HETATM    1  C   UNL     1      -8.569   9.298  63.500  1.00  0.00    -0.201 C  
HETATM    2  C   UNL     1      -9.263  10.154  64.525  1.00  0.00    -0.257 C  
HETATM    3  C   UNL     1      -9.128  10.062  65.869  1.00  0.00    -0.195 C  
HETATM    4  H   UNL     1     -10.188  11.156  62.981  1.00  0.00     0.000 HD 
HETATM    5  C   UNL     1      -9.858  11.010  66.709  1.00  0.00    -0.229 C  
HETATM    6  C   UNL     1     -10.684  11.939  66.200  1.00  0.00    -0.318 C  
HETATM    7  O   UNL     1     -11.610  12.800  64.180  1.00  0.00    -0.343 OA 
HETATM    8  C   UNL     1     -11.384  12.853  67.029  1.00  0.00    -0.309 C  
HETATM    9  N   UNL     1     -11.929  13.577  67.755  1.00  0.00    -0.354 NA 
HETATM   10  C   UNL     1     -10.857  12.003  64.727  1.00  0.00    -0.306 C  
HETATM   11  N   UNL     1     -10.110  11.110  63.997  1.00  0.00    -0.304 N  
ENDROOT
BRANCH   3  12
HETATM   12  C   UNL     1      -8.304   9.004  66.489  1.00  0.00    -0.115 A  
HETATM   13  C   UNL     1      -8.064   6.998  67.759  1.00  0.00    -0.114 A  
HETATM   14  C   UNL     1      -8.889   7.984  67.241  1.00  0.00    -0.135 A  
HETATM   15  N   UNL     1      -6.726   6.965  67.576  1.00  0.00    -0.065 NA 
HETATM   16  C   UNL     1      -6.186   7.957  66.839  1.00  0.00    -0.054 A  
HETATM   17  C   UNL     1      -6.923   8.987  66.280  1.00  0.00    -0.079 A  
ENDBRANCH   3  12
TORSDOF 1
ENDMDL
MODEL      139
REMARK 921   NORMALIZED FREE ENERGY PREDICTED BY IDOCK:   -2.94 KCAL/MOL
REMARK 922        TOTAL FREE ENERGY PREDICTED BY IDOCK:   -3.40 KCAL/MOL
REMARK 923 INTER-LIGAND FREE ENERGY PREDICTED BY IDOCK:   -4.09 KCAL/MOL
REMARK 924 INTRA-LIGAND FREE ENERGY PREDICTED BY IDOCK:    0.69 KCAL/MOL
REMARK 927      BINDING AFFINITY PREDICTED BY RF-SCORE:    0.00 PKD
ROOT
HETATM    1  C   UNL     1     -11.374  13.299  66.017  1.00  0.00    -0.329 C  
HETATM    2  C   UNL     1     -10.400  14.434  66.188  1.00  0.00    -0.298 C  
HETATM    3  C   UNL     1      -9.165  14.353  66.739  1.00  0.00    -0.287 C  
HETATM    4  H   UNL     1     -11.787  15.682  65.315  1.00  0.00     0.000 HD 
HETATM    5  C   UNL     1      -8.344  15.562  66.786  1.00  0.00    -0.301 C  
HETATM    6  C   UNL     1      -8.782  16.752  66.340  1.00  0.00    -0.337 C  
HETATM    7  O   UNL     1     -10.643  17.884  65.374  1.00  0.00    -0.656 OA 
HETATM    8  C   UNL     1      -7.971  17.914  66.391  1.00  0.00    -0.267 C  
HETATM    9  N   UNL     1      -7.263  18.832  66.455  1.00  0.00    -0.221 NA 
HETATM   10  C   UNL     1     -10.153  16.836  65.777  1.00  0.00    -0.253 C  
HETATM   11  N   UNL     1     -10.854  15.655  65.727  1.00  0.00    -0.324 N  
ENDROOT
BRANCH   3  12
HETATM   12  C   UNL     1      -8.665  13.094  67.326  1.00  0.00    -0.210 A  
HETATM   13  C   UNL     1      -8.880  10.767  67.809  1.00  0.00    -0.130 A  
HETATM   14  C   UNL     1      -9.425  11.925  67.278  1.00  0.00    -0.176 A  
HETATM   15  N   UNL     1      -7.652  10.703  68.368  1.00  0.00    -0.095 NA 
HETATM   16  C   UNL     1      -6.933  11.844  68.395  1.00  0.00    -0.078 A  
HETATM   17  C   UNL     1      -7.389  13.051  67.892  1.00  0.00    -0.128 A  
ENDBRANCH   3  12
TORSDOF 1
ENDMDL
MODEL      140
REMARK 921   NORMALIZED FREE ENERGY PREDICTED BY IDOCK:   -2.93 KCAL/MOL
REMARK 922        TOTAL FREE ENERGY PREDICTED BY IDOCK:   -3.39 KCAL/MOL
REMARK 923 INTER-LIGAND FREE ENERGY PREDICTED BY IDOCK:   -3.08 KCAL/MOL
REMARK 924 INTRA-LIGAND FREE ENERGY PREDICTED BY IDOCK:   -0.31 KCAL/MOL
REMARK 927      BINDING AFFINITY PREDICTED BY RF-SCORE:    0.00 PKD
ROOT
HETATM    1  C   UNL     1      -9.485   8.526  65.905  1.00  0.00    -0.207 C  
HETATM    2  C   UNL     1      -9.497  10.002  66.200  1.00  0.00    -0.190 C  
HETATM    3  C   UNL     1      -9.151  10.587  67.372  1.00  0.00    -0.147 C  
HETATM    4  H   UNL     1     -10.158  10.325  64.276  1.00  0.00     0.000 HD 
HETATM    5  C   UNL     1      -9.190  12.045  67.459  1.00  0.00    -0.180 C  
HETATM    6  C   UNL     1      -9.591  12.821  66.438  1.00  0.00    -0.254 C  
HETATM    7  O   UNL     1     -10.412  12.793  64.200  1.00  0.00    -0.385 OA 
HETATM    8  C   UNL     1      -9.620  14.235  66.538  1.00  0.00    -0.297 C  
HETATM    9  N   UNL     1      -9.622  15.388  66.676  1.00  0.00    -0.242 NA 
HETATM   10  C   UNL     1     -10.007  12.166  65.172  1.00  0.00    -0.228 C  
HETATM   11  N   UNL     1      -9.907  10.795  65.145  1.00  0.00    -0.254 N  
ENDROOT
BRANCH   3  12
HETATM   12  C   UNL     1      -8.789   9.783  68.556  1.00  0.00    -0.121 A  
HETATM   13  C   UNL     1      -7.182   8.751  69.987  1.00  0.00    -0.052 A  
HETATM   14  C   UNL     1      -7.457   9.472  68.836  1.00  0.00    -0.074 A  
HETATM   15  N   UNL     1      -8.127   8.332  70.856  1.00  0.00    -0.095 NA 
HETATM   16  C   UNL     1      -9.406   8.652  70.568  1.00  0.00    -0.175 A  
HETATM   17  C   UNL     1      -9.784   9.368  69.444  1.00  0.00    -0.181 A  
ENDBRANCH   3  12
TORSDOF 1
ENDMDL
MODEL      141
REMARK 921   NORMALIZED FREE ENERGY PREDICTED BY IDOCK:   -2.88 KCAL/MOL
REMARK 922        TOTAL FREE ENERGY PREDICTED BY IDOCK:   -3.34 KCAL/MOL
REMARK 923 INTER-LIGAND FREE ENERGY PREDICTED BY IDOCK:   -3.55 KCAL/MOL
REMARK 924 INTRA-LIGAND FREE ENERGY PREDICTED BY IDOCK:    0.21 KCAL/MOL
REMARK 927      BINDING AFFINITY PREDICTED BY RF-SCORE:    0.00 PKD
ROOT
HETATM    1  C   UNL     1     -10.309   8.749  69.147  1.00  0.00    -0.227 C  
HETATM    2  C   UNL     1      -9.773   8.804  67.741  1.00  0.00    -0.158 C  
HETATM    3  C   UNL     1      -9.812   9.874  66.912  1.00  0.00    -0.252 C  
HETATM    4  H   UNL     1      -9.181   6.843  67.949  1.00  0.00     0.000 HD 
HETATM    5  C   UNL     1      -9.204   9.751  65.588  1.00  0.00    -0.252 C  
HETATM    6  C   UNL     1      -8.646   8.609  65.152  1.00  0.00    -0.200 C  
HETATM    7  O   UNL     1      -8.184   6.343  65.730  1.00  0.00    -0.120 OA 
HETATM    8  C   UNL     1      -8.058   8.506  63.866  1.00  0.00    -0.155 C  
HETATM    9  N   UNL     1      -7.590   8.481  62.803  1.00  0.00    -0.106 NA 
HETATM   10  C   UNL     1      -8.646   7.431  66.056  1.00  0.00    -0.151 C  
HETATM   11  N   UNL     1      -9.198   7.629  67.299  1.00  0.00    -0.129 N  
ENDROOT
BRANCH   3  12
HETATM   12  C   UNL     1     -10.491  11.126  67.301  1.00  0.00    -0.263 A  
HETATM   13  C   UNL     1     -10.920  12.895  68.845  1.00  0.00    -0.228 A  
HETATM   14  C   UNL     1     -10.286  11.696  68.558  1.00  0.00    -0.216 A  
HETATM   15  N   UNL     1     -11.724  13.546  67.977  1.00  0.00    -0.339 NA 
HETATM   16  C   UNL     1     -11.900  12.980  66.765  1.00  0.00    -0.388 A  
HETATM   17  C   UNL     1     -11.313  11.785  66.384  1.00  0.00    -0.361 A  
ENDBRANCH   3  12
TORSDOF 1
ENDMDL
MODEL      142
REMARK 921   NORMALIZED FREE ENERGY PREDICTED BY IDOCK:   -2.88 KCAL/MOL
REMARK 922        TOTAL FREE ENERGY PREDICTED BY IDOCK:   -3.33 KCAL/MOL
REMARK 923 INTER-LIGAND FREE ENERGY PREDICTED BY IDOCK:   -3.09 KCAL/MOL
REMARK 924 INTRA-LIGAND FREE ENERGY PREDICTED BY IDOCK:   -0.25 KCAL/MOL
REMARK 927      BINDING AFFINITY PREDICTED BY RF-SCORE:    0.00 PKD
ROOT
HETATM    1  C   UNL     1      -9.484   5.591  73.389  1.00  0.00    -0.139 C  
HETATM    2  C   UNL     1      -9.535   4.816  72.100  1.00  0.00    -0.139 C  
HETATM    3  C   UNL     1     -10.061   5.245  70.928  1.00  0.00    -0.295 C  
HETATM    4  H   UNL     1      -8.591   3.260  73.064  1.00  0.00     0.000 HD 
HETATM    5  C   UNL     1      -9.986   4.361  69.767  1.00  0.00    -0.224 C  
HETATM    6  C   UNL     1      -9.451   3.130  69.828  1.00  0.00    -0.198 C  
HETATM    7  O   UNL     1      -8.435   1.538  71.282  1.00  0.00    -0.046 OA 
HETATM    8  C   UNL     1      -9.384   2.285  68.691  1.00  0.00    -0.176 C  
HETATM    9  N   UNL     1      -9.353   1.638  67.727  1.00  0.00    -0.149 NA 
HETATM   10  C   UNL     1      -8.915   2.655  71.129  1.00  0.00    -0.092 C  
HETATM   11  N   UNL     1      -8.982   3.551  72.168  1.00  0.00    -0.098 N  
ENDROOT
BRANCH   3  12
HETATM   12  C   UNL     1     -10.742   6.551  70.822  1.00  0.00    -0.290 A  
HETATM   13  C   UNL     1     -12.599   7.995  71.224  1.00  0.00    -0.239 A  
HETATM   14  C   UNL     1     -12.034   6.733  71.316  1.00  0.00    -0.414 A  
HETATM   15  N   UNL     1     -11.970   9.062  70.686  1.00  0.00    -0.170 NA 
HETATM   16  C   UNL     1     -10.718   8.864  70.224  1.00  0.00    -0.221 A  
HETATM   17  C   UNL     1     -10.068   7.642  70.268  1.00  0.00    -0.198 A  
ENDBRANCH   3  12
TORSDOF 1
ENDMDL
MODEL      143
REMARK 921   NORMALIZED FREE ENERGY PREDICTED BY IDOCK:   -2.87 KCAL/MOL
REMARK 922        TOTAL FREE ENERGY PREDICTED BY IDOCK:   -3.32 KCAL/MOL
REMARK 923 INTER-LIGAND FREE ENERGY PREDICTED BY IDOCK:   -3.06 KCAL/MOL
REMARK 924 INTRA-LIGAND FREE ENERGY PREDICTED BY IDOCK:   -0.26 KCAL/MOL
REMARK 927      BINDING AFFINITY PREDICTED BY RF-SCORE:    0.00 PKD
ROOT
HETATM    1  C   UNL     1     -11.242   6.393  69.121  1.00  0.00    -0.421 C  
HETATM    2  C   UNL     1     -10.390   6.265  67.886  1.00  0.00    -0.193 C  
HETATM    3  C   UNL     1      -9.720   7.267  67.269  1.00  0.00    -0.204 C  
HETATM    4  H   UNL     1     -10.830   4.253  67.859  1.00  0.00     0.000 HD 
HETATM    5  C   UNL     1      -8.910   6.943  66.096  1.00  0.00    -0.163 C  
HETATM    6  C   UNL     1      -8.837   5.701  65.588  1.00  0.00    -0.150 C  
HETATM    7  O   UNL     1      -9.623   3.465  65.837  1.00  0.00    -0.148 OA 
HETATM    8  C   UNL     1      -8.045   5.403  64.450  1.00  0.00    -0.123 C  
HETATM    9  N   UNL     1      -7.377   5.217  63.518  1.00  0.00    -0.049 NA 
HETATM   10  C   UNL     1      -9.610   4.619  66.249  1.00  0.00    -0.184 C  
HETATM   11  N   UNL     1     -10.317   4.985  67.369  1.00  0.00    -0.151 N  
ENDROOT
BRANCH   3  12
HETATM   12  C   UNL     1      -9.833   8.666  67.727  1.00  0.00    -0.218 A  
HETATM   13  C   UNL     1     -10.843  10.827  67.660  1.00  0.00    -0.279 A  
HETATM   14  C   UNL     1     -10.758   9.540  67.154  1.00  0.00    -0.252 A  
HETATM   15  N   UNL     1     -10.085  11.286  68.680  1.00  0.00    -0.204 NA 
HETATM   16  C   UNL     1      -9.205  10.420  69.223  1.00  0.00    -0.184 A  
HETATM   17  C   UNL     1      -9.043   9.115  68.788  1.00  0.00    -0.136 A  
ENDBRANCH   3  12
TORSDOF 1
ENDMDL
MODEL      144
REMARK 921   NORMALIZED FREE ENERGY PREDICTED BY IDOCK:   -2.87 KCAL/MOL
REMARK 922        TOTAL FREE ENERGY PREDICTED BY IDOCK:   -3.32 KCAL/MOL
REMARK 923 INTER-LIGAND FREE ENERGY PREDICTED BY IDOCK:   -3.08 KCAL/MOL
REMARK 924 INTRA-LIGAND FREE ENERGY PREDICTED BY IDOCK:   -0.25 KCAL/MOL
REMARK 927      BINDING AFFINITY PREDICTED BY RF-SCORE:    0.00 PKD
ROOT
HETATM    1  C   UNL     1     -10.183  10.400  66.630  1.00  0.00    -0.292 C  
HETATM    2  C   UNL     1      -9.928   8.917  66.630  1.00  0.00    -0.276 C  
HETATM    3  C   UNL     1      -9.041   8.257  65.846  1.00  0.00    -0.203 C  
HETATM    4  H   UNL     1     -11.351   8.728  68.106  1.00  0.00     0.000 HD 
HETATM    5  C   UNL     1      -8.905   6.812  66.014  1.00  0.00    -0.150 C  
HETATM    6  C   UNL     1      -9.651   6.111  66.885  1.00  0.00    -0.164 C  
HETATM    7  O   UNL     1     -11.389   6.278  68.507  1.00  0.00    -0.324 OA 
HETATM    8  C   UNL     1      -9.505   4.709  67.038  1.00  0.00    -0.160 C  
HETATM    9  N   UNL     1      -9.340   3.562  67.122  1.00  0.00    -0.194 NA 
HETATM   10  C   UNL     1     -10.649   6.840  67.709  1.00  0.00    -0.249 C  
HETATM   11  N   UNL     1     -10.695   8.201  67.529  1.00  0.00    -0.213 N  
ENDROOT
BRANCH   3  12
HETATM   12  C   UNL     1      -8.259   8.960  64.809  1.00  0.00    -0.164 A  
HETATM   13  C   UNL     1      -8.066  10.038  62.688  1.00  0.00    -0.137 A  
HETATM   14  C   UNL     1      -8.844   9.343  63.601  1.00  0.00    -0.198 A  
HETATM   15  N   UNL     1      -6.774  10.369  62.901  1.00  0.00    -0.134 NA 
HETATM   16  C   UNL     1      -6.233   9.995  64.079  1.00  0.00    -0.132 A  
HETATM   17  C   UNL     1      -6.926   9.298  65.055  1.00  0.00    -0.086 A  
ENDBRANCH   3  12
TORSDOF 1
ENDMDL
MODEL      145
REMARK 921   NORMALIZED FREE ENERGY PREDICTED BY IDOCK:   -2.80 KCAL/MOL
REMARK 922        TOTAL FREE ENERGY PREDICTED BY IDOCK:   -3.25 KCAL/MOL
REMARK 923 INTER-LIGAND FREE ENERGY PREDICTED BY IDOCK:   -2.99 KCAL/MOL
REMARK 924 INTRA-LIGAND FREE ENERGY PREDICTED BY IDOCK:   -0.26 KCAL/MOL
REMARK 927      BINDING AFFINITY PREDICTED BY RF-SCORE:    0.00 PKD
ROOT
HETATM    1  C   UNL     1     -10.929  12.746  68.952  1.00  0.00    -0.275 C  
HETATM    2  C   UNL     1      -9.853  13.596  68.330  1.00  0.00    -0.232 C  
HETATM    3  C   UNL     1      -9.508  13.618  67.020  1.00  0.00    -0.252 C  
HETATM    4  H   UNL     1      -9.466  14.375  70.196  1.00  0.00     0.000 HD 
HETATM    5  C   UNL     1      -8.458  14.540  66.593  1.00  0.00    -0.006 C  
HETATM    6  C   UNL     1      -7.799  15.335  67.453  1.00  0.00    -0.220 C  
HETATM    7  O   UNL     1      -7.590  15.939  69.749  1.00  0.00    -0.113 OA 
HETATM    8  C   UNL     1      -6.784  16.226  67.021  1.00  0.00    -0.182 C  
HETATM    9  N   UNL     1      -5.963  16.938  66.611  1.00  0.00    -0.288 NA 
HETATM   10  C   UNL     1      -8.158  15.271  68.892  1.00  0.00    -0.180 C  
HETATM   11  N   UNL     1      -9.180  14.413  69.218  1.00  0.00     0.086 N  
ENDROOT
BRANCH   3  12
HETATM   12  C   UNL     1     -10.135  12.704  66.044  1.00  0.00    -0.274 A  
HETATM   13  C   UNL     1     -10.402  10.552  65.047  1.00  0.00    -0.240 A  
HETATM   14  C   UNL     1      -9.744  11.367  65.955  1.00  0.00    -0.257 A  
HETATM   15  N   UNL     1     -11.402  10.975  64.244  1.00  0.00     0.126 NA 
HETATM   16  C   UNL     1     -11.768  12.269  64.355  1.00  0.00    -0.365 A  
HETATM   17  C   UNL     1     -11.172  13.163  65.229  1.00  0.00    -0.315 A  
ENDBRANCH   3  12
TORSDOF 1
ENDMDL
MODEL      146
REMARK 921   NORMALIZED FREE ENERGY PREDICTED BY IDOCK:   -2.76 KCAL/MOL
REMARK 922        TOTAL FREE ENERGY PREDICTED BY IDOCK:   -3.21 KCAL/MOL
REMARK 923 INTER-LIGAND FREE ENERGY PREDICTED BY IDOCK:   -2.93 KCAL/MOL
REMARK 924 INTRA-LIGAND FREE ENERGY PREDICTED BY IDOCK:   -0.28 KCAL/MOL
REMARK 927      BINDING AFFINITY PREDICTED BY RF-SCORE:    0.00 PKD
ROOT
HETATM    1  C   UNL     1      -9.306   5.917  66.322  1.00  0.00    -0.168 C  
HETATM    2  C   UNL     1      -9.118   6.660  67.617  1.00  0.00    -0.112 C  
HETATM    3  C   UNL     1      -8.943   7.996  67.755  1.00  0.00    -0.133 C  
HETATM    4  H   UNL     1      -9.267   4.860  68.607  1.00  0.00     0.000 HD 
HETATM    5  C   UNL     1      -8.813   8.545  69.103  1.00  0.00    -0.142 C  
HETATM    6  C   UNL     1      -8.822   7.773  70.203  1.00  0.00    -0.145 C  
HETATM    7  O   UNL     1      -8.965   5.524  70.980  1.00  0.00    -0.137 OA 
HETATM    8  C   UNL     1      -8.698   8.321  71.505  1.00  0.00    -0.163 C  
HETATM    9  N   UNL     1      -8.594   8.826  72.546  1.00  0.00    -0.399 NA 
HETATM   10  C   UNL     1      -8.973   6.305  70.036  1.00  0.00    -0.149 C  
HETATM   11  N   UNL     1      -9.130   5.862  68.745  1.00  0.00    -0.116 N  
ENDROOT
BRANCH   3  12
HETATM   12  C   UNL     1      -8.834   8.884  66.580  1.00  0.00    -0.160 A  
HETATM   13  C   UNL     1      -7.571   9.955  64.862  1.00  0.00    -0.135 A  
HETATM   14  C   UNL     1      -7.598   9.148  65.988  1.00  0.00    -0.095 A  
HETATM   15  N   UNL     1      -8.673  10.499  64.300  1.00  0.00    -0.185 NA 
HETATM   16  C   UNL     1      -9.856  10.222  64.885  1.00  0.00    -0.336 A  
HETATM   17  C   UNL     1      -9.989   9.429  66.012  1.00  0.00    -0.352 A  
ENDBRANCH   3  12
TORSDOF 1
ENDMDL
MODEL      147
REMARK 921   NORMALIZED FREE ENERGY PREDICTED BY IDOCK:   -2.70 KCAL/MOL
REMARK 922        TOTAL FREE ENERGY PREDICTED BY IDOCK:   -3.15 KCAL/MOL
REMARK 923 INTER-LIGAND FREE ENERGY PREDICTED BY IDOCK:   -2.98 KCAL/MOL
REMARK 924 INTRA-LIGAND FREE ENERGY PREDICTED BY IDOCK:   -0.17 KCAL/MOL
REMARK 927      BINDING AFFINITY PREDICTED BY RF-SCORE:    0.00 PKD
ROOT
HETATM    1  C   UNL     1      -5.988  10.256  66.723  1.00  0.00    -0.060 C  
HETATM    2  C   UNL     1      -7.344  10.898  66.608  1.00  0.00    -0.139 C  
HETATM    3  C   UNL     1      -7.757  12.017  67.250  1.00  0.00    -0.168 C  
HETATM    4  H   UNL     1      -7.875   9.411  65.286  1.00  0.00     0.000 HD 
HETATM    5  C   UNL     1      -9.104  12.515  66.983  1.00  0.00    -0.213 C  
HETATM    6  C   UNL     1      -9.958  11.886  66.158  1.00  0.00    -0.254 C  
HETATM    7  O   UNL     1     -10.229   9.984  64.746  1.00  0.00    -0.237 OA 
HETATM    8  C   UNL     1     -11.262  12.384  65.907  1.00  0.00    -0.336 C  
HETATM    9  N   UNL     1     -12.317  12.839  65.738  1.00  0.00    -0.594 NA 
HETATM   10  C   UNL     1      -9.508  10.637  65.492  1.00  0.00    -0.214 C  
HETATM   11  N   UNL     1      -8.217  10.248  65.756  1.00  0.00    -0.141 N  
ENDROOT
BRANCH   3  12
HETATM   12  C   UNL     1      -6.896  12.701  68.235  1.00  0.00    -0.084 A  
HETATM   13  C   UNL     1      -5.619  14.579  68.970  1.00  0.00    -0.084 A  
HETATM   14  C   UNL     1      -6.385  13.975  67.985  1.00  0.00    -0.146 A  
HETATM   15  N   UNL     1      -5.340  14.007  70.161  1.00  0.00    -0.094 NA 
HETATM   16  C   UNL     1      -5.852  12.779  70.383  1.00  0.00    -0.153 A  
HETATM   17  C   UNL     1      -6.627  12.092  69.463  1.00  0.00    -0.065 A  
ENDBRANCH   3  12
TORSDOF 1
ENDMDL
MODEL      148
REMARK 921   NORMALIZED FREE ENERGY PREDICTED BY IDOCK:   -2.70 KCAL/MOL
REMARK 922        TOTAL FREE ENERGY PREDICTED BY IDOCK:   -3.15 KCAL/MOL
REMARK 923 INTER-LIGAND FREE ENERGY PREDICTED BY IDOCK:   -2.84 KCAL/MOL
REMARK 924 INTRA-LIGAND FREE ENERGY PREDICTED BY IDOCK:   -0.31 KCAL/MOL
REMARK 927      BINDING AFFINITY PREDICTED BY RF-SCORE:    0.00 PKD
ROOT
HETATM    1  C   UNL     1      -9.128   6.023  67.490  1.00  0.00    -0.109 C  
HETATM    2  C   UNL     1      -9.503   5.838  68.936  1.00  0.00    -0.124 C  
HETATM    3  C   UNL     1      -9.795   6.822  69.820  1.00  0.00    -0.175 C  
HETATM    4  H   UNL     1      -9.316   3.805  68.667  1.00  0.00     0.000 HD 
HETATM    5  C   UNL     1     -10.175   6.446  71.180  1.00  0.00    -0.224 C  
HETATM    6  C   UNL     1     -10.209   5.168  71.594  1.00  0.00    -0.276 C  
HETATM    7  O   UNL     1      -9.823   2.913  70.928  1.00  0.00    -0.132 OA 
HETATM    8  C   UNL     1     -10.582   4.820  72.917  1.00  0.00    -0.218 C  
HETATM    9  N   UNL     1     -10.898   4.593  74.012  1.00  0.00    -0.288 NA 
HETATM   10  C   UNL     1      -9.846   4.101  70.628  1.00  0.00    -0.179 C  
HETATM   11  N   UNL     1      -9.538   4.522  69.357  1.00  0.00    -0.178 N  
ENDROOT
BRANCH   3  12
HETATM   12  C   UNL     1      -9.688   8.247  69.447  1.00  0.00    -0.177 A  
HETATM   13  C   UNL     1     -10.645  10.308  68.717  1.00  0.00    -0.209 A  
HETATM   14  C   UNL     1     -10.804   8.963  69.009  1.00  0.00    -0.071 A  
HETATM   15  N   UNL     1      -9.473  10.969  68.834  1.00  0.00    -0.184 NA 
HETATM   16  C   UNL     1      -8.411  10.259  69.267  1.00  0.00    -0.166 A  
HETATM   17  C   UNL     1      -8.467   8.911  69.583  1.00  0.00    -0.129 A  
ENDBRANCH   3  12
TORSDOF 1
ENDMDL
MODEL      149
REMARK 921   NORMALIZED FREE ENERGY PREDICTED BY IDOCK:   -2.68 KCAL/MOL
REMARK 922        TOTAL FREE ENERGY PREDICTED BY IDOCK:   -3.12 KCAL/MOL
REMARK 923 INTER-LIGAND FREE ENERGY PREDICTED BY IDOCK:   -2.85 KCAL/MOL
REMARK 924 INTRA-LIGAND FREE ENERGY PREDICTED BY IDOCK:   -0.27 KCAL/MOL
REMARK 927      BINDING AFFINITY PREDICTED BY RF-SCORE:    0.00 PKD
ROOT
HETATM    1  C   UNL     1      -7.657   4.981  72.187  1.00  0.00    -0.094 C  
HETATM    2  C   UNL     1      -8.211   4.801  70.800  1.00  0.00    -0.086 C  
HETATM    3  C   UNL     1      -9.160   5.567  70.211  1.00  0.00    -0.163 C  
HETATM    4  H   UNL     1      -6.957   3.183  70.569  1.00  0.00     0.000 HD 
HETATM    5  C   UNL     1      -9.547   5.260  68.835  1.00  0.00    -0.189 C  
HETATM    6  C   UNL     1      -9.027   4.227  68.150  1.00  0.00    -0.151 C  
HETATM    7  O   UNL     1      -7.512   2.392  68.283  1.00  0.00    -0.047 OA 
HETATM    8  C   UNL     1      -9.411   3.944  66.815  1.00  0.00    -0.202 C  
HETATM    9  N   UNL     1      -9.762   3.762  65.723  1.00  0.00    -0.166 NA 
HETATM   10  C   UNL     1      -8.018   3.370  68.822  1.00  0.00    -0.061 C  
HETATM   11  N   UNL     1      -7.671   3.739  70.099  1.00  0.00    -0.048 N  
ENDROOT
BRANCH   3  12
HETATM   12  C   UNL     1      -9.831   6.659  70.943  1.00  0.00    -0.197 A  
HETATM   13  C   UNL     1      -9.940   8.910  71.729  1.00  0.00    -0.327 A  
HETATM   14  C   UNL     1      -9.238   7.916  71.066  1.00  0.00    -0.164 A  
HETATM   15  N   UNL     1     -11.169   8.734  72.262  1.00  0.00    -0.332 NA 
HETATM   16  C   UNL     1     -11.726   7.513  72.122  1.00  0.00    -0.303 A  
HETATM   17  C   UNL     1     -11.105   6.455  71.479  1.00  0.00    -0.322 A  
ENDBRANCH   3  12
TORSDOF 1
ENDMDL
MODEL      150
REMARK 921   NORMALIZED FREE ENERGY PREDICTED BY IDOCK:   -2.62 KCAL/MOL
REMARK 922        TOTAL FREE ENERGY PREDICTED BY IDOCK:   -3.06 KCAL/MOL
REMARK 923 INTER-LIGAND FREE ENERGY PREDICTED BY IDOCK:   -2.92 KCAL/MOL
REMARK 924 INTRA-LIGAND FREE ENERGY PREDICTED BY IDOCK:   -0.14 KCAL/MOL
REMARK 927      BINDING AFFINITY PREDICTED BY RF-SCORE:    0.00 PKD
ROOT
HETATM    1  C   UNL     1      -6.381  12.104  66.902  1.00  0.00    -0.011 C  
HETATM    2  C   UNL     1      -7.506  11.288  67.481  1.00  0.00    -0.106 C  
HETATM    3  C   UNL     1      -8.829  11.559  67.374  1.00  0.00    -0.157 C  
HETATM    4  H   UNL     1      -6.099   9.990  68.241  1.00  0.00     0.000 HD 
HETATM    5  C   UNL     1      -9.780  10.626  67.974  1.00  0.00    -0.170 C  
HETATM    6  C   UNL     1      -9.392   9.537  68.658  1.00  0.00    -0.142 C  
HETATM    7  O   UNL     1      -7.495   8.320  69.434  1.00  0.00    -0.085 OA 
HETATM    8  C   UNL     1     -10.329   8.640  69.233  1.00  0.00    -0.221 C  
HETATM    9  N   UNL     1     -11.140   7.940  69.680  1.00  0.00    -0.104 NA 
HETATM   10  C   UNL     1      -7.938   9.273  68.804  1.00  0.00    -0.099 C  
HETATM   11  N   UNL     1      -7.101  10.167  68.181  1.00  0.00    -0.078 N  
ENDROOT
BRANCH   3  12
HETATM   12  C   UNL     1      -9.312  12.787  66.712  1.00  0.00    -0.241 A  
HETATM   13  C   UNL     1      -9.505  15.162  66.566  1.00  0.00    -0.283 A  
HETATM   14  C   UNL     1      -9.061  14.046  67.259  1.00  0.00    -0.224 A  
HETATM   15  N   UNL     1     -10.163  15.101  65.388  1.00  0.00    -0.360 NA 
HETATM   16  C   UNL     1     -10.386  13.873  64.875  1.00  0.00    -0.406 A  
HETATM   17  C   UNL     1      -9.984  12.700  65.491  1.00  0.00    -0.237 A  
ENDBRANCH   3  12
TORSDOF 1
ENDMDL
MODEL      151
REMARK 921   NORMALIZED FREE ENERGY PREDICTED BY IDOCK:   -2.54 KCAL/MOL
REMARK 922        TOTAL FREE ENERGY PREDICTED BY IDOCK:   -2.98 KCAL/MOL
REMARK 923 INTER-LIGAND FREE ENERGY PREDICTED BY IDOCK:   -2.69 KCAL/MOL
REMARK 924 INTRA-LIGAND FREE ENERGY PREDICTED BY IDOCK:   -0.29 KCAL/MOL
REMARK 927      BINDING AFFINITY PREDICTED BY RF-SCORE:    0.00 PKD
ROOT
HETATM    1  C   UNL     1      -7.921   8.596  71.060  1.00  0.00    -0.153 C  
HETATM    2  C   UNL     1      -8.120   7.898  69.742  1.00  0.00    -0.116 C  
HETATM    3  C   UNL     1      -9.090   6.997  69.452  1.00  0.00    -0.145 C  
HETATM    4  H   UNL     1      -6.488   8.922  69.015  1.00  0.00     0.000 HD 
HETATM    5  C   UNL     1      -9.148   6.450  68.098  1.00  0.00    -0.113 C  
HETATM    6  C   UNL     1      -8.258   6.776  67.147  1.00  0.00    -0.121 C  
HETATM    7  O   UNL     1      -6.305   8.065  66.692  1.00  0.00    -0.052 OA 
HETATM    8  C   UNL     1      -8.330   6.237  65.837  1.00  0.00    -0.142 C  
HETATM    9  N   UNL     1      -8.440   5.767  64.781  1.00  0.00    -0.117 NA 
HETATM   10  C   UNL     1      -7.175   7.733  67.489  1.00  0.00    -0.091 C  
HETATM   11  N   UNL     1      -7.203   8.239  68.766  1.00  0.00    -0.077 N  
ENDROOT
BRANCH   3  12
HETATM   12  C   UNL     1     -10.042   6.533  70.481  1.00  0.00    -0.213 A  
HETATM   13  C   UNL     1     -10.647   5.109  72.298  1.00  0.00    -0.218 A  
HETATM   14  C   UNL     1      -9.727   5.467  71.325  1.00  0.00    -0.215 A  
HETATM   15  N   UNL     1     -11.830   5.734  72.481  1.00  0.00    -0.250 NA 
HETATM   16  C   UNL     1     -12.108   6.767  71.658  1.00  0.00    -0.359 A  
HETATM   17  C   UNL     1     -11.256   7.201  70.656  1.00  0.00    -0.311 A  
ENDBRANCH   3  12
TORSDOF 1
ENDMDL
MODEL      152
REMARK 921   NORMALIZED FREE ENERGY PREDICTED BY IDOCK:   -2.35 KCAL/MOL
REMARK 922        TOTAL FREE ENERGY PREDICTED BY IDOCK:   -2.77 KCAL/MOL
REMARK 923 INTER-LIGAND FREE ENERGY PREDICTED BY IDOCK:   -2.49 KCAL/MOL
REMARK 924 INTRA-LIGAND FREE ENERGY PREDICTED BY IDOCK:   -0.28 KCAL/MOL
REMARK 927      BINDING AFFINITY PREDICTED BY RF-SCORE:    0.00 PKD
ROOT
HETATM    1  C   UNL     1      -8.771  10.219  66.863  1.00  0.00    -0.131 C  
HETATM    2  C   UNL     1      -8.158   9.727  68.146  1.00  0.00    -0.108 C  
HETATM    3  C   UNL     1      -8.245   8.470  68.644  1.00  0.00    -0.122 C  
HETATM    4  H   UNL     1      -7.400  11.618  68.445  1.00  0.00     0.000 HD 
HETATM    5  C   UNL     1      -7.549   8.167  69.893  1.00  0.00    -0.089 C  
HETATM    6  C   UNL     1      -6.861   9.094  70.582  1.00  0.00    -0.084 C  
HETATM    7  O   UNL     1      -6.228  11.391  70.622  1.00  0.00    -0.332 OA 
HETATM    8  C   UNL     1      -6.190   8.783  71.791  1.00  0.00    -0.073 C  
HETATM    9  N   UNL     1      -5.657   8.470  72.775  1.00  0.00    -0.058 NA 
HETATM   10  C   UNL     1      -6.808  10.478  70.046  1.00  0.00    -0.153 C  
HETATM   11  N   UNL     1      -7.450  10.683  68.849  1.00  0.00    -0.099 N  
ENDROOT
BRANCH   3  12
HETATM   12  C   UNL     1      -9.060   7.433  67.979  1.00  0.00    -0.130 A  
HETATM   13  C   UNL     1     -11.148   6.377  67.513  1.00  0.00    -0.306 A  
HETATM   14  C   UNL     1     -10.434   7.345  68.202  1.00  0.00    -0.241 A  
HETATM   15  N   UNL     1     -10.591   5.514  66.636  1.00  0.00    -0.300 NA 
HETATM   16  C   UNL     1      -9.262   5.625  66.431  1.00  0.00    -0.152 A  
HETATM   17  C   UNL     1      -8.462   6.557  67.071  1.00  0.00    -0.113 A  
ENDBRANCH   3  12
TORSDOF 1
ENDMDL
MODEL      153
REMARK 921   NORMALIZED FREE ENERGY PREDICTED BY IDOCK:   -2.31 KCAL/MOL
REMARK 922        TOTAL FREE ENERGY PREDICTED BY IDOCK:   -2.73 KCAL/MOL
REMARK 923 INTER-LIGAND FREE ENERGY PREDICTED BY IDOCK:   -2.42 KCAL/MOL
REMARK 924 INTRA-LIGAND FREE ENERGY PREDICTED BY IDOCK:   -0.31 KCAL/MOL
REMARK 927      BINDING AFFINITY PREDICTED BY RF-SCORE:    0.00 PKD
ROOT
HETATM    1  C   UNL     1      -8.827   5.067  66.652  1.00  0.00    -0.111 C  
HETATM    2  C   UNL     1      -8.900   6.515  67.056  1.00  0.00    -0.116 C  
HETATM    3  C   UNL     1      -8.885   6.993  68.323  1.00  0.00    -0.126 C  
HETATM    4  H   UNL     1      -8.997   7.010  65.060  1.00  0.00     0.000 HD 
HETATM    5  C   UNL     1      -8.927   8.441  68.520  1.00  0.00    -0.136 C  
HETATM    6  C   UNL     1      -9.018   9.308  67.498  1.00  0.00    -0.127 C  
HETATM    7  O   UNL     1      -9.187   9.485  65.127  1.00  0.00    -0.224 OA 
HETATM    8  C   UNL     1      -9.055  10.710  67.706  1.00  0.00    -0.143 C  
HETATM    9  N   UNL     1      -9.080  11.849  67.936  1.00  0.00    -0.176 NA 
HETATM   10  C   UNL     1      -9.076   8.769  66.115  1.00  0.00    -0.202 C  
HETATM   11  N   UNL     1      -8.991   7.402  66.001  1.00  0.00    -0.152 N  
ENDROOT
BRANCH   3  12
HETATM   12  C   UNL     1      -8.877   6.087  69.489  1.00  0.00    -0.125 A  
HETATM   13  C   UNL     1      -7.740   4.854  71.187  1.00  0.00    -0.083 A  
HETATM   14  C   UNL     1      -7.678   5.670  70.069  1.00  0.00    -0.083 A  
HETATM   15  N   UNL     1      -8.895   4.439  71.751  1.00  0.00    -0.117 NA 
HETATM   16  C   UNL     1     -10.041   4.862  71.178  1.00  0.00    -0.207 A  
HETATM   17  C   UNL     1     -10.084   5.677  70.059  1.00  0.00    -0.295 A  
ENDBRANCH   3  12
TORSDOF 1
ENDMDL
MODEL      154
REMARK 921   NORMALIZED FREE ENERGY PREDICTED BY IDOCK:   -2.26 KCAL/MOL
REMARK 922        TOTAL FREE ENERGY PREDICTED BY IDOCK:   -2.68 KCAL/MOL
REMARK 923 INTER-LIGAND FREE ENERGY PREDICTED BY IDOCK:   -2.45 KCAL/MOL
REMARK 924 INTRA-LIGAND FREE ENERGY PREDICTED BY IDOCK:   -0.24 KCAL/MOL
REMARK 927      BINDING AFFINITY PREDICTED BY RF-SCORE:    0.00 PKD
ROOT
HETATM    1  C   UNL     1      -6.731   6.967  65.671  1.00  0.00    -0.052 C  
HETATM    2  C   UNL     1      -7.774   5.963  65.262  1.00  0.00    -0.095 C  
HETATM    3  C   UNL     1      -9.006   5.822  65.807  1.00  0.00    -0.144 C  
HETATM    4  H   UNL     1      -6.462   5.261  63.839  1.00  0.00     0.000 HD 
HETATM    5  C   UNL     1      -9.902   4.809  65.250  1.00  0.00    -0.084 C  
HETATM    6  C   UNL     1      -9.536   3.992  64.248  1.00  0.00    -0.162 C  
HETATM    7  O   UNL     1      -7.741   3.409  62.792  1.00  0.00    -0.057 OA 
HETATM    8  C   UNL     1     -10.417   3.017  63.717  1.00  0.00    -0.198 C  
HETATM    9  N   UNL     1     -11.182   2.238  63.320  1.00  0.00    -0.305 NA 
HETATM   10  C   UNL     1      -8.168   4.129  63.686  1.00  0.00    -0.093 C  
HETATM   11  N   UNL     1      -7.394   5.126  64.229  1.00  0.00    -0.054 N  
ENDROOT
BRANCH   3  12
HETATM   12  C   UNL     1      -9.432   6.629  66.968  1.00  0.00    -0.170 A  
HETATM   13  C   UNL     1     -10.273   8.642  67.936  1.00  0.00    -0.219 A  
HETATM   14  C   UNL     1      -9.845   7.953  66.812  1.00  0.00    -0.318 A  
HETATM   15  N   UNL     1     -10.316   8.105  69.175  1.00  0.00    -0.219 NA 
HETATM   16  C   UNL     1      -9.920   6.822  69.298  1.00  0.00    -0.160 A  
HETATM   17  C   UNL     1      -9.475   6.050  68.238  1.00  0.00    -0.117 A  
ENDBRANCH   3  12
TORSDOF 1
ENDMDL
MODEL      155
REMARK 921   NORMALIZED FREE ENERGY PREDICTED BY IDOCK:   -2.13 KCAL/MOL
REMARK 922        TOTAL FREE ENERGY PREDICTED BY IDOCK:   -2.54 KCAL/MOL
REMARK 923 INTER-LIGAND FREE ENERGY PREDICTED BY IDOCK:   -2.28 KCAL/MOL
REMARK 924 INTRA-LIGAND FREE ENERGY PREDICTED BY IDOCK:   -0.26 KCAL/MOL
REMARK 927      BINDING AFFINITY PREDICTED BY RF-SCORE:    0.00 PKD
ROOT
HETATM    1  C   UNL     1      -6.580   8.902  66.163  1.00  0.00    -0.065 C  
HETATM    2  C   UNL     1      -7.390   7.667  65.875  1.00  0.00    -0.074 C  
HETATM    3  C   UNL     1      -8.629   7.394  66.350  1.00  0.00    -0.138 C  
HETATM    4  H   UNL     1      -5.839   6.990  64.702  1.00  0.00     0.000 HD 
HETATM    5  C   UNL     1      -9.277   6.153  65.929  1.00  0.00    -0.068 C  
HETATM    6  C   UNL     1      -8.677   5.260  65.124  1.00  0.00    -0.146 C  
HETATM    7  O   UNL     1      -6.671   4.782  63.930  1.00  0.00    -0.041 OA 
HETATM    8  C   UNL     1      -9.321   4.062  64.723  1.00  0.00    -0.162 C  
HETATM    9  N   UNL     1      -9.898   3.099  64.426  1.00  0.00    -0.160 NA 
HETATM   10  C   UNL     1      -7.303   5.552  64.644  1.00  0.00    -0.064 C  
HETATM   11  N   UNL     1      -6.770   6.753  65.045  1.00  0.00    -0.049 N  
ENDROOT
BRANCH   3  12
HETATM   12  C   UNL     1      -9.301   8.294  67.308  1.00  0.00    -0.181 A  
HETATM   13  C   UNL     1      -9.603   9.185  69.502  1.00  0.00    -0.168 A  
HETATM   14  C   UNL     1      -8.965   8.285  68.663  1.00  0.00    -0.137 A  
HETATM   15  N   UNL     1     -10.531  10.073  69.084  1.00  0.00    -0.206 NA 
HETATM   16  C   UNL     1     -10.833  10.068  67.769  1.00  0.00    -0.282 A  
HETATM   17  C   UNL     1     -10.253   9.209  66.852  1.00  0.00    -0.336 A  
ENDBRANCH   3  12
TORSDOF 1
ENDMDL
MODEL      156
REMARK 921   NORMALIZED FREE ENERGY PREDICTED BY IDOCK:   -2.09 KCAL/MOL
REMARK 922        TOTAL FREE ENERGY PREDICTED BY IDOCK:   -2.49 KCAL/MOL
REMARK 923 INTER-LIGAND FREE ENERGY PREDICTED BY IDOCK:   -2.21 KCAL/MOL
REMARK 924 INTRA-LIGAND FREE ENERGY PREDICTED BY IDOCK:   -0.29 KCAL/MOL
REMARK 927      BINDING AFFINITY PREDICTED BY RF-SCORE:    0.00 PKD
ROOT
HETATM    1  C   UNL     1      -8.768   8.122  69.272  1.00  0.00    -0.140 C  
HETATM    2  C   UNL     1      -8.680   8.340  67.785  1.00  0.00    -0.134 C  
HETATM    3  C   UNL     1      -8.560   7.376  66.841  1.00  0.00    -0.120 C  
HETATM    4  H   UNL     1      -8.823  10.365  68.129  1.00  0.00     0.000 HD 
HETATM    5  C   UNL     1      -8.527   7.779  65.436  1.00  0.00    -0.124 C  
HETATM    6  C   UNL     1      -8.572   9.065  65.051  1.00  0.00    -0.207 C  
HETATM    7  O   UNL     1      -8.679  11.313  65.838  1.00  0.00    -0.193 OA 
HETATM    8  C   UNL     1      -8.541   9.439  63.683  1.00  0.00    -0.208 C  
HETATM    9  N   UNL     1      -8.515   9.687  62.549  1.00  0.00    -0.159 NA 
HETATM   10  C   UNL     1      -8.661  10.115  66.098  1.00  0.00    -0.142 C  
HETATM   11  N   UNL     1      -8.729   9.664  67.394  1.00  0.00    -0.128 N  
ENDROOT
BRANCH   3  12
HETATM   12  C   UNL     1      -8.416   5.953  67.207  1.00  0.00    -0.103 A  
HETATM   13  C   UNL     1      -7.099   4.065  67.836  1.00  0.00    -0.059 A  
HETATM   14  C   UNL     1      -7.161   5.396  67.454  1.00  0.00    -0.070 A  
HETATM   15  N   UNL     1      -8.184   3.275  67.987  1.00  0.00    -0.078 NA 
HETATM   16  C   UNL     1      -9.387   3.839  67.751  1.00  0.00    -0.189 A  
HETATM   17  C   UNL     1      -9.554   5.158  67.364  1.00  0.00    -0.154 A  
ENDBRANCH   3  12
TORSDOF 1
ENDMDL
MODEL      157
REMARK 921   NORMALIZED FREE ENERGY PREDICTED BY IDOCK:   -1.10 KCAL/MOL
REMARK 922        TOTAL FREE ENERGY PREDICTED BY IDOCK:   -1.45 KCAL/MOL
REMARK 923 INTER-LIGAND FREE ENERGY PREDICTED BY IDOCK:   -1.31 KCAL/MOL
REMARK 924 INTRA-LIGAND FREE ENERGY PREDICTED BY IDOCK:   -0.14 KCAL/MOL
REMARK 927      BINDING AFFINITY PREDICTED BY RF-SCORE:    0.00 PKD
ROOT
HETATM    1  C   UNL     1      -6.680  11.087  68.501  1.00  0.00    -0.061 C  
HETATM    2  C   UNL     1      -7.250  10.106  67.512  1.00  0.00    -0.088 C  
HETATM    3  C   UNL     1      -8.564   9.862  67.293  1.00  0.00    -0.125 C  
HETATM    4  H   UNL     1      -5.324   9.618  66.970  1.00  0.00     0.000 HD 
HETATM    5  C   UNL     1      -8.930   8.895  66.260  1.00  0.00    -0.207 C  
HETATM    6  C   UNL     1      -8.014   8.214  65.550  1.00  0.00    -0.112 C  
HETATM    7  O   UNL     1      -5.676   7.863  65.250  1.00  0.00    -0.036 OA 
HETATM    8  C   UNL     1      -8.385   7.280  64.550  1.00  0.00     0.081 C  
HETATM    9  N   UNL     1      -8.748   6.530  63.741  1.00  0.00     0.466 NA 
HETATM   10  C   UNL     1      -6.576   8.459  65.829  1.00  0.00    -0.053 C  
HETATM   11  N   UNL     1      -6.305   9.410  66.784  1.00  0.00    -0.065 N  
ENDROOT
BRANCH   3  12
HETATM   12  C   UNL     1      -9.613  10.514  68.103  1.00  0.00    -0.163 A  
HETATM   13  C   UNL     1     -10.730  10.910  70.175  1.00  0.00     0.122 A  
HETATM   14  C   UNL     1      -9.753  10.232  69.463  1.00  0.00    -0.235 A  
HETATM   15  N   UNL     1     -11.554  11.831  69.630  1.00  0.00    -0.314 NA 
HETATM   16  C   UNL     1     -11.394  12.092  68.316  1.00  0.00    -0.289 A  
HETATM   17  C   UNL     1     -10.449  11.468  67.519  1.00  0.00    -0.229 A  
ENDBRANCH   3  12
TORSDOF 1
ENDMDL
MODEL      158
REMARK 921   NORMALIZED FREE ENERGY PREDICTED BY IDOCK:    0.34 KCAL/MOL
REMARK 922        TOTAL FREE ENERGY PREDICTED BY IDOCK:    0.07 KCAL/MOL
REMARK 923 INTER-LIGAND FREE ENERGY PREDICTED BY IDOCK:   -0.59 KCAL/MOL
REMARK 924 INTRA-LIGAND FREE ENERGY PREDICTED BY IDOCK:    0.66 KCAL/MOL
REMARK 927      BINDING AFFINITY PREDICTED BY RF-SCORE:    0.00 PKD
ROOT
HETATM    1  C   UNL     1      -5.858  16.352  68.371  1.00  0.00    -0.109 C  
HETATM    2  C   UNL     1      -6.526  15.042  68.691  1.00  0.00    -0.087 C  
HETATM    3  C   UNL     1      -7.839  14.861  68.970  1.00  0.00    -0.165 C  
HETATM    4  H   UNL     1      -4.697  14.120  68.474  1.00  0.00     0.000 HD 
HETATM    5  C   UNL     1      -8.315  13.503  69.222  1.00  0.00     0.635 C  
HETATM    6  C   UNL     1      -7.496  12.438  69.226  1.00  0.00     0.273 C  
HETATM    7  O   UNL     1      -5.229  11.746  68.971  1.00  0.00    -0.050 OA 
HETATM    8  C   UNL     1      -7.975  11.125  69.470  1.00  0.00     0.237 C  
HETATM    9  N   UNL     1      -8.423  10.073  69.674  1.00  0.00    -0.178 NA 
HETATM   10  C   UNL     1      -6.051  12.655  68.960  1.00  0.00    -0.085 C  
HETATM   11  N   UNL     1      -5.680  13.950  68.691  1.00  0.00    -0.081 N  
ENDROOT
BRANCH   3  12
HETATM   12  C   UNL     1      -8.770  16.003  69.069  1.00  0.00    -0.245 A  
HETATM   13  C   UNL     1      -9.325  18.300  68.735  1.00  0.00    -0.255 A  
HETATM   14  C   UNL     1      -8.389  17.281  68.656  1.00  0.00    -0.255 A  
HETATM   15  N   UNL     1     -10.587  18.129  69.186  1.00  0.00     0.102 NA 
HETATM   16  C   UNL     1     -10.933  16.883  69.571  1.00  0.00    -0.051 A  
HETATM   17  C   UNL     1     -10.072  15.800  69.532  1.00  0.00    -0.279 A  
ENDBRANCH   3  12
TORSDOF 1
ENDMDL
MODEL      159
REMARK 921   NORMALIZED FREE ENERGY PREDICTED BY IDOCK:    4.81 KCAL/MOL
REMARK 922        TOTAL FREE ENERGY PREDICTED BY IDOCK:    4.80 KCAL/MOL
REMARK 923 INTER-LIGAND FREE ENERGY PREDICTED BY IDOCK:    4.79 KCAL/MOL
REMARK 924 INTRA-LIGAND FREE ENERGY PREDICTED BY IDOCK:    0.01 KCAL/MOL
REMARK 927      BINDING AFFINITY PREDICTED BY RF-SCORE:    0.00 PKD
ROOT
HETATM    1  C   UNL     1      -8.359  18.996  68.504  1.00  0.00    -0.387 C  
HETATM    2  C   UNL     1      -8.020  17.641  69.064  1.00  0.00    -0.081 C  
HETATM    3  C   UNL     1      -8.811  16.542  69.034  1.00  0.00    -0.223 C  
HETATM    4  H   UNL     1      -6.202  18.403  69.660  1.00  0.00     0.000 HD 
HETATM    5  C   UNL     1      -8.294  15.297  69.599  1.00  0.00    -0.108 C  
HETATM    6  C   UNL     1      -7.085  15.213  70.178  1.00  0.00     0.049 C  
HETATM    7  O   UNL     1      -5.141  16.455  70.777  1.00  0.00    -0.191 OA 
HETATM    8  C   UNL     1      -6.597  13.996  70.720  1.00  0.00     0.305 C  
HETATM    9  N   UNL     1      -6.249  12.973  71.145  1.00  0.00     0.117 NA 
HETATM   10  C   UNL     1      -6.244  16.435  70.242  1.00  0.00     0.094 C  
HETATM   11  N   UNL     1      -6.775  17.559  69.657  1.00  0.00    -0.117 N  
ENDROOT
BRANCH   3  12
HETATM   12  C   UNL     1     -10.184  16.596  68.491  1.00  0.00    -0.282 A  
HETATM   13  C   UNL     1     -11.729  16.969  66.711  1.00  0.00     1.641 A  
HETATM   14  C   UNL     1     -10.421  16.981  67.171  1.00  0.00    -0.291 A  
HETATM   15  N   UNL     1     -12.788  16.603  67.466  1.00  0.00     3.483 NA 
HETATM   16  C   UNL     1     -12.531  16.226  68.735  1.00  0.00     1.123 A  
HETATM   17  C   UNL     1     -11.262  16.206  69.289  1.00  0.00    -0.337 A  
ENDBRANCH   3  12
TORSDOF 1
ENDMDL
MODEL      160
REMARK 921   NORMALIZED FREE ENERGY PREDICTED BY IDOCK:   39.82 KCAL/MOL
REMARK 922        TOTAL FREE ENERGY PREDICTED BY IDOCK:   41.86 KCAL/MOL
REMARK 923 INTER-LIGAND FREE ENERGY PREDICTED BY IDOCK:   42.11 KCAL/MOL
REMARK 924 INTRA-LIGAND FREE ENERGY PREDICTED BY IDOCK:   -0.25 KCAL/MOL
REMARK 927      BINDING AFFINITY PREDICTED BY RF-SCORE:    0.00 PKD
ROOT
HETATM    1  C   UNL     1      -5.282  16.277  68.777  1.00  0.00    -0.108 C  
HETATM    2  C   UNL     1      -5.892  15.062  69.422  1.00  0.00    -0.103 C  
HETATM    3  C   UNL     1      -6.877  15.059  70.352  1.00  0.00     0.132 C  
HETATM    4  H   UNL     1      -4.628  13.894  68.291  1.00  0.00     0.000 HD 
HETATM    5  C   UNL     1      -7.371  13.772  70.839  1.00  0.00     2.570 C  
HETATM    6  C   UNL     1      -6.860  12.599  70.428  1.00  0.00     1.225 C  
HETATM    7  O   UNL     1      -5.209  11.597  69.031  1.00  0.00    -0.047 OA 
HETATM    8  C   UNL     1      -7.352  11.358  70.908  1.00  0.00     3.455 C  
HETATM    9  N   UNL     1      -7.796  10.373  71.334  1.00  0.00     2.098 NA 
HETATM   10  C   UNL     1      -5.752  12.616  69.439  1.00  0.00    -0.087 C  
HETATM   11  N   UNL     1      -5.365  13.858  68.995  1.00  0.00    -0.079 N  
ENDROOT
BRANCH   3  12
HETATM   12  C   UNL     1      -7.415  16.317  70.907  1.00  0.00     3.330 A  
HETATM   13  C   UNL     1      -7.246  18.240  72.310  1.00  0.00     7.282 A  
HETATM   14  C   UNL     1      -6.705  17.045  71.862  1.00  0.00     5.291 A  
HETATM   15  N   UNL     1      -8.421  18.743  71.874  1.00  0.00     8.400 NA 
HETATM   16  C   UNL     1      -9.086  18.025  70.945  1.00  0.00     5.731 A  
HETATM   17  C   UNL     1      -8.630  16.820  70.436  1.00  0.00     3.020 A  
ENDBRANCH   3  12
TORSDOF 1
ENDMDL
