MODEL        1
REMARK 921   NORMALIZED FREE ENERGY PREDICTED BY IDOCK:   -5.17 KCAL/MOL
REMARK 922        TOTAL FREE ENERGY PREDICTED BY IDOCK:  -13.13 KCAL/MOL
REMARK 923 INTER-LIGAND FREE ENERGY PREDICTED BY IDOCK:  -11.21 KCAL/MOL
REMARK 924 INTRA-LIGAND FREE ENERGY PREDICTED BY IDOCK:   -1.92 KCAL/MOL
REMARK 927      BINDING AFFINITY PREDICTED BY RF-SCORE:    0.00 PKD
ROOT
HETATM    1  C   UNL     1     -11.689   6.452  70.170  1.00  0.00    -0.372 C  
HETATM    2  C   UNL     1     -12.069   7.082  71.498  1.00  0.00    -0.392 C  
ENDROOT
BRANCH   2   3
HETATM    3  C   UNL     1     -13.560   7.407  71.548  1.00  0.00    -0.454 C  
BRANCH   3   4
HETATM    4  C   UNL     1     -13.791   8.871  71.909  1.00  0.00    -0.492 C  
BRANCH   4   5
HETATM    5  C   UNL     1     -12.477   9.645  71.892  1.00  0.00    -0.459 C  
BRANCH   5   6
HETATM    6  C   UNL     1     -12.602  10.899  71.035  1.00  0.00    -0.517 C  
BRANCH   6   7
HETATM    7  C   UNL     1     -11.835  10.732  69.730  1.00  0.00    -0.409 C  
BRANCH   7   8
HETATM    8  C   UNL     1     -10.431  10.208  70.001  1.00  0.00    -0.325 C  
BRANCH   8   9
HETATM    9  C   UNL     1      -9.944   9.381  68.820  1.00  0.00    -0.191 C  
BRANCH   9  10
HETATM   10  C   UNL     1     -10.617   9.834  67.535  1.00  0.00    -0.335 C  
BRANCH  10  11
HETATM   11  C   UNL     1     -10.123   8.991  66.369  1.00  0.00    -0.351 C  
BRANCH  11  12
HETATM   12  C   UNL     1      -9.579   9.878  65.263  1.00  0.00    -0.361 C  
BRANCH  12  13
HETATM   13  C   UNL     1     -10.448  11.119  65.115  1.00  0.00    -0.341 C  
BRANCH  13  14
HETATM   14  C   UNL     1     -10.761  11.346  63.650  1.00  0.00    -0.470 C  
BRANCH  14  15
HETATM   15  C   UNL     1     -12.070  12.101  63.471  1.00  0.00    -0.649 C  
BRANCH  15  16
HETATM   16  C   UNL     1     -12.500  12.617  64.826  1.00  0.00    -0.484 C  
BRANCH  16  17
HETATM   17  O   UNL     1     -12.857  13.991  64.741  1.00  0.00    -0.681 OA 
BRANCH  17  18
HETATM   18  P   UNL     1     -11.493  15.042  64.904  1.00  0.00    -0.307 P  
HETATM   19  O   UNL     1     -11.664  14.983  66.425  1.00  0.00    -0.256 OA 
HETATM   20  O   UNL     1     -12.127  16.109  64.014  1.00  0.00    -0.889 OA 
BRANCH  18  21
HETATM   21  O   UNL     1     -10.127  16.092  65.065  1.00  0.00    -0.478 OA 
BRANCH  21  22
HETATM   22  C   UNL     1      -9.859  16.500  66.404  1.00  0.00    -0.293 C  
BRANCH  22  23
HETATM   23  C   UNL     1      -8.810  17.588  66.474  1.00  0.00    -0.266 C  
BRANCH  23  24
HETATM   24  N   UNL     1      -9.265  18.894  67.160  1.00  0.00    -0.285 N  
HETATM   25  C   UNL     1     -10.223  18.503  68.269  1.00  0.00    -0.376 C  
HETATM   26  C   UNL     1      -9.992  19.785  66.150  1.00  0.00    -0.473 C  
HETATM   27  C   UNL     1      -8.082  19.647  67.740  1.00  0.00    -0.301 C  
ENDBRANCH  23  24
ENDBRANCH  22  23
ENDBRANCH  21  22
ENDBRANCH  18  21
ENDBRANCH  17  18
ENDBRANCH  16  17
ENDBRANCH  15  16
ENDBRANCH  14  15
ENDBRANCH  13  14
ENDBRANCH  12  13
ENDBRANCH  11  12
ENDBRANCH  10  11
ENDBRANCH   9  10
ENDBRANCH   8   9
ENDBRANCH   7   8
ENDBRANCH   6   7
ENDBRANCH   5   6
ENDBRANCH   4   5
ENDBRANCH   3   4
ENDBRANCH   2   3
TORSDOF 20
ENDMDL
MODEL        2
REMARK 921   NORMALIZED FREE ENERGY PREDICTED BY IDOCK:   -5.14 KCAL/MOL
REMARK 922        TOTAL FREE ENERGY PREDICTED BY IDOCK:  -13.08 KCAL/MOL
REMARK 923 INTER-LIGAND FREE ENERGY PREDICTED BY IDOCK:  -10.98 KCAL/MOL
REMARK 924 INTRA-LIGAND FREE ENERGY PREDICTED BY IDOCK:   -2.10 KCAL/MOL
REMARK 927      BINDING AFFINITY PREDICTED BY RF-SCORE:    0.00 PKD
ROOT
HETATM    1  C   UNL     1     -11.594   6.428  70.355  1.00  0.00    -0.440 C  
HETATM    2  C   UNL     1     -12.087   7.058  71.647  1.00  0.00    -0.384 C  
ENDROOT
BRANCH   2   3
HETATM    3  C   UNL     1     -13.551   7.476  71.532  1.00  0.00    -0.439 C  
BRANCH   3   4
HETATM    4  C   UNL     1     -13.788   8.831  72.192  1.00  0.00    -0.513 C  
BRANCH   4   5
HETATM    5  C   UNL     1     -12.529   9.688  72.132  1.00  0.00    -0.350 C  
BRANCH   5   6
HETATM    6  C   UNL     1     -12.818  11.025  71.458  1.00  0.00    -0.555 C  
BRANCH   6   7
HETATM    7  C   UNL     1     -11.980  11.179  70.196  1.00  0.00    -0.449 C  
BRANCH   7   8
HETATM    8  C   UNL     1     -10.778  10.245  70.238  1.00  0.00    -0.310 C  
BRANCH   8   9
HETATM    9  C   UNL     1      -9.975  10.367  68.952  1.00  0.00    -0.208 C  
BRANCH   9  10
HETATM   10  C   UNL     1     -10.881  10.232  67.739  1.00  0.00    -0.346 C  
BRANCH  10  11
HETATM   11  C   UNL     1     -10.238   9.312  66.713  1.00  0.00    -0.325 C  
BRANCH  11  12
HETATM   12  C   UNL     1      -9.795  10.102  65.494  1.00  0.00    -0.365 C  
BRANCH  12  13
HETATM   13  C   UNL     1     -10.649  11.353  65.343  1.00  0.00    -0.333 C  
BRANCH  13  14
HETATM   14  C   UNL     1     -11.110  11.481  63.905  1.00  0.00    -0.458 C  
BRANCH  14  15
HETATM   15  C   UNL     1     -12.411  12.264  63.805  1.00  0.00    -0.637 C  
BRANCH  15  16
HETATM   16  C   UNL     1     -12.408  13.315  64.892  1.00  0.00    -0.425 C  
BRANCH  16  17
HETATM   17  O   UNL     1     -12.378  14.618  64.321  1.00  0.00    -0.582 OA 
BRANCH  17  18
HETATM   18  P   UNL     1     -11.145  15.617  65.010  1.00  0.00    -0.265 P  
HETATM   19  O   UNL     1     -11.445  16.674  63.943  1.00  0.00    -1.186 OA 
HETATM   20  O   UNL     1     -10.087  14.526  64.858  1.00  0.00    -0.378 OA 
BRANCH  18  21
HETATM   21  O   UNL     1      -9.913  16.616  65.700  1.00  0.00    -0.519 OA 
BRANCH  21  22
HETATM   22  C   UNL     1      -9.546  16.256  67.030  1.00  0.00    -0.231 C  
BRANCH  22  23
HETATM   23  C   UNL     1     -10.726  16.278  67.977  1.00  0.00    -0.331 C  
BRANCH  23  24
HETATM   24  N   UNL     1     -10.938  14.982  68.789  1.00  0.00    -0.245 N  
HETATM   25  C   UNL     1     -10.912  15.368  70.255  1.00  0.00    -0.315 C  
HETATM   26  C   UNL     1      -9.803  13.997  68.501  1.00  0.00    -0.225 C  
HETATM   27  C   UNL     1     -12.268  14.335  68.447  1.00  0.00    -0.162 C  
ENDBRANCH  23  24
ENDBRANCH  22  23
ENDBRANCH  21  22
ENDBRANCH  18  21
ENDBRANCH  17  18
ENDBRANCH  16  17
ENDBRANCH  15  16
ENDBRANCH  14  15
ENDBRANCH  13  14
ENDBRANCH  12  13
ENDBRANCH  11  12
ENDBRANCH  10  11
ENDBRANCH   9  10
ENDBRANCH   8   9
ENDBRANCH   7   8
ENDBRANCH   6   7
ENDBRANCH   5   6
ENDBRANCH   4   5
ENDBRANCH   3   4
ENDBRANCH   2   3
TORSDOF 20
ENDMDL
MODEL        3
REMARK 921   NORMALIZED FREE ENERGY PREDICTED BY IDOCK:   -5.07 KCAL/MOL
REMARK 922        TOTAL FREE ENERGY PREDICTED BY IDOCK:  -12.91 KCAL/MOL
REMARK 923 INTER-LIGAND FREE ENERGY PREDICTED BY IDOCK:  -11.16 KCAL/MOL
REMARK 924 INTRA-LIGAND FREE ENERGY PREDICTED BY IDOCK:   -1.76 KCAL/MOL
REMARK 927      BINDING AFFINITY PREDICTED BY RF-SCORE:    0.00 PKD
ROOT
HETATM    1  C   UNL     1     -12.345  16.615  73.729  1.00  0.00    -0.394 C  
HETATM    2  C   UNL     1     -12.519  15.137  74.034  1.00  0.00    -0.712 C  
ENDROOT
BRANCH   2   3
HETATM    3  C   UNL     1     -13.108  14.393  72.838  1.00  0.00    -0.612 C  
BRANCH   3   4
HETATM    4  C   UNL     1     -13.659  15.368  71.803  1.00  0.00    -0.596 C  
BRANCH   4   5
HETATM    5  C   UNL     1     -12.910  15.234  70.482  1.00  0.00    -0.421 C  
BRANCH   5   6
HETATM    6  C   UNL     1     -11.740  14.266  70.621  1.00  0.00    -0.287 C  
BRANCH   6   7
HETATM    7  C   UNL     1     -11.906  13.089  69.669  1.00  0.00    -0.385 C  
BRANCH   7   8
HETATM    8  C   UNL     1     -12.044  11.788  70.450  1.00  0.00    -0.440 C  
BRANCH   8   9
HETATM    9  C   UNL     1     -11.970  10.600  69.503  1.00  0.00    -0.319 C  
BRANCH   9  10
HETATM   10  C   UNL     1     -10.524  10.234  69.213  1.00  0.00    -0.250 C  
BRANCH  10  11
HETATM   11  C   UNL     1     -10.369   9.865  67.746  1.00  0.00    -0.268 C  
BRANCH  11  12
HETATM   12  C   UNL     1     -10.883  10.986  66.859  1.00  0.00    -0.324 C  
BRANCH  12  13
HETATM   13  C   UNL     1      -9.839  11.340  65.809  1.00  0.00    -0.273 C  
BRANCH  13  14
HETATM   14  C   UNL     1     -10.355  10.962  64.435  1.00  0.00    -0.430 C  
BRANCH  14  15
HETATM   15  C   UNL     1     -10.755  12.192  63.633  1.00  0.00    -0.518 C  
BRANCH  15  16
HETATM   16  C   UNL     1     -12.257  12.169  63.461  1.00  0.00    -0.567 C  
BRANCH  16  17
HETATM   17  O   UNL     1     -12.875  13.053  64.388  1.00  0.00    -0.679 OA 
BRANCH  17  18
HETATM   18  P   UNL     1     -11.904  14.444  64.727  1.00  0.00    -0.451 P  
HETATM   19  O   UNL     1     -12.305  14.330  66.201  1.00  0.00    -0.437 OA 
HETATM   20  O   UNL     1     -12.651  15.295  63.702  1.00  0.00    -0.566 OA 
BRANCH  18  21
HETATM   21  O   UNL     1     -10.931  15.834  65.065  1.00  0.00    -0.410 OA 
BRANCH  21  22
HETATM   22  C   UNL     1     -10.457  15.903  66.408  1.00  0.00    -0.308 C  
BRANCH  22  23
HETATM   23  C   UNL     1      -9.290  16.854  66.556  1.00  0.00    -0.270 C  
BRANCH  23  24
HETATM   24  N   UNL     1      -9.651  18.253  67.103  1.00  0.00    -0.274 N  
HETATM   25  C   UNL     1      -8.378  19.077  67.085  1.00  0.00    -0.278 C  
HETATM   26  C   UNL     1     -10.160  18.133  68.540  1.00  0.00    -0.400 C  
HETATM   27  C   UNL     1     -10.710  18.917  66.243  1.00  0.00    -0.287 C  
ENDBRANCH  23  24
ENDBRANCH  22  23
ENDBRANCH  21  22
ENDBRANCH  18  21
ENDBRANCH  17  18
ENDBRANCH  16  17
ENDBRANCH  15  16
ENDBRANCH  14  15
ENDBRANCH  13  14
ENDBRANCH  12  13
ENDBRANCH  11  12
ENDBRANCH  10  11
ENDBRANCH   9  10
ENDBRANCH   8   9
ENDBRANCH   7   8
ENDBRANCH   6   7
ENDBRANCH   5   6
ENDBRANCH   4   5
ENDBRANCH   3   4
ENDBRANCH   2   3
TORSDOF 20
ENDMDL
MODEL        4
REMARK 921   NORMALIZED FREE ENERGY PREDICTED BY IDOCK:   -5.03 KCAL/MOL
REMARK 922        TOTAL FREE ENERGY PREDICTED BY IDOCK:  -12.84 KCAL/MOL
REMARK 923 INTER-LIGAND FREE ENERGY PREDICTED BY IDOCK:  -10.86 KCAL/MOL
REMARK 924 INTRA-LIGAND FREE ENERGY PREDICTED BY IDOCK:   -1.98 KCAL/MOL
REMARK 927      BINDING AFFINITY PREDICTED BY RF-SCORE:    0.00 PKD
ROOT
HETATM    1  C   UNL     1      -8.954  14.082  68.263  1.00  0.00    -0.190 C  
HETATM    2  C   UNL     1      -9.391  15.093  69.309  1.00  0.00    -0.207 C  
ENDROOT
BRANCH   2   3
HETATM    3  C   UNL     1     -10.912  15.133  69.434  1.00  0.00    -0.268 C  
BRANCH   3   4
HETATM    4  C   UNL     1     -11.344  16.030  70.589  1.00  0.00    -0.424 C  
BRANCH   4   5
HETATM    5  C   UNL     1     -11.584  15.209  71.851  1.00  0.00    -0.490 C  
BRANCH   5   6
HETATM    6  C   UNL     1     -13.025  15.356  72.325  1.00  0.00    -0.481 C  
BRANCH   6   7
HETATM    7  C   UNL     1     -13.700  13.993  72.411  1.00  0.00    -0.669 C  
BRANCH   7   8
HETATM    8  C   UNL     1     -13.098  13.035  71.391  1.00  0.00    -0.336 C  
BRANCH   8   9
HETATM    9  C   UNL     1     -13.185  11.605  71.901  1.00  0.00    -0.475 C  
BRANCH   9  10
HETATM   10  C   UNL     1     -12.253  10.697  71.115  1.00  0.00    -0.479 C  
BRANCH  10  11
HETATM   11  C   UNL     1     -12.076  11.237  69.704  1.00  0.00    -0.391 C  
BRANCH  11  12
HETATM   12  C   UNL     1     -10.986  10.471  68.974  1.00  0.00    -0.289 C  
BRANCH  12  13
HETATM   13  C   UNL     1     -11.103  10.699  67.474  1.00  0.00    -0.367 C  
BRANCH  13  14
HETATM   14  C   UNL     1     -11.661  12.084  67.214  1.00  0.00    -0.383 C  
BRANCH  14  15
HETATM   15  C   UNL     1     -11.752  12.377  65.724  1.00  0.00    -0.470 C  
BRANCH  15  16
HETATM   16  C   UNL     1     -12.690  13.548  65.534  1.00  0.00    -0.440 C  
BRANCH  16  17
HETATM   17  O   UNL     1     -12.255  14.359  64.450  1.00  0.00    -0.483 OA 
BRANCH  17  18
HETATM   18  P   UNL     1     -11.103  15.555  64.936  1.00  0.00    -0.272 P  
HETATM   19  O   UNL     1     -11.651  16.484  63.847  1.00  0.00    -1.175 OA 
HETATM   20  O   UNL     1      -9.930  14.599  64.732  1.00  0.00    -0.247 OA 
BRANCH  18  21
HETATM   21  O   UNL     1      -9.951  16.750  65.423  1.00  0.00    -0.572 OA 
BRANCH  21  22
HETATM   22  C   UNL     1     -10.330  17.489  66.581  1.00  0.00    -0.319 C  
BRANCH  22  23
HETATM   23  C   UNL     1      -9.857  18.925  66.527  1.00  0.00    -0.368 C  
BRANCH  23  24
HETATM   24  N   UNL     1      -8.708  19.274  67.498  1.00  0.00    -0.294 N  
HETATM   25  C   UNL     1      -8.248  20.677  67.156  1.00  0.00    -0.226 C  
HETATM   26  C   UNL     1      -7.548  18.295  67.302  1.00  0.00    -0.217 C  
HETATM   27  C   UNL     1      -9.178  19.219  68.940  1.00  0.00    -0.333 C  
ENDBRANCH  23  24
ENDBRANCH  22  23
ENDBRANCH  21  22
ENDBRANCH  18  21
ENDBRANCH  17  18
ENDBRANCH  16  17
ENDBRANCH  15  16
ENDBRANCH  14  15
ENDBRANCH  13  14
ENDBRANCH  12  13
ENDBRANCH  11  12
ENDBRANCH  10  11
ENDBRANCH   9  10
ENDBRANCH   8   9
ENDBRANCH   7   8
ENDBRANCH   6   7
ENDBRANCH   5   6
ENDBRANCH   4   5
ENDBRANCH   3   4
ENDBRANCH   2   3
TORSDOF 20
ENDMDL
MODEL        5
REMARK 921   NORMALIZED FREE ENERGY PREDICTED BY IDOCK:   -4.96 KCAL/MOL
REMARK 922        TOTAL FREE ENERGY PREDICTED BY IDOCK:  -12.68 KCAL/MOL
REMARK 923 INTER-LIGAND FREE ENERGY PREDICTED BY IDOCK:  -10.56 KCAL/MOL
REMARK 924 INTRA-LIGAND FREE ENERGY PREDICTED BY IDOCK:   -2.12 KCAL/MOL
REMARK 927      BINDING AFFINITY PREDICTED BY RF-SCORE:    0.00 PKD
ROOT
HETATM    1  C   UNL     1     -12.408  16.101  73.342  1.00  0.00    -0.652 C  
HETATM    2  C   UNL     1     -13.700  15.478  72.840  1.00  0.00    -0.599 C  
ENDROOT
BRANCH   2   3
HETATM    3  C   UNL     1     -13.569  15.035  71.385  1.00  0.00    -0.538 C  
BRANCH   3   4
HETATM    4  C   UNL     1     -12.678  13.802  71.266  1.00  0.00    -0.450 C  
BRANCH   4   5
HETATM    5  C   UNL     1     -13.334  12.596  71.928  1.00  0.00    -0.485 C  
BRANCH   5   6
HETATM    6  C   UNL     1     -12.746  11.298  71.387  1.00  0.00    -0.501 C  
BRANCH   6   7
HETATM    7  C   UNL     1     -13.505  10.098  71.939  1.00  0.00    -0.426 C  
BRANCH   7   8
HETATM    8  C   UNL     1     -12.831   8.800  71.513  1.00  0.00    -0.366 C  
BRANCH   8   9
HETATM    9  C   UNL     1     -11.445   8.702  72.132  1.00  0.00    -0.443 C  
BRANCH   9  10
HETATM   10  C   UNL     1     -10.501   7.942  71.215  1.00  0.00    -0.233 C  
BRANCH  10  11
HETATM   11  C   UNL     1      -9.954   8.876  70.147  1.00  0.00    -0.207 C  
BRANCH  11  12
HETATM   12  C   UNL     1     -10.344   8.387  68.763  1.00  0.00    -0.225 C  
BRANCH  12  13
HETATM   13  C   UNL     1     -10.712   9.569  67.877  1.00  0.00    -0.285 C  
BRANCH  13  14
HETATM   14  C   UNL     1     -10.801  10.825  68.719  1.00  0.00    -0.262 C  
BRANCH  14  15
HETATM   15  C   UNL     1     -11.427  11.974  67.941  1.00  0.00    -0.396 C  
BRANCH  15  16
HETATM   16  C   UNL     1     -11.129  11.761  66.474  1.00  0.00    -0.310 C  
BRANCH  16  17
HETATM   17  O   UNL     1     -12.226  12.195  65.679  1.00  0.00    -0.571 OA 
BRANCH  17  18
HETATM   18  P   UNL     1     -11.987  13.779  65.027  1.00  0.00    -0.437 P  
HETATM   19  O   UNL     1     -13.432  14.122  65.405  1.00  0.00    -0.648 OA 
HETATM   20  O   UNL     1     -11.568  13.226  63.666  1.00  0.00    -0.411 OA 
BRANCH  18  21
HETATM   21  O   UNL     1     -11.747  15.364  64.375  1.00  0.00    -0.387 OA 
BRANCH  21  22
HETATM   22  C   UNL     1     -10.785  16.145  65.079  1.00  0.00    -0.337 C  
BRANCH  22  23
HETATM   23  C   UNL     1     -10.395  15.521  66.401  1.00  0.00    -0.296 C  
BRANCH  23  24
HETATM   24  N   UNL     1     -10.090  16.524  67.535  1.00  0.00    -0.261 N  
HETATM   25  C   UNL     1     -10.502  17.896  67.037  1.00  0.00    -0.340 C  
HETATM   26  C   UNL     1      -8.591  16.523  67.840  1.00  0.00    -0.183 C  
HETATM   27  C   UNL     1     -10.863  16.176  68.794  1.00  0.00    -0.310 C  
ENDBRANCH  23  24
ENDBRANCH  22  23
ENDBRANCH  21  22
ENDBRANCH  18  21
ENDBRANCH  17  18
ENDBRANCH  16  17
ENDBRANCH  15  16
ENDBRANCH  14  15
ENDBRANCH  13  14
ENDBRANCH  12  13
ENDBRANCH  11  12
ENDBRANCH  10  11
ENDBRANCH   9  10
ENDBRANCH   8   9
ENDBRANCH   7   8
ENDBRANCH   6   7
ENDBRANCH   5   6
ENDBRANCH   4   5
ENDBRANCH   3   4
ENDBRANCH   2   3
TORSDOF 20
ENDMDL
MODEL        6
REMARK 921   NORMALIZED FREE ENERGY PREDICTED BY IDOCK:   -4.88 KCAL/MOL
REMARK 922        TOTAL FREE ENERGY PREDICTED BY IDOCK:  -12.50 KCAL/MOL
REMARK 923 INTER-LIGAND FREE ENERGY PREDICTED BY IDOCK:  -10.24 KCAL/MOL
REMARK 924 INTRA-LIGAND FREE ENERGY PREDICTED BY IDOCK:   -2.26 KCAL/MOL
REMARK 927      BINDING AFFINITY PREDICTED BY RF-SCORE:    0.00 PKD
ROOT
HETATM    1  C   UNL     1     -10.701   6.673  67.296  1.00  0.00    -0.427 C  
HETATM    2  C   UNL     1     -11.279   6.222  68.626  1.00  0.00    -0.328 C  
ENDROOT
BRANCH   2   3
HETATM    3  C   UNL     1     -10.303   6.489  69.770  1.00  0.00    -0.234 C  
BRANCH   3   4
HETATM    4  C   UNL     1     -11.044   6.684  71.088  1.00  0.00    -0.326 C  
BRANCH   4   5
HETATM    5  C   UNL     1     -12.513   7.009  70.839  1.00  0.00    -0.319 C  
BRANCH   5   6
HETATM    6  C   UNL     1     -12.966   8.166  71.721  1.00  0.00    -0.364 C  
BRANCH   6   7
HETATM    7  C   UNL     1     -11.913   9.266  71.742  1.00  0.00    -0.455 C  
BRANCH   7   8
HETATM    8  C   UNL     1     -12.458  10.539  71.108  1.00  0.00    -0.517 C  
BRANCH   8   9
HETATM    9  C   UNL     1     -11.558  10.982  69.965  1.00  0.00    -0.427 C  
BRANCH   9  10
HETATM   10  C   UNL     1     -10.355  10.061  69.841  1.00  0.00    -0.315 C  
BRANCH  10  11
HETATM   11  C   UNL     1      -9.837  10.078  68.412  1.00  0.00    -0.169 C  
BRANCH  11  12
HETATM   12  C   UNL     1     -10.950  10.450  67.447  1.00  0.00    -0.335 C  
BRANCH  12  13
HETATM   13  C   UNL     1     -10.462  11.510  66.470  1.00  0.00    -0.284 C  
BRANCH  13  14
HETATM   14  C   UNL     1     -10.543  10.971  65.056  1.00  0.00    -0.315 C  
BRANCH  14  15
HETATM   15  C   UNL     1     -11.157  11.990  64.107  1.00  0.00    -0.431 C  
BRANCH  15  16
HETATM   16  C   UNL     1     -12.430  12.509  64.738  1.00  0.00    -0.457 C  
BRANCH  16  17
HETATM   17  O   UNL     1     -12.753  13.792  64.216  1.00  0.00    -0.659 OA 
BRANCH  17  18
HETATM   18  P   UNL     1     -11.594  14.998  64.655  1.00  0.00    -0.247 P  
HETATM   19  O   UNL     1     -11.893  14.709  66.129  1.00  0.00    -0.352 OA 
HETATM   20  O   UNL     1     -12.305  16.072  63.834  1.00  0.00    -0.855 OA 
BRANCH  18  21
HETATM   21  O   UNL     1     -10.433  16.205  65.092  1.00  0.00    -0.560 OA 
BRANCH  21  22
HETATM   22  C   UNL     1     -10.354  16.458  66.493  1.00  0.00    -0.303 C  
BRANCH  22  23
HETATM   23  C   UNL     1     -10.380  17.937  66.811  1.00  0.00    -0.355 C  
BRANCH  23  24
HETATM   24  N   UNL     1      -9.089  18.493  67.450  1.00  0.00    -0.273 N  
HETATM   25  C   UNL     1      -8.356  17.317  68.065  1.00  0.00    -0.228 C  
HETATM   26  C   UNL     1      -9.445  19.500  68.545  1.00  0.00    -0.386 C  
HETATM   27  C   UNL     1      -8.212  19.165  66.410  1.00  0.00    -0.314 C  
ENDBRANCH  23  24
ENDBRANCH  22  23
ENDBRANCH  21  22
ENDBRANCH  18  21
ENDBRANCH  17  18
ENDBRANCH  16  17
ENDBRANCH  15  16
ENDBRANCH  14  15
ENDBRANCH  13  14
ENDBRANCH  12  13
ENDBRANCH  11  12
ENDBRANCH  10  11
ENDBRANCH   9  10
ENDBRANCH   8   9
ENDBRANCH   7   8
ENDBRANCH   6   7
ENDBRANCH   5   6
ENDBRANCH   4   5
ENDBRANCH   3   4
ENDBRANCH   2   3
TORSDOF 20
ENDMDL
MODEL        7
REMARK 921   NORMALIZED FREE ENERGY PREDICTED BY IDOCK:   -4.87 KCAL/MOL
REMARK 922        TOTAL FREE ENERGY PREDICTED BY IDOCK:  -12.49 KCAL/MOL
REMARK 923 INTER-LIGAND FREE ENERGY PREDICTED BY IDOCK:  -10.13 KCAL/MOL
REMARK 924 INTRA-LIGAND FREE ENERGY PREDICTED BY IDOCK:   -2.36 KCAL/MOL
REMARK 927      BINDING AFFINITY PREDICTED BY RF-SCORE:    0.00 PKD
ROOT
HETATM    1  C   UNL     1      -9.804   7.714  66.714  1.00  0.00    -0.307 C  
HETATM    2  C   UNL     1     -10.847   6.644  66.989  1.00  0.00    -0.467 C  
ENDROOT
BRANCH   2   3
HETATM    3  C   UNL     1     -10.893   6.288  68.473  1.00  0.00    -0.394 C  
BRANCH   3   4
HETATM    4  C   UNL     1      -9.902   7.130  69.270  1.00  0.00    -0.161 C  
BRANCH   4   5
HETATM    5  C   UNL     1     -10.107   6.931  70.768  1.00  0.00    -0.208 C  
BRANCH   5   6
HETATM    6  C   UNL     1     -11.390   6.155  71.038  1.00  0.00    -0.348 C  
BRANCH   6   7
HETATM    7  C   UNL     1     -12.245   6.880  72.070  1.00  0.00    -0.318 C  
BRANCH   7   8
HETATM    8  C   UNL     1     -13.627   7.176  71.503  1.00  0.00    -0.408 C  
BRANCH   8   9
HETATM    9  C   UNL     1     -14.035   8.603  71.836  1.00  0.00    -0.501 C  
BRANCH   9  10
HETATM   10  C   UNL     1     -12.808   9.480  72.034  1.00  0.00    -0.499 C  
BRANCH  10  11
HETATM   11  C   UNL     1     -13.151  10.926  71.714  1.00  0.00    -0.564 C  
BRANCH  11  12
HETATM   12  C   UNL     1     -12.338  11.416  70.528  1.00  0.00    -0.439 C  
BRANCH  12  13
HETATM   13  C   UNL     1     -11.288  10.380  70.151  1.00  0.00    -0.397 C  
BRANCH  13  14
HETATM   14  C   UNL     1     -10.672  10.745  68.816  1.00  0.00    -0.243 C  
BRANCH  14  15
HETATM   15  C   UNL     1     -11.565  11.699  68.034  1.00  0.00    -0.383 C  
BRANCH  15  16
HETATM   16  C   UNL     1     -11.212  11.574  66.569  1.00  0.00    -0.259 C  
BRANCH  16  17
HETATM   17  O   UNL     1     -12.192  12.223  65.767  1.00  0.00    -0.622 OA 
BRANCH  17  18
HETATM   18  P   UNL     1     -11.760  13.853  65.382  1.00  0.00    -0.379 P  
HETATM   19  O   UNL     1     -13.250  14.186  65.247  1.00  0.00    -0.760 OA 
HETATM   20  O   UNL     1     -10.874  13.412  64.219  1.00  0.00    -0.392 OA 
BRANCH  18  21
HETATM   21  O   UNL     1     -11.328  15.484  64.999  1.00  0.00    -0.354 OA 
BRANCH  21  22
HETATM   22  C   UNL     1     -10.088  15.907  65.560  1.00  0.00    -0.320 C  
BRANCH  22  23
HETATM   23  C   UNL     1      -9.815  15.263  66.902  1.00  0.00    -0.235 C  
BRANCH  23  24
HETATM   24  N   UNL     1     -10.070  16.168  68.127  1.00  0.00    -0.233 N  
HETATM   25  C   UNL     1      -9.108  15.727  69.212  1.00  0.00    -0.263 C  
HETATM   26  C   UNL     1     -11.508  15.986  68.616  1.00  0.00    -0.377 C  
HETATM   27  C   UNL     1      -9.832  17.628  67.785  1.00  0.00    -0.292 C  
ENDBRANCH  23  24
ENDBRANCH  22  23
ENDBRANCH  21  22
ENDBRANCH  18  21
ENDBRANCH  17  18
ENDBRANCH  16  17
ENDBRANCH  15  16
ENDBRANCH  14  15
ENDBRANCH  13  14
ENDBRANCH  12  13
ENDBRANCH  11  12
ENDBRANCH  10  11
ENDBRANCH   9  10
ENDBRANCH   8   9
ENDBRANCH   7   8
ENDBRANCH   6   7
ENDBRANCH   5   6
ENDBRANCH   4   5
ENDBRANCH   3   4
ENDBRANCH   2   3
TORSDOF 20
ENDMDL
MODEL        8
REMARK 921   NORMALIZED FREE ENERGY PREDICTED BY IDOCK:   -4.84 KCAL/MOL
REMARK 922        TOTAL FREE ENERGY PREDICTED BY IDOCK:  -12.41 KCAL/MOL
REMARK 923 INTER-LIGAND FREE ENERGY PREDICTED BY IDOCK:  -10.36 KCAL/MOL
REMARK 924 INTRA-LIGAND FREE ENERGY PREDICTED BY IDOCK:   -2.06 KCAL/MOL
REMARK 927      BINDING AFFINITY PREDICTED BY RF-SCORE:    0.00 PKD
ROOT
HETATM    1  C   UNL     1     -14.401  14.768  71.718  1.00  0.00    -0.656 C  
HETATM    2  C   UNL     1     -13.441  15.097  72.849  1.00  0.00    -0.589 C  
ENDROOT
BRANCH   2   3
HETATM    3  C   UNL     1     -12.344  16.051  72.381  1.00  0.00    -0.581 C  
BRANCH   3   4
HETATM    4  C   UNL     1     -11.440  15.383  71.350  1.00  0.00    -0.465 C  
BRANCH   4   5
HETATM    5  C   UNL     1     -11.309  16.251  70.104  1.00  0.00    -0.292 C  
BRANCH   5   6
HETATM    6  C   UNL     1     -11.697  15.467  68.856  1.00  0.00    -0.385 C  
BRANCH   6   7
HETATM    7  C   UNL     1     -10.821  14.230  68.710  1.00  0.00    -0.265 C  
BRANCH   7   8
HETATM    8  C   UNL     1     -11.682  12.989  68.510  1.00  0.00    -0.377 C  
BRANCH   8   9
HETATM    9  C   UNL     1     -10.869  11.736  68.798  1.00  0.00    -0.268 C  
BRANCH   9  10
HETATM   10  C   UNL     1      -9.477  11.849  68.197  1.00  0.00    -0.195 C  
BRANCH  10  11
HETATM   11  C   UNL     1      -9.134  10.573  67.446  1.00  0.00    -0.147 C  
BRANCH  11  12
HETATM   12  C   UNL     1     -10.088  10.368  66.282  1.00  0.00    -0.292 C  
BRANCH  12  13
HETATM   13  C   UNL     1      -9.646  11.206  65.091  1.00  0.00    -0.273 C  
BRANCH  13  14
HETATM   14  C   UNL     1     -10.689  11.118  63.995  1.00  0.00    -0.409 C  
BRANCH  14  15
HETATM   15  C   UNL     1     -11.616  12.325  64.011  1.00  0.00    -0.495 C  
BRANCH  15  16
HETATM   16  C   UNL     1     -10.825  13.515  64.506  1.00  0.00    -0.410 C  
BRANCH  16  17
HETATM   17  O   UNL     1     -11.701  14.521  65.000  1.00  0.00    -0.362 OA 
BRANCH  17  18
HETATM   18  P   UNL     1     -10.904  16.039  65.234  1.00  0.00    -0.213 P  
HETATM   19  O   UNL     1     -11.448  16.501  63.879  1.00  0.00    -1.145 OA 
HETATM   20  O   UNL     1      -9.545  15.369  65.425  1.00  0.00    -0.278 OA 
BRANCH  18  21
HETATM   21  O   UNL     1     -10.108  17.557  65.469  1.00  0.00    -0.576 OA 
BRANCH  21  22
HETATM   22  C   UNL     1     -10.190  18.059  66.800  1.00  0.00    -0.364 C  
BRANCH  22  23
HETATM   23  C   UNL     1      -8.908  17.845  67.575  1.00  0.00    -0.248 C  
BRANCH  23  24
HETATM   24  N   UNL     1      -7.783  18.858  67.274  1.00  0.00    -0.233 N  
HETATM   25  C   UNL     1      -6.976  19.018  68.548  1.00  0.00    -0.274 C  
HETATM   26  C   UNL     1      -8.390  20.207  66.883  1.00  0.00    -0.315 C  
HETATM   27  C   UNL     1      -6.889  18.361  66.152  1.00  0.00    -0.251 C  
ENDBRANCH  23  24
ENDBRANCH  22  23
ENDBRANCH  21  22
ENDBRANCH  18  21
ENDBRANCH  17  18
ENDBRANCH  16  17
ENDBRANCH  15  16
ENDBRANCH  14  15
ENDBRANCH  13  14
ENDBRANCH  12  13
ENDBRANCH  11  12
ENDBRANCH  10  11
ENDBRANCH   9  10
ENDBRANCH   8   9
ENDBRANCH   7   8
ENDBRANCH   6   7
ENDBRANCH   5   6
ENDBRANCH   4   5
ENDBRANCH   3   4
ENDBRANCH   2   3
TORSDOF 20
ENDMDL
MODEL        9
REMARK 921   NORMALIZED FREE ENERGY PREDICTED BY IDOCK:   -4.78 KCAL/MOL
REMARK 922        TOTAL FREE ENERGY PREDICTED BY IDOCK:  -12.28 KCAL/MOL
REMARK 923 INTER-LIGAND FREE ENERGY PREDICTED BY IDOCK:  -10.63 KCAL/MOL
REMARK 924 INTRA-LIGAND FREE ENERGY PREDICTED BY IDOCK:   -1.66 KCAL/MOL
REMARK 927      BINDING AFFINITY PREDICTED BY RF-SCORE:    0.00 PKD
ROOT
HETATM    1  C   UNL     1     -10.690   5.642  66.971  1.00  0.00    -0.332 C  
HETATM    2  C   UNL     1     -10.779   6.765  67.990  1.00  0.00    -0.302 C  
ENDROOT
BRANCH   2   3
HETATM    3  C   UNL     1     -11.275   6.248  69.338  1.00  0.00    -0.489 C  
BRANCH   3   4
HETATM    4  C   UNL     1     -10.181   5.470  70.063  1.00  0.00    -0.337 C  
BRANCH   4   5
HETATM    5  C   UNL     1     -10.517   5.318  71.542  1.00  0.00    -0.279 C  
BRANCH   5   6
HETATM    6  C   UNL     1     -11.606   6.302  71.952  1.00  0.00    -0.369 C  
BRANCH   6   7
HETATM    7  C   UNL     1     -11.085   7.264  73.012  1.00  0.00    -0.361 C  
BRANCH   7   8
HETATM    8  C   UNL     1     -10.300   8.397  72.364  1.00  0.00    -0.399 C  
BRANCH   8   9
HETATM    9  C   UNL     1     -11.235   9.289  71.561  1.00  0.00    -0.457 C  
BRANCH   9  10
HETATM   10  C   UNL     1     -10.530   9.833  70.329  1.00  0.00    -0.345 C  
BRANCH  10  11
HETATM   11  C   UNL     1     -11.527  10.565  69.445  1.00  0.00    -0.329 C  
BRANCH  11  12
HETATM   12  C   UNL     1     -12.050  11.805  70.147  1.00  0.00    -0.398 C  
BRANCH  12  13
HETATM   13  C   UNL     1     -11.787  13.038  69.294  1.00  0.00    -0.370 C  
BRANCH  13  14
HETATM   14  C   UNL     1     -11.717  12.638  67.834  1.00  0.00    -0.412 C  
BRANCH  14  15
HETATM   15  C   UNL     1     -12.241  13.744  66.929  1.00  0.00    -0.408 C  
BRANCH  15  16
HETATM   16  C   UNL     1     -12.639  13.119  65.610  1.00  0.00    -0.351 C  
BRANCH  16  17
HETATM   17  O   UNL     1     -12.636  14.098  64.578  1.00  0.00    -0.643 OA 
BRANCH  17  18
HETATM   18  P   UNL     1     -11.422  15.308  64.815  1.00  0.00    -0.210 P  
HETATM   19  O   UNL     1     -12.114  16.170  63.754  1.00  0.00    -0.946 OA 
HETATM   20  O   UNL     1     -10.293  14.325  64.512  1.00  0.00    -0.357 OA 
BRANCH  18  21
HETATM   21  O   UNL     1     -10.208  16.517  65.052  1.00  0.00    -0.564 OA 
BRANCH  21  22
HETATM   22  C   UNL     1     -10.643  17.639  65.817  1.00  0.00    -0.177 C  
BRANCH  22  23
HETATM   23  C   UNL     1      -9.930  17.736  67.149  1.00  0.00    -0.322 C  
BRANCH  23  24
HETATM   24  N   UNL     1      -9.432  19.149  67.523  1.00  0.00    -0.303 N  
HETATM   25  C   UNL     1      -9.788  20.066  66.369  1.00  0.00    -0.459 C  
HETATM   26  C   UNL     1      -7.914  19.131  67.710  1.00  0.00    -0.273 C  
HETATM   27  C   UNL     1     -10.094  19.640  68.798  1.00  0.00    -0.437 C  
ENDBRANCH  23  24
ENDBRANCH  22  23
ENDBRANCH  21  22
ENDBRANCH  18  21
ENDBRANCH  17  18
ENDBRANCH  16  17
ENDBRANCH  15  16
ENDBRANCH  14  15
ENDBRANCH  13  14
ENDBRANCH  12  13
ENDBRANCH  11  12
ENDBRANCH  10  11
ENDBRANCH   9  10
ENDBRANCH   8   9
ENDBRANCH   7   8
ENDBRANCH   6   7
ENDBRANCH   5   6
ENDBRANCH   4   5
ENDBRANCH   3   4
ENDBRANCH   2   3
TORSDOF 20
ENDMDL
MODEL       10
REMARK 921   NORMALIZED FREE ENERGY PREDICTED BY IDOCK:   -4.75 KCAL/MOL
REMARK 922        TOTAL FREE ENERGY PREDICTED BY IDOCK:  -12.23 KCAL/MOL
REMARK 923 INTER-LIGAND FREE ENERGY PREDICTED BY IDOCK:  -10.56 KCAL/MOL
REMARK 924 INTRA-LIGAND FREE ENERGY PREDICTED BY IDOCK:   -1.67 KCAL/MOL
REMARK 927      BINDING AFFINITY PREDICTED BY RF-SCORE:    0.00 PKD
ROOT
HETATM    1  C   UNL     1     -12.086  11.053  69.854  1.00  0.00    -0.435 C  
HETATM    2  C   UNL     1     -12.371  10.547  71.258  1.00  0.00    -0.502 C  
ENDROOT
BRANCH   2   3
HETATM    3  C   UNL     1     -11.664   9.220  71.519  1.00  0.00    -0.450 C  
BRANCH   3   4
HETATM    4  C   UNL     1     -12.665   8.126  71.876  1.00  0.00    -0.361 C  
BRANCH   4   5
HETATM    5  C   UNL     1     -12.269   6.801  71.233  1.00  0.00    -0.415 C  
BRANCH   5   6
HETATM    6  C   UNL     1     -10.785   6.522  71.443  1.00  0.00    -0.280 C  
BRANCH   6   7
HETATM    7  C   UNL     1     -10.115   6.177  70.120  1.00  0.00    -0.233 C  
BRANCH   7   8
HETATM    8  C   UNL     1     -11.124   6.233  68.981  1.00  0.00    -0.446 C  
BRANCH   8   9
HETATM    9  C   UNL     1     -10.556   7.031  67.817  1.00  0.00    -0.298 C  
BRANCH   9  10
HETATM   10  C   UNL     1     -10.003   8.362  68.299  1.00  0.00    -0.214 C  
BRANCH  10  11
HETATM   11  C   UNL     1     -10.215   9.425  67.232  1.00  0.00    -0.308 C  
BRANCH  11  12
HETATM   12  C   UNL     1      -9.319   9.164  66.035  1.00  0.00    -0.300 C  
BRANCH  12  13
HETATM   13  C   UNL     1      -9.590  10.192  64.945  1.00  0.00    -0.369 C  
BRANCH  13  14
HETATM   14  C   UNL     1     -10.633  11.179  65.430  1.00  0.00    -0.291 C  
BRANCH  14  15
HETATM   15  C   UNL     1     -11.225  11.974  64.274  1.00  0.00    -0.421 C  
BRANCH  15  16
HETATM   16  C   UNL     1     -12.334  12.842  64.824  1.00  0.00    -0.478 C  
BRANCH  16  17
HETATM   17  O   UNL     1     -12.348  14.103  64.167  1.00  0.00    -0.628 OA 
BRANCH  17  18
HETATM   18  P   UNL     1     -11.093  15.155  64.723  1.00  0.00    -0.270 P  
HETATM   19  O   UNL     1     -11.478  14.806  66.165  1.00  0.00    -0.347 OA 
HETATM   20  O   UNL     1     -11.660  16.345  63.952  1.00  0.00    -1.100 OA 
BRANCH  18  21
HETATM   21  O   UNL     1      -9.837  16.207  65.279  1.00  0.00    -0.452 OA 
BRANCH  21  22
HETATM   22  C   UNL     1      -9.835  16.421  66.688  1.00  0.00    -0.261 C  
BRANCH  22  23
HETATM   23  C   UNL     1     -10.401  17.772  67.065  1.00  0.00    -0.344 C  
BRANCH  23  24
HETATM   24  N   UNL     1      -9.357  18.898  67.231  1.00  0.00    -0.290 N  
HETATM   25  C   UNL     1      -9.769  20.026  66.306  1.00  0.00    -0.433 C  
HETATM   26  C   UNL     1      -7.974  18.386  66.824  1.00  0.00    -0.244 C  
HETATM   27  C   UNL     1      -9.312  19.392  68.665  1.00  0.00    -0.390 C  
ENDBRANCH  23  24
ENDBRANCH  22  23
ENDBRANCH  21  22
ENDBRANCH  18  21
ENDBRANCH  17  18
ENDBRANCH  16  17
ENDBRANCH  15  16
ENDBRANCH  14  15
ENDBRANCH  13  14
ENDBRANCH  12  13
ENDBRANCH  11  12
ENDBRANCH  10  11
ENDBRANCH   9  10
ENDBRANCH   8   9
ENDBRANCH   7   8
ENDBRANCH   6   7
ENDBRANCH   5   6
ENDBRANCH   4   5
ENDBRANCH   3   4
ENDBRANCH   2   3
TORSDOF 20
ENDMDL
MODEL       11
REMARK 921   NORMALIZED FREE ENERGY PREDICTED BY IDOCK:   -4.74 KCAL/MOL
REMARK 922        TOTAL FREE ENERGY PREDICTED BY IDOCK:  -12.20 KCAL/MOL
REMARK 923 INTER-LIGAND FREE ENERGY PREDICTED BY IDOCK:   -9.72 KCAL/MOL
REMARK 924 INTRA-LIGAND FREE ENERGY PREDICTED BY IDOCK:   -2.48 KCAL/MOL
REMARK 927      BINDING AFFINITY PREDICTED BY RF-SCORE:    0.00 PKD
ROOT
HETATM    1  C   UNL     1      -9.646   6.338  66.516  1.00  0.00    -0.183 C  
HETATM    2  C   UNL     1     -10.880   6.493  67.390  1.00  0.00    -0.449 C  
ENDROOT
BRANCH   2   3
HETATM    3  C   UNL     1     -10.645   5.913  68.782  1.00  0.00    -0.340 C  
BRANCH   3   4
HETATM    4  C   UNL     1     -11.635   6.488  69.790  1.00  0.00    -0.392 C  
BRANCH   4   5
HETATM    5  C   UNL     1     -11.042   6.478  71.195  1.00  0.00    -0.332 C  
BRANCH   5   6
HETATM    6  C   UNL     1     -11.809   7.425  72.111  1.00  0.00    -0.323 C  
BRANCH   6   7
HETATM    7  C   UNL     1     -13.228   7.629  71.598  1.00  0.00    -0.395 C  
BRANCH   7   8
HETATM    8  C   UNL     1     -13.606   9.104  71.650  1.00  0.00    -0.451 C  
BRANCH   8   9
HETATM    9  C   UNL     1     -12.352   9.964  71.702  1.00  0.00    -0.496 C  
BRANCH   9  10
HETATM   10  C   UNL     1     -12.516  11.203  70.836  1.00  0.00    -0.509 C  
BRANCH  10  11
HETATM   11  C   UNL     1     -11.646  11.082  69.594  1.00  0.00    -0.390 C  
BRANCH  11  12
HETATM   12  C   UNL     1     -10.469  10.160  69.856  1.00  0.00    -0.322 C  
BRANCH  12  13
HETATM   13  C   UNL     1      -9.856   9.708  68.538  1.00  0.00    -0.170 C  
BRANCH  13  14
HETATM   14  C   UNL     1     -10.716  10.191  67.388  1.00  0.00    -0.336 C  
BRANCH  14  15
HETATM   15  C   UNL     1      -9.973  10.104  66.063  1.00  0.00    -0.322 C  
BRANCH  15  16
HETATM   16  C   UNL     1     -10.631  11.062  65.095  1.00  0.00    -0.226 C  
BRANCH  16  17
HETATM   17  O   UNL     1     -11.508  11.941  65.788  1.00  0.00    -0.329 OA 
BRANCH  17  18
HETATM   18  P   UNL     1     -11.310  13.592  65.307  1.00  0.00    -0.311 P  
HETATM   19  O   UNL     1     -12.827  13.687  65.113  1.00  0.00    -0.687 OA 
HETATM   20  O   UNL     1     -10.329  13.218  64.199  1.00  0.00    -0.407 OA 
BRANCH  18  21
HETATM   21  O   UNL     1     -11.111  15.242  64.828  1.00  0.00    -0.407 OA 
BRANCH  21  22
HETATM   22  C   UNL     1     -10.323  16.020  65.725  1.00  0.00    -0.378 C  
BRANCH  22  23
HETATM   23  C   UNL     1     -10.637  17.497  65.631  1.00  0.00    -0.140 C  
BRANCH  23  24
HETATM   24  N   UNL     1     -10.039  18.367  66.758  1.00  0.00    -0.351 N  
HETATM   25  C   UNL     1     -10.691  19.732  66.659  1.00  0.00    -0.404 C  
HETATM   26  C   UNL     1      -8.529  18.509  66.558  1.00  0.00    -0.277 C  
HETATM   27  C   UNL     1     -10.314  17.759  68.121  1.00  0.00    -0.391 C  
ENDBRANCH  23  24
ENDBRANCH  22  23
ENDBRANCH  21  22
ENDBRANCH  18  21
ENDBRANCH  17  18
ENDBRANCH  16  17
ENDBRANCH  15  16
ENDBRANCH  14  15
ENDBRANCH  13  14
ENDBRANCH  12  13
ENDBRANCH  11  12
ENDBRANCH  10  11
ENDBRANCH   9  10
ENDBRANCH   8   9
ENDBRANCH   7   8
ENDBRANCH   6   7
ENDBRANCH   5   6
ENDBRANCH   4   5
ENDBRANCH   3   4
ENDBRANCH   2   3
TORSDOF 20
ENDMDL
MODEL       12
REMARK 921   NORMALIZED FREE ENERGY PREDICTED BY IDOCK:   -4.74 KCAL/MOL
REMARK 922        TOTAL FREE ENERGY PREDICTED BY IDOCK:  -12.19 KCAL/MOL
REMARK 923 INTER-LIGAND FREE ENERGY PREDICTED BY IDOCK:   -9.41 KCAL/MOL
REMARK 924 INTRA-LIGAND FREE ENERGY PREDICTED BY IDOCK:   -2.79 KCAL/MOL
REMARK 927      BINDING AFFINITY PREDICTED BY RF-SCORE:    0.00 PKD
ROOT
HETATM    1  C   UNL     1     -11.676   6.372  71.924  1.00  0.00    -0.378 C  
HETATM    2  C   UNL     1     -12.793   7.307  71.494  1.00  0.00    -0.430 C  
ENDROOT
BRANCH   2   3
HETATM    3  C   UNL     1     -12.717   8.636  72.242  1.00  0.00    -0.450 C  
BRANCH   3   4
HETATM    4  C   UNL     1     -13.284   9.773  71.398  1.00  0.00    -0.482 C  
BRANCH   4   5
HETATM    5  C   UNL     1     -12.189  10.764  71.020  1.00  0.00    -0.485 C  
BRANCH   5   6
HETATM    6  C   UNL     1     -12.133  10.955  69.509  1.00  0.00    -0.380 C  
BRANCH   6   7
HETATM    7  C   UNL     1     -11.026  10.103  68.903  1.00  0.00    -0.261 C  
BRANCH   7   8
HETATM    8  C   UNL     1     -10.008   9.716  69.968  1.00  0.00    -0.288 C  
BRANCH   8   9
HETATM    9  C   UNL     1      -9.464   8.323  69.691  1.00  0.00    -0.163 C  
BRANCH   9  10
HETATM   10  C   UNL     1     -10.353   7.586  68.702  1.00  0.00    -0.218 C  
BRANCH  10  11
HETATM   11  C   UNL     1      -9.517   6.620  67.877  1.00  0.00    -0.117 C  
BRANCH  11  12
HETATM   12  C   UNL     1      -9.293   7.169  66.479  1.00  0.00    -0.208 C  
BRANCH  12  13
HETATM   13  C   UNL     1      -8.020   8.004  66.445  1.00  0.00    -0.102 C  
BRANCH  13  14
HETATM   14  C   UNL     1      -8.375   9.458  66.205  1.00  0.00    -0.118 C  
BRANCH  14  15
HETATM   15  C   UNL     1      -9.728   9.595  65.522  1.00  0.00    -0.372 C  
BRANCH  15  16
HETATM   16  C   UNL     1      -9.861  11.018  65.028  1.00  0.00    -0.269 C  
BRANCH  16  17
HETATM   17  O   UNL     1     -10.958  11.130  64.130  1.00  0.00    -0.358 OA 
BRANCH  17  18
HETATM   18  P   UNL     1     -11.940  12.517  64.452  1.00  0.00    -0.448 P  
HETATM   19  O   UNL     1     -11.963  12.122  65.932  1.00  0.00    -0.561 OA 
HETATM   20  O   UNL     1     -12.996  12.085  63.437  1.00  0.00    -0.772 OA 
BRANCH  18  21
HETATM   21  O   UNL     1     -12.921  13.905  64.773  1.00  0.00    -0.686 OA 
BRANCH  21  22
HETATM   22  C   UNL     1     -12.265  15.150  64.547  1.00  0.00    -0.267 C  
BRANCH  22  23
HETATM   23  C   UNL     1     -10.782  15.077  64.837  1.00  0.00    -0.397 C  
BRANCH  23  24
HETATM   24  N   UNL     1     -10.329  15.798  66.125  1.00  0.00    -0.304 N  
HETATM   25  C   UNL     1      -8.884  15.409  66.367  1.00  0.00    -0.305 C  
HETATM   26  C   UNL     1     -11.186  15.337  67.305  1.00  0.00    -0.306 C  
HETATM   27  C   UNL     1     -10.443  17.305  65.975  1.00  0.00    -0.282 C  
ENDBRANCH  23  24
ENDBRANCH  22  23
ENDBRANCH  21  22
ENDBRANCH  18  21
ENDBRANCH  17  18
ENDBRANCH  16  17
ENDBRANCH  15  16
ENDBRANCH  14  15
ENDBRANCH  13  14
ENDBRANCH  12  13
ENDBRANCH  11  12
ENDBRANCH  10  11
ENDBRANCH   9  10
ENDBRANCH   8   9
ENDBRANCH   7   8
ENDBRANCH   6   7
ENDBRANCH   5   6
ENDBRANCH   4   5
ENDBRANCH   3   4
ENDBRANCH   2   3
TORSDOF 20
ENDMDL
MODEL       13
REMARK 921   NORMALIZED FREE ENERGY PREDICTED BY IDOCK:   -4.72 KCAL/MOL
REMARK 922        TOTAL FREE ENERGY PREDICTED BY IDOCK:  -12.17 KCAL/MOL
REMARK 923 INTER-LIGAND FREE ENERGY PREDICTED BY IDOCK:   -9.84 KCAL/MOL
REMARK 924 INTRA-LIGAND FREE ENERGY PREDICTED BY IDOCK:   -2.32 KCAL/MOL
REMARK 927      BINDING AFFINITY PREDICTED BY RF-SCORE:    0.00 PKD
ROOT
HETATM    1  C   UNL     1      -9.882   4.694  67.302  1.00  0.00    -0.218 C  
HETATM    2  C   UNL     1     -10.784   5.885  67.031  1.00  0.00    -0.396 C  
ENDROOT
BRANCH   2   3
HETATM    3  C   UNL     1     -10.833   6.825  68.233  1.00  0.00    -0.290 C  
BRANCH   3   4
HETATM    4  C   UNL     1     -10.937   6.041  69.537  1.00  0.00    -0.467 C  
BRANCH   4   5
HETATM    5  C   UNL     1     -11.904   6.721  70.501  1.00  0.00    -0.418 C  
BRANCH   5   6
HETATM    6  C   UNL     1     -11.209   7.054  71.816  1.00  0.00    -0.278 C  
BRANCH   6   7
HETATM    7  C   UNL     1     -10.965   8.553  71.926  1.00  0.00    -0.394 C  
BRANCH   7   8
HETATM    8  C   UNL     1      -9.540   8.893  71.508  1.00  0.00    -0.362 C  
BRANCH   8   9
HETATM    9  C   UNL     1      -9.545   9.612  70.168  1.00  0.00    -0.300 C  
BRANCH   9  10
HETATM   10  C   UNL     1     -10.881  10.297  69.931  1.00  0.00    -0.355 C  
BRANCH  10  11
HETATM   11  C   UNL     1     -11.116  10.468  68.439  1.00  0.00    -0.335 C  
BRANCH  11  12
HETATM   12  C   UNL     1      -9.804  10.377  67.680  1.00  0.00    -0.197 C  
BRANCH  12  13
HETATM   13  C   UNL     1     -10.043   9.795  66.294  1.00  0.00    -0.313 C  
BRANCH  13  14
HETATM   14  C   UNL     1      -9.154  10.500  65.289  1.00  0.00    -0.220 C  
BRANCH  14  15
HETATM   15  C   UNL     1      -9.642  10.279  63.864  1.00  0.00    -0.354 C  
BRANCH  15  16
HETATM   16  C   UNL     1     -10.050  11.620  63.296  1.00  0.00    -0.423 C  
BRANCH  16  17
HETATM   17  O   UNL     1     -11.447  11.826  63.469  1.00  0.00    -0.422 OA 
BRANCH  17  18
HETATM   18  P   UNL     1     -11.798  13.208  64.447  1.00  0.00    -0.444 P  
HETATM   19  O   UNL     1     -12.398  12.274  65.503  1.00  0.00    -0.602 OA 
HETATM   20  O   UNL     1     -12.607  13.870  63.334  1.00  0.00    -0.853 OA 
BRANCH  18  21
HETATM   21  O   UNL     1     -12.148  14.592  65.426  1.00  0.00    -0.365 OA 
BRANCH  21  22
HETATM   22  C   UNL     1     -11.002  15.186  66.028  1.00  0.00    -0.332 C  
BRANCH  22  23
HETATM   23  C   UNL     1     -10.716  14.621  67.402  1.00  0.00    -0.280 C  
BRANCH  23  24
HETATM   24  N   UNL     1     -10.682  15.660  68.544  1.00  0.00    -0.253 N  
HETATM   25  C   UNL     1     -10.567  17.026  67.898  1.00  0.00    -0.365 C  
HETATM   26  C   UNL     1      -9.462  15.412  69.434  1.00  0.00    -0.267 C  
HETATM   27  C   UNL     1     -11.944  15.588  69.384  1.00  0.00    -0.336 C  
ENDBRANCH  23  24
ENDBRANCH  22  23
ENDBRANCH  21  22
ENDBRANCH  18  21
ENDBRANCH  17  18
ENDBRANCH  16  17
ENDBRANCH  15  16
ENDBRANCH  14  15
ENDBRANCH  13  14
ENDBRANCH  12  13
ENDBRANCH  11  12
ENDBRANCH  10  11
ENDBRANCH   9  10
ENDBRANCH   8   9
ENDBRANCH   7   8
ENDBRANCH   6   7
ENDBRANCH   5   6
ENDBRANCH   4   5
ENDBRANCH   3   4
ENDBRANCH   2   3
TORSDOF 20
ENDMDL
MODEL       14
REMARK 921   NORMALIZED FREE ENERGY PREDICTED BY IDOCK:   -4.72 KCAL/MOL
REMARK 922        TOTAL FREE ENERGY PREDICTED BY IDOCK:  -12.16 KCAL/MOL
REMARK 923 INTER-LIGAND FREE ENERGY PREDICTED BY IDOCK:   -9.41 KCAL/MOL
REMARK 924 INTRA-LIGAND FREE ENERGY PREDICTED BY IDOCK:   -2.75 KCAL/MOL
REMARK 927      BINDING AFFINITY PREDICTED BY RF-SCORE:    0.00 PKD
ROOT
HETATM    1  C   UNL     1      -9.748  14.211  66.754  1.00  0.00    -0.283 C  
HETATM    2  C   UNL     1      -9.922  14.992  65.463  1.00  0.00    -0.390 C  
ENDROOT
BRANCH   2   3
HETATM    3  C   UNL     1     -11.369  14.943  64.980  1.00  0.00    -0.398 C  
BRANCH   3   4
HETATM    4  C   UNL     1     -12.215  14.042  65.874  1.00  0.00    -0.481 C  
BRANCH   4   5
HETATM    5  C   UNL     1     -12.754  12.853  65.087  1.00  0.00    -0.443 C  
BRANCH   5   6
HETATM    6  C   UNL     1     -12.132  12.799  63.697  1.00  0.00    -0.624 C  
BRANCH   6   7
HETATM    7  C   UNL     1     -11.426  11.468  63.479  1.00  0.00    -0.334 C  
BRANCH   7   8
HETATM    8  C   UNL     1      -9.919  11.634  63.621  1.00  0.00    -0.406 C  
BRANCH   8   9
HETATM    9  C   UNL     1      -9.470  11.181  65.002  1.00  0.00    -0.259 C  
BRANCH   9  10
HETATM   10  C   UNL     1      -9.628   9.676  65.150  1.00  0.00    -0.324 C  
BRANCH  10  11
HETATM   11  C   UNL     1     -10.165   9.348  66.534  1.00  0.00    -0.308 C  
BRANCH  11  12
HETATM   12  C   UNL     1     -10.865  10.556  67.133  1.00  0.00    -0.319 C  
BRANCH  12  13
HETATM   13  C   UNL     1     -10.753  10.524  68.651  1.00  0.00    -0.247 C  
BRANCH  13  14
HETATM   14  C   UNL     1     -12.099  10.853  69.265  1.00  0.00    -0.332 C  
BRANCH  14  15
HETATM   15  C   UNL     1     -11.955  11.799  70.448  1.00  0.00    -0.422 C  
BRANCH  15  16
HETATM   16  C   UNL     1     -12.214  13.205  69.956  1.00  0.00    -0.253 C  
BRANCH  16  17
HETATM   17  O   UNL     1     -11.973  14.145  70.996  1.00  0.00    -0.333 OA 
BRANCH  17  18
HETATM   18  P   UNL     1     -11.320  15.635  70.406  1.00  0.00    -0.421 P  
HETATM   19  O   UNL     1     -11.862  16.335  71.656  1.00  0.00    -0.477 OA 
HETATM   20  O   UNL     1     -12.086  15.523  69.090  1.00  0.00    -0.326 OA 
BRANCH  18  21
HETATM   21  O   UNL     1     -10.666  17.124  69.816  1.00  0.00    -0.181 OA 
BRANCH  21  22
HETATM   22  C   UNL     1     -10.272  17.087  68.447  1.00  0.00    -0.331 C  
BRANCH  22  23
HETATM   23  C   UNL     1      -8.893  17.670  68.230  1.00  0.00    -0.276 C  
BRANCH  23  24
HETATM   24  N   UNL     1      -8.770  18.633  67.029  1.00  0.00    -0.273 N  
HETATM   25  C   UNL     1      -7.673  18.090  66.135  1.00  0.00    -0.231 C  
HETATM   26  C   UNL     1      -8.382  20.029  67.521  1.00  0.00    -0.334 C  
HETATM   27  C   UNL     1     -10.075  18.713  66.258  1.00  0.00    -0.400 C  
ENDBRANCH  23  24
ENDBRANCH  22  23
ENDBRANCH  21  22
ENDBRANCH  18  21
ENDBRANCH  17  18
ENDBRANCH  16  17
ENDBRANCH  15  16
ENDBRANCH  14  15
ENDBRANCH  13  14
ENDBRANCH  12  13
ENDBRANCH  11  12
ENDBRANCH  10  11
ENDBRANCH   9  10
ENDBRANCH   8   9
ENDBRANCH   7   8
ENDBRANCH   6   7
ENDBRANCH   5   6
ENDBRANCH   4   5
ENDBRANCH   3   4
ENDBRANCH   2   3
TORSDOF 20
ENDMDL
MODEL       15
REMARK 921   NORMALIZED FREE ENERGY PREDICTED BY IDOCK:   -4.70 KCAL/MOL
REMARK 922        TOTAL FREE ENERGY PREDICTED BY IDOCK:  -12.11 KCAL/MOL
REMARK 923 INTER-LIGAND FREE ENERGY PREDICTED BY IDOCK:   -9.89 KCAL/MOL
REMARK 924 INTRA-LIGAND FREE ENERGY PREDICTED BY IDOCK:   -2.22 KCAL/MOL
REMARK 927      BINDING AFFINITY PREDICTED BY RF-SCORE:    0.00 PKD
ROOT
HETATM    1  C   UNL     1     -12.030  11.705  70.177  1.00  0.00    -0.441 C  
HETATM    2  C   UNL     1     -12.746  11.080  71.362  1.00  0.00    -0.534 C  
ENDROOT
BRANCH   2   3
HETATM    3  C   UNL     1     -13.521   9.833  70.941  1.00  0.00    -0.167 C  
BRANCH   3   4
HETATM    4  C   UNL     1     -13.411   8.737  71.997  1.00  0.00    -0.455 C  
BRANCH   4   5
HETATM    5  C   UNL     1     -12.908   7.438  71.376  1.00  0.00    -0.408 C  
BRANCH   5   6
HETATM    6  C   UNL     1     -11.640   6.962  72.074  1.00  0.00    -0.322 C  
BRANCH   6   7
HETATM    7  C   UNL     1     -10.896   8.139  72.691  1.00  0.00    -0.429 C  
BRANCH   7   8
HETATM    8  C   UNL     1      -9.541   8.323  72.021  1.00  0.00    -0.316 C  
BRANCH   8   9
HETATM    9  C   UNL     1      -9.681   9.202  70.788  1.00  0.00    -0.337 C  
BRANCH   9  10
HETATM   10  C   UNL     1      -9.406   8.402  69.525  1.00  0.00    -0.158 C  
BRANCH  10  11
HETATM   11  C   UNL     1     -10.658   8.353  68.663  1.00  0.00    -0.149 C  
BRANCH  11  12
HETATM   12  C   UNL     1     -10.623   9.449  67.612  1.00  0.00    -0.333 C  
BRANCH  12  13
HETATM   13  C   UNL     1      -9.843   8.978  66.393  1.00  0.00    -0.356 C  
BRANCH  13  14
HETATM   14  C   UNL     1      -9.857  10.061  65.333  1.00  0.00    -0.384 C  
BRANCH  14  15
HETATM   15  C   UNL     1     -10.605  11.298  65.812  1.00  0.00    -0.306 C  
BRANCH  15  16
HETATM   16  C   UNL     1     -11.380  11.858  64.640  1.00  0.00    -0.293 C  
BRANCH  16  17
HETATM   17  O   UNL     1     -12.223  12.920  65.068  1.00  0.00    -0.408 OA 
BRANCH  17  18
HETATM   18  P   UNL     1     -11.452  14.465  64.958  1.00  0.00    -0.411 P  
HETATM   19  O   UNL     1     -11.597  14.613  66.476  1.00  0.00    -0.361 OA 
HETATM   20  O   UNL     1     -12.478  14.976  63.949  1.00  0.00    -0.790 OA 
BRANCH  18  21
HETATM   21  O   UNL     1     -10.680  16.009  64.848  1.00  0.00    -0.576 OA 
BRANCH  21  22
HETATM   22  C   UNL     1     -10.399  16.613  66.108  1.00  0.00    -0.330 C  
BRANCH  22  23
HETATM   23  C   UNL     1      -9.101  17.390  66.095  1.00  0.00    -0.145 C  
BRANCH  23  24
HETATM   24  N   UNL     1      -9.188  18.823  66.665  1.00  0.00    -0.319 N  
HETATM   25  C   UNL     1      -8.009  19.595  66.107  1.00  0.00    -0.343 C  
HETATM   26  C   UNL     1      -9.093  18.780  68.191  1.00  0.00    -0.307 C  
HETATM   27  C   UNL     1     -10.488  19.493  66.257  1.00  0.00    -0.512 C  
ENDBRANCH  23  24
ENDBRANCH  22  23
ENDBRANCH  21  22
ENDBRANCH  18  21
ENDBRANCH  17  18
ENDBRANCH  16  17
ENDBRANCH  15  16
ENDBRANCH  14  15
ENDBRANCH  13  14
ENDBRANCH  12  13
ENDBRANCH  11  12
ENDBRANCH  10  11
ENDBRANCH   9  10
ENDBRANCH   8   9
ENDBRANCH   7   8
ENDBRANCH   6   7
ENDBRANCH   5   6
ENDBRANCH   4   5
ENDBRANCH   3   4
ENDBRANCH   2   3
TORSDOF 20
ENDMDL
MODEL       16
REMARK 921   NORMALIZED FREE ENERGY PREDICTED BY IDOCK:   -4.69 KCAL/MOL
REMARK 922        TOTAL FREE ENERGY PREDICTED BY IDOCK:  -12.09 KCAL/MOL
REMARK 923 INTER-LIGAND FREE ENERGY PREDICTED BY IDOCK:   -9.58 KCAL/MOL
REMARK 924 INTRA-LIGAND FREE ENERGY PREDICTED BY IDOCK:   -2.50 KCAL/MOL
REMARK 927      BINDING AFFINITY PREDICTED BY RF-SCORE:    0.00 PKD
ROOT
HETATM    1  C   UNL     1      -8.092   8.398  69.526  1.00  0.00    -0.113 C  
HETATM    2  C   UNL     1      -9.239   9.354  69.246  1.00  0.00    -0.159 C  
ENDROOT
BRANCH   2   3
HETATM    3  C   UNL     1     -10.408   8.632  68.579  1.00  0.00    -0.228 C  
BRANCH   3   4
HETATM    4  C   UNL     1     -10.207   7.121  68.608  1.00  0.00    -0.186 C  
BRANCH   4   5
HETATM    5  C   UNL     1     -11.307   6.445  69.418  1.00  0.00    -0.443 C  
BRANCH   5   6
HETATM    6  C   UNL     1     -10.785   6.016  70.785  1.00  0.00    -0.340 C  
BRANCH   6   7
HETATM    7  C   UNL     1     -11.438   6.838  71.887  1.00  0.00    -0.318 C  
BRANCH   7   8
HETATM    8  C   UNL     1     -12.744   7.449  71.394  1.00  0.00    -0.408 C  
BRANCH   8   9
HETATM    9  C   UNL     1     -13.017   8.757  72.120  1.00  0.00    -0.457 C  
BRANCH   9  10
HETATM   10  C   UNL     1     -11.995   9.812  71.728  1.00  0.00    -0.388 C  
BRANCH  10  11
HETATM   11  C   UNL     1     -12.573  10.714  70.649  1.00  0.00    -0.454 C  
BRANCH  11  12
HETATM   12  C   UNL     1     -12.515  12.168  71.084  1.00  0.00    -0.337 C  
BRANCH  12  13
HETATM   13  C   UNL     1     -13.415  12.388  72.292  1.00  0.00    -0.428 C  
BRANCH  13  14
HETATM   14  C   UNL     1     -13.875  13.832  72.324  1.00  0.00    -0.679 C  
BRANCH  14  15
HETATM   15  C   UNL     1     -12.825  14.737  72.951  1.00  0.00    -0.559 C  
BRANCH  15  16
HETATM   16  C   UNL     1     -12.491  15.825  71.956  1.00  0.00    -0.457 C  
BRANCH  16  17
HETATM   17  O   UNL     1     -11.162  15.664  71.475  1.00  0.00    -0.374 OA 
BRANCH  17  18
HETATM   18  P   UNL     1     -10.996  16.128  69.817  1.00  0.00    -0.337 P  
HETATM   19  O   UNL     1     -12.333  15.442  69.520  1.00  0.00    -0.277 OA 
HETATM   20  O   UNL     1      -9.637  15.442  69.694  1.00  0.00    -0.262 OA 
BRANCH  18  21
HETATM   21  O   UNL     1     -10.829  16.594  68.159  1.00  0.00    -0.337 OA 
BRANCH  21  22
HETATM   22  C   UNL     1     -10.016  15.716  67.384  1.00  0.00    -0.232 C  
BRANCH  22  23
HETATM   23  C   UNL     1     -10.593  15.464  66.008  1.00  0.00    -0.322 C  
BRANCH  23  24
HETATM   24  N   UNL     1     -11.146  14.040  65.780  1.00  0.00    -0.301 N  
HETATM   25  C   UNL     1     -10.760  13.215  66.992  1.00  0.00    -0.262 C  
HETATM   26  C   UNL     1     -10.513  13.432  64.527  1.00  0.00    -0.413 C  
HETATM   27  C   UNL     1     -12.656  14.061  65.626  1.00  0.00    -0.512 C  
ENDBRANCH  23  24
ENDBRANCH  22  23
ENDBRANCH  21  22
ENDBRANCH  18  21
ENDBRANCH  17  18
ENDBRANCH  16  17
ENDBRANCH  15  16
ENDBRANCH  14  15
ENDBRANCH  13  14
ENDBRANCH  12  13
ENDBRANCH  11  12
ENDBRANCH  10  11
ENDBRANCH   9  10
ENDBRANCH   8   9
ENDBRANCH   7   8
ENDBRANCH   6   7
ENDBRANCH   5   6
ENDBRANCH   4   5
ENDBRANCH   3   4
ENDBRANCH   2   3
TORSDOF 20
ENDMDL
MODEL       17
REMARK 921   NORMALIZED FREE ENERGY PREDICTED BY IDOCK:   -4.68 KCAL/MOL
REMARK 922        TOTAL FREE ENERGY PREDICTED BY IDOCK:  -12.07 KCAL/MOL
REMARK 923 INTER-LIGAND FREE ENERGY PREDICTED BY IDOCK:   -9.71 KCAL/MOL
REMARK 924 INTRA-LIGAND FREE ENERGY PREDICTED BY IDOCK:   -2.36 KCAL/MOL
REMARK 927      BINDING AFFINITY PREDICTED BY RF-SCORE:    0.00 PKD
ROOT
HETATM    1  C   UNL     1     -12.588  11.047  71.425  1.00  0.00    -0.498 C  
HETATM    2  C   UNL     1     -13.142   9.638  71.556  1.00  0.00    -0.488 C  
ENDROOT
BRANCH   2   3
HETATM    3  C   UNL     1     -12.050   8.654  71.971  1.00  0.00    -0.442 C  
BRANCH   3   4
HETATM    4  C   UNL     1     -12.228   7.311  71.270  1.00  0.00    -0.389 C  
BRANCH   4   5
HETATM    5  C   UNL     1     -11.419   6.225  71.971  1.00  0.00    -0.359 C  
BRANCH   5   6
HETATM    6  C   UNL     1     -10.570   5.453  70.968  1.00  0.00    -0.275 C  
BRANCH   6   7
HETATM    7  C   UNL     1     -10.914   5.870  69.544  1.00  0.00    -0.438 C  
BRANCH   7   8
HETATM    8  C   UNL     1     -10.053   5.111  68.544  1.00  0.00    -0.214 C  
BRANCH   8   9
HETATM    9  C   UNL     1      -9.809   5.965  67.309  1.00  0.00    -0.155 C  
BRANCH   9  10
HETATM   10  C   UNL     1     -10.887   7.027  67.170  1.00  0.00    -0.427 C  
BRANCH  10  11
HETATM   11  C   UNL     1     -10.265   8.338  66.717  1.00  0.00    -0.375 C  
BRANCH  11  12
HETATM   12  C   UNL     1      -9.467   8.967  67.846  1.00  0.00    -0.159 C  
BRANCH  12  13
HETATM   13  C   UNL     1     -10.400   9.708  68.794  1.00  0.00    -0.233 C  
BRANCH  13  14
HETATM   14  C   UNL     1     -10.186  11.202  68.650  1.00  0.00    -0.216 C  
BRANCH  14  15
HETATM   15  C   UNL     1     -11.332  11.857  67.892  1.00  0.00    -0.358 C  
BRANCH  15  16
HETATM   16  C   UNL     1     -10.840  12.196  66.503  1.00  0.00    -0.270 C  
BRANCH  16  17
HETATM   17  O   UNL     1     -11.924  12.192  65.581  1.00  0.00    -0.503 OA 
BRANCH  17  18
HETATM   18  P   UNL     1     -12.163  13.734  64.832  1.00  0.00    -0.414 P  
HETATM   19  O   UNL     1     -13.349  13.974  65.772  1.00  0.00    -0.543 OA 
HETATM   20  O   UNL     1     -12.286  13.111  63.443  1.00  0.00    -0.705 OA 
BRANCH  18  21
HETATM   21  O   UNL     1     -12.400  15.275  64.084  1.00  0.00    -0.630 OA 
BRANCH  21  22
HETATM   22  C   UNL     1     -11.404  16.241  64.408  1.00  0.00    -0.129 C  
BRANCH  22  23
HETATM   23  C   UNL     1     -10.312  15.669  65.285  1.00  0.00    -0.375 C  
BRANCH  23  24
HETATM   24  N   UNL     1     -10.041  16.451  66.588  1.00  0.00    -0.273 N  
HETATM   25  C   UNL     1     -10.521  17.871  66.362  1.00  0.00    -0.317 C  
HETATM   26  C   UNL     1      -8.540  16.461  66.884  1.00  0.00    -0.214 C  
HETATM   27  C   UNL     1     -10.783  15.833  67.759  1.00  0.00    -0.307 C  
ENDBRANCH  23  24
ENDBRANCH  22  23
ENDBRANCH  21  22
ENDBRANCH  18  21
ENDBRANCH  17  18
ENDBRANCH  16  17
ENDBRANCH  15  16
ENDBRANCH  14  15
ENDBRANCH  13  14
ENDBRANCH  12  13
ENDBRANCH  11  12
ENDBRANCH  10  11
ENDBRANCH   9  10
ENDBRANCH   8   9
ENDBRANCH   7   8
ENDBRANCH   6   7
ENDBRANCH   5   6
ENDBRANCH   4   5
ENDBRANCH   3   4
ENDBRANCH   2   3
TORSDOF 20
ENDMDL
MODEL       18
REMARK 921   NORMALIZED FREE ENERGY PREDICTED BY IDOCK:   -4.67 KCAL/MOL
REMARK 922        TOTAL FREE ENERGY PREDICTED BY IDOCK:  -12.04 KCAL/MOL
REMARK 923 INTER-LIGAND FREE ENERGY PREDICTED BY IDOCK:   -9.99 KCAL/MOL
REMARK 924 INTRA-LIGAND FREE ENERGY PREDICTED BY IDOCK:   -2.05 KCAL/MOL
REMARK 927      BINDING AFFINITY PREDICTED BY RF-SCORE:    0.00 PKD
ROOT
HETATM    1  C   UNL     1     -12.383  12.094  63.457  1.00  0.00    -0.682 C  
HETATM    2  C   UNL     1     -11.511  12.114  64.701  1.00  0.00    -0.388 C  
ENDROOT
BRANCH   2   3
HETATM    3  C   UNL     1     -12.145  12.959  65.804  1.00  0.00    -0.513 C  
BRANCH   3   4
HETATM    4  C   UNL     1     -11.827  12.389  67.182  1.00  0.00    -0.361 C  
BRANCH   4   5
HETATM    5  C   UNL     1     -10.918  11.170  67.066  1.00  0.00    -0.348 C  
BRANCH   5   6
HETATM    6  C   UNL     1     -10.967  10.338  68.342  1.00  0.00    -0.308 C  
BRANCH   6   7
HETATM    7  C   UNL     1     -11.738  11.073  69.430  1.00  0.00    -0.394 C  
BRANCH   7   8
HETATM    8  C   UNL     1     -12.038  10.139  70.595  1.00  0.00    -0.411 C  
BRANCH   8   9
HETATM    9  C   UNL     1     -13.004  10.803  71.564  1.00  0.00    -0.562 C  
BRANCH   9  10
HETATM   10  C   UNL     1     -12.993  12.312  71.383  1.00  0.00    -0.354 C  
BRANCH  10  11
HETATM   11  C   UNL     1     -13.765  12.973  72.513  1.00  0.00    -0.501 C  
BRANCH  11  12
HETATM   12  C   UNL     1     -13.744  14.484  72.360  1.00  0.00    -0.583 C  
BRANCH  12  13
HETATM   13  C   UNL     1     -12.416  15.040  72.853  1.00  0.00    -0.491 C  
BRANCH  13  14
HETATM   14  C   UNL     1     -11.678  15.687  71.699  1.00  0.00    -0.521 C  
BRANCH  14  15
HETATM   15  C   UNL     1     -12.574  15.832  70.477  1.00  0.00    -0.336 C  
BRANCH  15  16
HETATM   16  C   UNL     1     -11.784  15.395  69.264  1.00  0.00    -0.349 C  
BRANCH  16  17
HETATM   17  O   UNL     1     -10.418  15.201  69.607  1.00  0.00    -0.247 OA 
BRANCH  17  18
HETATM   18  P   UNL     1      -9.369  15.300  68.234  1.00  0.00    -0.203 P  
HETATM   19  O   UNL     1     -10.565  15.748  67.388  1.00  0.00    -0.301 OA 
HETATM   20  O   UNL     1      -8.928  13.846  68.387  1.00  0.00    -0.186 OA 
BRANCH  18  21
HETATM   21  O   UNL     1      -8.319  15.399  66.863  1.00  0.00    -0.218 OA 
BRANCH  21  22
HETATM   22  C   UNL     1      -7.772  16.696  66.638  1.00  0.00    -0.281 C  
BRANCH  22  23
HETATM   23  C   UNL     1      -7.722  17.525  67.903  1.00  0.00    -0.213 C  
BRANCH  23  24
HETATM   24  N   UNL     1      -8.282  18.958  67.770  1.00  0.00    -0.266 N  
HETATM   25  C   UNL     1      -8.374  19.262  66.288  1.00  0.00    -0.319 C  
HETATM   26  C   UNL     1      -7.327  19.951  68.436  1.00  0.00    -0.283 C  
HETATM   27  C   UNL     1      -9.654  19.068  68.408  1.00  0.00    -0.373 C  
ENDBRANCH  23  24
ENDBRANCH  22  23
ENDBRANCH  21  22
ENDBRANCH  18  21
ENDBRANCH  17  18
ENDBRANCH  16  17
ENDBRANCH  15  16
ENDBRANCH  14  15
ENDBRANCH  13  14
ENDBRANCH  12  13
ENDBRANCH  11  12
ENDBRANCH  10  11
ENDBRANCH   9  10
ENDBRANCH   8   9
ENDBRANCH   7   8
ENDBRANCH   6   7
ENDBRANCH   5   6
ENDBRANCH   4   5
ENDBRANCH   3   4
ENDBRANCH   2   3
TORSDOF 20
ENDMDL
MODEL       19
REMARK 921   NORMALIZED FREE ENERGY PREDICTED BY IDOCK:   -4.66 KCAL/MOL
REMARK 922        TOTAL FREE ENERGY PREDICTED BY IDOCK:  -12.02 KCAL/MOL
REMARK 923 INTER-LIGAND FREE ENERGY PREDICTED BY IDOCK:  -10.22 KCAL/MOL
REMARK 924 INTRA-LIGAND FREE ENERGY PREDICTED BY IDOCK:   -1.81 KCAL/MOL
REMARK 927      BINDING AFFINITY PREDICTED BY RF-SCORE:    0.00 PKD
ROOT
HETATM    1  C   UNL     1     -12.072  14.330  64.356  1.00  0.00    -0.490 C  
HETATM    2  C   UNL     1     -12.059  13.139  63.414  1.00  0.00    -0.558 C  
ENDROOT
BRANCH   2   3
HETATM    3  C   UNL     1     -11.674  11.858  64.151  1.00  0.00    -0.428 C  
BRANCH   3   4
HETATM    4  C   UNL     1     -10.431  11.224  63.537  1.00  0.00    -0.457 C  
BRANCH   4   5
HETATM    5  C   UNL     1      -9.792  10.238  64.509  1.00  0.00    -0.384 C  
BRANCH   5   6
HETATM    6  C   UNL     1     -10.071  10.644  65.951  1.00  0.00    -0.321 C  
BRANCH   6   7
HETATM    7  C   UNL     1     -10.172   9.413  66.842  1.00  0.00    -0.318 C  
BRANCH   7   8
HETATM    8  C   UNL     1     -10.697   9.795  68.220  1.00  0.00    -0.277 C  
BRANCH   8   9
HETATM    9  C   UNL     1     -11.424  11.129  68.152  1.00  0.00    -0.373 C  
BRANCH   9  10
HETATM   10  C   UNL     1     -11.709  11.656  69.550  1.00  0.00    -0.410 C  
BRANCH  10  11
HETATM   11  C   UNL     1     -12.375  10.573  70.384  1.00  0.00    -0.409 C  
BRANCH  11  12
HETATM   12  C   UNL     1     -13.049  11.179  71.603  1.00  0.00    -0.529 C  
BRANCH  12  13
HETATM   13  C   UNL     1     -12.892  12.693  71.587  1.00  0.00    -0.367 C  
BRANCH  13  14
HETATM   14  C   UNL     1     -14.031  13.328  72.360  1.00  0.00    -0.557 C  
BRANCH  14  15
HETATM   15  C   UNL     1     -14.335  14.730  71.851  1.00  0.00    -0.657 C  
BRANCH  15  16
HETATM   16  C   UNL     1     -13.020  15.419  71.566  1.00  0.00    -0.447 C  
BRANCH  16  17
HETATM   17  O   UNL     1     -12.977  15.864  70.216  1.00  0.00    -0.317 OA 
BRANCH  17  18
HETATM   18  P   UNL     1     -11.386  15.784  69.541  1.00  0.00    -0.365 P  
HETATM   19  O   UNL     1     -11.933  14.883  68.429  1.00  0.00    -0.299 OA 
HETATM   20  O   UNL     1     -10.789  15.263  70.846  1.00  0.00    -0.301 OA 
BRANCH  18  21
HETATM   21  O   UNL     1      -9.795  15.706  68.866  1.00  0.00    -0.198 OA 
BRANCH  21  22
HETATM   22  C   UNL     1      -9.716  16.121  67.505  1.00  0.00    -0.233 C  
BRANCH  22  23
HETATM   23  C   UNL     1      -9.888  17.617  67.351  1.00  0.00    -0.305 C  
BRANCH  23  24
HETATM   24  N   UNL     1      -8.603  18.390  66.985  1.00  0.00    -0.255 N  
HETATM   25  C   UNL     1      -7.919  18.756  68.288  1.00  0.00    -0.318 C  
HETATM   26  C   UNL     1      -8.965  19.667  66.224  1.00  0.00    -0.375 C  
HETATM   27  C   UNL     1      -7.678  17.539  66.135  1.00  0.00    -0.268 C  
ENDBRANCH  23  24
ENDBRANCH  22  23
ENDBRANCH  21  22
ENDBRANCH  18  21
ENDBRANCH  17  18
ENDBRANCH  16  17
ENDBRANCH  15  16
ENDBRANCH  14  15
ENDBRANCH  13  14
ENDBRANCH  12  13
ENDBRANCH  11  12
ENDBRANCH  10  11
ENDBRANCH   9  10
ENDBRANCH   8   9
ENDBRANCH   7   8
ENDBRANCH   6   7
ENDBRANCH   5   6
ENDBRANCH   4   5
ENDBRANCH   3   4
ENDBRANCH   2   3
TORSDOF 20
ENDMDL
MODEL       20
REMARK 921   NORMALIZED FREE ENERGY PREDICTED BY IDOCK:   -4.66 KCAL/MOL
REMARK 922        TOTAL FREE ENERGY PREDICTED BY IDOCK:  -12.02 KCAL/MOL
REMARK 923 INTER-LIGAND FREE ENERGY PREDICTED BY IDOCK:   -9.21 KCAL/MOL
REMARK 924 INTRA-LIGAND FREE ENERGY PREDICTED BY IDOCK:   -2.81 KCAL/MOL
REMARK 927      BINDING AFFINITY PREDICTED BY RF-SCORE:    0.00 PKD
ROOT
HETATM    1  C   UNL     1     -10.559   6.694  68.133  1.00  0.00    -0.294 C  
HETATM    2  C   UNL     1     -10.332   8.185  67.952  1.00  0.00    -0.280 C  
ENDROOT
BRANCH   2   3
HETATM    3  C   UNL     1      -9.300   8.711  68.948  1.00  0.00    -0.145 C  
BRANCH   3   4
HETATM    4  C   UNL     1      -9.263   7.849  70.205  1.00  0.00    -0.152 C  
BRANCH   4   5
HETATM    5  C   UNL     1      -9.537   8.692  71.446  1.00  0.00    -0.313 C  
BRANCH   5   6
HETATM    6  C   UNL     1     -10.421   7.934  72.429  1.00  0.00    -0.339 C  
BRANCH   6   7
HETATM    7  C   UNL     1     -10.723   6.536  71.907  1.00  0.00    -0.251 C  
BRANCH   7   8
HETATM    8  C   UNL     1     -12.207   6.223  72.049  1.00  0.00    -0.270 C  
BRANCH   8   9
HETATM    9  C   UNL     1     -13.019   7.095  71.104  1.00  0.00    -0.316 C  
BRANCH   9  10
HETATM   10  C   UNL     1     -14.214   7.697  71.824  1.00  0.00    -0.549 C  
BRANCH  10  11
HETATM   11  C   UNL     1     -13.981   9.182  72.059  1.00  0.00    -0.434 C  
BRANCH  11  12
HETATM   12  C   UNL     1     -13.088   9.758  70.975  1.00  0.00    -0.363 C  
BRANCH  12  13
HETATM   13  C   UNL     1     -12.382  11.005  71.489  1.00  0.00    -0.299 C  
BRANCH  13  14
HETATM   14  C   UNL     1     -12.033  11.906  70.321  1.00  0.00    -0.416 C  
BRANCH  14  15
HETATM   15  C   UNL     1     -12.089  11.152  69.001  1.00  0.00    -0.315 C  
BRANCH  15  16
HETATM   16  C   UNL     1     -11.317  11.950  67.974  1.00  0.00    -0.288 C  
BRANCH  16  17
HETATM   17  O   UNL     1     -12.108  12.153  66.809  1.00  0.00    -0.609 OA 
BRANCH  17  18
HETATM   18  P   UNL     1     -11.851  13.708  66.095  1.00  0.00    -0.441 P  
HETATM   19  O   UNL     1     -11.987  14.337  67.486  1.00  0.00    -0.389 OA 
HETATM   20  O   UNL     1     -13.015  13.525  65.124  1.00  0.00    -0.721 OA 
BRANCH  18  21
HETATM   21  O   UNL     1     -11.593  15.263  65.381  1.00  0.00    -0.243 OA 
BRANCH  21  22
HETATM   22  C   UNL     1     -10.328  15.844  65.687  1.00  0.00    -0.390 C  
BRANCH  22  23
HETATM   23  C   UNL     1     -10.458  17.255  66.216  1.00  0.00    -0.268 C  
BRANCH  23  24
HETATM   24  N   UNL     1      -9.226  17.784  66.982  1.00  0.00    -0.249 N  
HETATM   25  C   UNL     1      -8.943  19.179  66.460  1.00  0.00    -0.341 C  
HETATM   26  C   UNL     1      -8.019  16.883  66.708  1.00  0.00    -0.236 C  
HETATM   27  C   UNL     1      -9.492  17.833  68.475  1.00  0.00    -0.304 C  
ENDBRANCH  23  24
ENDBRANCH  22  23
ENDBRANCH  21  22
ENDBRANCH  18  21
ENDBRANCH  17  18
ENDBRANCH  16  17
ENDBRANCH  15  16
ENDBRANCH  14  15
ENDBRANCH  13  14
ENDBRANCH  12  13
ENDBRANCH  11  12
ENDBRANCH  10  11
ENDBRANCH   9  10
ENDBRANCH   8   9
ENDBRANCH   7   8
ENDBRANCH   6   7
ENDBRANCH   5   6
ENDBRANCH   4   5
ENDBRANCH   3   4
ENDBRANCH   2   3
TORSDOF 20
ENDMDL
MODEL       21
REMARK 921   NORMALIZED FREE ENERGY PREDICTED BY IDOCK:   -4.64 KCAL/MOL
REMARK 922        TOTAL FREE ENERGY PREDICTED BY IDOCK:  -11.98 KCAL/MOL
REMARK 923 INTER-LIGAND FREE ENERGY PREDICTED BY IDOCK:  -10.04 KCAL/MOL
REMARK 924 INTRA-LIGAND FREE ENERGY PREDICTED BY IDOCK:   -1.94 KCAL/MOL
REMARK 927      BINDING AFFINITY PREDICTED BY RF-SCORE:    0.00 PKD
ROOT
HETATM    1  C   UNL     1     -11.803  12.487  69.610  1.00  0.00    -0.382 C  
HETATM    2  C   UNL     1     -11.786  11.003  69.286  1.00  0.00    -0.411 C  
ENDROOT
BRANCH   2   3
HETATM    3  C   UNL     1     -11.373  10.178  70.502  1.00  0.00    -0.416 C  
BRANCH   3   4
HETATM    4  C   UNL     1     -12.546   9.983  71.458  1.00  0.00    -0.525 C  
BRANCH   4   5
HETATM    5  C   UNL     1     -12.423   8.658  72.201  1.00  0.00    -0.453 C  
BRANCH   5   6
HETATM    6  C   UNL     1     -12.500   7.486  71.230  1.00  0.00    -0.354 C  
BRANCH   6   7
HETATM    7  C   UNL     1     -11.690   6.306  71.752  1.00  0.00    -0.355 C  
BRANCH   7   8
HETATM    8  C   UNL     1     -10.833   5.715  70.640  1.00  0.00    -0.304 C  
BRANCH   8   9
HETATM    9  C   UNL     1     -10.726   6.696  69.483  1.00  0.00    -0.305 C  
BRANCH   9  10
HETATM   10  C   UNL     1     -10.975   5.993  68.158  1.00  0.00    -0.340 C  
BRANCH  10  11
HETATM   11  C   UNL     1     -10.880   6.993  67.017  1.00  0.00    -0.413 C  
BRANCH  11  12
HETATM   12  C   UNL     1      -9.829   8.047  67.318  1.00  0.00    -0.258 C  
BRANCH  12  13
HETATM   13  C   UNL     1      -9.512   8.842  66.060  1.00  0.00    -0.320 C  
BRANCH  13  14
HETATM   14  C   UNL     1      -9.752  10.316  66.319  1.00  0.00    -0.263 C  
BRANCH  14  15
HETATM   15  C   UNL     1     -10.654  10.928  65.256  1.00  0.00    -0.259 C  
BRANCH  15  16
HETATM   16  C   UNL     1     -11.181  12.241  65.790  1.00  0.00    -0.337 C  
BRANCH  16  17
HETATM   17  O   UNL     1     -11.737  13.016  64.735  1.00  0.00    -0.319 OA 
BRANCH  17  18
HETATM   18  P   UNL     1     -11.353  14.697  64.874  1.00  0.00    -0.396 P  
HETATM   19  O   UNL     1     -11.395  14.552  66.399  1.00  0.00    -0.335 OA 
HETATM   20  O   UNL     1     -12.552  15.107  64.022  1.00  0.00    -0.791 OA 
BRANCH  18  21
HETATM   21  O   UNL     1     -10.968  16.378  65.012  1.00  0.00    -0.512 OA 
BRANCH  21  22
HETATM   22  C   UNL     1      -9.979  16.672  65.995  1.00  0.00    -0.324 C  
BRANCH  22  23
HETATM   23  C   UNL     1     -10.320  17.906  66.802  1.00  0.00    -0.355 C  
BRANCH  23  24
HETATM   24  N   UNL     1      -9.770  17.918  68.245  1.00  0.00    -0.310 N  
HETATM   25  C   UNL     1      -9.793  19.359  68.716  1.00  0.00    -0.456 C  
HETATM   26  C   UNL     1      -8.331  17.401  68.256  1.00  0.00    -0.248 C  
HETATM   27  C   UNL     1     -10.624  17.060  69.161  1.00  0.00    -0.303 C  
ENDBRANCH  23  24
ENDBRANCH  22  23
ENDBRANCH  21  22
ENDBRANCH  18  21
ENDBRANCH  17  18
ENDBRANCH  16  17
ENDBRANCH  15  16
ENDBRANCH  14  15
ENDBRANCH  13  14
ENDBRANCH  12  13
ENDBRANCH  11  12
ENDBRANCH  10  11
ENDBRANCH   9  10
ENDBRANCH   8   9
ENDBRANCH   7   8
ENDBRANCH   6   7
ENDBRANCH   5   6
ENDBRANCH   4   5
ENDBRANCH   3   4
ENDBRANCH   2   3
TORSDOF 20
ENDMDL
MODEL       22
REMARK 921   NORMALIZED FREE ENERGY PREDICTED BY IDOCK:   -4.63 KCAL/MOL
REMARK 922        TOTAL FREE ENERGY PREDICTED BY IDOCK:  -11.97 KCAL/MOL
REMARK 923 INTER-LIGAND FREE ENERGY PREDICTED BY IDOCK:   -9.45 KCAL/MOL
REMARK 924 INTRA-LIGAND FREE ENERGY PREDICTED BY IDOCK:   -2.52 KCAL/MOL
REMARK 927      BINDING AFFINITY PREDICTED BY RF-SCORE:    0.00 PKD
ROOT
HETATM    1  C   UNL     1     -11.024   6.193  68.156  1.00  0.00    -0.398 C  
HETATM    2  C   UNL     1     -10.801   7.006  66.892  1.00  0.00    -0.350 C  
ENDROOT
BRANCH   2   3
HETATM    3  C   UNL     1     -10.541   8.474  67.220  1.00  0.00    -0.315 C  
BRANCH   3   4
HETATM    4  C   UNL     1      -9.047   8.776  67.237  1.00  0.00    -0.151 C  
BRANCH   4   5
HETATM    5  C   UNL     1      -8.612   9.274  68.611  1.00  0.00    -0.127 C  
BRANCH   5   6
HETATM    6  C   UNL     1      -8.282   8.102  69.529  1.00  0.00    -0.121 C  
BRANCH   6   7
HETATM    7  C   UNL     1      -9.193   8.107  70.749  1.00  0.00    -0.165 C  
BRANCH   7   8
HETATM    8  C   UNL     1      -9.944   9.428  70.848  1.00  0.00    -0.353 C  
BRANCH   8   9
HETATM    9  C   UNL     1     -11.391   9.179  71.245  1.00  0.00    -0.406 C  
BRANCH   9  10
HETATM   10  C   UNL     1     -12.288  10.296  70.735  1.00  0.00    -0.445 C  
BRANCH  10  11
HETATM   11  C   UNL     1     -11.617  11.003  69.568  1.00  0.00    -0.384 C  
BRANCH  11  12
HETATM   12  C   UNL     1     -11.844  12.502  69.653  1.00  0.00    -0.382 C  
BRANCH  12  13
HETATM   13  C   UNL     1     -11.735  13.126  68.269  1.00  0.00    -0.384 C  
BRANCH  13  14
HETATM   14  C   UNL     1     -11.230  12.090  67.285  1.00  0.00    -0.371 C  
BRANCH  14  15
HETATM   15  C   UNL     1     -11.899  12.240  65.926  1.00  0.00    -0.420 C  
BRANCH  15  16
HETATM   16  C   UNL     1     -12.526  13.615  65.864  1.00  0.00    -0.452 C  
BRANCH  16  17
HETATM   17  O   UNL     1     -12.089  14.305  64.699  1.00  0.00    -0.420 OA 
BRANCH  17  18
HETATM   18  P   UNL     1     -11.125  15.693  65.072  1.00  0.00    -0.265 P  
HETATM   19  O   UNL     1     -11.685  16.382  63.822  1.00  0.00    -1.049 OA 
HETATM   20  O   UNL     1      -9.838  14.873  65.090  1.00  0.00    -0.300 OA 
BRANCH  18  21
HETATM   21  O   UNL     1     -10.162  17.080  65.446  1.00  0.00    -0.605 OA 
BRANCH  21  22
HETATM   22  C   UNL     1      -9.166  16.850  66.438  1.00  0.00    -0.279 C  
BRANCH  22  23
HETATM   23  C   UNL     1      -8.948  18.056  67.325  1.00  0.00    -0.251 C  
BRANCH  23  24
HETATM   24  N   UNL     1      -7.534  18.672  67.258  1.00  0.00    -0.217 N  
HETATM   25  C   UNL     1      -7.692  20.089  66.741  1.00  0.00    -0.304 C  
HETATM   26  C   UNL     1      -6.664  17.870  66.289  1.00  0.00    -0.259 C  
HETATM   27  C   UNL     1      -6.882  18.690  68.629  1.00  0.00    -0.275 C  
ENDBRANCH  23  24
ENDBRANCH  22  23
ENDBRANCH  21  22
ENDBRANCH  18  21
ENDBRANCH  17  18
ENDBRANCH  16  17
ENDBRANCH  15  16
ENDBRANCH  14  15
ENDBRANCH  13  14
ENDBRANCH  12  13
ENDBRANCH  11  12
ENDBRANCH  10  11
ENDBRANCH   9  10
ENDBRANCH   8   9
ENDBRANCH   7   8
ENDBRANCH   6   7
ENDBRANCH   5   6
ENDBRANCH   4   5
ENDBRANCH   3   4
ENDBRANCH   2   3
TORSDOF 20
ENDMDL
MODEL       23
REMARK 921   NORMALIZED FREE ENERGY PREDICTED BY IDOCK:   -4.63 KCAL/MOL
REMARK 922        TOTAL FREE ENERGY PREDICTED BY IDOCK:  -11.96 KCAL/MOL
REMARK 923 INTER-LIGAND FREE ENERGY PREDICTED BY IDOCK:   -9.85 KCAL/MOL
REMARK 924 INTRA-LIGAND FREE ENERGY PREDICTED BY IDOCK:   -2.11 KCAL/MOL
REMARK 927      BINDING AFFINITY PREDICTED BY RF-SCORE:    0.00 PKD
ROOT
HETATM    1  C   UNL     1     -10.531   4.759  66.231  1.00  0.00    -0.311 C  
HETATM    2  C   UNL     1      -9.151   5.329  65.951  1.00  0.00    -0.159 C  
ENDROOT
BRANCH   2   3
HETATM    3  C   UNL     1      -8.987   6.709  66.582  1.00  0.00    -0.150 C  
BRANCH   3   4
HETATM    4  C   UNL     1     -10.342   7.346  66.870  1.00  0.00    -0.367 C  
BRANCH   4   5
HETATM    5  C   UNL     1     -10.305   8.125  68.180  1.00  0.00    -0.251 C  
BRANCH   5   6
HETATM    6  C   UNL     1      -9.987   7.200  69.349  1.00  0.00    -0.164 C  
BRANCH   6   7
HETATM    7  C   UNL     1     -11.106   6.186  69.548  1.00  0.00    -0.490 C  
BRANCH   7   8
HETATM    8  C   UNL     1     -12.007   6.608  70.701  1.00  0.00    -0.404 C  
BRANCH   8   9
HETATM    9  C   UNL     1     -11.168   6.954  71.922  1.00  0.00    -0.287 C  
BRANCH   9  10
HETATM   10  C   UNL     1     -11.483   8.360  72.408  1.00  0.00    -0.451 C  
BRANCH  10  11
HETATM   11  C   UNL     1     -12.740   8.873  71.723  1.00  0.00    -0.421 C  
BRANCH  11  12
HETATM   12  C   UNL     1     -12.596  10.345  71.380  1.00  0.00    -0.539 C  
BRANCH  12  13
HETATM   13  C   UNL     1     -11.419  10.548  70.435  1.00  0.00    -0.427 C  
BRANCH  13  14
HETATM   14  C   UNL     1     -11.847  11.422  69.274  1.00  0.00    -0.417 C  
BRANCH  14  15
HETATM   15  C   UNL     1     -10.663  11.801  68.397  1.00  0.00    -0.249 C  
BRANCH  15  16
HETATM   16  C   UNL     1     -11.011  11.456  66.966  1.00  0.00    -0.292 C  
BRANCH  16  17
HETATM   17  O   UNL     1     -12.140  12.208  66.537  1.00  0.00    -0.627 OA 
BRANCH  17  18
HETATM   18  P   UNL     1     -11.694  13.701  65.783  1.00  0.00    -0.390 P  
HETATM   19  O   UNL     1     -13.107  13.793  65.195  1.00  0.00    -0.762 OA 
HETATM   20  O   UNL     1     -10.510  13.058  65.064  1.00  0.00    -0.304 OA 
BRANCH  18  21
HETATM   21  O   UNL     1     -11.249  15.194  65.031  1.00  0.00    -0.376 OA 
BRANCH  21  22
HETATM   22  C   UNL     1     -10.105  15.819  65.606  1.00  0.00    -0.371 C  
BRANCH  22  23
HETATM   23  C   UNL     1     -10.408  16.446  66.949  1.00  0.00    -0.300 C  
BRANCH  23  24
HETATM   24  N   UNL     1      -9.722  17.805  67.208  1.00  0.00    -0.277 N  
HETATM   25  C   UNL     1      -8.266  17.650  66.812  1.00  0.00    -0.243 C  
HETATM   26  C   UNL     1      -9.811  18.157  68.694  1.00  0.00    -0.377 C  
HETATM   27  C   UNL     1     -10.367  18.907  66.387  1.00  0.00    -0.443 C  
ENDBRANCH  23  24
ENDBRANCH  22  23
ENDBRANCH  21  22
ENDBRANCH  18  21
ENDBRANCH  17  18
ENDBRANCH  16  17
ENDBRANCH  15  16
ENDBRANCH  14  15
ENDBRANCH  13  14
ENDBRANCH  12  13
ENDBRANCH  11  12
ENDBRANCH  10  11
ENDBRANCH   9  10
ENDBRANCH   8   9
ENDBRANCH   7   8
ENDBRANCH   6   7
ENDBRANCH   5   6
ENDBRANCH   4   5
ENDBRANCH   3   4
ENDBRANCH   2   3
TORSDOF 20
ENDMDL
MODEL       24
REMARK 921   NORMALIZED FREE ENERGY PREDICTED BY IDOCK:   -4.62 KCAL/MOL
REMARK 922        TOTAL FREE ENERGY PREDICTED BY IDOCK:  -11.95 KCAL/MOL
REMARK 923 INTER-LIGAND FREE ENERGY PREDICTED BY IDOCK:   -9.77 KCAL/MOL
REMARK 924 INTRA-LIGAND FREE ENERGY PREDICTED BY IDOCK:   -2.18 KCAL/MOL
REMARK 927      BINDING AFFINITY PREDICTED BY RF-SCORE:    0.00 PKD
ROOT
HETATM    1  C   UNL     1     -10.564   7.189  68.560  1.00  0.00    -0.219 C  
HETATM    2  C   UNL     1     -11.214   6.158  69.466  1.00  0.00    -0.482 C  
ENDROOT
BRANCH   2   3
HETATM    3  C   UNL     1     -10.193   5.539  70.418  1.00  0.00    -0.321 C  
BRANCH   3   4
HETATM    4  C   UNL     1     -10.482   5.932  71.863  1.00  0.00    -0.267 C  
BRANCH   4   5
HETATM    5  C   UNL     1      -9.527   7.026  72.326  1.00  0.00    -0.154 C  
BRANCH   5   6
HETATM    6  C   UNL     1     -10.206   8.390  72.282  1.00  0.00    -0.396 C  
BRANCH   6   7
HETATM    7  C   UNL     1     -11.683   8.262  72.630  1.00  0.00    -0.406 C  
BRANCH   7   8
HETATM    8  C   UNL     1     -12.535   9.034  71.632  1.00  0.00    -0.418 C  
BRANCH   8   9
HETATM    9  C   UNL     1     -11.658   9.958  70.800  1.00  0.00    -0.430 C  
BRANCH   9  10
HETATM   10  C   UNL     1     -12.245  11.359  70.755  1.00  0.00    -0.475 C  
BRANCH  10  11
HETATM   11  C   UNL     1     -13.181  11.564  71.936  1.00  0.00    -0.479 C  
BRANCH  11  12
HETATM   12  C   UNL     1     -13.475  13.041  72.131  1.00  0.00    -0.638 C  
BRANCH  12  13
HETATM   13  C   UNL     1     -12.444  13.881  71.391  1.00  0.00    -0.424 C  
BRANCH  13  14
HETATM   14  C   UNL     1     -12.431  15.285  71.962  1.00  0.00    -0.430 C  
BRANCH  14  15
HETATM   15  C   UNL     1     -11.529  16.206  71.152  1.00  0.00    -0.433 C  
BRANCH  15  16
HETATM   16  C   UNL     1     -10.832  15.372  70.101  1.00  0.00    -0.309 C  
BRANCH  16  17
HETATM   17  O   UNL     1      -9.759  16.103  69.521  1.00  0.00    -0.244 OA 
BRANCH  17  18
HETATM   18  P   UNL     1      -9.971  16.360  67.823  1.00  0.00    -0.260 P  
HETATM   19  O   UNL     1      -8.503  16.788  67.733  1.00  0.00    -0.189 OA 
HETATM   20  O   UNL     1     -11.130  17.328  68.050  1.00  0.00    -0.289 OA 
BRANCH  18  21
HETATM   21  O   UNL     1     -10.184  16.616  66.126  1.00  0.00    -0.320 OA 
BRANCH  21  22
HETATM   22  C   UNL     1     -10.323  15.418  65.367  1.00  0.00    -0.394 C  
BRANCH  22  23
HETATM   23  C   UNL     1     -10.193  14.177  66.224  1.00  0.00    -0.295 C  
BRANCH  23  24
HETATM   24  N   UNL     1     -11.366  13.179  66.114  1.00  0.00    -0.303 N  
HETATM   25  C   UNL     1     -12.563  13.956  65.603  1.00  0.00    -0.517 C  
HETATM   26  C   UNL     1     -11.684  12.600  67.493  1.00  0.00    -0.368 C  
HETATM   27  C   UNL     1     -11.032  12.050  65.155  1.00  0.00    -0.310 C  
ENDBRANCH  23  24
ENDBRANCH  22  23
ENDBRANCH  21  22
ENDBRANCH  18  21
ENDBRANCH  17  18
ENDBRANCH  16  17
ENDBRANCH  15  16
ENDBRANCH  14  15
ENDBRANCH  13  14
ENDBRANCH  12  13
ENDBRANCH  11  12
ENDBRANCH  10  11
ENDBRANCH   9  10
ENDBRANCH   8   9
ENDBRANCH   7   8
ENDBRANCH   6   7
ENDBRANCH   5   6
ENDBRANCH   4   5
ENDBRANCH   3   4
ENDBRANCH   2   3
TORSDOF 20
ENDMDL
MODEL       25
REMARK 921   NORMALIZED FREE ENERGY PREDICTED BY IDOCK:   -4.61 KCAL/MOL
REMARK 922        TOTAL FREE ENERGY PREDICTED BY IDOCK:  -11.92 KCAL/MOL
REMARK 923 INTER-LIGAND FREE ENERGY PREDICTED BY IDOCK:   -9.93 KCAL/MOL
REMARK 924 INTRA-LIGAND FREE ENERGY PREDICTED BY IDOCK:   -1.99 KCAL/MOL
REMARK 927      BINDING AFFINITY PREDICTED BY RF-SCORE:    0.00 PKD
ROOT
HETATM    1  C   UNL     1     -10.189  12.024  63.243  1.00  0.00    -0.398 C  
HETATM    2  C   UNL     1     -11.453  12.747  63.677  1.00  0.00    -0.544 C  
ENDROOT
BRANCH   2   3
HETATM    3  C   UNL     1     -11.876  12.322  65.081  1.00  0.00    -0.404 C  
BRANCH   3   4
HETATM    4  C   UNL     1     -12.360  13.518  65.894  1.00  0.00    -0.507 C  
BRANCH   4   5
HETATM    5  C   UNL     1     -12.063  13.319  67.377  1.00  0.00    -0.327 C  
BRANCH   5   6
HETATM    6  C   UNL     1     -11.151  14.423  67.898  1.00  0.00    -0.288 C  
BRANCH   6   7
HETATM    7  C   UNL     1     -11.890  15.296  68.903  1.00  0.00    -0.344 C  
BRANCH   7   8
HETATM    8  C   UNL     1     -11.036  15.520  70.143  1.00  0.00    -0.336 C  
BRANCH   8   9
HETATM    9  C   UNL     1     -11.922  15.644  71.374  1.00  0.00    -0.476 C  
BRANCH   9  10
HETATM   10  C   UNL     1     -13.388  15.700  70.975  1.00  0.00    -0.367 C  
BRANCH  10  11
HETATM   11  C   UNL     1     -14.200  14.773  71.867  1.00  0.00    -0.632 C  
BRANCH  11  12
HETATM   12  C   UNL     1     -13.289  13.794  72.586  1.00  0.00    -0.618 C  
BRANCH  12  13
HETATM   13  C   UNL     1     -13.492  12.390  72.033  1.00  0.00    -0.460 C  
BRANCH  13  14
HETATM   14  C   UNL     1     -12.514  12.146  70.901  1.00  0.00    -0.374 C  
BRANCH  14  15
HETATM   15  C   UNL     1     -12.182  10.667  70.762  1.00  0.00    -0.474 C  
BRANCH  15  16
HETATM   16  C   UNL     1     -13.362   9.873  71.274  1.00  0.00    -0.342 C  
BRANCH  16  17
HETATM   17  O   UNL     1     -12.956   9.003  72.324  1.00  0.00    -0.388 OA 
BRANCH  17  18
HETATM   18  P   UNL     1     -11.852   7.785  71.785  1.00  0.00    -0.323 P  
HETATM   19  O   UNL     1     -13.041   6.843  71.569  1.00  0.00    -0.359 OA 
HETATM   20  O   UNL     1     -11.043   7.856  73.078  1.00  0.00    -0.402 OA 
BRANCH  18  21
HETATM   21  O   UNL     1     -10.748   6.567  71.246  1.00  0.00    -0.225 OA 
BRANCH  21  22
HETATM   22  C   UNL     1     -10.515   6.571  69.839  1.00  0.00    -0.213 C  
BRANCH  22  23
HETATM   23  C   UNL     1     -10.186   7.951  69.315  1.00  0.00    -0.216 C  
BRANCH  23  24
HETATM   24  N   UNL     1     -10.058   8.056  67.780  1.00  0.00    -0.183 N  
HETATM   25  C   UNL     1     -10.493   9.456  67.393  1.00  0.00    -0.278 C  
HETATM   26  C   UNL     1     -10.979   7.034  67.112  1.00  0.00    -0.323 C  
HETATM   27  C   UNL     1      -8.627   7.817  67.335  1.00  0.00    -0.125 C  
ENDBRANCH  23  24
ENDBRANCH  22  23
ENDBRANCH  21  22
ENDBRANCH  18  21
ENDBRANCH  17  18
ENDBRANCH  16  17
ENDBRANCH  15  16
ENDBRANCH  14  15
ENDBRANCH  13  14
ENDBRANCH  12  13
ENDBRANCH  11  12
ENDBRANCH  10  11
ENDBRANCH   9  10
ENDBRANCH   8   9
ENDBRANCH   7   8
ENDBRANCH   6   7
ENDBRANCH   5   6
ENDBRANCH   4   5
ENDBRANCH   3   4
ENDBRANCH   2   3
TORSDOF 20
ENDMDL
MODEL       26
REMARK 921   NORMALIZED FREE ENERGY PREDICTED BY IDOCK:   -4.60 KCAL/MOL
REMARK 922        TOTAL FREE ENERGY PREDICTED BY IDOCK:  -11.91 KCAL/MOL
REMARK 923 INTER-LIGAND FREE ENERGY PREDICTED BY IDOCK:  -10.11 KCAL/MOL
REMARK 924 INTRA-LIGAND FREE ENERGY PREDICTED BY IDOCK:   -1.80 KCAL/MOL
REMARK 927      BINDING AFFINITY PREDICTED BY RF-SCORE:    0.00 PKD
ROOT
HETATM    1  C   UNL     1     -11.351   6.448  69.432  1.00  0.00    -0.443 C  
HETATM    2  C   UNL     1     -10.979   6.707  70.882  1.00  0.00    -0.315 C  
ENDROOT
BRANCH   2   3
HETATM    3  C   UNL     1     -12.203   6.613  71.790  1.00  0.00    -0.400 C  
BRANCH   3   4
HETATM    4  C   UNL     1     -13.270   7.622  71.379  1.00  0.00    -0.337 C  
BRANCH   4   5
HETATM    5  C   UNL     1     -13.239   8.842  72.293  1.00  0.00    -0.498 C  
BRANCH   5   6
HETATM    6  C   UNL     1     -13.242  10.129  71.475  1.00  0.00    -0.496 C  
BRANCH   6   7
HETATM    7  C   UNL     1     -11.845  10.430  70.951  1.00  0.00    -0.475 C  
BRANCH   7   8
HETATM    8  C   UNL     1     -11.868  11.656  70.046  1.00  0.00    -0.435 C  
BRANCH   8   9
HETATM    9  C   UNL     1     -11.776  11.232  68.588  1.00  0.00    -0.391 C  
BRANCH   9  10
HETATM   10  C   UNL     1     -10.744  10.129  68.414  1.00  0.00    -0.266 C  
BRANCH  10  11
HETATM   11  C   UNL     1     -10.166  10.180  67.009  1.00  0.00    -0.290 C  
BRANCH  11  12
HETATM   12  C   UNL     1     -10.733  11.362  66.243  1.00  0.00    -0.322 C  
BRANCH  12  13
HETATM   13  C   UNL     1     -10.325  11.279  64.779  1.00  0.00    -0.366 C  
BRANCH  13  14
HETATM   14  C   UNL     1     -11.191  12.215  63.959  1.00  0.00    -0.458 C  
BRANCH  14  15
HETATM   15  C   UNL     1     -12.342  12.774  64.783  1.00  0.00    -0.540 C  
BRANCH  15  16
HETATM   16  C   UNL     1     -12.243  14.283  64.761  1.00  0.00    -0.443 C  
BRANCH  16  17
HETATM   17  O   UNL     1     -11.787  14.767  66.018  1.00  0.00    -0.311 OA 
BRANCH  17  18
HETATM   18  P   UNL     1     -10.510  15.923  65.859  1.00  0.00    -0.354 P  
HETATM   19  O   UNL     1     -11.142  16.400  64.548  1.00  0.00    -0.742 OA 
HETATM   20  O   UNL     1      -9.435  14.842  65.945  1.00  0.00    -0.307 OA 
BRANCH  18  21
HETATM   21  O   UNL     1      -9.232  17.079  65.702  1.00  0.00    -0.508 OA 
BRANCH  21  22
HETATM   22  C   UNL     1      -8.709  17.544  66.944  1.00  0.00    -0.251 C  
BRANCH  22  23
HETATM   23  C   UNL     1      -8.116  18.932  66.834  1.00  0.00    -0.265 C  
BRANCH  23  24
HETATM   24  N   UNL     1      -6.758  19.122  67.543  1.00  0.00    -0.199 N  
HETATM   25  C   UNL     1      -7.056  19.461  68.990  1.00  0.00    -0.362 C  
HETATM   26  C   UNL     1      -5.994  20.279  66.896  1.00  0.00    -0.175 C  
HETATM   27  C   UNL     1      -5.921  17.858  67.467  1.00  0.00    -0.155 C  
ENDBRANCH  23  24
ENDBRANCH  22  23
ENDBRANCH  21  22
ENDBRANCH  18  21
ENDBRANCH  17  18
ENDBRANCH  16  17
ENDBRANCH  15  16
ENDBRANCH  14  15
ENDBRANCH  13  14
ENDBRANCH  12  13
ENDBRANCH  11  12
ENDBRANCH  10  11
ENDBRANCH   9  10
ENDBRANCH   8   9
ENDBRANCH   7   8
ENDBRANCH   6   7
ENDBRANCH   5   6
ENDBRANCH   4   5
ENDBRANCH   3   4
ENDBRANCH   2   3
TORSDOF 20
ENDMDL
MODEL       27
REMARK 921   NORMALIZED FREE ENERGY PREDICTED BY IDOCK:   -4.59 KCAL/MOL
REMARK 922        TOTAL FREE ENERGY PREDICTED BY IDOCK:  -11.88 KCAL/MOL
REMARK 923 INTER-LIGAND FREE ENERGY PREDICTED BY IDOCK:   -9.57 KCAL/MOL
REMARK 924 INTRA-LIGAND FREE ENERGY PREDICTED BY IDOCK:   -2.32 KCAL/MOL
REMARK 927      BINDING AFFINITY PREDICTED BY RF-SCORE:    0.00 PKD
ROOT
HETATM    1  C   UNL     1     -10.697  19.705  66.883  1.00  0.00    -0.570 C  
HETATM    2  C   UNL     1      -9.525  19.471  67.820  1.00  0.00    -0.423 C  
ENDROOT
BRANCH   2   3
HETATM    3  C   UNL     1      -9.559  18.061  68.404  1.00  0.00    -0.338 C  
BRANCH   3   4
HETATM    4  C   UNL     1      -9.009  17.043  67.410  1.00  0.00    -0.216 C  
BRANCH   4   5
HETATM    5  C   UNL     1      -9.584  15.658  67.681  1.00  0.00    -0.220 C  
BRANCH   5   6
HETATM    6  C   UNL     1     -10.906  15.469  66.946  1.00  0.00    -0.301 C  
BRANCH   6   7
HETATM    7  C   UNL     1     -10.714  15.663  65.447  1.00  0.00    -0.424 C  
BRANCH   7   8
HETATM    8  C   UNL     1     -11.849  15.002  64.675  1.00  0.00    -0.378 C  
BRANCH   8   9
HETATM    9  C   UNL     1     -12.541  13.966  65.547  1.00  0.00    -0.560 C  
BRANCH   9  10
HETATM   10  C   UNL     1     -12.535  12.605  64.870  1.00  0.00    -0.564 C  
BRANCH  10  11
HETATM   11  C   UNL     1     -11.841  12.703  63.520  1.00  0.00    -0.619 C  
BRANCH  11  12
HETATM   12  C   UNL     1     -10.531  11.934  63.539  1.00  0.00    -0.505 C  
BRANCH  12  13
HETATM   13  C   UNL     1     -10.509  10.969  64.716  1.00  0.00    -0.384 C  
BRANCH  13  14
HETATM   14  C   UNL     1      -9.175  11.070  65.428  1.00  0.00    -0.232 C  
BRANCH  14  15
HETATM   15  C   UNL     1      -9.219  12.100  66.547  1.00  0.00    -0.216 C  
BRANCH  15  16
HETATM   16  C   UNL     1      -9.969  11.493  67.712  1.00  0.00    -0.183 C  
BRANCH  16  17
HETATM   17  O   UNL     1     -10.746  12.485  68.371  1.00  0.00    -0.225 OA 
BRANCH  17  18
HETATM   18  P   UNL     1     -11.690  11.836  69.667  1.00  0.00    -0.313 P  
HETATM   19  O   UNL     1     -12.453  10.983  68.647  1.00  0.00    -0.462 OA 
HETATM   20  O   UNL     1     -12.136  13.223  70.123  1.00  0.00    -0.336 OA 
BRANCH  18  21
HETATM   21  O   UNL     1     -12.633  11.186  70.963  1.00  0.00    -0.365 OA 
BRANCH  21  22
HETATM   22  C   UNL     1     -12.696   9.762  70.984  1.00  0.00    -0.304 C  
BRANCH  22  23
HETATM   23  C   UNL     1     -11.505   9.145  71.683  1.00  0.00    -0.381 C  
BRANCH  23  24
HETATM   24  N   UNL     1     -11.220   7.672  71.316  1.00  0.00    -0.250 N  
HETATM   25  C   UNL     1     -12.477   6.885  71.630  1.00  0.00    -0.375 C  
HETATM   26  C   UNL     1     -10.062   7.142  72.163  1.00  0.00    -0.180 C  
HETATM   27  C   UNL     1     -10.876   7.535  69.844  1.00  0.00    -0.240 C  
ENDBRANCH  23  24
ENDBRANCH  22  23
ENDBRANCH  21  22
ENDBRANCH  18  21
ENDBRANCH  17  18
ENDBRANCH  16  17
ENDBRANCH  15  16
ENDBRANCH  14  15
ENDBRANCH  13  14
ENDBRANCH  12  13
ENDBRANCH  11  12
ENDBRANCH  10  11
ENDBRANCH   9  10
ENDBRANCH   8   9
ENDBRANCH   7   8
ENDBRANCH   6   7
ENDBRANCH   5   6
ENDBRANCH   4   5
ENDBRANCH   3   4
ENDBRANCH   2   3
TORSDOF 20
ENDMDL
MODEL       28
REMARK 921   NORMALIZED FREE ENERGY PREDICTED BY IDOCK:   -4.58 KCAL/MOL
REMARK 922        TOTAL FREE ENERGY PREDICTED BY IDOCK:  -11.86 KCAL/MOL
REMARK 923 INTER-LIGAND FREE ENERGY PREDICTED BY IDOCK:  -10.44 KCAL/MOL
REMARK 924 INTRA-LIGAND FREE ENERGY PREDICTED BY IDOCK:   -1.42 KCAL/MOL
REMARK 927      BINDING AFFINITY PREDICTED BY RF-SCORE:    0.00 PKD
ROOT
HETATM    1  C   UNL     1      -8.727   7.718  73.560  1.00  0.00    -0.296 C  
HETATM    2  C   UNL     1     -10.209   7.443  73.376  1.00  0.00    -0.402 C  
ENDROOT
BRANCH   2   3
HETATM    3  C   UNL     1     -10.436   6.157  72.585  1.00  0.00    -0.233 C  
BRANCH   3   4
HETATM    4  C   UNL     1     -11.920   5.935  72.313  1.00  0.00    -0.211 C  
BRANCH   4   5
HETATM    5  C   UNL     1     -12.426   6.904  71.250  1.00  0.00    -0.409 C  
BRANCH   5   6
HETATM    6  C   UNL     1     -13.894   7.241  71.482  1.00  0.00    -0.463 C  
BRANCH   6   7
HETATM    7  C   UNL     1     -14.037   8.657  72.024  1.00  0.00    -0.523 C  
BRANCH   7   8
HETATM    8  C   UNL     1     -12.814   9.491  71.666  1.00  0.00    -0.483 C  
BRANCH   8   9
HETATM    9  C   UNL     1     -13.136  10.973  71.788  1.00  0.00    -0.554 C  
BRANCH   9  10
HETATM   10  C   UNL     1     -12.383  11.774  70.738  1.00  0.00    -0.433 C  
BRANCH  10  11
HETATM   11  C   UNL     1     -12.039  10.881  69.556  1.00  0.00    -0.380 C  
BRANCH  11  12
HETATM   12  C   UNL     1     -11.850  11.711  68.299  1.00  0.00    -0.335 C  
BRANCH  12  13
HETATM   13  C   UNL     1     -10.724  11.131  67.454  1.00  0.00    -0.294 C  
BRANCH  13  14
HETATM   14  C   UNL     1     -10.646  11.874  66.136  1.00  0.00    -0.295 C  
BRANCH  14  15
HETATM   15  C   UNL     1     -12.031  12.139  65.564  1.00  0.00    -0.290 C  
BRANCH  15  16
HETATM   16  C   UNL     1     -11.889  13.141  64.440  1.00  0.00    -0.388 C  
BRANCH  16  17
HETATM   17  O   UNL     1     -12.195  14.450  64.903  1.00  0.00    -0.413 OA 
BRANCH  17  18
HETATM   18  P   UNL     1     -10.781  15.422  65.128  1.00  0.00    -0.405 P  
HETATM   19  O   UNL     1     -10.982  15.313  66.643  1.00  0.00    -0.313 OA 
HETATM   20  O   UNL     1     -11.344  16.553  64.271  1.00  0.00    -1.020 OA 
BRANCH  18  21
HETATM   21  O   UNL     1      -9.366  16.392  65.352  1.00  0.00    -0.369 OA 
BRANCH  21  22
HETATM   22  C   UNL     1      -9.107  16.742  66.709  1.00  0.00    -0.241 C  
BRANCH  22  23
HETATM   23  C   UNL     1      -8.480  18.113  66.839  1.00  0.00    -0.253 C  
BRANCH  23  24
HETATM   24  N   UNL     1      -9.096  19.016  67.930  1.00  0.00    -0.292 N  
HETATM   25  C   UNL     1      -7.967  19.431  68.852  1.00  0.00    -0.325 C  
HETATM   26  C   UNL     1     -10.140  18.229  68.724  1.00  0.00    -0.370 C  
HETATM   27  C   UNL     1      -9.744  20.244  67.318  1.00  0.00    -0.450 C  
ENDBRANCH  23  24
ENDBRANCH  22  23
ENDBRANCH  21  22
ENDBRANCH  18  21
ENDBRANCH  17  18
ENDBRANCH  16  17
ENDBRANCH  15  16
ENDBRANCH  14  15
ENDBRANCH  13  14
ENDBRANCH  12  13
ENDBRANCH  11  12
ENDBRANCH  10  11
ENDBRANCH   9  10
ENDBRANCH   8   9
ENDBRANCH   7   8
ENDBRANCH   6   7
ENDBRANCH   5   6
ENDBRANCH   4   5
ENDBRANCH   3   4
ENDBRANCH   2   3
TORSDOF 20
ENDMDL
MODEL       29
REMARK 921   NORMALIZED FREE ENERGY PREDICTED BY IDOCK:   -4.58 KCAL/MOL
REMARK 922        TOTAL FREE ENERGY PREDICTED BY IDOCK:  -11.85 KCAL/MOL
REMARK 923 INTER-LIGAND FREE ENERGY PREDICTED BY IDOCK:   -9.65 KCAL/MOL
REMARK 924 INTRA-LIGAND FREE ENERGY PREDICTED BY IDOCK:   -2.20 KCAL/MOL
REMARK 927      BINDING AFFINITY PREDICTED BY RF-SCORE:    0.00 PKD
ROOT
HETATM    1  C   UNL     1     -13.147  10.898  71.647  1.00  0.00    -0.538 C  
HETATM    2  C   UNL     1     -13.662   9.521  72.029  1.00  0.00    -0.435 C  
ENDROOT
BRANCH   2   3
HETATM    3  C   UNL     1     -12.522   8.508  72.101  1.00  0.00    -0.437 C  
BRANCH   3   4
HETATM    4  C   UNL     1     -11.195   9.146  71.706  1.00  0.00    -0.451 C  
BRANCH   4   5
HETATM    5  C   UNL     1     -10.023   8.286  72.166  1.00  0.00    -0.343 C  
BRANCH   5   6
HETATM    6  C   UNL     1     -10.490   7.220  73.151  1.00  0.00    -0.385 C  
BRANCH   6   7
HETATM    7  C   UNL     1      -9.999   5.845  72.721  1.00  0.00    -0.197 C  
BRANCH   7   8
HETATM    8  C   UNL     1     -10.604   5.458  71.378  1.00  0.00    -0.282 C  
BRANCH   8   9
HETATM    9  C   UNL     1      -9.512   5.004  70.422  1.00  0.00    -0.233 C  
BRANCH   9  10
HETATM   10  C   UNL     1      -9.985   5.103  68.981  1.00  0.00    -0.265 C  
BRANCH  10  11
HETATM   11  C   UNL     1     -10.785   6.381  68.787  1.00  0.00    -0.339 C  
BRANCH  11  12
HETATM   12  C   UNL     1     -10.943   6.691  67.308  1.00  0.00    -0.456 C  
BRANCH  12  13
HETATM   13  C   UNL     1     -10.464   8.106  67.018  1.00  0.00    -0.396 C  
BRANCH  13  14
HETATM   14  C   UNL     1     -10.300   8.862  68.321  1.00  0.00    -0.250 C  
BRANCH  14  15
HETATM   15  C   UNL     1     -11.068  10.176  68.302  1.00  0.00    -0.285 C  
BRANCH  15  16
HETATM   16  C   UNL     1     -10.984  10.746  66.904  1.00  0.00    -0.190 C  
BRANCH  16  17
HETATM   17  O   UNL     1     -12.012  11.708  66.699  1.00  0.00    -0.503 OA 
BRANCH  17  18
HETATM   18  P   UNL     1     -11.584  12.895  65.515  1.00  0.00    -0.403 P  
HETATM   19  O   UNL     1     -12.914  12.623  64.803  1.00  0.00    -0.816 OA 
HETATM   20  O   UNL     1     -10.275  12.183  65.181  1.00  0.00    -0.268 OA 
BRANCH  18  21
HETATM   21  O   UNL     1     -11.157  14.083  64.333  1.00  0.00    -0.365 OA 
BRANCH  21  22
HETATM   22  C   UNL     1     -10.683  15.310  64.882  1.00  0.00    -0.400 C  
BRANCH  22  23
HETATM   23  C   UNL     1     -11.025  15.452  66.349  1.00  0.00    -0.277 C  
BRANCH  23  24
HETATM   24  N   UNL     1      -9.993  16.234  67.190  1.00  0.00    -0.251 N  
HETATM   25  C   UNL     1      -8.726  16.327  66.363  1.00  0.00    -0.319 C  
HETATM   26  C   UNL     1      -9.701  15.478  68.488  1.00  0.00    -0.203 C  
HETATM   27  C   UNL     1     -10.500  17.626  67.519  1.00  0.00    -0.365 C  
ENDBRANCH  23  24
ENDBRANCH  22  23
ENDBRANCH  21  22
ENDBRANCH  18  21
ENDBRANCH  17  18
ENDBRANCH  16  17
ENDBRANCH  15  16
ENDBRANCH  14  15
ENDBRANCH  13  14
ENDBRANCH  12  13
ENDBRANCH  11  12
ENDBRANCH  10  11
ENDBRANCH   9  10
ENDBRANCH   8   9
ENDBRANCH   7   8
ENDBRANCH   6   7
ENDBRANCH   5   6
ENDBRANCH   4   5
ENDBRANCH   3   4
ENDBRANCH   2   3
TORSDOF 20
ENDMDL
MODEL       30
REMARK 921   NORMALIZED FREE ENERGY PREDICTED BY IDOCK:   -4.57 KCAL/MOL
REMARK 922        TOTAL FREE ENERGY PREDICTED BY IDOCK:  -11.84 KCAL/MOL
REMARK 923 INTER-LIGAND FREE ENERGY PREDICTED BY IDOCK:   -9.75 KCAL/MOL
REMARK 924 INTRA-LIGAND FREE ENERGY PREDICTED BY IDOCK:   -2.09 KCAL/MOL
REMARK 927      BINDING AFFINITY PREDICTED BY RF-SCORE:    0.00 PKD
ROOT
HETATM    1  C   UNL     1     -12.576  16.074  74.373  1.00  0.00    -0.642 C  
HETATM    2  C   UNL     1     -12.833  14.986  73.344  1.00  0.00    -0.652 C  
ENDROOT
BRANCH   2   3
HETATM    3  C   UNL     1     -13.946  15.389  72.381  1.00  0.00    -0.657 C  
BRANCH   3   4
HETATM    4  C   UNL     1     -13.539  15.135  70.934  1.00  0.00    -0.397 C  
BRANCH   4   5
HETATM    5  C   UNL     1     -12.081  14.694  70.853  1.00  0.00    -0.393 C  
BRANCH   5   6
HETATM    6  C   UNL     1     -11.960  13.365  70.116  1.00  0.00    -0.396 C  
BRANCH   6   7
HETATM    7  C   UNL     1     -12.590  12.244  70.931  1.00  0.00    -0.334 C  
BRANCH   7   8
HETATM    8  C   UNL     1     -12.054  10.891  70.480  1.00  0.00    -0.464 C  
BRANCH   8   9
HETATM    9  C   UNL     1     -12.821   9.770  71.163  1.00  0.00    -0.434 C  
BRANCH   9  10
HETATM   10  C   UNL     1     -11.895   8.942  72.040  1.00  0.00    -0.438 C  
BRANCH  10  11
HETATM   11  C   UNL     1     -10.476   9.010  71.499  1.00  0.00    -0.410 C  
BRANCH  11  12
HETATM   12  C   UNL     1      -9.990   7.627  71.103  1.00  0.00    -0.188 C  
BRANCH  12  13
HETATM   13  C   UNL     1     -10.367   7.335  69.658  1.00  0.00    -0.227 C  
BRANCH  13  14
HETATM   14  C   UNL     1      -9.706   8.349  68.747  1.00  0.00    -0.168 C  
BRANCH  14  15
HETATM   15  C   UNL     1     -10.617   8.736  67.591  1.00  0.00    -0.281 C  
BRANCH  15  16
HETATM   16  C   UNL     1      -9.948   9.853  66.822  1.00  0.00    -0.214 C  
BRANCH  16  17
HETATM   17  O   UNL     1     -10.325  11.116  67.357  1.00  0.00    -0.184 OA 
BRANCH  17  18
HETATM   18  P   UNL     1     -10.634  12.293  66.127  1.00  0.00    -0.269 P  
HETATM   19  O   UNL     1     -12.131  12.177  66.432  1.00  0.00    -0.630 OA 
HETATM   20  O   UNL     1      -9.912  11.466  65.066  1.00  0.00    -0.242 OA 
BRANCH  18  21
HETATM   21  O   UNL     1     -10.942  13.470  64.897  1.00  0.00    -0.317 OA 
BRANCH  21  22
HETATM   22  C   UNL     1     -10.258  14.706  65.087  1.00  0.00    -0.382 C  
BRANCH  22  23
HETATM   23  C   UNL     1     -10.775  15.471  66.286  1.00  0.00    -0.307 C  
BRANCH  23  24
HETATM   24  N   UNL     1      -9.729  16.353  67.001  1.00  0.00    -0.242 N  
HETATM   25  C   UNL     1      -8.436  16.231  66.220  1.00  0.00    -0.334 C  
HETATM   26  C   UNL     1      -9.513  15.847  68.428  1.00  0.00    -0.201 C  
HETATM   27  C   UNL     1     -10.176  17.803  67.041  1.00  0.00    -0.346 C  
ENDBRANCH  23  24
ENDBRANCH  22  23
ENDBRANCH  21  22
ENDBRANCH  18  21
ENDBRANCH  17  18
ENDBRANCH  16  17
ENDBRANCH  15  16
ENDBRANCH  14  15
ENDBRANCH  13  14
ENDBRANCH  12  13
ENDBRANCH  11  12
ENDBRANCH  10  11
ENDBRANCH   9  10
ENDBRANCH   8   9
ENDBRANCH   7   8
ENDBRANCH   6   7
ENDBRANCH   5   6
ENDBRANCH   4   5
ENDBRANCH   3   4
ENDBRANCH   2   3
TORSDOF 20
ENDMDL
MODEL       31
REMARK 921   NORMALIZED FREE ENERGY PREDICTED BY IDOCK:   -4.57 KCAL/MOL
REMARK 922        TOTAL FREE ENERGY PREDICTED BY IDOCK:  -11.84 KCAL/MOL
REMARK 923 INTER-LIGAND FREE ENERGY PREDICTED BY IDOCK:   -9.19 KCAL/MOL
REMARK 924 INTRA-LIGAND FREE ENERGY PREDICTED BY IDOCK:   -2.65 KCAL/MOL
REMARK 927      BINDING AFFINITY PREDICTED BY RF-SCORE:    0.00 PKD
ROOT
HETATM    1  C   UNL     1     -10.940   6.522  67.080  1.00  0.00    -0.480 C  
HETATM    2  C   UNL     1     -10.770   7.084  68.481  1.00  0.00    -0.219 C  
ENDROOT
BRANCH   2   3
HETATM    3  C   UNL     1     -11.022   6.012  69.539  1.00  0.00    -0.467 C  
BRANCH   3   4
HETATM    4  C   UNL     1      -9.710   5.424  70.047  1.00  0.00    -0.248 C  
BRANCH   4   5
HETATM    5  C   UNL     1      -9.934   4.638  71.335  1.00  0.00    -0.267 C  
BRANCH   5   6
HETATM    6  C   UNL     1     -11.099   5.219  72.126  1.00  0.00    -0.187 C  
BRANCH   6   7
HETATM    7  C   UNL     1     -10.758   5.283  73.609  1.00  0.00    -0.343 C  
BRANCH   7   8
HETATM    8  C   UNL     1      -9.549   6.180  73.839  1.00  0.00    -0.176 C  
BRANCH   8   9
HETATM    9  C   UNL     1      -9.906   7.628  73.541  1.00  0.00    -0.357 C  
BRANCH   9  10
HETATM   10  C   UNL     1      -8.982   8.200  72.478  1.00  0.00    -0.286 C  
BRANCH  10  11
HETATM   11  C   UNL     1      -9.799   8.926  71.421  1.00  0.00    -0.376 C  
BRANCH  11  12
HETATM   12  C   UNL     1     -11.248   9.049  71.859  1.00  0.00    -0.438 C  
BRANCH  12  13
HETATM   13  C   UNL     1     -12.094   9.595  70.718  1.00  0.00    -0.328 C  
BRANCH  13  14
HETATM   14  C   UNL     1     -11.418  10.814  70.125  1.00  0.00    -0.415 C  
BRANCH  14  15
HETATM   15  C   UNL     1     -11.387  10.749  68.604  1.00  0.00    -0.356 C  
BRANCH  15  16
HETATM   16  C   UNL     1     -11.700  12.129  68.071  1.00  0.00    -0.344 C  
BRANCH  16  17
HETATM   17  O   UNL     1     -12.116  12.051  66.713  1.00  0.00    -0.613 OA 
BRANCH  17  18
HETATM   18  P   UNL     1     -11.428  13.301  65.735  1.00  0.00    -0.352 P  
HETATM   19  O   UNL     1     -12.634  14.187  66.068  1.00  0.00    -0.478 OA 
HETATM   20  O   UNL     1     -11.350  12.390  64.512  1.00  0.00    -0.304 OA 
BRANCH  18  21
HETATM   21  O   UNL     1     -10.739  14.552  64.758  1.00  0.00    -0.413 OA 
BRANCH  21  22
HETATM   22  C   UNL     1     -10.654  15.819  65.405  1.00  0.00    -0.421 C  
BRANCH  22  23
HETATM   23  C   UNL     1      -9.337  16.010  66.123  1.00  0.00    -0.342 C  
BRANCH  23  24
HETATM   24  N   UNL     1      -9.449  16.257  67.644  1.00  0.00    -0.220 N  
HETATM   25  C   UNL     1      -9.014  14.979  68.334  1.00  0.00    -0.179 C  
HETATM   26  C   UNL     1     -10.901  16.567  68.013  1.00  0.00    -0.337 C  
HETATM   27  C   UNL     1      -8.559  17.408  68.076  1.00  0.00    -0.240 C  
ENDBRANCH  23  24
ENDBRANCH  22  23
ENDBRANCH  21  22
ENDBRANCH  18  21
ENDBRANCH  17  18
ENDBRANCH  16  17
ENDBRANCH  15  16
ENDBRANCH  14  15
ENDBRANCH  13  14
ENDBRANCH  12  13
ENDBRANCH  11  12
ENDBRANCH  10  11
ENDBRANCH   9  10
ENDBRANCH   8   9
ENDBRANCH   7   8
ENDBRANCH   6   7
ENDBRANCH   5   6
ENDBRANCH   4   5
ENDBRANCH   3   4
ENDBRANCH   2   3
TORSDOF 20
ENDMDL
MODEL       32
REMARK 921   NORMALIZED FREE ENERGY PREDICTED BY IDOCK:   -4.57 KCAL/MOL
REMARK 922        TOTAL FREE ENERGY PREDICTED BY IDOCK:  -11.83 KCAL/MOL
REMARK 923 INTER-LIGAND FREE ENERGY PREDICTED BY IDOCK:   -9.85 KCAL/MOL
REMARK 924 INTRA-LIGAND FREE ENERGY PREDICTED BY IDOCK:   -1.99 KCAL/MOL
REMARK 927      BINDING AFFINITY PREDICTED BY RF-SCORE:    0.00 PKD
ROOT
HETATM    1  C   UNL     1     -12.167  11.974  63.419  1.00  0.00    -0.627 C  
HETATM    2  C   UNL     1     -10.739  12.111  63.919  1.00  0.00    -0.456 C  
ENDROOT
BRANCH   2   3
HETATM    3  C   UNL     1     -10.183  10.764  64.376  1.00  0.00    -0.432 C  
BRANCH   3   4
HETATM    4  C   UNL     1     -10.333  10.593  65.884  1.00  0.00    -0.291 C  
BRANCH   4   5
HETATM    5  C   UNL     1      -9.660   9.307  66.351  1.00  0.00    -0.301 C  
BRANCH   5   6
HETATM    6  C   UNL     1     -10.602   8.495  67.232  1.00  0.00    -0.315 C  
BRANCH   6   7
HETATM    7  C   UNL     1     -10.520   7.016  66.879  1.00  0.00    -0.356 C  
BRANCH   7   8
HETATM    8  C   UNL     1     -10.905   6.160  68.079  1.00  0.00    -0.398 C  
BRANCH   8   9
HETATM    9  C   UNL     1     -10.249   6.700  69.340  1.00  0.00    -0.207 C  
BRANCH   9  10
HETATM   10  C   UNL     1     -10.962   6.183  70.579  1.00  0.00    -0.384 C  
BRANCH  10  11
HETATM   11  C   UNL     1     -12.051   7.161  70.993  1.00  0.00    -0.391 C  
BRANCH  11  12
HETATM   12  C   UNL     1     -11.440   8.417  71.589  1.00  0.00    -0.349 C  
BRANCH  12  13
HETATM   13  C   UNL     1     -12.191   9.646  71.099  1.00  0.00    -0.437 C  
BRANCH  13  14
HETATM   14  C   UNL     1     -11.244  10.546  70.332  1.00  0.00    -0.378 C  
BRANCH  14  15
HETATM   15  C   UNL     1     -11.974  11.326  69.248  1.00  0.00    -0.411 C  
BRANCH  15  16
HETATM   16  C   UNL     1     -11.161  12.563  68.935  1.00  0.00    -0.281 C  
BRANCH  16  17
HETATM   17  O   UNL     1     -12.019  13.644  68.589  1.00  0.00    -0.350 OA 
BRANCH  17  18
HETATM   18  P   UNL     1     -11.482  14.493  67.181  1.00  0.00    -0.375 P  
HETATM   19  O   UNL     1     -12.614  13.833  66.386  1.00  0.00    -0.389 OA 
HETATM   20  O   UNL     1     -10.071  13.918  67.294  1.00  0.00    -0.238 OA 
BRANCH  18  21
HETATM   21  O   UNL     1     -10.945  15.342  65.773  1.00  0.00    -0.330 OA 
BRANCH  21  22
HETATM   22  C   UNL     1      -9.968  16.347  66.033  1.00  0.00    -0.345 C  
BRANCH  22  23
HETATM   23  C   UNL     1     -10.402  17.301  67.124  1.00  0.00    -0.321 C  
BRANCH  23  24
HETATM   24  N   UNL     1      -9.781  18.712  67.046  1.00  0.00    -0.298 N  
HETATM   25  C   UNL     1      -9.739  19.258  68.460  1.00  0.00    -0.414 C  
HETATM   26  C   UNL     1     -10.656  19.617  66.177  1.00  0.00    -0.483 C  
HETATM   27  C   UNL     1      -8.378  18.659  66.469  1.00  0.00    -0.291 C  
ENDBRANCH  23  24
ENDBRANCH  22  23
ENDBRANCH  21  22
ENDBRANCH  18  21
ENDBRANCH  17  18
ENDBRANCH  16  17
ENDBRANCH  15  16
ENDBRANCH  14  15
ENDBRANCH  13  14
ENDBRANCH  12  13
ENDBRANCH  11  12
ENDBRANCH  10  11
ENDBRANCH   9  10
ENDBRANCH   8   9
ENDBRANCH   7   8
ENDBRANCH   6   7
ENDBRANCH   5   6
ENDBRANCH   4   5
ENDBRANCH   3   4
ENDBRANCH   2   3
TORSDOF 20
ENDMDL
MODEL       33
REMARK 921   NORMALIZED FREE ENERGY PREDICTED BY IDOCK:   -4.57 KCAL/MOL
REMARK 922        TOTAL FREE ENERGY PREDICTED BY IDOCK:  -11.83 KCAL/MOL
REMARK 923 INTER-LIGAND FREE ENERGY PREDICTED BY IDOCK:   -8.98 KCAL/MOL
REMARK 924 INTRA-LIGAND FREE ENERGY PREDICTED BY IDOCK:   -2.86 KCAL/MOL
REMARK 927      BINDING AFFINITY PREDICTED BY RF-SCORE:    0.00 PKD
ROOT
HETATM    1  C   UNL     1     -10.147   5.130  69.474  1.00  0.00    -0.316 C  
HETATM    2  C   UNL     1     -11.179   6.245  69.480  1.00  0.00    -0.500 C  
ENDROOT
BRANCH   2   3
HETATM    3  C   UNL     1     -10.598   7.536  68.908  1.00  0.00    -0.184 C  
BRANCH   3   4
HETATM    4  C   UNL     1      -9.073   7.504  68.922  1.00  0.00    -0.140 C  
BRANCH   4   5
HETATM    5  C   UNL     1      -8.520   8.566  69.866  1.00  0.00    -0.125 C  
BRANCH   5   6
HETATM    6  C   UNL     1      -7.981   7.926  71.140  1.00  0.00    -0.091 C  
BRANCH   6   7
HETATM    7  C   UNL     1      -8.826   8.332  72.340  1.00  0.00    -0.286 C  
BRANCH   7   8
HETATM    8  C   UNL     1      -9.582   7.129  72.889  1.00  0.00    -0.188 C  
BRANCH   8   9
HETATM    9  C   UNL     1     -11.077   7.412  72.903  1.00  0.00    -0.397 C  
BRANCH   9  10
HETATM   10  C   UNL     1     -11.370   8.777  72.301  1.00  0.00    -0.356 C  
BRANCH  10  11
HETATM   11  C   UNL     1     -12.863   8.920  72.050  1.00  0.00    -0.456 C  
BRANCH  11  12
HETATM   12  C   UNL     1     -13.137  10.091  71.122  1.00  0.00    -0.472 C  
BRANCH  12  13
HETATM   13  C   UNL     1     -11.826  10.649  70.585  1.00  0.00    -0.463 C  
BRANCH  13  14
HETATM   14  C   UNL     1     -12.034  11.161  69.174  1.00  0.00    -0.413 C  
BRANCH  14  15
HETATM   15  C   UNL     1     -10.730  11.176  68.391  1.00  0.00    -0.234 C  
BRANCH  15  16
HETATM   16  C   UNL     1     -11.063  11.397  66.932  1.00  0.00    -0.295 C  
BRANCH  16  17
HETATM   17  O   UNL     1     -12.180  12.269  66.807  1.00  0.00    -0.558 OA 
BRANCH  17  18
HETATM   18  P   UNL     1     -11.730  13.853  66.277  1.00  0.00    -0.425 P  
HETATM   19  O   UNL     1     -12.936  13.850  65.333  1.00  0.00    -0.722 OA 
HETATM   20  O   UNL     1     -10.331  13.391  65.877  1.00  0.00    -0.279 OA 
BRANCH  18  21
HETATM   21  O   UNL     1     -11.279  15.438  65.749  1.00  0.00    -0.298 OA 
BRANCH  21  22
HETATM   22  C   UNL     1     -10.116  15.958  66.388  1.00  0.00    -0.292 C  
BRANCH  22  23
HETATM   23  C   UNL     1     -10.368  17.304  67.031  1.00  0.00    -0.318 C  
BRANCH  23  24
HETATM   24  N   UNL     1      -9.143  17.938  67.725  1.00  0.00    -0.255 N  
HETATM   25  C   UNL     1      -8.569  16.890  68.658  1.00  0.00    -0.267 C  
HETATM   26  C   UNL     1      -9.581  19.158  68.538  1.00  0.00    -0.395 C  
HETATM   27  C   UNL     1      -8.096  18.357  66.709  1.00  0.00    -0.251 C  
ENDBRANCH  23  24
ENDBRANCH  22  23
ENDBRANCH  21  22
ENDBRANCH  18  21
ENDBRANCH  17  18
ENDBRANCH  16  17
ENDBRANCH  15  16
ENDBRANCH  14  15
ENDBRANCH  13  14
ENDBRANCH  12  13
ENDBRANCH  11  12
ENDBRANCH  10  11
ENDBRANCH   9  10
ENDBRANCH   8   9
ENDBRANCH   7   8
ENDBRANCH   6   7
ENDBRANCH   5   6
ENDBRANCH   4   5
ENDBRANCH   3   4
ENDBRANCH   2   3
TORSDOF 20
ENDMDL
MODEL       34
REMARK 921   NORMALIZED FREE ENERGY PREDICTED BY IDOCK:   -4.55 KCAL/MOL
REMARK 922        TOTAL FREE ENERGY PREDICTED BY IDOCK:  -11.80 KCAL/MOL
REMARK 923 INTER-LIGAND FREE ENERGY PREDICTED BY IDOCK:  -10.29 KCAL/MOL
REMARK 924 INTRA-LIGAND FREE ENERGY PREDICTED BY IDOCK:   -1.51 KCAL/MOL
REMARK 927      BINDING AFFINITY PREDICTED BY RF-SCORE:    0.00 PKD
ROOT
HETATM    1  C   UNL     1      -9.461   3.155  70.300  1.00  0.00    -0.224 C  
HETATM    2  C   UNL     1      -9.653   4.653  70.467  1.00  0.00    -0.268 C  
ENDROOT
BRANCH   2   3
HETATM    3  C   UNL     1     -10.437   5.242  69.297  1.00  0.00    -0.255 C  
BRANCH   3   4
HETATM    4  C   UNL     1     -11.353   6.369  69.762  1.00  0.00    -0.494 C  
BRANCH   4   5
HETATM    5  C   UNL     1     -11.289   6.525  71.278  1.00  0.00    -0.355 C  
BRANCH   5   6
HETATM    6  C   UNL     1     -12.443   7.385  71.780  1.00  0.00    -0.367 C  
BRANCH   6   7
HETATM    7  C   UNL     1     -11.979   8.816  72.018  1.00  0.00    -0.446 C  
BRANCH   7   8
HETATM    8  C   UNL     1     -13.165   9.772  71.989  1.00  0.00    -0.557 C  
BRANCH   8   9
HETATM    9  C   UNL     1     -12.829  10.998  71.154  1.00  0.00    -0.491 C  
BRANCH   9  10
HETATM   10  C   UNL     1     -11.578  10.755  70.324  1.00  0.00    -0.427 C  
BRANCH  10  11
HETATM   11  C   UNL     1     -11.799  11.250  68.903  1.00  0.00    -0.413 C  
BRANCH  11  12
HETATM   12  C   UNL     1     -10.759  10.658  67.967  1.00  0.00    -0.275 C  
BRANCH  12  13
HETATM   13  C   UNL     1     -10.745  11.424  66.652  1.00  0.00    -0.316 C  
BRANCH  13  14
HETATM   14  C   UNL     1     -11.850  12.461  66.658  1.00  0.00    -0.394 C  
BRANCH  14  15
HETATM   15  C   UNL     1     -12.372  12.725  65.253  1.00  0.00    -0.546 C  
BRANCH  15  16
HETATM   16  C   UNL     1     -12.080  14.169  64.910  1.00  0.00    -0.428 C  
BRANCH  16  17
HETATM   17  O   UNL     1     -11.673  14.881  66.072  1.00  0.00    -0.295 OA 
BRANCH  17  18
HETATM   18  P   UNL     1     -10.306  15.900  65.781  1.00  0.00    -0.398 P  
HETATM   19  O   UNL     1     -11.027  16.469  64.554  1.00  0.00    -0.827 OA 
HETATM   20  O   UNL     1      -9.349  14.711  65.733  1.00  0.00    -0.215 OA 
BRANCH  18  21
HETATM   21  O   UNL     1      -8.939  16.920  65.491  1.00  0.00    -0.384 OA 
BRANCH  21  22
HETATM   22  C   UNL     1      -8.238  17.306  66.669  1.00  0.00    -0.261 C  
BRANCH  22  23
HETATM   23  C   UNL     1      -9.174  17.694  67.793  1.00  0.00    -0.251 C  
BRANCH  23  24
HETATM   24  N   UNL     1      -9.490  19.202  67.892  1.00  0.00    -0.310 N  
HETATM   25  C   UNL     1      -9.912  19.474  69.323  1.00  0.00    -0.272 C  
HETATM   26  C   UNL     1     -10.640  19.553  66.947  1.00  0.00    -0.490 C  
HETATM   27  C   UNL     1      -8.273  20.039  67.542  1.00  0.00    -0.329 C  
ENDBRANCH  23  24
ENDBRANCH  22  23
ENDBRANCH  21  22
ENDBRANCH  18  21
ENDBRANCH  17  18
ENDBRANCH  16  17
ENDBRANCH  15  16
ENDBRANCH  14  15
ENDBRANCH  13  14
ENDBRANCH  12  13
ENDBRANCH  11  12
ENDBRANCH  10  11
ENDBRANCH   9  10
ENDBRANCH   8   9
ENDBRANCH   7   8
ENDBRANCH   6   7
ENDBRANCH   5   6
ENDBRANCH   4   5
ENDBRANCH   3   4
ENDBRANCH   2   3
TORSDOF 20
ENDMDL
MODEL       35
REMARK 921   NORMALIZED FREE ENERGY PREDICTED BY IDOCK:   -4.54 KCAL/MOL
REMARK 922        TOTAL FREE ENERGY PREDICTED BY IDOCK:  -11.77 KCAL/MOL
REMARK 923 INTER-LIGAND FREE ENERGY PREDICTED BY IDOCK:   -8.81 KCAL/MOL
REMARK 924 INTRA-LIGAND FREE ENERGY PREDICTED BY IDOCK:   -2.96 KCAL/MOL
REMARK 927      BINDING AFFINITY PREDICTED BY RF-SCORE:    0.00 PKD
ROOT
HETATM    1  C   UNL     1     -10.258   5.308  68.985  1.00  0.00    -0.269 C  
HETATM    2  C   UNL     1     -10.931   6.633  68.670  1.00  0.00    -0.317 C  
ENDROOT
BRANCH   2   3
HETATM    3  C   UNL     1      -9.917   7.773  68.639  1.00  0.00    -0.191 C  
BRANCH   3   4
HETATM    4  C   UNL     1     -10.575   9.103  68.989  1.00  0.00    -0.219 C  
BRANCH   4   5
HETATM    5  C   UNL     1      -9.814   9.804  70.109  1.00  0.00    -0.306 C  
BRANCH   5   6
HETATM    6  C   UNL     1      -8.919   8.819  70.852  1.00  0.00    -0.247 C  
BRANCH   6   7
HETATM    7  C   UNL     1      -9.440   8.587  72.264  1.00  0.00    -0.365 C  
BRANCH   7   8
HETATM    8  C   UNL     1      -9.624   7.097  72.525  1.00  0.00    -0.172 C  
BRANCH   8   9
HETATM    9  C   UNL     1     -11.079   6.705  72.318  1.00  0.00    -0.292 C  
BRANCH   9  10
HETATM   10  C   UNL     1     -11.992   7.903  72.524  1.00  0.00    -0.349 C  
BRANCH  10  11
HETATM   11  C   UNL     1     -13.174   7.821  71.571  1.00  0.00    -0.356 C  
BRANCH  11  12
HETATM   12  C   UNL     1     -13.601   9.210  71.132  1.00  0.00    -0.179 C  
BRANCH  12  13
HETATM   13  C   UNL     1     -12.921  10.263  71.997  1.00  0.00    -0.503 C  
BRANCH  13  14
HETATM   14  C   UNL     1     -12.906  11.588  71.263  1.00  0.00    -0.463 C  
BRANCH  14  15
HETATM   15  C   UNL     1     -13.503  12.701  72.113  1.00  0.00    -0.561 C  
BRANCH  15  16
HETATM   16  C   UNL     1     -13.120  14.024  71.486  1.00  0.00    -0.363 C  
BRANCH  16  17
HETATM   17  O   UNL     1     -11.954  13.873  70.686  1.00  0.00    -0.323 OA 
BRANCH  17  18
HETATM   18  P   UNL     1     -11.362  15.383  70.085  1.00  0.00    -0.369 P  
HETATM   19  O   UNL     1     -11.928  16.070  71.333  1.00  0.00    -0.420 OA 
HETATM   20  O   UNL     1     -12.128  15.233  68.772  1.00  0.00    -0.273 OA 
BRANCH  18  21
HETATM   21  O   UNL     1     -10.770  16.893  69.483  1.00  0.00    -0.326 OA 
BRANCH  21  22
HETATM   22  C   UNL     1      -9.560  16.790  68.736  1.00  0.00    -0.260 C  
BRANCH  22  23
HETATM   23  C   UNL     1      -9.646  17.502  67.403  1.00  0.00    -0.265 C  
BRANCH  23  24
HETATM   24  N   UNL     1      -9.199  18.980  67.420  1.00  0.00    -0.287 N  
HETATM   25  C   UNL     1     -10.454  19.825  67.329  1.00  0.00    -0.447 C  
HETATM   26  C   UNL     1      -8.305  19.264  66.211  1.00  0.00    -0.319 C  
HETATM   27  C   UNL     1      -8.444  19.307  68.696  1.00  0.00    -0.368 C  
ENDBRANCH  23  24
ENDBRANCH  22  23
ENDBRANCH  21  22
ENDBRANCH  18  21
ENDBRANCH  17  18
ENDBRANCH  16  17
ENDBRANCH  15  16
ENDBRANCH  14  15
ENDBRANCH  13  14
ENDBRANCH  12  13
ENDBRANCH  11  12
ENDBRANCH  10  11
ENDBRANCH   9  10
ENDBRANCH   8   9
ENDBRANCH   7   8
ENDBRANCH   6   7
ENDBRANCH   5   6
ENDBRANCH   4   5
ENDBRANCH   3   4
ENDBRANCH   2   3
TORSDOF 20
ENDMDL
MODEL       36
REMARK 921   NORMALIZED FREE ENERGY PREDICTED BY IDOCK:   -4.53 KCAL/MOL
REMARK 922        TOTAL FREE ENERGY PREDICTED BY IDOCK:  -11.75 KCAL/MOL
REMARK 923 INTER-LIGAND FREE ENERGY PREDICTED BY IDOCK:   -8.88 KCAL/MOL
REMARK 924 INTRA-LIGAND FREE ENERGY PREDICTED BY IDOCK:   -2.87 KCAL/MOL
REMARK 927      BINDING AFFINITY PREDICTED BY RF-SCORE:    0.00 PKD
ROOT
HETATM    1  C   UNL     1     -12.362  14.374  70.605  1.00  0.00    -0.422 C  
HETATM    2  C   UNL     1     -12.272  15.374  69.465  1.00  0.00    -0.277 C  
ENDROOT
BRANCH   2   3
HETATM    3  C   UNL     1     -11.247  14.932  68.424  1.00  0.00    -0.304 C  
BRANCH   3   4
HETATM    4  C   UNL     1     -11.928  14.282  67.224  1.00  0.00    -0.439 C  
BRANCH   4   5
HETATM    5  C   UNL     1     -11.315  14.779  65.920  1.00  0.00    -0.331 C  
BRANCH   5   6
HETATM    6  C   UNL     1     -12.184  14.385  64.731  1.00  0.00    -0.458 C  
BRANCH   6   7
HETATM    7  C   UNL     1     -12.503  12.897  64.774  1.00  0.00    -0.517 C  
BRANCH   7   8
HETATM    8  C   UNL     1     -11.853  12.178  63.599  1.00  0.00    -0.608 C  
BRANCH   8   9
HETATM    9  C   UNL     1     -10.446  11.735  63.970  1.00  0.00    -0.415 C  
BRANCH   9  10
HETATM   10  C   UNL     1     -10.452  10.982  65.291  1.00  0.00    -0.316 C  
BRANCH  10  11
HETATM   11  C   UNL     1      -9.365  11.531  66.202  1.00  0.00    -0.230 C  
BRANCH  11  12
HETATM   12  C   UNL     1      -9.708  11.268  67.658  1.00  0.00    -0.183 C  
BRANCH  12  13
HETATM   13  C   UNL     1     -11.092  10.642  67.763  1.00  0.00    -0.385 C  
BRANCH  13  14
HETATM   14  C   UNL     1     -11.808  11.197  68.977  1.00  0.00    -0.418 C  
BRANCH  14  15
HETATM   15  C   UNL     1     -11.510  10.376  70.223  1.00  0.00    -0.406 C  
BRANCH  15  16
HETATM   16  C   UNL     1     -12.615  10.628  71.225  1.00  0.00    -0.427 C  
BRANCH  16  17
HETATM   17  O   UNL     1     -12.637   9.598  72.205  1.00  0.00    -0.331 OA 
BRANCH  17  18
HETATM   18  P   UNL     1     -11.964   8.114  71.625  1.00  0.00    -0.334 P  
HETATM   19  O   UNL     1     -13.373   7.511  71.617  1.00  0.00    -0.353 OA 
HETATM   20  O   UNL     1     -11.000   8.015  72.804  1.00  0.00    -0.363 OA 
BRANCH  18  21
HETATM   21  O   UNL     1     -11.290   6.630  71.043  1.00  0.00    -0.280 OA 
BRANCH  21  22
HETATM   22  C   UNL     1     -10.236   6.798  70.099  1.00  0.00    -0.195 C  
BRANCH  22  23
HETATM   23  C   UNL     1     -10.750   6.943  68.683  1.00  0.00    -0.216 C  
BRANCH  23  24
HETATM   24  N   UNL     1      -9.807   6.406  67.585  1.00  0.00    -0.117 N  
HETATM   25  C   UNL     1      -8.665   5.698  68.288  1.00  0.00    -0.106 C  
HETATM   26  C   UNL     1      -9.255   7.570  66.761  1.00  0.00    -0.156 C  
HETATM   27  C   UNL     1     -10.532   5.436  66.670  1.00  0.00    -0.298 C  
ENDBRANCH  23  24
ENDBRANCH  22  23
ENDBRANCH  21  22
ENDBRANCH  18  21
ENDBRANCH  17  18
ENDBRANCH  16  17
ENDBRANCH  15  16
ENDBRANCH  14  15
ENDBRANCH  13  14
ENDBRANCH  12  13
ENDBRANCH  11  12
ENDBRANCH  10  11
ENDBRANCH   9  10
ENDBRANCH   8   9
ENDBRANCH   7   8
ENDBRANCH   6   7
ENDBRANCH   5   6
ENDBRANCH   4   5
ENDBRANCH   3   4
ENDBRANCH   2   3
TORSDOF 20
ENDMDL
MODEL       37
REMARK 921   NORMALIZED FREE ENERGY PREDICTED BY IDOCK:   -4.53 KCAL/MOL
REMARK 922        TOTAL FREE ENERGY PREDICTED BY IDOCK:  -11.75 KCAL/MOL
REMARK 923 INTER-LIGAND FREE ENERGY PREDICTED BY IDOCK:   -9.27 KCAL/MOL
REMARK 924 INTRA-LIGAND FREE ENERGY PREDICTED BY IDOCK:   -2.48 KCAL/MOL
REMARK 927      BINDING AFFINITY PREDICTED BY RF-SCORE:    0.00 PKD
ROOT
HETATM    1  C   UNL     1     -12.396  14.108  64.688  1.00  0.00    -0.432 C  
HETATM    2  C   UNL     1     -12.377  12.617  64.978  1.00  0.00    -0.561 C  
ENDROOT
BRANCH   2   3
HETATM    3  C   UNL     1     -11.096  12.213  65.703  1.00  0.00    -0.360 C  
BRANCH   3   4
HETATM    4  C   UNL     1     -11.404  11.638  67.081  1.00  0.00    -0.373 C  
BRANCH   4   5
HETATM    5  C   UNL     1     -10.415  12.161  68.118  1.00  0.00    -0.225 C  
BRANCH   5   6
HETATM    6  C   UNL     1      -9.545  13.264  67.525  1.00  0.00    -0.218 C  
BRANCH   6   7
HETATM    7  C   UNL     1      -9.744  14.567  68.288  1.00  0.00    -0.218 C  
BRANCH   7   8
HETATM    8  C   UNL     1     -11.056  15.226  67.885  1.00  0.00    -0.321 C  
BRANCH   8   9
HETATM    9  C   UNL     1     -11.972  15.352  69.093  1.00  0.00    -0.324 C  
BRANCH   9  10
HETATM   10  C   UNL     1     -11.199  15.855  70.301  1.00  0.00    -0.388 C  
BRANCH  10  11
HETATM   11  C   UNL     1     -12.143  16.033  71.480  1.00  0.00    -0.513 C  
BRANCH  11  12
HETATM   12  C   UNL     1     -13.356  15.131  71.331  1.00  0.00    -0.547 C  
BRANCH  12  13
HETATM   13  C   UNL     1     -13.508  14.253  72.565  1.00  0.00    -0.613 C  
BRANCH  13  14
HETATM   14  C   UNL     1     -13.722  12.815  72.139  1.00  0.00    -0.454 C  
BRANCH  14  15
HETATM   15  C   UNL     1     -12.566  12.309  71.288  1.00  0.00    -0.336 C  
BRANCH  15  16
HETATM   16  C   UNL     1     -12.831  10.859  70.953  1.00  0.00    -0.326 C  
BRANCH  16  17
HETATM   17  O   UNL     1     -12.516  10.029  72.065  1.00  0.00    -0.357 OA 
BRANCH  17  18
HETATM   18  P   UNL     1     -12.568   8.345  71.673  1.00  0.00    -0.332 P  
HETATM   19  O   UNL     1     -14.095   8.393  71.798  1.00  0.00    -0.396 OA 
HETATM   20  O   UNL     1     -11.629   7.983  72.821  1.00  0.00    -0.405 OA 
BRANCH  18  21
HETATM   21  O   UNL     1     -12.620   6.661  71.280  1.00  0.00    -0.317 OA 
BRANCH  21  22
HETATM   22  C   UNL     1     -11.344   6.083  71.018  1.00  0.00    -0.229 C  
BRANCH  22  23
HETATM   23  C   UNL     1     -11.014   6.065  69.541  1.00  0.00    -0.397 C  
BRANCH  23  24
HETATM   24  N   UNL     1      -9.813   6.943  69.127  1.00  0.00    -0.154 N  
HETATM   25  C   UNL     1      -8.969   7.155  70.369  1.00  0.00    -0.155 C  
HETATM   26  C   UNL     1     -10.312   8.294  68.613  1.00  0.00    -0.200 C  
HETATM   27  C   UNL     1      -8.988   6.264  68.050  1.00  0.00    -0.114 C  
ENDBRANCH  23  24
ENDBRANCH  22  23
ENDBRANCH  21  22
ENDBRANCH  18  21
ENDBRANCH  17  18
ENDBRANCH  16  17
ENDBRANCH  15  16
ENDBRANCH  14  15
ENDBRANCH  13  14
ENDBRANCH  12  13
ENDBRANCH  11  12
ENDBRANCH  10  11
ENDBRANCH   9  10
ENDBRANCH   8   9
ENDBRANCH   7   8
ENDBRANCH   6   7
ENDBRANCH   5   6
ENDBRANCH   4   5
ENDBRANCH   3   4
ENDBRANCH   2   3
TORSDOF 20
ENDMDL
MODEL       38
REMARK 921   NORMALIZED FREE ENERGY PREDICTED BY IDOCK:   -4.53 KCAL/MOL
REMARK 922        TOTAL FREE ENERGY PREDICTED BY IDOCK:  -11.75 KCAL/MOL
REMARK 923 INTER-LIGAND FREE ENERGY PREDICTED BY IDOCK:   -9.75 KCAL/MOL
REMARK 924 INTRA-LIGAND FREE ENERGY PREDICTED BY IDOCK:   -2.00 KCAL/MOL
REMARK 927      BINDING AFFINITY PREDICTED BY RF-SCORE:    0.00 PKD
ROOT
HETATM    1  C   UNL     1     -11.491   6.451  70.450  1.00  0.00    -0.458 C  
HETATM    2  C   UNL     1     -12.230   6.845  71.717  1.00  0.00    -0.396 C  
ENDROOT
BRANCH   2   3
HETATM    3  C   UNL     1     -13.702   7.133  71.429  1.00  0.00    -0.364 C  
BRANCH   3   4
HETATM    4  C   UNL     1     -14.159   8.407  72.133  1.00  0.00    -0.460 C  
BRANCH   4   5
HETATM    5  C   UNL     1     -13.019   9.415  72.220  1.00  0.00    -0.479 C  
BRANCH   5   6
HETATM    6  C   UNL     1     -13.327  10.652  71.384  1.00  0.00    -0.299 C  
BRANCH   6   7
HETATM    7  C   UNL     1     -12.308  10.806  70.263  1.00  0.00    -0.423 C  
BRANCH   7   8
HETATM    8  C   UNL     1     -11.043  10.019  70.581  1.00  0.00    -0.408 C  
BRANCH   8   9
HETATM    9  C   UNL     1     -10.261   9.748  69.305  1.00  0.00    -0.216 C  
BRANCH   9  10
HETATM   10  C   UNL     1     -10.913  10.439  68.118  1.00  0.00    -0.334 C  
BRANCH  10  11
HETATM   11  C   UNL     1     -10.578   9.691  66.837  1.00  0.00    -0.241 C  
BRANCH  11  12
HETATM   12  C   UNL     1      -9.118   9.890  66.471  1.00  0.00    -0.179 C  
BRANCH  12  13
HETATM   13  C   UNL     1      -8.966  11.112  65.576  1.00  0.00    -0.178 C  
BRANCH  13  14
HETATM   14  C   UNL     1      -8.840  10.669  64.132  1.00  0.00    -0.170 C  
BRANCH  14  15
HETATM   15  C   UNL     1      -9.593  11.604  63.196  1.00  0.00    -0.348 C  
BRANCH  15  16
HETATM   16  C   UNL     1     -11.067  11.497  63.515  1.00  0.00    -0.348 C  
BRANCH  16  17
HETATM   17  O   UNL     1     -11.714  12.743  63.289  1.00  0.00    -0.515 OA 
BRANCH  17  18
HETATM   18  P   UNL     1     -11.866  13.684  64.733  1.00  0.00    -0.435 P  
HETATM   19  O   UNL     1     -12.587  12.503  65.392  1.00  0.00    -0.656 OA 
HETATM   20  O   UNL     1     -12.578  14.816  63.997  1.00  0.00    -0.822 OA 
BRANCH  18  21
HETATM   21  O   UNL     1     -12.016  14.625  66.177  1.00  0.00    -0.338 OA 
BRANCH  21  22
HETATM   22  C   UNL     1     -10.773  15.051  66.728  1.00  0.00    -0.308 C  
BRANCH  22  23
HETATM   23  C   UNL     1     -10.930  16.247  67.642  1.00  0.00    -0.245 C  
BRANCH  23  24
HETATM   24  N   UNL     1      -9.630  17.033  67.922  1.00  0.00    -0.245 N  
HETATM   25  C   UNL     1     -10.021  18.274  68.700  1.00  0.00    -0.389 C  
HETATM   26  C   UNL     1      -8.978  17.444  66.600  1.00  0.00    -0.252 C  
HETATM   27  C   UNL     1      -8.654  16.199  68.731  1.00  0.00    -0.236 C  
ENDBRANCH  23  24
ENDBRANCH  22  23
ENDBRANCH  21  22
ENDBRANCH  18  21
ENDBRANCH  17  18
ENDBRANCH  16  17
ENDBRANCH  15  16
ENDBRANCH  14  15
ENDBRANCH  13  14
ENDBRANCH  12  13
ENDBRANCH  11  12
ENDBRANCH  10  11
ENDBRANCH   9  10
ENDBRANCH   8   9
ENDBRANCH   7   8
ENDBRANCH   6   7
ENDBRANCH   5   6
ENDBRANCH   4   5
ENDBRANCH   3   4
ENDBRANCH   2   3
TORSDOF 20
ENDMDL
MODEL       39
REMARK 921   NORMALIZED FREE ENERGY PREDICTED BY IDOCK:   -4.50 KCAL/MOL
REMARK 922        TOTAL FREE ENERGY PREDICTED BY IDOCK:  -11.69 KCAL/MOL
REMARK 923 INTER-LIGAND FREE ENERGY PREDICTED BY IDOCK:  -10.36 KCAL/MOL
REMARK 924 INTRA-LIGAND FREE ENERGY PREDICTED BY IDOCK:   -1.33 KCAL/MOL
REMARK 927      BINDING AFFINITY PREDICTED BY RF-SCORE:    0.00 PKD
ROOT
HETATM    1  C   UNL     1     -10.394   7.834  66.964  1.00  0.00    -0.405 C  
HETATM    2  C   UNL     1     -10.962   6.425  66.983  1.00  0.00    -0.463 C  
ENDROOT
BRANCH   2   3
HETATM    3  C   UNL     1     -10.595   5.700  68.275  1.00  0.00    -0.253 C  
BRANCH   3   4
HETATM    4  C   UNL     1     -11.339   6.293  69.467  1.00  0.00    -0.475 C  
BRANCH   4   5
HETATM    5  C   UNL     1     -10.591   6.012  70.765  1.00  0.00    -0.316 C  
BRANCH   5   6
HETATM    6  C   UNL     1     -11.345   6.587  71.958  1.00  0.00    -0.326 C  
BRANCH   6   7
HETATM    7  C   UNL     1     -12.473   7.496  71.488  1.00  0.00    -0.375 C  
BRANCH   7   8
HETATM    8  C   UNL     1     -12.582   8.719  72.389  1.00  0.00    -0.430 C  
BRANCH   8   9
HETATM    9  C   UNL     1     -12.753   9.976  71.549  1.00  0.00    -0.532 C  
BRANCH   9  10
HETATM   10  C   UNL     1     -11.424  10.400  70.943  1.00  0.00    -0.385 C  
BRANCH  10  11
HETATM   11  C   UNL     1     -11.635  11.591  70.022  1.00  0.00    -0.364 C  
BRANCH  11  12
HETATM   12  C   UNL     1     -11.700  11.138  68.574  1.00  0.00    -0.368 C  
BRANCH  12  13
HETATM   13  C   UNL     1     -11.790  12.347  67.652  1.00  0.00    -0.363 C  
BRANCH  13  14
HETATM   14  C   UNL     1     -11.279  11.973  66.275  1.00  0.00    -0.394 C  
BRANCH  14  15
HETATM   15  C   UNL     1     -12.265  12.375  65.188  1.00  0.00    -0.449 C  
BRANCH  15  16
HETATM   16  C   UNL     1     -12.802  13.747  65.529  1.00  0.00    -0.419 C  
BRANCH  16  17
HETATM   17  O   UNL     1     -12.488  14.671  64.494  1.00  0.00    -0.579 OA 
BRANCH  17  18
HETATM   18  P   UNL     1     -11.243  15.782  64.953  1.00  0.00    -0.166 P  
HETATM   19  O   UNL     1     -11.686  16.705  63.813  1.00  0.00    -1.015 OA 
HETATM   20  O   UNL     1     -10.156  14.718  64.817  1.00  0.00    -0.308 OA 
BRANCH  18  21
HETATM   21  O   UNL     1      -9.999  16.892  65.413  1.00  0.00    -0.568 OA 
BRANCH  21  22
HETATM   22  C   UNL     1      -8.996  16.330  66.255  1.00  0.00    -0.331 C  
BRANCH  22  23
HETATM   23  C   UNL     1      -9.193  16.702  67.709  1.00  0.00    -0.214 C  
BRANCH  23  24
HETATM   24  N   UNL     1      -8.891  15.575  68.720  1.00  0.00    -0.188 N  
HETATM   25  C   UNL     1      -8.934  14.267  67.954  1.00  0.00    -0.186 C  
HETATM   26  C   UNL     1      -9.960  15.560  69.814  1.00  0.00    -0.274 C  
HETATM   27  C   UNL     1      -7.523  15.761  69.351  1.00  0.00    -0.216 C  
ENDBRANCH  23  24
ENDBRANCH  22  23
ENDBRANCH  21  22
ENDBRANCH  18  21
ENDBRANCH  17  18
ENDBRANCH  16  17
ENDBRANCH  15  16
ENDBRANCH  14  15
ENDBRANCH  13  14
ENDBRANCH  12  13
ENDBRANCH  11  12
ENDBRANCH  10  11
ENDBRANCH   9  10
ENDBRANCH   8   9
ENDBRANCH   7   8
ENDBRANCH   6   7
ENDBRANCH   5   6
ENDBRANCH   4   5
ENDBRANCH   3   4
ENDBRANCH   2   3
TORSDOF 20
ENDMDL
MODEL       40
REMARK 921   NORMALIZED FREE ENERGY PREDICTED BY IDOCK:   -4.49 KCAL/MOL
REMARK 922        TOTAL FREE ENERGY PREDICTED BY IDOCK:  -11.66 KCAL/MOL
REMARK 923 INTER-LIGAND FREE ENERGY PREDICTED BY IDOCK:   -9.21 KCAL/MOL
REMARK 924 INTRA-LIGAND FREE ENERGY PREDICTED BY IDOCK:   -2.45 KCAL/MOL
REMARK 927      BINDING AFFINITY PREDICTED BY RF-SCORE:    0.00 PKD
ROOT
HETATM    1  C   UNL     1      -8.822   6.987  67.266  1.00  0.00    -0.119 C  
HETATM    2  C   UNL     1      -9.487   6.175  68.364  1.00  0.00    -0.119 C  
ENDROOT
BRANCH   2   3
HETATM    3  C   UNL     1     -10.944   6.590  68.551  1.00  0.00    -0.360 C  
BRANCH   3   4
HETATM    4  C   UNL     1     -11.471   6.145  69.911  1.00  0.00    -0.371 C  
BRANCH   4   5
HETATM    5  C   UNL     1     -10.377   5.448  70.712  1.00  0.00    -0.322 C  
BRANCH   5   6
HETATM    6  C   UNL     1     -10.217   6.096  72.083  1.00  0.00    -0.213 C  
BRANCH   6   7
HETATM    7  C   UNL     1      -9.178   7.208  72.029  1.00  0.00    -0.146 C  
BRANCH   7   8
HETATM    8  C   UNL     1      -9.845   8.568  72.194  1.00  0.00    -0.388 C  
BRANCH   8   9
HETATM    9  C   UNL     1      -9.828   9.323  70.873  1.00  0.00    -0.363 C  
BRANCH   9  10
HETATM   10  C   UNL     1     -11.196   9.913  70.575  1.00  0.00    -0.399 C  
BRANCH  10  11
HETATM   11  C   UNL     1     -12.202   9.433  71.609  1.00  0.00    -0.467 C  
BRANCH  11  12
HETATM   12  C   UNL     1     -13.275  10.484  71.837  1.00  0.00    -0.526 C  
BRANCH  12  13
HETATM   13  C   UNL     1     -12.779  11.845  71.369  1.00  0.00    -0.395 C  
BRANCH  13  14
HETATM   14  C   UNL     1     -13.416  12.932  72.211  1.00  0.00    -0.631 C  
BRANCH  14  15
HETATM   15  C   UNL     1     -13.219  14.306  71.586  1.00  0.00    -0.429 C  
BRANCH  15  16
HETATM   16  C   UNL     1     -12.222  14.168  70.457  1.00  0.00    -0.361 C  
BRANCH  16  17
HETATM   17  O   UNL     1     -12.177  15.364  69.688  1.00  0.00    -0.331 OA 
BRANCH  17  18
HETATM   18  P   UNL     1     -10.721  15.504  68.765  1.00  0.00    -0.282 P  
HETATM   19  O   UNL     1      -9.918  15.378  70.064  1.00  0.00    -0.271 OA 
HETATM   20  O   UNL     1     -11.159  16.835  68.157  1.00  0.00    -0.363 OA 
BRANCH  18  21
HETATM   21  O   UNL     1      -9.266  15.643  67.840  1.00  0.00    -0.189 OA 
BRANCH  21  22
HETATM   22  C   UNL     1      -9.163  14.710  66.768  1.00  0.00    -0.264 C  
BRANCH  22  23
HETATM   23  C   UNL     1     -10.417  13.878  66.609  1.00  0.00    -0.272 C  
BRANCH  23  24
HETATM   24  N   UNL     1     -11.178  14.086  65.281  1.00  0.00    -0.309 N  
HETATM   25  C   UNL     1     -12.638  13.785  65.555  1.00  0.00    -0.512 C  
HETATM   26  C   UNL     1     -10.648  13.116  64.223  1.00  0.00    -0.412 C  
HETATM   27  C   UNL     1     -11.026  15.511  64.783  1.00  0.00    -0.399 C  
ENDBRANCH  23  24
ENDBRANCH  22  23
ENDBRANCH  21  22
ENDBRANCH  18  21
ENDBRANCH  17  18
ENDBRANCH  16  17
ENDBRANCH  15  16
ENDBRANCH  14  15
ENDBRANCH  13  14
ENDBRANCH  12  13
ENDBRANCH  11  12
ENDBRANCH  10  11
ENDBRANCH   9  10
ENDBRANCH   8   9
ENDBRANCH   7   8
ENDBRANCH   6   7
ENDBRANCH   5   6
ENDBRANCH   4   5
ENDBRANCH   3   4
ENDBRANCH   2   3
TORSDOF 20
ENDMDL
MODEL       41
REMARK 921   NORMALIZED FREE ENERGY PREDICTED BY IDOCK:   -4.49 KCAL/MOL
REMARK 922        TOTAL FREE ENERGY PREDICTED BY IDOCK:  -11.65 KCAL/MOL
REMARK 923 INTER-LIGAND FREE ENERGY PREDICTED BY IDOCK:   -8.77 KCAL/MOL
REMARK 924 INTRA-LIGAND FREE ENERGY PREDICTED BY IDOCK:   -2.88 KCAL/MOL
REMARK 927      BINDING AFFINITY PREDICTED BY RF-SCORE:    0.00 PKD
ROOT
HETATM    1  C   UNL     1      -7.461   7.927  66.979  1.00  0.00    -0.092 C  
HETATM    2  C   UNL     1      -8.398   6.780  67.320  1.00  0.00    -0.121 C  
ENDROOT
BRANCH   2   3
HETATM    3  C   UNL     1      -9.659   6.826  66.461  1.00  0.00    -0.191 C  
BRANCH   3   4
HETATM    4  C   UNL     1     -10.853   6.240  67.208  1.00  0.00    -0.457 C  
BRANCH   4   5
HETATM    5  C   UNL     1     -10.440   5.765  68.597  1.00  0.00    -0.298 C  
BRANCH   5   6
HETATM    6  C   UNL     1     -11.391   6.307  69.658  1.00  0.00    -0.492 C  
BRANCH   6   7
HETATM    7  C   UNL     1     -10.898   5.945  71.052  1.00  0.00    -0.339 C  
BRANCH   7   8
HETATM    8  C   UNL     1     -11.858   6.472  72.110  1.00  0.00    -0.348 C  
BRANCH   8   9
HETATM    9  C   UNL     1     -12.755   7.547  71.515  1.00  0.00    -0.391 C  
BRANCH   9  10
HETATM   10  C   UNL     1     -12.383   8.917  72.059  1.00  0.00    -0.460 C  
BRANCH  10  11
HETATM   11  C   UNL     1     -11.779   9.766  70.951  1.00  0.00    -0.429 C  
BRANCH  11  12
HETATM   12  C   UNL     1     -10.272   9.586  70.904  1.00  0.00    -0.356 C  
BRANCH  12  13
HETATM   13  C   UNL     1      -9.778   9.690  69.468  1.00  0.00    -0.216 C  
BRANCH  13  14
HETATM   14  C   UNL     1     -10.962   9.860  68.537  1.00  0.00    -0.226 C  
BRANCH  14  15
HETATM   15  C   UNL     1     -10.513  10.202  67.124  1.00  0.00    -0.305 C  
BRANCH  15  16
HETATM   16  C   UNL     1     -11.196  11.487  66.715  1.00  0.00    -0.285 C  
BRANCH  16  17
HETATM   17  O   UNL     1     -11.985  11.991  67.786  1.00  0.00    -0.538 OA 
BRANCH  17  18
HETATM   18  P   UNL     1     -11.741  13.683  68.051  1.00  0.00    -0.357 P  
HETATM   19  O   UNL     1     -12.185  13.944  66.609  1.00  0.00    -0.437 OA 
HETATM   20  O   UNL     1     -10.288  13.473  68.472  1.00  0.00    -0.240 OA 
BRANCH  18  21
HETATM   21  O   UNL     1     -11.497  15.375  68.318  1.00  0.00    -0.332 OA 
BRANCH  21  22
HETATM   22  C   UNL     1     -10.724  16.020  67.309  1.00  0.00    -0.295 C  
BRANCH  22  23
HETATM   23  C   UNL     1     -10.356  17.438  67.687  1.00  0.00    -0.355 C  
BRANCH  23  24
HETATM   24  N   UNL     1      -8.961  17.902  67.212  1.00  0.00    -0.247 N  
HETATM   25  C   UNL     1      -8.163  18.249  68.453  1.00  0.00    -0.311 C  
HETATM   26  C   UNL     1      -9.101  19.145  66.331  1.00  0.00    -0.343 C  
HETATM   27  C   UNL     1      -8.258  16.806  66.433  1.00  0.00    -0.314 C  
ENDBRANCH  23  24
ENDBRANCH  22  23
ENDBRANCH  21  22
ENDBRANCH  18  21
ENDBRANCH  17  18
ENDBRANCH  16  17
ENDBRANCH  15  16
ENDBRANCH  14  15
ENDBRANCH  13  14
ENDBRANCH  12  13
ENDBRANCH  11  12
ENDBRANCH  10  11
ENDBRANCH   9  10
ENDBRANCH   8   9
ENDBRANCH   7   8
ENDBRANCH   6   7
ENDBRANCH   5   6
ENDBRANCH   4   5
ENDBRANCH   3   4
ENDBRANCH   2   3
TORSDOF 20
ENDMDL
MODEL       42
REMARK 921   NORMALIZED FREE ENERGY PREDICTED BY IDOCK:   -4.48 KCAL/MOL
REMARK 922        TOTAL FREE ENERGY PREDICTED BY IDOCK:  -11.65 KCAL/MOL
REMARK 923 INTER-LIGAND FREE ENERGY PREDICTED BY IDOCK:   -9.27 KCAL/MOL
REMARK 924 INTRA-LIGAND FREE ENERGY PREDICTED BY IDOCK:   -2.37 KCAL/MOL
REMARK 927      BINDING AFFINITY PREDICTED BY RF-SCORE:    0.00 PKD
ROOT
HETATM    1  C   UNL     1      -8.970   8.474  72.211  1.00  0.00    -0.299 C  
HETATM    2  C   UNL     1      -9.739   7.290  72.771  1.00  0.00    -0.203 C  
ENDROOT
BRANCH   2   3
HETATM    3  C   UNL     1     -10.260   6.392  71.652  1.00  0.00    -0.221 C  
BRANCH   3   4
HETATM    4  C   UNL     1     -11.761   6.161  71.786  1.00  0.00    -0.312 C  
BRANCH   4   5
HETATM    5  C   UNL     1     -12.541   7.219  71.013  1.00  0.00    -0.304 C  
BRANCH   5   6
HETATM    6  C   UNL     1     -13.840   7.565  71.732  1.00  0.00    -0.438 C  
BRANCH   6   7
HETATM    7  C   UNL     1     -13.803   9.000  72.241  1.00  0.00    -0.547 C  
BRANCH   7   8
HETATM    8  C   UNL     1     -12.484   9.663  71.868  1.00  0.00    -0.459 C  
BRANCH   8   9
HETATM    9  C   UNL     1     -12.741  11.030  71.252  1.00  0.00    -0.537 C  
BRANCH   9  10
HETATM   10  C   UNL     1     -12.191  11.093  69.836  1.00  0.00    -0.385 C  
BRANCH  10  11
HETATM   11  C   UNL     1     -10.887  10.315  69.754  1.00  0.00    -0.332 C  
BRANCH  11  12
HETATM   12  C   UNL     1     -10.856   9.458  68.501  1.00  0.00    -0.149 C  
BRANCH  12  13
HETATM   13  C   UNL     1      -9.418   9.115  68.138  1.00  0.00    -0.155 C  
BRANCH  13  14
HETATM   14  C   UNL     1      -8.974   9.971  66.969  1.00  0.00    -0.152 C  
BRANCH  14  15
HETATM   15  C   UNL     1      -9.804   9.687  65.725  1.00  0.00    -0.373 C  
BRANCH  15  16
HETATM   16  C   UNL     1      -9.862  10.954  64.902  1.00  0.00    -0.284 C  
BRANCH  16  17
HETATM   17  O   UNL     1     -11.206  11.251  64.544  1.00  0.00    -0.244 OA 
BRANCH  17  18
HETATM   18  P   UNL     1     -11.665  12.864  64.966  1.00  0.00    -0.395 P  
HETATM   19  O   UNL     1     -12.285  12.320  66.257  1.00  0.00    -0.628 OA 
HETATM   20  O   UNL     1     -12.437  13.054  63.662  1.00  0.00    -0.666 OA 
BRANCH  18  21
HETATM   21  O   UNL     1     -12.123  14.478  65.387  1.00  0.00    -0.365 OA 
BRANCH  21  22
HETATM   22  C   UNL     1     -11.026  15.335  65.697  1.00  0.00    -0.344 C  
BRANCH  22  23
HETATM   23  C   UNL     1     -10.316  14.922  66.968  1.00  0.00    -0.264 C  
BRANCH  23  24
HETATM   24  N   UNL     1     -10.547  15.852  68.179  1.00  0.00    -0.270 N  
HETATM   25  C   UNL     1     -10.470  17.277  67.666  1.00  0.00    -0.363 C  
HETATM   26  C   UNL     1      -9.451  15.627  69.222  1.00  0.00    -0.264 C  
HETATM   27  C   UNL     1     -11.905  15.600  68.808  1.00  0.00    -0.321 C  
ENDBRANCH  23  24
ENDBRANCH  22  23
ENDBRANCH  21  22
ENDBRANCH  18  21
ENDBRANCH  17  18
ENDBRANCH  16  17
ENDBRANCH  15  16
ENDBRANCH  14  15
ENDBRANCH  13  14
ENDBRANCH  12  13
ENDBRANCH  11  12
ENDBRANCH  10  11
ENDBRANCH   9  10
ENDBRANCH   8   9
ENDBRANCH   7   8
ENDBRANCH   6   7
ENDBRANCH   5   6
ENDBRANCH   4   5
ENDBRANCH   3   4
ENDBRANCH   2   3
TORSDOF 20
ENDMDL
MODEL       43
REMARK 921   NORMALIZED FREE ENERGY PREDICTED BY IDOCK:   -4.48 KCAL/MOL
REMARK 922        TOTAL FREE ENERGY PREDICTED BY IDOCK:  -11.64 KCAL/MOL
REMARK 923 INTER-LIGAND FREE ENERGY PREDICTED BY IDOCK:   -9.60 KCAL/MOL
REMARK 924 INTRA-LIGAND FREE ENERGY PREDICTED BY IDOCK:   -2.03 KCAL/MOL
REMARK 927      BINDING AFFINITY PREDICTED BY RF-SCORE:    0.00 PKD
ROOT
HETATM    1  C   UNL     1     -10.973   6.320  69.664  1.00  0.00    -0.440 C  
HETATM    2  C   UNL     1     -11.957   6.876  70.678  1.00  0.00    -0.400 C  
ENDROOT
BRANCH   2   3
HETATM    3  C   UNL     1     -11.231   7.497  71.868  1.00  0.00    -0.286 C  
BRANCH   3   4
HETATM    4  C   UNL     1     -10.900   8.963  71.605  1.00  0.00    -0.420 C  
BRANCH   4   5
HETATM    5  C   UNL     1     -12.172   9.802  71.555  1.00  0.00    -0.493 C  
BRANCH   5   6
HETATM    6  C   UNL     1     -12.102  10.821  70.423  1.00  0.00    -0.443 C  
BRANCH   6   7
HETATM    7  C   UNL     1     -10.905  10.538  69.524  1.00  0.00    -0.298 C  
BRANCH   7   8
HETATM    8  C   UNL     1     -11.348  10.408  68.073  1.00  0.00    -0.277 C  
BRANCH   8   9
HETATM    9  C   UNL     1     -10.388   9.509  67.310  1.00  0.00    -0.319 C  
BRANCH   9  10
HETATM   10  C   UNL     1      -9.286  10.330  66.660  1.00  0.00    -0.179 C  
BRANCH  10  11
HETATM   11  C   UNL     1      -9.490  10.367  65.153  1.00  0.00    -0.303 C  
BRANCH  11  12
HETATM   12  C   UNL     1     -10.058  11.709  64.727  1.00  0.00    -0.304 C  
BRANCH  12  13
HETATM   13  C   UNL     1     -11.337  11.504  63.926  1.00  0.00    -0.400 C  
BRANCH  13  14
HETATM   14  C   UNL     1     -11.972  12.849  63.634  1.00  0.00    -0.613 C  
BRANCH  14  15
HETATM   15  C   UNL     1     -11.501  13.912  64.616  1.00  0.00    -0.386 C  
BRANCH  15  16
HETATM   16  C   UNL     1     -12.565  14.069  65.680  1.00  0.00    -0.512 C  
BRANCH  16  17
HETATM   17  O   UNL     1     -12.068  13.644  66.943  1.00  0.00    -0.397 OA 
BRANCH  17  18
HETATM   18  P   UNL     1     -10.975  14.786  67.645  1.00  0.00    -0.311 P  
HETATM   19  O   UNL     1      -9.957  13.656  67.831  1.00  0.00    -0.231 OA 
HETATM   20  O   UNL     1     -11.991  15.204  68.705  1.00  0.00    -0.314 OA 
BRANCH  18  21
HETATM   21  O   UNL     1      -9.882  15.930  68.346  1.00  0.00    -0.209 OA 
BRANCH  21  22
HETATM   22  C   UNL     1     -10.335  17.280  68.293  1.00  0.00    -0.361 C  
BRANCH  22  23
HETATM   23  C   UNL     1      -9.879  17.990  67.037  1.00  0.00    -0.318 C  
BRANCH  23  24
HETATM   24  N   UNL     1      -8.982  19.225  67.272  1.00  0.00    -0.290 N  
HETATM   25  C   UNL     1      -7.932  19.226  66.178  1.00  0.00    -0.294 C  
HETATM   26  C   UNL     1      -8.297  19.117  68.636  1.00  0.00    -0.368 C  
HETATM   27  C   UNL     1      -9.793  20.507  67.214  1.00  0.00    -0.441 C  
ENDBRANCH  23  24
ENDBRANCH  22  23
ENDBRANCH  21  22
ENDBRANCH  18  21
ENDBRANCH  17  18
ENDBRANCH  16  17
ENDBRANCH  15  16
ENDBRANCH  14  15
ENDBRANCH  13  14
ENDBRANCH  12  13
ENDBRANCH  11  12
ENDBRANCH  10  11
ENDBRANCH   9  10
ENDBRANCH   8   9
ENDBRANCH   7   8
ENDBRANCH   6   7
ENDBRANCH   5   6
ENDBRANCH   4   5
ENDBRANCH   3   4
ENDBRANCH   2   3
TORSDOF 20
ENDMDL
MODEL       44
REMARK 921   NORMALIZED FREE ENERGY PREDICTED BY IDOCK:   -4.46 KCAL/MOL
REMARK 922        TOTAL FREE ENERGY PREDICTED BY IDOCK:  -11.59 KCAL/MOL
REMARK 923 INTER-LIGAND FREE ENERGY PREDICTED BY IDOCK:   -9.56 KCAL/MOL
REMARK 924 INTRA-LIGAND FREE ENERGY PREDICTED BY IDOCK:   -2.03 KCAL/MOL
REMARK 927      BINDING AFFINITY PREDICTED BY RF-SCORE:    0.00 PKD
ROOT
HETATM    1  C   UNL     1     -10.717  16.126  65.326  1.00  0.00    -0.386 C  
HETATM    2  C   UNL     1     -10.903  14.682  64.893  1.00  0.00    -0.436 C  
ENDROOT
BRANCH   2   3
HETATM    3  C   UNL     1     -12.235  14.125  65.389  1.00  0.00    -0.441 C  
BRANCH   3   4
HETATM    4  C   UNL     1     -12.200  12.602  65.463  1.00  0.00    -0.501 C  
BRANCH   4   5
HETATM    5  C   UNL     1     -11.387  12.139  66.667  1.00  0.00    -0.405 C  
BRANCH   5   6
HETATM    6  C   UNL     1     -11.893  12.798  67.945  1.00  0.00    -0.392 C  
BRANCH   6   7
HETATM    7  C   UNL     1     -10.730  13.362  68.751  1.00  0.00    -0.257 C  
BRANCH   7   8
HETATM    8  C   UNL     1     -10.724  14.883  68.685  1.00  0.00    -0.250 C  
BRANCH   8   9
HETATM    9  C   UNL     1     -10.719  15.469  70.089  1.00  0.00    -0.345 C  
BRANCH   9  10
HETATM   10  C   UNL     1     -12.133  15.798  70.538  1.00  0.00    -0.407 C  
BRANCH  10  11
HETATM   11  C   UNL     1     -12.147  16.085  72.031  1.00  0.00    -0.606 C  
BRANCH  11  12
HETATM   12  C   UNL     1     -13.451  15.616  72.652  1.00  0.00    -0.655 C  
BRANCH  12  13
HETATM   13  C   UNL     1     -14.105  14.569  71.761  1.00  0.00    -0.578 C  
BRANCH  13  14
HETATM   14  C   UNL     1     -13.967  13.202  72.402  1.00  0.00    -0.497 C  
BRANCH  14  15
HETATM   15  C   UNL     1     -12.885  12.376  71.722  1.00  0.00    -0.350 C  
BRANCH  15  16
HETATM   16  C   UNL     1     -13.278  10.919  71.820  1.00  0.00    -0.408 C  
BRANCH  16  17
HETATM   17  O   UNL     1     -12.587  10.153  70.840  1.00  0.00    -0.326 OA 
BRANCH  17  18
HETATM   18  P   UNL     1     -11.376   9.129  71.532  1.00  0.00    -0.403 P  
HETATM   19  O   UNL     1     -10.305   9.973  70.834  1.00  0.00    -0.171 OA 
HETATM   20  O   UNL     1     -12.002   7.874  70.928  1.00  0.00    -0.279 OA 
BRANCH  18  21
HETATM   21  O   UNL     1     -10.166   8.106  72.224  1.00  0.00    -0.229 OA 
BRANCH  21  22
HETATM   22  C   UNL     1     -10.644   7.255  73.263  1.00  0.00    -0.382 C  
BRANCH  22  23
HETATM   23  C   UNL     1      -9.556   6.367  73.825  1.00  0.00    -0.175 C  
BRANCH  23  24
HETATM   24  N   UNL     1      -9.648   4.880  73.419  1.00  0.00    -0.132 N  
HETATM   25  C   UNL     1     -11.121   4.521  73.381  1.00  0.00    -0.322 C  
HETATM   26  C   UNL     1      -8.939   4.013  74.461  1.00  0.00    -0.099 C  
HETATM   27  C   UNL     1      -9.022   4.648  72.056  1.00  0.00    -0.126 C  
ENDBRANCH  23  24
ENDBRANCH  22  23
ENDBRANCH  21  22
ENDBRANCH  18  21
ENDBRANCH  17  18
ENDBRANCH  16  17
ENDBRANCH  15  16
ENDBRANCH  14  15
ENDBRANCH  13  14
ENDBRANCH  12  13
ENDBRANCH  11  12
ENDBRANCH  10  11
ENDBRANCH   9  10
ENDBRANCH   8   9
ENDBRANCH   7   8
ENDBRANCH   6   7
ENDBRANCH   5   6
ENDBRANCH   4   5
ENDBRANCH   3   4
ENDBRANCH   2   3
TORSDOF 20
ENDMDL
MODEL       45
REMARK 921   NORMALIZED FREE ENERGY PREDICTED BY IDOCK:   -4.45 KCAL/MOL
REMARK 922        TOTAL FREE ENERGY PREDICTED BY IDOCK:  -11.58 KCAL/MOL
REMARK 923 INTER-LIGAND FREE ENERGY PREDICTED BY IDOCK:   -9.78 KCAL/MOL
REMARK 924 INTRA-LIGAND FREE ENERGY PREDICTED BY IDOCK:   -1.80 KCAL/MOL
REMARK 927      BINDING AFFINITY PREDICTED BY RF-SCORE:    0.00 PKD
ROOT
HETATM    1  C   UNL     1     -13.926   8.968  72.417  1.00  0.00    -0.517 C  
HETATM    2  C   UNL     1     -12.501   9.153  71.922  1.00  0.00    -0.459 C  
ENDROOT
BRANCH   2   3
HETATM    3  C   UNL     1     -12.301  10.544  71.326  1.00  0.00    -0.502 C  
BRANCH   3   4
HETATM    4  C   UNL     1     -13.301  11.538  71.906  1.00  0.00    -0.408 C  
BRANCH   4   5
HETATM    5  C   UNL     1     -12.960  12.961  71.476  1.00  0.00    -0.388 C  
BRANCH   5   6
HETATM    6  C   UNL     1     -13.818  13.972  72.227  1.00  0.00    -0.655 C  
BRANCH   6   7
HETATM    7  C   UNL     1     -13.169  15.349  72.198  1.00  0.00    -0.517 C  
BRANCH   7   8
HETATM    8  C   UNL     1     -11.731  15.250  71.704  1.00  0.00    -0.463 C  
BRANCH   8   9
HETATM    9  C   UNL     1     -11.458  16.329  70.668  1.00  0.00    -0.297 C  
BRANCH   9  10
HETATM   10  C   UNL     1     -11.757  15.816  69.268  1.00  0.00    -0.384 C  
BRANCH  10  11
HETATM   11  C   UNL     1     -10.791  16.440  68.273  1.00  0.00    -0.347 C  
BRANCH  11  12
HETATM   12  C   UNL     1      -9.713  15.444  67.882  1.00  0.00    -0.207 C  
BRANCH  12  13
HETATM   13  C   UNL     1      -9.526  15.443  66.371  1.00  0.00    -0.325 C  
BRANCH  13  14
HETATM   14  C   UNL     1     -10.406  16.510  65.752  1.00  0.00    -0.359 C  
BRANCH  14  15
HETATM   15  C   UNL     1     -11.163  15.975  64.545  1.00  0.00    -0.309 C  
BRANCH  15  16
HETATM   16  C   UNL     1     -12.011  14.810  65.004  1.00  0.00    -0.318 C  
BRANCH  16  17
HETATM   17  O   UNL     1     -12.376  13.997  63.895  1.00  0.00    -0.659 OA 
BRANCH  17  18
HETATM   18  P   UNL     1     -11.760  12.386  64.021  1.00  0.00    -0.508 P  
HETATM   19  O   UNL     1     -10.551  12.813  63.181  1.00  0.00    -0.098 OA 
HETATM   20  O   UNL     1     -13.035  11.783  63.437  1.00  0.00    -0.646 OA 
BRANCH  18  21
HETATM   21  O   UNL     1     -11.143  10.774  64.149  1.00  0.00     0.038 OA 
BRANCH  21  22
HETATM   22  C   UNL     1     -10.170  10.601  65.175  1.00  0.00    -0.299 C  
BRANCH  22  23
HETATM   23  C   UNL     1     -10.103  11.788  66.110  1.00  0.00    -0.224 C  
BRANCH  23  24
HETATM   24  N   UNL     1     -10.310  11.458  67.605  1.00  0.00    -0.179 N  
HETATM   25  C   UNL     1      -8.979  11.680  68.296  1.00  0.00    -0.185 C  
HETATM   26  C   UNL     1     -10.726   9.995  67.760  1.00  0.00    -0.280 C  
HETATM   27  C   UNL     1     -11.369  12.354  68.219  1.00  0.00    -0.284 C  
ENDBRANCH  23  24
ENDBRANCH  22  23
ENDBRANCH  21  22
ENDBRANCH  18  21
ENDBRANCH  17  18
ENDBRANCH  16  17
ENDBRANCH  15  16
ENDBRANCH  14  15
ENDBRANCH  13  14
ENDBRANCH  12  13
ENDBRANCH  11  12
ENDBRANCH  10  11
ENDBRANCH   9  10
ENDBRANCH   8   9
ENDBRANCH   7   8
ENDBRANCH   6   7
ENDBRANCH   5   6
ENDBRANCH   4   5
ENDBRANCH   3   4
ENDBRANCH   2   3
TORSDOF 20
ENDMDL
MODEL       46
REMARK 921   NORMALIZED FREE ENERGY PREDICTED BY IDOCK:   -4.44 KCAL/MOL
REMARK 922        TOTAL FREE ENERGY PREDICTED BY IDOCK:  -11.56 KCAL/MOL
REMARK 923 INTER-LIGAND FREE ENERGY PREDICTED BY IDOCK:   -9.06 KCAL/MOL
REMARK 924 INTRA-LIGAND FREE ENERGY PREDICTED BY IDOCK:   -2.50 KCAL/MOL
REMARK 927      BINDING AFFINITY PREDICTED BY RF-SCORE:    0.00 PKD
ROOT
HETATM    1  C   UNL     1     -12.489  10.860  70.781  1.00  0.00    -0.489 C  
HETATM    2  C   UNL     1     -12.107   9.405  70.993  1.00  0.00    -0.373 C  
ENDROOT
BRANCH   2   3
HETATM    3  C   UNL     1     -10.616   9.264  71.289  1.00  0.00    -0.417 C  
BRANCH   3   4
HETATM    4  C   UNL     1     -10.377   8.324  72.466  1.00  0.00    -0.401 C  
BRANCH   4   5
HETATM    5  C   UNL     1      -9.296   7.303  72.130  1.00  0.00    -0.156 C  
BRANCH   5   6
HETATM    6  C   UNL     1      -9.007   7.295  70.634  1.00  0.00    -0.156 C  
BRANCH   6   7
HETATM    7  C   UNL     1      -9.054   5.874  70.089  1.00  0.00    -0.155 C  
BRANCH   7   8
HETATM    8  C   UNL     1     -10.456   5.539  69.595  1.00  0.00    -0.379 C  
BRANCH   8   9
HETATM    9  C   UNL     1     -11.021   6.703  68.795  1.00  0.00    -0.322 C  
BRANCH   9  10
HETATM   10  C   UNL     1     -10.848   6.463  67.304  1.00  0.00    -0.463 C  
BRANCH  10  11
HETATM   11  C   UNL     1     -10.100   7.630  66.677  1.00  0.00    -0.278 C  
BRANCH  11  12
HETATM   12  C   UNL     1     -10.189   8.858  67.567  1.00  0.00    -0.309 C  
BRANCH  12  13
HETATM   13  C   UNL     1     -10.563  10.078  66.737  1.00  0.00    -0.229 C  
BRANCH  13  14
HETATM   14  C   UNL     1      -9.602  10.212  65.573  1.00  0.00    -0.310 C  
BRANCH  14  15
HETATM   15  C   UNL     1     -10.339  10.503  64.274  1.00  0.00    -0.208 C  
BRANCH  15  16
HETATM   16  C   UNL     1      -9.955  11.894  63.820  1.00  0.00    -0.355 C  
BRANCH  16  17
HETATM   17  O   UNL     1     -11.119  12.663  63.546  1.00  0.00    -0.448 OA 
BRANCH  17  18
HETATM   18  P   UNL     1     -11.881  13.249  64.984  1.00  0.00    -0.405 P  
HETATM   19  O   UNL     1     -13.174  12.551  64.550  1.00  0.00    -0.832 OA 
HETATM   20  O   UNL     1     -11.541  14.700  64.651  1.00  0.00    -0.394 OA 
BRANCH  18  21
HETATM   21  O   UNL     1     -12.642  13.834  66.424  1.00  0.00    -0.389 OA 
BRANCH  21  22
HETATM   22  C   UNL     1     -11.842  13.715  67.597  1.00  0.00    -0.369 C  
BRANCH  22  23
HETATM   23  C   UNL     1     -11.559  15.057  68.238  1.00  0.00    -0.334 C  
BRANCH  23  24
HETATM   24  N   UNL     1     -10.091  15.528  68.152  1.00  0.00    -0.217 N  
HETATM   25  C   UNL     1     -10.050  16.674  67.161  1.00  0.00    -0.276 C  
HETATM   26  C   UNL     1      -9.208  14.385  67.647  1.00  0.00    -0.196 C  
HETATM   27  C   UNL     1      -9.589  15.995  69.506  1.00  0.00    -0.200 C  
ENDBRANCH  23  24
ENDBRANCH  22  23
ENDBRANCH  21  22
ENDBRANCH  18  21
ENDBRANCH  17  18
ENDBRANCH  16  17
ENDBRANCH  15  16
ENDBRANCH  14  15
ENDBRANCH  13  14
ENDBRANCH  12  13
ENDBRANCH  11  12
ENDBRANCH  10  11
ENDBRANCH   9  10
ENDBRANCH   8   9
ENDBRANCH   7   8
ENDBRANCH   6   7
ENDBRANCH   5   6
ENDBRANCH   4   5
ENDBRANCH   3   4
ENDBRANCH   2   3
TORSDOF 20
ENDMDL
MODEL       47
REMARK 921   NORMALIZED FREE ENERGY PREDICTED BY IDOCK:   -4.44 KCAL/MOL
REMARK 922        TOTAL FREE ENERGY PREDICTED BY IDOCK:  -11.56 KCAL/MOL
REMARK 923 INTER-LIGAND FREE ENERGY PREDICTED BY IDOCK:   -9.46 KCAL/MOL
REMARK 924 INTRA-LIGAND FREE ENERGY PREDICTED BY IDOCK:   -2.10 KCAL/MOL
REMARK 927      BINDING AFFINITY PREDICTED BY RF-SCORE:    0.00 PKD
ROOT
HETATM    1  C   UNL     1      -7.215   9.062  67.248  1.00  0.00    -0.083 C  
HETATM    2  C   UNL     1      -8.473   8.428  67.816  1.00  0.00    -0.131 C  
ENDROOT
BRANCH   2   3
HETATM    3  C   UNL     1      -9.543   8.267  66.739  1.00  0.00    -0.288 C  
BRANCH   3   4
HETATM    4  C   UNL     1     -10.725   7.454  67.257  1.00  0.00    -0.379 C  
BRANCH   4   5
HETATM    5  C   UNL     1     -10.280   6.495  68.355  1.00  0.00    -0.192 C  
BRANCH   5   6
HETATM    6  C   UNL     1     -11.398   6.278  69.368  1.00  0.00    -0.448 C  
BRANCH   6   7
HETATM    7  C   UNL     1     -10.827   6.141  70.773  1.00  0.00    -0.350 C  
BRANCH   7   8
HETATM    8  C   UNL     1     -11.663   6.936  71.767  1.00  0.00    -0.338 C  
BRANCH   8   9
HETATM    9  C   UNL     1     -12.401   8.058  71.053  1.00  0.00    -0.164 C  
BRANCH   9  10
HETATM   10  C   UNL     1     -12.183   9.383  71.765  1.00  0.00    -0.465 C  
BRANCH  10  11
HETATM   11  C   UNL     1     -12.177  10.518  70.754  1.00  0.00    -0.468 C  
BRANCH  11  12
HETATM   12  C   UNL     1     -11.018  10.361  69.785  1.00  0.00    -0.345 C  
BRANCH  12  13
HETATM   13  C   UNL     1     -11.279  11.170  68.523  1.00  0.00    -0.318 C  
BRANCH  13  14
HETATM   14  C   UNL     1     -11.864  12.517  68.897  1.00  0.00    -0.346 C  
BRANCH  14  15
HETATM   15  C   UNL     1     -12.010  13.418  67.679  1.00  0.00    -0.362 C  
BRANCH  15  16
HETATM   16  C   UNL     1     -11.814  12.568  66.444  1.00  0.00    -0.381 C  
BRANCH  16  17
HETATM   17  O   UNL     1     -12.378  13.212  65.307  1.00  0.00    -0.430 OA 
BRANCH  17  18
HETATM   18  P   UNL     1     -11.605  14.716  64.944  1.00  0.00    -0.396 P  
HETATM   19  O   UNL     1     -12.693  14.991  63.901  1.00  0.00    -0.775 OA 
HETATM   20  O   UNL     1     -10.276  14.031  64.632  1.00  0.00    -0.420 OA 
BRANCH  18  21
HETATM   21  O   UNL     1     -10.831  16.221  64.583  1.00  0.00    -0.687 OA 
BRANCH  21  22
HETATM   22  C   UNL     1     -10.864  17.165  65.650  1.00  0.00    -0.049 C  
BRANCH  22  23
HETATM   23  C   UNL     1      -9.543  17.248  66.384  1.00  0.00    -0.274 C  
BRANCH  23  24
HETATM   24  N   UNL     1      -9.175  18.651  66.914  1.00  0.00    -0.295 N  
HETATM   25  C   UNL     1      -8.823  18.492  68.380  1.00  0.00    -0.322 C  
HETATM   26  C   UNL     1     -10.376  19.589  66.777  1.00  0.00    -0.462 C  
HETATM   27  C   UNL     1      -7.993  19.227  66.156  1.00  0.00    -0.294 C  
ENDBRANCH  23  24
ENDBRANCH  22  23
ENDBRANCH  21  22
ENDBRANCH  18  21
ENDBRANCH  17  18
ENDBRANCH  16  17
ENDBRANCH  15  16
ENDBRANCH  14  15
ENDBRANCH  13  14
ENDBRANCH  12  13
ENDBRANCH  11  12
ENDBRANCH  10  11
ENDBRANCH   9  10
ENDBRANCH   8   9
ENDBRANCH   7   8
ENDBRANCH   6   7
ENDBRANCH   5   6
ENDBRANCH   4   5
ENDBRANCH   3   4
ENDBRANCH   2   3
TORSDOF 20
ENDMDL
MODEL       48
REMARK 921   NORMALIZED FREE ENERGY PREDICTED BY IDOCK:   -4.44 KCAL/MOL
REMARK 922        TOTAL FREE ENERGY PREDICTED BY IDOCK:  -11.54 KCAL/MOL
REMARK 923 INTER-LIGAND FREE ENERGY PREDICTED BY IDOCK:   -8.78 KCAL/MOL
REMARK 924 INTRA-LIGAND FREE ENERGY PREDICTED BY IDOCK:   -2.76 KCAL/MOL
REMARK 927      BINDING AFFINITY PREDICTED BY RF-SCORE:    0.00 PKD
ROOT
HETATM    1  C   UNL     1     -13.982   7.834  71.636  1.00  0.00    -0.495 C  
HETATM    2  C   UNL     1     -13.545   9.260  71.923  1.00  0.00    -0.494 C  
ENDROOT
BRANCH   2   3
HETATM    3  C   UNL     1     -12.514   9.736  70.902  1.00  0.00    -0.366 C  
BRANCH   3   4
HETATM    4  C   UNL     1     -11.094   9.510  71.411  1.00  0.00    -0.438 C  
BRANCH   4   5
HETATM    5  C   UNL     1     -10.084   9.671  70.280  1.00  0.00    -0.331 C  
BRANCH   5   6
HETATM    6  C   UNL     1      -8.679   9.327  70.759  1.00  0.00    -0.272 C  
BRANCH   6   7
HETATM    7  C   UNL     1      -8.188   8.046  70.097  1.00  0.00    -0.120 C  
BRANCH   7   8
HETATM    8  C   UNL     1      -8.286   6.874  71.065  1.00  0.00    -0.126 C  
BRANCH   8   9
HETATM    9  C   UNL     1      -9.123   5.760  70.455  1.00  0.00    -0.160 C  
BRANCH   9  10
HETATM   10  C   UNL     1     -10.602   5.997  70.713  1.00  0.00    -0.316 C  
BRANCH  10  11
HETATM   11  C   UNL     1     -11.312   6.300  69.403  1.00  0.00    -0.448 C  
BRANCH  11  12
HETATM   12  C   UNL     1     -10.524   5.746  68.229  1.00  0.00    -0.281 C  
BRANCH  12  13
HETATM   13  C   UNL     1     -10.839   6.537  66.968  1.00  0.00    -0.465 C  
BRANCH  13  14
HETATM   14  C   UNL     1     -10.650   8.016  67.237  1.00  0.00    -0.360 C  
BRANCH  14  15
HETATM   15  C   UNL     1      -9.588   8.615  66.326  1.00  0.00    -0.322 C  
BRANCH  15  16
HETATM   16  C   UNL     1      -9.693  10.121  66.413  1.00  0.00    -0.205 C  
BRANCH  16  17
HETATM   17  O   UNL     1     -11.007  10.546  66.074  1.00  0.00    -0.011 OA 
BRANCH  17  18
HETATM   18  P   UNL     1     -11.386  12.108  66.715  1.00  0.00    -0.334 P  
HETATM   19  O   UNL     1     -12.007  11.424  67.938  1.00  0.00    -0.626 OA 
HETATM   20  O   UNL     1     -12.172  12.500  65.466  1.00  0.00    -0.528 OA 
BRANCH  18  21
HETATM   21  O   UNL     1     -11.764  13.669  67.356  1.00  0.00    -0.337 OA 
BRANCH  21  22
HETATM   22  C   UNL     1     -10.663  14.329  67.976  1.00  0.00    -0.238 C  
BRANCH  22  23
HETATM   23  C   UNL     1     -10.427  15.711  67.407  1.00  0.00    -0.291 C  
BRANCH  23  24
HETATM   24  N   UNL     1     -10.167  16.815  68.455  1.00  0.00    -0.278 N  
HETATM   25  C   UNL     1      -8.698  16.740  68.823  1.00  0.00    -0.258 C  
HETATM   26  C   UNL     1     -11.018  16.559  69.701  1.00  0.00    -0.287 C  
HETATM   27  C   UNL     1     -10.492  18.187  67.894  1.00  0.00    -0.392 C  
ENDBRANCH  23  24
ENDBRANCH  22  23
ENDBRANCH  21  22
ENDBRANCH  18  21
ENDBRANCH  17  18
ENDBRANCH  16  17
ENDBRANCH  15  16
ENDBRANCH  14  15
ENDBRANCH  13  14
ENDBRANCH  12  13
ENDBRANCH  11  12
ENDBRANCH  10  11
ENDBRANCH   9  10
ENDBRANCH   8   9
ENDBRANCH   7   8
ENDBRANCH   6   7
ENDBRANCH   5   6
ENDBRANCH   4   5
ENDBRANCH   3   4
ENDBRANCH   2   3
TORSDOF 20
ENDMDL
MODEL       49
REMARK 921   NORMALIZED FREE ENERGY PREDICTED BY IDOCK:   -4.43 KCAL/MOL
REMARK 922        TOTAL FREE ENERGY PREDICTED BY IDOCK:  -11.54 KCAL/MOL
REMARK 923 INTER-LIGAND FREE ENERGY PREDICTED BY IDOCK:   -9.69 KCAL/MOL
REMARK 924 INTRA-LIGAND FREE ENERGY PREDICTED BY IDOCK:   -1.85 KCAL/MOL
REMARK 927      BINDING AFFINITY PREDICTED BY RF-SCORE:    0.00 PKD
ROOT
HETATM    1  C   UNL     1     -11.979  10.547  70.506  1.00  0.00    -0.436 C  
HETATM    2  C   UNL     1     -13.141  10.519  71.484  1.00  0.00    -0.532 C  
ENDROOT
BRANCH   2   3
HETATM    3  C   UNL     1     -13.116   9.251  72.334  1.00  0.00    -0.481 C  
BRANCH   3   4
HETATM    4  C   UNL     1     -13.999   8.166  71.727  1.00  0.00    -0.479 C  
BRANCH   4   5
HETATM    5  C   UNL     1     -13.179   6.923  71.400  1.00  0.00    -0.287 C  
BRANCH   5   6
HETATM    6  C   UNL     1     -11.835   6.960  72.117  1.00  0.00    -0.318 C  
BRANCH   6   7
HETATM    7  C   UNL     1     -10.696   6.770  71.124  1.00  0.00    -0.261 C  
BRANCH   7   8
HETATM    8  C   UNL     1     -11.219   6.185  69.819  1.00  0.00    -0.494 C  
BRANCH   8   9
HETATM    9  C   UNL     1     -10.588   6.900  68.634  1.00  0.00    -0.254 C  
BRANCH   9  10
HETATM   10  C   UNL     1      -9.787   8.106  69.100  1.00  0.00    -0.182 C  
BRANCH  10  11
HETATM   11  C   UNL     1      -8.830   8.545  68.002  1.00  0.00    -0.142 C  
BRANCH  11  12
HETATM   12  C   UNL     1      -9.562   8.675  66.678  1.00  0.00    -0.285 C  
BRANCH  12  13
HETATM   13  C   UNL     1      -8.616   8.370  65.526  1.00  0.00    -0.201 C  
BRANCH  13  14
HETATM   14  C   UNL     1      -8.974   9.235  64.334  1.00  0.00    -0.163 C  
BRANCH  14  15
HETATM   15  C   UNL     1      -9.959  10.331  64.719  1.00  0.00    -0.392 C  
BRANCH  15  16
HETATM   16  C   UNL     1     -10.339  11.079  63.461  1.00  0.00    -0.340 C  
BRANCH  16  17
HETATM   17  O   UNL     1     -11.687  11.527  63.540  1.00  0.00    -0.379 OA 
BRANCH  17  18
HETATM   18  P   UNL     1     -11.843  13.007  64.422  1.00  0.00    -0.449 P  
HETATM   19  O   UNL     1     -12.621  12.248  65.503  1.00  0.00    -0.548 OA 
HETATM   20  O   UNL     1     -12.497  13.718  63.239  1.00  0.00    -0.819 OA 
BRANCH  18  21
HETATM   21  O   UNL     1     -11.998  14.488  65.304  1.00  0.00    -0.368 OA 
BRANCH  21  22
HETATM   22  C   UNL     1     -11.540  14.415  66.652  1.00  0.00    -0.384 C  
BRANCH  22  23
HETATM   23  C   UNL     1     -10.289  15.235  66.878  1.00  0.00    -0.278 C  
BRANCH  23  24
HETATM   24  N   UNL     1     -10.397  16.303  67.988  1.00  0.00    -0.270 N  
HETATM   25  C   UNL     1      -9.078  16.300  68.737  1.00  0.00    -0.245 C  
HETATM   26  C   UNL     1     -11.530  15.939  68.950  1.00  0.00    -0.386 C  
HETATM   27  C   UNL     1     -10.655  17.678  67.398  1.00  0.00    -0.318 C  
ENDBRANCH  23  24
ENDBRANCH  22  23
ENDBRANCH  21  22
ENDBRANCH  18  21
ENDBRANCH  17  18
ENDBRANCH  16  17
ENDBRANCH  15  16
ENDBRANCH  14  15
ENDBRANCH  13  14
ENDBRANCH  12  13
ENDBRANCH  11  12
ENDBRANCH  10  11
ENDBRANCH   9  10
ENDBRANCH   8   9
ENDBRANCH   7   8
ENDBRANCH   6   7
ENDBRANCH   5   6
ENDBRANCH   4   5
ENDBRANCH   3   4
ENDBRANCH   2   3
TORSDOF 20
ENDMDL
MODEL       50
REMARK 921   NORMALIZED FREE ENERGY PREDICTED BY IDOCK:   -4.42 KCAL/MOL
REMARK 922        TOTAL FREE ENERGY PREDICTED BY IDOCK:  -11.51 KCAL/MOL
REMARK 923 INTER-LIGAND FREE ENERGY PREDICTED BY IDOCK:   -9.03 KCAL/MOL
REMARK 924 INTRA-LIGAND FREE ENERGY PREDICTED BY IDOCK:   -2.48 KCAL/MOL
REMARK 927      BINDING AFFINITY PREDICTED BY RF-SCORE:    0.00 PKD
ROOT
HETATM    1  C   UNL     1     -12.715  15.779  73.060  1.00  0.00    -0.599 C  
HETATM    2  C   UNL     1     -12.072  14.922  71.983  1.00  0.00    -0.436 C  
ENDROOT
BRANCH   2   3
HETATM    3  C   UNL     1     -12.769  15.110  70.639  1.00  0.00    -0.451 C  
BRANCH   3   4
HETATM    4  C   UNL     1     -11.823  14.807  69.482  1.00  0.00    -0.366 C  
BRANCH   4   5
HETATM    5  C   UNL     1     -11.807  13.313  69.175  1.00  0.00    -0.378 C  
BRANCH   5   6
HETATM    6  C   UNL     1     -12.011  13.066  67.685  1.00  0.00    -0.353 C  
BRANCH   6   7
HETATM    7  C   UNL     1     -11.595  14.290  66.880  1.00  0.00    -0.405 C  
BRANCH   7   8
HETATM    8  C   UNL     1     -11.549  13.959  65.394  1.00  0.00    -0.331 C  
BRANCH   8   9
HETATM    9  C   UNL     1     -12.613  12.926  65.054  1.00  0.00    -0.538 C  
BRANCH   9  10
HETATM   10  C   UNL     1     -12.168  12.061  63.886  1.00  0.00    -0.555 C  
BRANCH  10  11
HETATM   11  C   UNL     1     -10.692  12.296  63.603  1.00  0.00    -0.513 C  
BRANCH  11  12
HETATM   12  C   UNL     1      -9.944  10.975  63.551  1.00  0.00    -0.421 C  
BRANCH  12  13
HETATM   13  C   UNL     1      -9.963  10.310  64.920  1.00  0.00    -0.393 C  
BRANCH  13  14
HETATM   14  C   UNL     1      -8.726  10.714  65.697  1.00  0.00    -0.198 C  
BRANCH  14  15
HETATM   15  C   UNL     1      -9.090  11.390  67.011  1.00  0.00    -0.169 C  
BRANCH  15  16
HETATM   16  C   UNL     1      -8.339  12.700  67.086  1.00  0.00    -0.172 C  
BRANCH  16  17
HETATM   17  O   UNL     1      -8.448  13.258  68.390  1.00  0.00    -0.165 OA 
BRANCH  17  18
HETATM   18  P   UNL     1      -8.104  14.953  68.417  1.00  0.00    -0.154 P  
HETATM   19  O   UNL     1      -7.815  14.890  66.914  1.00  0.00    -0.155 OA 
HETATM   20  O   UNL     1      -7.039  14.785  69.499  1.00  0.00    -0.160 OA 
BRANCH  18  21
HETATM   21  O   UNL     1      -7.761  16.649  68.445  1.00  0.00    -0.182 OA 
BRANCH  21  22
HETATM   22  C   UNL     1      -8.182  17.349  67.278  1.00  0.00    -0.205 C  
BRANCH  22  23
HETATM   23  C   UNL     1      -9.582  17.906  67.416  1.00  0.00    -0.271 C  
BRANCH  23  24
HETATM   24  N   UNL     1      -9.692  19.442  67.290  1.00  0.00    -0.322 N  
HETATM   25  C   UNL     1     -10.590  19.726  66.102  1.00  0.00    -0.464 C  
HETATM   26  C   UNL     1      -8.307  20.042  67.037  1.00  0.00    -0.323 C  
HETATM   27  C   UNL     1     -10.286  20.050  68.547  1.00  0.00    -0.357 C  
ENDBRANCH  23  24
ENDBRANCH  22  23
ENDBRANCH  21  22
ENDBRANCH  18  21
ENDBRANCH  17  18
ENDBRANCH  16  17
ENDBRANCH  15  16
ENDBRANCH  14  15
ENDBRANCH  13  14
ENDBRANCH  12  13
ENDBRANCH  11  12
ENDBRANCH  10  11
ENDBRANCH   9  10
ENDBRANCH   8   9
ENDBRANCH   7   8
ENDBRANCH   6   7
ENDBRANCH   5   6
ENDBRANCH   4   5
ENDBRANCH   3   4
ENDBRANCH   2   3
TORSDOF 20
ENDMDL
MODEL       51
REMARK 921   NORMALIZED FREE ENERGY PREDICTED BY IDOCK:   -4.42 KCAL/MOL
REMARK 922        TOTAL FREE ENERGY PREDICTED BY IDOCK:  -11.51 KCAL/MOL
REMARK 923 INTER-LIGAND FREE ENERGY PREDICTED BY IDOCK:   -8.87 KCAL/MOL
REMARK 924 INTRA-LIGAND FREE ENERGY PREDICTED BY IDOCK:   -2.64 KCAL/MOL
REMARK 927      BINDING AFFINITY PREDICTED BY RF-SCORE:    0.00 PKD
ROOT
HETATM    1  C   UNL     1     -12.650  10.323  70.963  1.00  0.00    -0.487 C  
HETATM    2  C   UNL     1     -13.432   9.625  72.062  1.00  0.00    -0.514 C  
ENDROOT
BRANCH   2   3
HETATM    3  C   UNL     1     -13.865   8.227  71.627  1.00  0.00    -0.431 C  
BRANCH   3   4
HETATM    4  C   UNL     1     -12.711   7.473  70.974  1.00  0.00    -0.201 C  
BRANCH   4   5
HETATM    5  C   UNL     1     -12.102   6.470  71.947  1.00  0.00    -0.388 C  
BRANCH   5   6
HETATM    6  C   UNL     1     -10.587   6.629  72.008  1.00  0.00    -0.236 C  
BRANCH   6   7
HETATM    7  C   UNL     1     -10.215   7.922  72.723  1.00  0.00    -0.380 C  
BRANCH   7   8
HETATM    8  C   UNL     1      -9.033   8.590  72.034  1.00  0.00    -0.301 C  
BRANCH   8   9
HETATM    9  C   UNL     1      -9.432   9.052  70.640  1.00  0.00    -0.286 C  
BRANCH   9  10
HETATM   10  C   UNL     1      -8.485   8.483  69.595  1.00  0.00    -0.130 C  
BRANCH  10  11
HETATM   11  C   UNL     1      -9.237   7.524  68.686  1.00  0.00    -0.144 C  
BRANCH  11  12
HETATM   12  C   UNL     1     -10.349   8.250  67.949  1.00  0.00    -0.278 C  
BRANCH  12  13
HETATM   13  C   UNL     1      -9.823   8.818  66.639  1.00  0.00    -0.335 C  
BRANCH  13  14
HETATM   14  C   UNL     1     -10.269  10.259  66.496  1.00  0.00    -0.289 C  
BRANCH  14  15
HETATM   15  C   UNL     1     -11.064  10.718  67.710  1.00  0.00    -0.381 C  
BRANCH  15  16
HETATM   16  C   UNL     1     -11.612  12.096  67.416  1.00  0.00    -0.340 C  
BRANCH  16  17
HETATM   17  O   UNL     1     -11.854  12.245  66.022  1.00  0.00    -0.493 OA 
BRANCH  17  18
HETATM   18  P   UNL     1     -11.559  13.857  65.466  1.00  0.00    -0.357 P  
HETATM   19  O   UNL     1     -13.046  13.980  65.121  1.00  0.00    -0.776 OA 
HETATM   20  O   UNL     1     -10.489  13.390  64.482  1.00  0.00    -0.404 OA 
BRANCH  18  21
HETATM   21  O   UNL     1     -11.263  15.469  64.912  1.00  0.00    -0.405 OA 
BRANCH  21  22
HETATM   22  C   UNL     1     -10.751  16.346  65.912  1.00  0.00    -0.214 C  
BRANCH  22  23
HETATM   23  C   UNL     1      -9.286  16.099  66.196  1.00  0.00    -0.347 C  
BRANCH  23  24
HETATM   24  N   UNL     1      -8.960  15.684  67.647  1.00  0.00    -0.179 N  
HETATM   25  C   UNL     1      -7.810  16.557  68.111  1.00  0.00    -0.168 C  
HETATM   26  C   UNL     1      -8.532  14.216  67.684  1.00  0.00    -0.185 C  
HETATM   27  C   UNL     1     -10.161  15.884  68.554  1.00  0.00    -0.226 C  
ENDBRANCH  23  24
ENDBRANCH  22  23
ENDBRANCH  21  22
ENDBRANCH  18  21
ENDBRANCH  17  18
ENDBRANCH  16  17
ENDBRANCH  15  16
ENDBRANCH  14  15
ENDBRANCH  13  14
ENDBRANCH  12  13
ENDBRANCH  11  12
ENDBRANCH  10  11
ENDBRANCH   9  10
ENDBRANCH   8   9
ENDBRANCH   7   8
ENDBRANCH   6   7
ENDBRANCH   5   6
ENDBRANCH   4   5
ENDBRANCH   3   4
ENDBRANCH   2   3
TORSDOF 20
ENDMDL
MODEL       52
REMARK 921   NORMALIZED FREE ENERGY PREDICTED BY IDOCK:   -4.42 KCAL/MOL
REMARK 922        TOTAL FREE ENERGY PREDICTED BY IDOCK:  -11.51 KCAL/MOL
REMARK 923 INTER-LIGAND FREE ENERGY PREDICTED BY IDOCK:   -9.50 KCAL/MOL
REMARK 924 INTRA-LIGAND FREE ENERGY PREDICTED BY IDOCK:   -2.01 KCAL/MOL
REMARK 927      BINDING AFFINITY PREDICTED BY RF-SCORE:    0.00 PKD
ROOT
HETATM    1  C   UNL     1     -10.969  15.441  64.858  1.00  0.00    -0.453 C  
HETATM    2  C   UNL     1     -12.033  14.403  64.543  1.00  0.00    -0.487 C  
ENDROOT
BRANCH   2   3
HETATM    3  C   UNL     1     -12.699  13.894  65.819  1.00  0.00    -0.503 C  
BRANCH   3   4
HETATM    4  C   UNL     1     -11.711  13.113  66.679  1.00  0.00    -0.427 C  
BRANCH   4   5
HETATM    5  C   UNL     1     -11.252  11.849  65.961  1.00  0.00    -0.377 C  
BRANCH   5   6
HETATM    6  C   UNL     1     -10.663  10.850  66.951  1.00  0.00    -0.318 C  
BRANCH   6   7
HETATM    7  C   UNL     1     -10.677  11.425  68.361  1.00  0.00    -0.237 C  
BRANCH   7   8
HETATM    8  C   UNL     1     -10.080  10.430  69.348  1.00  0.00    -0.251 C  
BRANCH   8   9
HETATM    9  C   UNL     1     -11.166   9.882  70.261  1.00  0.00    -0.364 C  
BRANCH   9  10
HETATM   10  C   UNL     1     -12.376  10.803  70.269  1.00  0.00    -0.423 C  
BRANCH  10  11
HETATM   11  C   UNL     1     -12.990  10.835  71.659  1.00  0.00    -0.581 C  
BRANCH  11  12
HETATM   12  C   UNL     1     -13.292  12.265  72.074  1.00  0.00    -0.491 C  
BRANCH  12  13
HETATM   13  C   UNL     1     -12.746  13.236  71.037  1.00  0.00    -0.374 C  
BRANCH  13  14
HETATM   14  C   UNL     1     -13.247  14.633  71.338  1.00  0.00    -0.425 C  
BRANCH  14  15
HETATM   15  C   UNL     1     -12.238  15.690  70.913  1.00  0.00    -0.466 C  
BRANCH  15  16
HETATM   16  C   UNL     1     -11.343  15.083  69.856  1.00  0.00    -0.278 C  
BRANCH  16  17
HETATM   17  O   UNL     1     -11.286  15.927  68.712  1.00  0.00    -0.334 OA 
BRANCH  17  18
HETATM   18  P   UNL     1      -9.680  16.470  68.367  1.00  0.00    -0.255 P  
HETATM   19  O   UNL     1      -9.140  15.349  69.261  1.00  0.00    -0.231 OA 
HETATM   20  O   UNL     1      -9.984  17.883  68.858  1.00  0.00    -0.359 OA 
BRANCH  18  21
HETATM   21  O   UNL     1      -8.075  17.013  68.020  1.00  0.00    -0.193 OA 
BRANCH  21  22
HETATM   22  C   UNL     1      -7.748  18.275  68.595  1.00  0.00    -0.302 C  
BRANCH  22  23
HETATM   23  C   UNL     1      -6.558  18.922  67.921  1.00  0.00    -0.214 C  
BRANCH  23  24
HETATM   24  N   UNL     1      -6.904  20.037  66.910  1.00  0.00    -0.211 N  
HETATM   25  C   UNL     1      -8.341  20.444  67.171  1.00  0.00    -0.318 C  
HETATM   26  C   UNL     1      -6.777  19.501  65.483  1.00  0.00    -0.283 C  
HETATM   27  C   UNL     1      -5.987  21.234  67.084  1.00  0.00    -0.345 C  
ENDBRANCH  23  24
ENDBRANCH  22  23
ENDBRANCH  21  22
ENDBRANCH  18  21
ENDBRANCH  17  18
ENDBRANCH  16  17
ENDBRANCH  15  16
ENDBRANCH  14  15
ENDBRANCH  13  14
ENDBRANCH  12  13
ENDBRANCH  11  12
ENDBRANCH  10  11
ENDBRANCH   9  10
ENDBRANCH   8   9
ENDBRANCH   7   8
ENDBRANCH   6   7
ENDBRANCH   5   6
ENDBRANCH   4   5
ENDBRANCH   3   4
ENDBRANCH   2   3
TORSDOF 20
ENDMDL
MODEL       53
REMARK 921   NORMALIZED FREE ENERGY PREDICTED BY IDOCK:   -4.42 KCAL/MOL
REMARK 922        TOTAL FREE ENERGY PREDICTED BY IDOCK:  -11.50 KCAL/MOL
REMARK 923 INTER-LIGAND FREE ENERGY PREDICTED BY IDOCK:   -9.06 KCAL/MOL
REMARK 924 INTRA-LIGAND FREE ENERGY PREDICTED BY IDOCK:   -2.44 KCAL/MOL
REMARK 927      BINDING AFFINITY PREDICTED BY RF-SCORE:    0.00 PKD
ROOT
HETATM    1  C   UNL     1      -8.372   9.136  70.552  1.00  0.00    -0.222 C  
HETATM    2  C   UNL     1      -9.310   8.872  71.718  1.00  0.00    -0.304 C  
ENDROOT
BRANCH   2   3
HETATM    3  C   UNL     1     -10.750   9.229  71.357  1.00  0.00    -0.432 C  
BRANCH   3   4
HETATM    4  C   UNL     1     -11.739   8.353  72.119  1.00  0.00    -0.442 C  
BRANCH   4   5
HETATM    5  C   UNL     1     -11.012   7.461  73.120  1.00  0.00    -0.408 C  
BRANCH   5   6
HETATM    6  C   UNL     1     -11.279   5.990  72.825  1.00  0.00    -0.299 C  
BRANCH   6   7
HETATM    7  C   UNL     1      -9.984   5.275  72.464  1.00  0.00    -0.208 C  
BRANCH   7   8
HETATM    8  C   UNL     1     -10.147   4.502  71.162  1.00  0.00    -0.218 C  
BRANCH   8   9
HETATM    9  C   UNL     1      -9.622   5.325  69.995  1.00  0.00    -0.238 C  
BRANCH   9  10
HETATM   10  C   UNL     1     -10.770   5.855  69.152  1.00  0.00    -0.394 C  
BRANCH  10  11
HETATM   11  C   UNL     1     -10.347   5.932  67.694  1.00  0.00    -0.265 C  
BRANCH  11  12
HETATM   12  C   UNL     1     -10.918   7.178  67.039  1.00  0.00    -0.304 C  
BRANCH  12  13
HETATM   13  C   UNL     1      -9.992   8.362  67.275  1.00  0.00    -0.291 C  
BRANCH  13  14
HETATM   14  C   UNL     1     -10.816   9.595  67.588  1.00  0.00    -0.276 C  
BRANCH  14  15
HETATM   15  C   UNL     1     -10.277  10.822  66.868  1.00  0.00    -0.274 C  
BRANCH  15  16
HETATM   16  C   UNL     1     -11.254  11.956  67.082  1.00  0.00    -0.319 C  
BRANCH  16  17
HETATM   17  O   UNL     1     -11.922  12.269  65.866  1.00  0.00    -0.555 OA 
BRANCH  17  18
HETATM   18  P   UNL     1     -11.577  13.872  65.313  1.00  0.00    -0.363 P  
HETATM   19  O   UNL     1     -13.083  14.154  65.280  1.00  0.00    -0.763 OA 
HETATM   20  O   UNL     1     -10.779  13.357  64.118  1.00  0.00    -0.392 OA 
BRANCH  18  21
HETATM   21  O   UNL     1     -11.231  15.475  64.761  1.00  0.00    -0.422 OA 
BRANCH  21  22
HETATM   22  C   UNL     1     -10.568  16.293  65.722  1.00  0.00    -0.324 C  
BRANCH  22  23
HETATM   23  C   UNL     1      -9.874  15.477  66.790  1.00  0.00    -0.241 C  
BRANCH  23  24
HETATM   24  N   UNL     1      -9.941  16.069  68.215  1.00  0.00    -0.218 N  
HETATM   25  C   UNL     1     -11.270  15.646  68.809  1.00  0.00    -0.332 C  
HETATM   26  C   UNL     1      -9.877  17.596  68.145  1.00  0.00    -0.318 C  
HETATM   27  C   UNL     1      -8.801  15.553  69.073  1.00  0.00    -0.242 C  
ENDBRANCH  23  24
ENDBRANCH  22  23
ENDBRANCH  21  22
ENDBRANCH  18  21
ENDBRANCH  17  18
ENDBRANCH  16  17
ENDBRANCH  15  16
ENDBRANCH  14  15
ENDBRANCH  13  14
ENDBRANCH  12  13
ENDBRANCH  11  12
ENDBRANCH  10  11
ENDBRANCH   9  10
ENDBRANCH   8   9
ENDBRANCH   7   8
ENDBRANCH   6   7
ENDBRANCH   5   6
ENDBRANCH   4   5
ENDBRANCH   3   4
ENDBRANCH   2   3
TORSDOF 20
ENDMDL
MODEL       54
REMARK 921   NORMALIZED FREE ENERGY PREDICTED BY IDOCK:   -4.40 KCAL/MOL
REMARK 922        TOTAL FREE ENERGY PREDICTED BY IDOCK:  -11.47 KCAL/MOL
REMARK 923 INTER-LIGAND FREE ENERGY PREDICTED BY IDOCK:   -9.16 KCAL/MOL
REMARK 924 INTRA-LIGAND FREE ENERGY PREDICTED BY IDOCK:   -2.32 KCAL/MOL
REMARK 927      BINDING AFFINITY PREDICTED BY RF-SCORE:    0.00 PKD
ROOT
HETATM    1  C   UNL     1      -8.170   7.683  67.883  1.00  0.00    -0.123 C  
HETATM    2  C   UNL     1      -9.012   6.706  68.687  1.00  0.00    -0.124 C  
ENDROOT
BRANCH   2   3
HETATM    3  C   UNL     1     -10.502   6.943  68.457  1.00  0.00    -0.229 C  
BRANCH   3   4
HETATM    4  C   UNL     1     -11.341   6.228  69.510  1.00  0.00    -0.475 C  
BRANCH   4   5
HETATM    5  C   UNL     1     -10.455   5.404  70.438  1.00  0.00    -0.345 C  
BRANCH   5   6
HETATM    6  C   UNL     1     -10.818   5.659  71.897  1.00  0.00    -0.302 C  
BRANCH   6   7
HETATM    7  C   UNL     1      -9.777   6.553  72.557  1.00  0.00    -0.165 C  
BRANCH   7   8
HETATM    8  C   UNL     1     -10.304   7.976  72.688  1.00  0.00    -0.398 C  
BRANCH   8   9
HETATM    9  C   UNL     1      -9.627   8.880  71.669  1.00  0.00    -0.363 C  
BRANCH   9  10
HETATM   10  C   UNL     1     -10.662   9.665  70.878  1.00  0.00    -0.402 C  
BRANCH  10  11
HETATM   11  C   UNL     1     -12.017   9.565  71.560  1.00  0.00    -0.475 C  
BRANCH  11  12
HETATM   12  C   UNL     1     -13.009  10.517  70.914  1.00  0.00    -0.455 C  
BRANCH  12  13
HETATM   13  C   UNL     1     -12.562  11.957  71.124  1.00  0.00    -0.390 C  
BRANCH  13  14
HETATM   14  C   UNL     1     -13.454  12.619  72.154  1.00  0.00    -0.561 C  
BRANCH  14  15
HETATM   15  C   UNL     1     -13.637  14.102  71.861  1.00  0.00    -0.504 C  
BRANCH  15  16
HETATM   16  C   UNL     1     -12.354  14.619  71.251  1.00  0.00    -0.341 C  
BRANCH  16  17
HETATM   17  O   UNL     1     -12.636  15.414  70.105  1.00  0.00    -0.364 OA 
BRANCH  17  18
HETATM   18  P   UNL     1     -11.404  15.296  68.896  1.00  0.00    -0.347 P  
HETATM   19  O   UNL     1     -12.181  14.139  68.258  1.00  0.00    -0.317 OA 
HETATM   20  O   UNL     1     -10.306  15.114  69.941  1.00  0.00    -0.246 OA 
BRANCH  18  21
HETATM   21  O   UNL     1     -10.173  15.180  67.687  1.00  0.00    -0.238 OA 
BRANCH  21  22
HETATM   22  C   UNL     1     -10.096  16.309  66.821  1.00  0.00    -0.278 C  
BRANCH  22  23
HETATM   23  C   UNL     1     -10.593  17.575  67.483  1.00  0.00    -0.333 C  
BRANCH  23  24
HETATM   24  N   UNL     1      -9.709  18.822  67.259  1.00  0.00    -0.295 N  
HETATM   25  C   UNL     1     -10.544  19.826  66.489  1.00  0.00    -0.467 C  
HETATM   26  C   UNL     1      -8.478  18.444  66.434  1.00  0.00    -0.245 C  
HETATM   27  C   UNL     1      -9.268  19.421  68.582  1.00  0.00    -0.378 C  
ENDBRANCH  23  24
ENDBRANCH  22  23
ENDBRANCH  21  22
ENDBRANCH  18  21
ENDBRANCH  17  18
ENDBRANCH  16  17
ENDBRANCH  15  16
ENDBRANCH  14  15
ENDBRANCH  13  14
ENDBRANCH  12  13
ENDBRANCH  11  12
ENDBRANCH  10  11
ENDBRANCH   9  10
ENDBRANCH   8   9
ENDBRANCH   7   8
ENDBRANCH   6   7
ENDBRANCH   5   6
ENDBRANCH   4   5
ENDBRANCH   3   4
ENDBRANCH   2   3
TORSDOF 20
ENDMDL
MODEL       55
REMARK 921   NORMALIZED FREE ENERGY PREDICTED BY IDOCK:   -4.39 KCAL/MOL
REMARK 922        TOTAL FREE ENERGY PREDICTED BY IDOCK:  -11.45 KCAL/MOL
REMARK 923 INTER-LIGAND FREE ENERGY PREDICTED BY IDOCK:   -8.74 KCAL/MOL
REMARK 924 INTRA-LIGAND FREE ENERGY PREDICTED BY IDOCK:   -2.71 KCAL/MOL
REMARK 927      BINDING AFFINITY PREDICTED BY RF-SCORE:    0.00 PKD
ROOT
HETATM    1  C   UNL     1     -10.410  15.102  65.462  1.00  0.00    -0.399 C  
HETATM    2  C   UNL     1     -11.492  14.489  66.335  1.00  0.00    -0.362 C  
ENDROOT
BRANCH   2   3
HETATM    3  C   UNL     1     -12.651  13.967  65.489  1.00  0.00    -0.560 C  
BRANCH   3   4
HETATM    4  C   UNL     1     -12.398  12.531  65.040  1.00  0.00    -0.522 C  
BRANCH   4   5
HETATM    5  C   UNL     1     -11.952  12.493  63.582  1.00  0.00    -0.621 C  
BRANCH   5   6
HETATM    6  C   UNL     1     -10.804  11.507  63.396  1.00  0.00    -0.423 C  
BRANCH   6   7
HETATM    7  C   UNL     1      -9.896  11.508  64.618  1.00  0.00    -0.283 C  
BRANCH   7   8
HETATM    8  C   UNL     1      -9.618  10.083  65.077  1.00  0.00    -0.362 C  
BRANCH   8   9
HETATM    9  C   UNL     1      -9.220  10.072  66.544  1.00  0.00    -0.182 C  
BRANCH   9  10
HETATM   10  C   UNL     1     -10.452  10.112  67.435  1.00  0.00    -0.310 C  
BRANCH  10  11
HETATM   11  C   UNL     1     -10.468  11.406  68.235  1.00  0.00    -0.221 C  
BRANCH  11  12
HETATM   12  C   UNL     1     -11.873  11.710  68.725  1.00  0.00    -0.387 C  
BRANCH  12  13
HETATM   13  C   UNL     1     -11.818  12.679  69.898  1.00  0.00    -0.364 C  
BRANCH  13  14
HETATM   14  C   UNL     1     -12.500  12.057  71.100  1.00  0.00    -0.353 C  
BRANCH  14  15
HETATM   15  C   UNL     1     -12.951  10.633  70.809  1.00  0.00    -0.396 C  
BRANCH  15  16
HETATM   16  C   UNL     1     -12.265   9.715  71.796  1.00  0.00    -0.384 C  
BRANCH  16  17
HETATM   17  O   UNL     1     -10.907   9.515  71.423  1.00  0.00    -0.347 OA 
BRANCH  17  18
HETATM   18  P   UNL     1     -10.429   7.855  71.524  1.00  0.00    -0.222 P  
HETATM   19  O   UNL     1     -11.319   7.703  72.761  1.00  0.00    -0.356 OA 
HETATM   20  O   UNL     1      -8.947   8.219  71.577  1.00  0.00    -0.143 OA 
BRANCH  18  21
HETATM   21  O   UNL     1      -9.951   6.195  71.623  1.00  0.00    -0.176 OA 
BRANCH  21  22
HETATM   22  C   UNL     1     -10.546   5.356  70.636  1.00  0.00    -0.232 C  
BRANCH  22  23
HETATM   23  C   UNL     1     -10.957   6.126  69.400  1.00  0.00    -0.385 C  
BRANCH  23  24
HETATM   24  N   UNL     1     -10.077   5.883  68.154  1.00  0.00    -0.153 N  
HETATM   25  C   UNL     1      -9.727   4.408  68.138  1.00  0.00    -0.119 C  
HETATM   26  C   UNL     1      -8.793   6.710  68.257  1.00  0.00    -0.124 C  
HETATM   27  C   UNL     1     -10.818   6.254  66.882  1.00  0.00    -0.354 C  
ENDBRANCH  23  24
ENDBRANCH  22  23
ENDBRANCH  21  22
ENDBRANCH  18  21
ENDBRANCH  17  18
ENDBRANCH  16  17
ENDBRANCH  15  16
ENDBRANCH  14  15
ENDBRANCH  13  14
ENDBRANCH  12  13
ENDBRANCH  11  12
ENDBRANCH  10  11
ENDBRANCH   9  10
ENDBRANCH   8   9
ENDBRANCH   7   8
ENDBRANCH   6   7
ENDBRANCH   5   6
ENDBRANCH   4   5
ENDBRANCH   3   4
ENDBRANCH   2   3
TORSDOF 20
ENDMDL
MODEL       56
REMARK 921   NORMALIZED FREE ENERGY PREDICTED BY IDOCK:   -4.39 KCAL/MOL
REMARK 922        TOTAL FREE ENERGY PREDICTED BY IDOCK:  -11.44 KCAL/MOL
REMARK 923 INTER-LIGAND FREE ENERGY PREDICTED BY IDOCK:  -10.00 KCAL/MOL
REMARK 924 INTRA-LIGAND FREE ENERGY PREDICTED BY IDOCK:   -1.44 KCAL/MOL
REMARK 927      BINDING AFFINITY PREDICTED BY RF-SCORE:    0.00 PKD
ROOT
HETATM    1  C   UNL     1     -13.165  11.810  71.950  1.00  0.00    -0.468 C  
HETATM    2  C   UNL     1     -12.893  10.457  71.315  1.00  0.00    -0.533 C  
ENDROOT
BRANCH   2   3
HETATM    3  C   UNL     1     -13.069   9.328  72.327  1.00  0.00    -0.517 C  
BRANCH   3   4
HETATM    4  C   UNL     1     -11.908   8.342  72.255  1.00  0.00    -0.451 C  
BRANCH   4   5
HETATM    5  C   UNL     1     -12.222   7.207  71.286  1.00  0.00    -0.403 C  
BRANCH   5   6
HETATM    6  C   UNL     1     -11.092   6.185  71.269  1.00  0.00    -0.351 C  
BRANCH   6   7
HETATM    7  C   UNL     1     -10.795   5.742  69.842  1.00  0.00    -0.417 C  
BRANCH   7   8
HETATM    8  C   UNL     1     -11.234   6.811  68.850  1.00  0.00    -0.196 C  
BRANCH   8   9
HETATM    9  C   UNL     1     -10.033   7.328  68.073  1.00  0.00    -0.186 C  
BRANCH   9  10
HETATM   10  C   UNL     1     -10.412   8.548  67.249  1.00  0.00    -0.366 C  
BRANCH  10  11
HETATM   11  C   UNL     1     -10.836   9.681  68.170  1.00  0.00    -0.241 C  
BRANCH  11  12
HETATM   12  C   UNL     1     -10.372  11.018  67.618  1.00  0.00    -0.223 C  
BRANCH  12  13
HETATM   13  C   UNL     1     -11.458  12.067  67.809  1.00  0.00    -0.394 C  
BRANCH  13  14
HETATM   14  C   UNL     1     -12.034  12.450  66.461  1.00  0.00    -0.325 C  
BRANCH  14  15
HETATM   15  C   UNL     1     -11.037  12.200  65.339  1.00  0.00    -0.362 C  
BRANCH  15  16
HETATM   16  C   UNL     1     -11.046  13.408  64.429  1.00  0.00    -0.388 C  
BRANCH  16  17
HETATM   17  O   UNL     1     -11.847  14.442  64.986  1.00  0.00    -0.367 OA 
BRANCH  17  18
HETATM   18  P   UNL     1     -10.978  15.926  65.176  1.00  0.00    -0.237 P  
HETATM   19  O   UNL     1     -11.635  16.442  63.891  1.00  0.00    -1.100 OA 
HETATM   20  O   UNL     1      -9.632  15.207  65.217  1.00  0.00    -0.215 OA 
BRANCH  18  21
HETATM   21  O   UNL     1     -10.110  17.410  65.366  1.00  0.00    -0.562 OA 
BRANCH  21  22
HETATM   22  C   UNL     1      -9.927  17.810  66.722  1.00  0.00    -0.333 C  
BRANCH  22  23
HETATM   23  C   UNL     1      -9.282  19.174  66.836  1.00  0.00    -0.310 C  
BRANCH  23  24
HETATM   24  N   UNL     1      -7.746  19.161  67.004  1.00  0.00    -0.240 N  
HETATM   25  C   UNL     1      -7.443  18.350  68.248  1.00  0.00    -0.280 C  
HETATM   26  C   UNL     1      -7.233  20.590  67.189  1.00  0.00    -0.315 C  
HETATM   27  C   UNL     1      -7.072  18.533  65.798  1.00  0.00    -0.220 C  
ENDBRANCH  23  24
ENDBRANCH  22  23
ENDBRANCH  21  22
ENDBRANCH  18  21
ENDBRANCH  17  18
ENDBRANCH  16  17
ENDBRANCH  15  16
ENDBRANCH  14  15
ENDBRANCH  13  14
ENDBRANCH  12  13
ENDBRANCH  11  12
ENDBRANCH  10  11
ENDBRANCH   9  10
ENDBRANCH   8   9
ENDBRANCH   7   8
ENDBRANCH   6   7
ENDBRANCH   5   6
ENDBRANCH   4   5
ENDBRANCH   3   4
ENDBRANCH   2   3
TORSDOF 20
ENDMDL
MODEL       57
REMARK 921   NORMALIZED FREE ENERGY PREDICTED BY IDOCK:   -4.39 KCAL/MOL
REMARK 922        TOTAL FREE ENERGY PREDICTED BY IDOCK:  -11.44 KCAL/MOL
REMARK 923 INTER-LIGAND FREE ENERGY PREDICTED BY IDOCK:   -9.18 KCAL/MOL
REMARK 924 INTRA-LIGAND FREE ENERGY PREDICTED BY IDOCK:   -2.26 KCAL/MOL
REMARK 927      BINDING AFFINITY PREDICTED BY RF-SCORE:    0.00 PKD
ROOT
HETATM    1  C   UNL     1     -14.116  14.172  72.181  1.00  0.00    -0.643 C  
HETATM    2  C   UNL     1     -13.073  15.135  72.722  1.00  0.00    -0.545 C  
ENDROOT
BRANCH   2   3
HETATM    3  C   UNL     1     -11.949  15.354  71.712  1.00  0.00    -0.473 C  
BRANCH   3   4
HETATM    4  C   UNL     1     -12.380  14.931  70.312  1.00  0.00    -0.393 C  
BRANCH   4   5
HETATM    5  C   UNL     1     -11.165  14.709  69.417  1.00  0.00    -0.307 C  
BRANCH   5   6
HETATM    6  C   UNL     1     -11.429  15.232  68.010  1.00  0.00    -0.351 C  
BRANCH   6   7
HETATM    7  C   UNL     1     -12.153  14.182  67.177  1.00  0.00    -0.432 C  
BRANCH   7   8
HETATM    8  C   UNL     1     -11.663  14.215  65.736  1.00  0.00    -0.360 C  
BRANCH   8   9
HETATM    9  C   UNL     1     -10.676  13.084  65.492  1.00  0.00    -0.299 C  
BRANCH   9  10
HETATM   10  C   UNL     1     -11.045  11.862  66.317  1.00  0.00    -0.364 C  
BRANCH  10  11
HETATM   11  C   UNL     1      -9.854  11.427  67.157  1.00  0.00    -0.212 C  
BRANCH  11  12
HETATM   12  C   UNL     1     -10.286  11.142  68.585  1.00  0.00    -0.216 C  
BRANCH  12  13
HETATM   13  C   UNL     1     -11.801  11.019  68.657  1.00  0.00    -0.318 C  
BRANCH  13  14
HETATM   14  C   UNL     1     -12.283  11.483  70.017  1.00  0.00    -0.354 C  
BRANCH  14  15
HETATM   15  C   UNL     1     -11.962  10.463  71.099  1.00  0.00    -0.460 C  
BRANCH  15  16
HETATM   16  C   UNL     1     -13.244  10.140  71.832  1.00  0.00    -0.452 C  
BRANCH  16  17
HETATM   17  O   UNL     1     -13.118   8.906  72.529  1.00  0.00    -0.422 OA 
BRANCH  17  18
HETATM   18  P   UNL     1     -11.921   7.869  71.832  1.00  0.00    -0.340 P  
HETATM   19  O   UNL     1     -13.046   6.958  71.328  1.00  0.00    -0.332 OA 
HETATM   20  O   UNL     1     -11.209   7.686  73.170  1.00  0.00    -0.391 OA 
BRANCH  18  21
HETATM   21  O   UNL     1     -10.724   6.833  71.134  1.00  0.00    -0.222 OA 
BRANCH  21  22
HETATM   22  C   UNL     1     -11.209   6.010  70.077  1.00  0.00    -0.355 C  
BRANCH  22  23
HETATM   23  C   UNL     1     -10.741   6.485  68.718  1.00  0.00    -0.272 C  
BRANCH  23  24
HETATM   24  N   UNL     1      -9.810   5.508  67.968  1.00  0.00    -0.132 N  
HETATM   25  C   UNL     1      -8.557   6.281  67.604  1.00  0.00    -0.114 C  
HETATM   26  C   UNL     1     -10.494   5.018  66.690  1.00  0.00    -0.250 C  
HETATM   27  C   UNL     1      -9.452   4.318  68.839  1.00  0.00    -0.168 C  
ENDBRANCH  23  24
ENDBRANCH  22  23
ENDBRANCH  21  22
ENDBRANCH  18  21
ENDBRANCH  17  18
ENDBRANCH  16  17
ENDBRANCH  15  16
ENDBRANCH  14  15
ENDBRANCH  13  14
ENDBRANCH  12  13
ENDBRANCH  11  12
ENDBRANCH  10  11
ENDBRANCH   9  10
ENDBRANCH   8   9
ENDBRANCH   7   8
ENDBRANCH   6   7
ENDBRANCH   5   6
ENDBRANCH   4   5
ENDBRANCH   3   4
ENDBRANCH   2   3
TORSDOF 20
ENDMDL
MODEL       58
REMARK 921   NORMALIZED FREE ENERGY PREDICTED BY IDOCK:   -4.39 KCAL/MOL
REMARK 922        TOTAL FREE ENERGY PREDICTED BY IDOCK:  -11.44 KCAL/MOL
REMARK 923 INTER-LIGAND FREE ENERGY PREDICTED BY IDOCK:   -9.72 KCAL/MOL
REMARK 924 INTRA-LIGAND FREE ENERGY PREDICTED BY IDOCK:   -1.72 KCAL/MOL
REMARK 927      BINDING AFFINITY PREDICTED BY RF-SCORE:    0.00 PKD
ROOT
HETATM    1  C   UNL     1      -9.745   7.842  67.227  1.00  0.00    -0.224 C  
HETATM    2  C   UNL     1     -10.869   6.831  67.070  1.00  0.00    -0.453 C  
ENDROOT
BRANCH   2   3
HETATM    3  C   UNL     1     -10.953   5.908  68.283  1.00  0.00    -0.262 C  
BRANCH   3   4
HETATM    4  C   UNL     1     -11.503   6.649  69.498  1.00  0.00    -0.323 C  
BRANCH   4   5
HETATM    5  C   UNL     1     -11.045   5.981  70.790  1.00  0.00    -0.355 C  
BRANCH   5   6
HETATM    6  C   UNL     1     -11.934   6.398  71.956  1.00  0.00    -0.375 C  
BRANCH   6   7
HETATM    7  C   UNL     1     -12.917   7.476  71.520  1.00  0.00    -0.400 C  
BRANCH   7   8
HETATM    8  C   UNL     1     -12.748   8.728  72.370  1.00  0.00    -0.433 C  
BRANCH   8   9
HETATM    9  C   UNL     1     -12.876   9.971  71.503  1.00  0.00    -0.537 C  
BRANCH   9  10
HETATM   10  C   UNL     1     -11.642  10.148  70.633  1.00  0.00    -0.429 C  
BRANCH  10  11
HETATM   11  C   UNL     1     -11.862  11.289  69.652  1.00  0.00    -0.430 C  
BRANCH  11  12
HETATM   12  C   UNL     1     -11.529  10.847  68.238  1.00  0.00    -0.376 C  
BRANCH  12  13
HETATM   13  C   UNL     1     -10.914  12.003  67.461  1.00  0.00    -0.303 C  
BRANCH  13  14
HETATM   14  C   UNL     1     -11.831  12.389  66.318  1.00  0.00    -0.431 C  
BRANCH  14  15
HETATM   15  C   UNL     1     -12.244  13.851  66.407  1.00  0.00    -0.487 C  
BRANCH  15  16
HETATM   16  C   UNL     1     -11.363  14.524  67.436  1.00  0.00    -0.356 C  
BRANCH  16  17
HETATM   17  O   UNL     1     -11.272  15.919  67.173  1.00  0.00    -0.213 OA 
BRANCH  17  18
HETATM   18  P   UNL     1      -9.740  16.371  66.509  1.00  0.00    -0.309 P  
HETATM   19  O   UNL     1      -9.318  16.869  67.895  1.00  0.00    -0.232 OA 
HETATM   20  O   UNL     1     -10.389  17.253  65.445  1.00  0.00    -0.626 OA 
BRANCH  18  21
HETATM   21  O   UNL     1      -8.207  16.821  65.845  1.00  0.00    -0.446 OA 
BRANCH  21  22
HETATM   22  C   UNL     1      -7.322  17.431  66.780  1.00  0.00    -0.215 C  
BRANCH  22  23
HETATM   23  C   UNL     1      -6.954  18.844  66.385  1.00  0.00    -0.221 C  
BRANCH  23  24
HETATM   24  N   UNL     1      -7.398  19.939  67.379  1.00  0.00    -0.247 N  
HETATM   25  C   UNL     1      -8.834  20.290  67.041  1.00  0.00    -0.326 C  
HETATM   26  C   UNL     1      -6.518  21.179  67.213  1.00  0.00    -0.358 C  
HETATM   27  C   UNL     1      -7.309  19.444  68.811  1.00  0.00    -0.355 C  
ENDBRANCH  23  24
ENDBRANCH  22  23
ENDBRANCH  21  22
ENDBRANCH  18  21
ENDBRANCH  17  18
ENDBRANCH  16  17
ENDBRANCH  15  16
ENDBRANCH  14  15
ENDBRANCH  13  14
ENDBRANCH  12  13
ENDBRANCH  11  12
ENDBRANCH  10  11
ENDBRANCH   9  10
ENDBRANCH   8   9
ENDBRANCH   7   8
ENDBRANCH   6   7
ENDBRANCH   5   6
ENDBRANCH   4   5
ENDBRANCH   3   4
ENDBRANCH   2   3
TORSDOF 20
ENDMDL
MODEL       59
REMARK 921   NORMALIZED FREE ENERGY PREDICTED BY IDOCK:   -4.38 KCAL/MOL
REMARK 922        TOTAL FREE ENERGY PREDICTED BY IDOCK:  -11.42 KCAL/MOL
REMARK 923 INTER-LIGAND FREE ENERGY PREDICTED BY IDOCK:   -9.02 KCAL/MOL
REMARK 924 INTRA-LIGAND FREE ENERGY PREDICTED BY IDOCK:   -2.39 KCAL/MOL
REMARK 927      BINDING AFFINITY PREDICTED BY RF-SCORE:    0.00 PKD
ROOT
HETATM    1  C   UNL     1     -13.136  12.161  71.822  1.00  0.00    -0.457 C  
HETATM    2  C   UNL     1     -12.980  10.826  71.114  1.00  0.00    -0.467 C  
ENDROOT
BRANCH   2   3
HETATM    3  C   UNL     1     -12.939   9.673  72.115  1.00  0.00    -0.493 C  
BRANCH   3   4
HETATM    4  C   UNL     1     -14.032   8.652  71.820  1.00  0.00    -0.492 C  
BRANCH   4   5
HETATM    5  C   UNL     1     -13.427   7.286  71.513  1.00  0.00    -0.439 C  
BRANCH   5   6
HETATM    6  C   UNL     1     -12.020   7.178  72.089  1.00  0.00    -0.304 C  
BRANCH   6   7
HETATM    7  C   UNL     1     -11.187   6.192  71.281  1.00  0.00    -0.348 C  
BRANCH   7   8
HETATM    8  C   UNL     1      -9.734   6.646  71.221  1.00  0.00    -0.183 C  
BRANCH   8   9
HETATM    9  C   UNL     1      -9.631   8.121  71.581  1.00  0.00    -0.237 C  
BRANCH   9  10
HETATM   10  C   UNL     1      -8.442   8.762  70.884  1.00  0.00    -0.209 C  
BRANCH  10  11
HETATM   11  C   UNL     1      -8.725   8.893  69.396  1.00  0.00    -0.142 C  
BRANCH  11  12
HETATM   12  C   UNL     1     -10.107   9.479  69.167  1.00  0.00    -0.200 C  
BRANCH  12  13
HETATM   13  C   UNL     1     -10.600   9.125  67.771  1.00  0.00    -0.289 C  
BRANCH  13  14
HETATM   14  C   UNL     1      -9.436   8.637  66.932  1.00  0.00    -0.235 C  
BRANCH  14  15
HETATM   15  C   UNL     1      -9.449   9.264  65.545  1.00  0.00    -0.309 C  
BRANCH  15  16
HETATM   16  C   UNL     1     -10.494  10.357  65.536  1.00  0.00    -0.122 C  
BRANCH  16  17
HETATM   17  O   UNL     1     -10.647  10.884  64.224  1.00  0.00    -0.368 OA 
BRANCH  17  18
HETATM   18  P   UNL     1     -11.492  12.393  64.209  1.00  0.00    -0.433 P  
HETATM   19  O   UNL     1     -12.527  11.773  63.265  1.00  0.00    -0.543 OA 
HETATM   20  O   UNL     1     -10.255  13.155  63.740  1.00  0.00    -0.307 OA 
BRANCH  18  21
HETATM   21  O   UNL     1     -12.338  13.903  64.196  1.00  0.00    -0.614 OA 
BRANCH  21  22
HETATM   22  C   UNL     1     -12.687  14.388  65.490  1.00  0.00    -0.293 C  
BRANCH  22  23
HETATM   23  C   UNL     1     -12.126  13.524  66.598  1.00  0.00    -0.396 C  
BRANCH  23  24
HETATM   24  N   UNL     1     -11.161  14.243  67.566  1.00  0.00    -0.295 N  
HETATM   25  C   UNL     1     -11.884  14.381  68.892  1.00  0.00    -0.320 C  
HETATM   26  C   UNL     1     -10.823  15.633  67.023  1.00  0.00    -0.294 C  
HETATM   27  C   UNL     1      -9.883  13.447  67.752  1.00  0.00    -0.234 C  
ENDBRANCH  23  24
ENDBRANCH  22  23
ENDBRANCH  21  22
ENDBRANCH  18  21
ENDBRANCH  17  18
ENDBRANCH  16  17
ENDBRANCH  15  16
ENDBRANCH  14  15
ENDBRANCH  13  14
ENDBRANCH  12  13
ENDBRANCH  11  12
ENDBRANCH  10  11
ENDBRANCH   9  10
ENDBRANCH   8   9
ENDBRANCH   7   8
ENDBRANCH   6   7
ENDBRANCH   5   6
ENDBRANCH   4   5
ENDBRANCH   3   4
ENDBRANCH   2   3
TORSDOF 20
ENDMDL
MODEL       60
REMARK 921   NORMALIZED FREE ENERGY PREDICTED BY IDOCK:   -4.37 KCAL/MOL
REMARK 922        TOTAL FREE ENERGY PREDICTED BY IDOCK:  -11.41 KCAL/MOL
REMARK 923 INTER-LIGAND FREE ENERGY PREDICTED BY IDOCK:   -9.53 KCAL/MOL
REMARK 924 INTRA-LIGAND FREE ENERGY PREDICTED BY IDOCK:   -1.88 KCAL/MOL
REMARK 927      BINDING AFFINITY PREDICTED BY RF-SCORE:    0.00 PKD
ROOT
HETATM    1  C   UNL     1     -12.477  15.767  74.452  1.00  0.00    -0.790 C  
HETATM    2  C   UNL     1     -12.993  14.746  73.452  1.00  0.00    -0.550 C  
ENDROOT
BRANCH   2   3
HETATM    3  C   UNL     1     -13.789  15.420  72.337  1.00  0.00    -0.661 C  
BRANCH   3   4
HETATM    4  C   UNL     1     -13.225  15.062  70.967  1.00  0.00    -0.483 C  
BRANCH   4   5
HETATM    5  C   UNL     1     -12.054  14.095  71.101  1.00  0.00    -0.392 C  
BRANCH   5   6
HETATM    6  C   UNL     1     -12.365  12.772  70.412  1.00  0.00    -0.324 C  
BRANCH   6   7
HETATM    7  C   UNL     1     -12.788  11.725  71.434  1.00  0.00    -0.440 C  
BRANCH   7   8
HETATM    8  C   UNL     1     -12.151  10.379  71.113  1.00  0.00    -0.487 C  
BRANCH   8   9
HETATM    9  C   UNL     1     -13.050   9.248  71.588  1.00  0.00    -0.451 C  
BRANCH   9  10
HETATM   10  C   UNL     1     -12.300   8.332  72.543  1.00  0.00    -0.335 C  
BRANCH  10  11
HETATM   11  C   UNL     1     -11.119   7.695  71.826  1.00  0.00    -0.281 C  
BRANCH  11  12
HETATM   12  C   UNL     1     -11.520   6.361  71.223  1.00  0.00    -0.371 C  
BRANCH  12  13
HETATM   13  C   UNL     1     -11.201   6.344  69.735  1.00  0.00    -0.484 C  
BRANCH  13  14
HETATM   14  C   UNL     1     -10.356   7.552  69.384  1.00  0.00    -0.213 C  
BRANCH  14  15
HETATM   15  C   UNL     1     -10.565   7.976  67.938  1.00  0.00    -0.210 C  
BRANCH  15  16
HETATM   16  C   UNL     1      -9.418   7.427  67.120  1.00  0.00    -0.149 C  
BRANCH  16  17
HETATM   17  O   UNL     1      -8.577   8.484  66.676  1.00  0.00    -0.110 OA 
BRANCH  17  18
HETATM   18  P   UNL     1      -9.460   9.757  65.906  1.00  0.00    -0.264 P  
HETATM   19  O   UNL     1      -9.130   9.128  64.549  1.00  0.00    -0.159 OA 
HETATM   20  O   UNL     1      -8.612  10.837  66.575  1.00  0.00    -0.141 OA 
BRANCH  18  21
HETATM   21  O   UNL     1     -10.344  11.030  65.138  1.00  0.00    -0.269 OA 
BRANCH  21  22
HETATM   22  C   UNL     1     -11.138  11.810  66.028  1.00  0.00    -0.312 C  
BRANCH  22  23
HETATM   23  C   UNL     1     -11.649  13.079  65.380  1.00  0.00    -0.341 C  
BRANCH  23  24
HETATM   24  N   UNL     1     -11.050  14.387  65.940  1.00  0.00    -0.313 N  
HETATM   25  C   UNL     1     -11.271  15.460  64.891  1.00  0.00    -0.403 C  
HETATM   26  C   UNL     1      -9.549  14.210  66.179  1.00  0.00    -0.254 C  
HETATM   27  C   UNL     1     -11.727  14.785  67.239  1.00  0.00    -0.347 C  
ENDBRANCH  23  24
ENDBRANCH  22  23
ENDBRANCH  21  22
ENDBRANCH  18  21
ENDBRANCH  17  18
ENDBRANCH  16  17
ENDBRANCH  15  16
ENDBRANCH  14  15
ENDBRANCH  13  14
ENDBRANCH  12  13
ENDBRANCH  11  12
ENDBRANCH  10  11
ENDBRANCH   9  10
ENDBRANCH   8   9
ENDBRANCH   7   8
ENDBRANCH   6   7
ENDBRANCH   5   6
ENDBRANCH   4   5
ENDBRANCH   3   4
ENDBRANCH   2   3
TORSDOF 20
ENDMDL
MODEL       61
REMARK 921   NORMALIZED FREE ENERGY PREDICTED BY IDOCK:   -4.37 KCAL/MOL
REMARK 922        TOTAL FREE ENERGY PREDICTED BY IDOCK:  -11.40 KCAL/MOL
REMARK 923 INTER-LIGAND FREE ENERGY PREDICTED BY IDOCK:   -8.62 KCAL/MOL
REMARK 924 INTRA-LIGAND FREE ENERGY PREDICTED BY IDOCK:   -2.78 KCAL/MOL
REMARK 927      BINDING AFFINITY PREDICTED BY RF-SCORE:    0.00 PKD
ROOT
HETATM    1  C   UNL     1     -12.944  13.605  65.227  1.00  0.00    -0.315 C  
HETATM    2  C   UNL     1     -12.286  12.335  64.716  1.00  0.00    -0.438 C  
ENDROOT
BRANCH   2   3
HETATM    3  C   UNL     1     -11.437  12.615  63.478  1.00  0.00    -0.557 C  
BRANCH   3   4
HETATM    4  C   UNL     1     -10.141  11.812  63.509  1.00  0.00    -0.463 C  
BRANCH   4   5
HETATM    5  C   UNL     1     -10.255  10.640  64.478  1.00  0.00    -0.399 C  
BRANCH   5   6
HETATM    6  C   UNL     1      -8.874  10.133  64.876  1.00  0.00    -0.214 C  
BRANCH   6   7
HETATM    7  C   UNL     1      -8.989   8.839  65.671  1.00  0.00    -0.248 C  
BRANCH   7   8
HETATM    8  C   UNL     1     -10.279   8.825  66.481  1.00  0.00    -0.314 C  
BRANCH   8   9
HETATM    9  C   UNL     1     -10.088   9.584  67.785  1.00  0.00    -0.244 C  
BRANCH   9  10
HETATM   10  C   UNL     1     -11.276  10.492  68.056  1.00  0.00    -0.361 C  
BRANCH  10  11
HETATM   11  C   UNL     1     -10.791  11.902  68.356  1.00  0.00    -0.263 C  
BRANCH  11  12
HETATM   12  C   UNL     1      -9.274  11.943  68.402  1.00  0.00    -0.173 C  
BRANCH  12  13
HETATM   13  C   UNL     1      -8.771  13.274  67.858  1.00  0.00    -0.192 C  
BRANCH  13  14
HETATM   14  C   UNL     1      -9.490  13.595  66.564  1.00  0.00    -0.270 C  
BRANCH  14  15
HETATM   15  C   UNL     1     -10.291  14.884  66.678  1.00  0.00    -0.283 C  
BRANCH  15  16
HETATM   16  C   UNL     1      -9.538  15.970  65.942  1.00  0.00    -0.335 C  
BRANCH  16  17
HETATM   17  O   UNL     1      -9.322  17.087  66.794  1.00  0.00    -0.235 OA 
BRANCH  17  18
HETATM   18  P   UNL     1     -10.129  16.927  68.316  1.00  0.00    -0.344 P  
HETATM   19  O   UNL     1     -10.911  18.207  68.005  1.00  0.00    -0.265 OA 
HETATM   20  O   UNL     1      -8.810  16.897  69.085  1.00  0.00    -0.210 OA 
BRANCH  18  21
HETATM   21  O   UNL     1     -10.937  16.764  69.838  1.00  0.00    -0.293 OA 
BRANCH  21  22
HETATM   22  C   UNL     1     -11.573  15.504  70.030  1.00  0.00    -0.341 C  
BRANCH  22  23
HETATM   23  C   UNL     1     -11.550  15.063  71.477  1.00  0.00    -0.353 C  
BRANCH  23  24
HETATM   24  N   UNL     1     -12.938  14.865  72.125  1.00  0.00    -0.316 N  
HETATM   25  C   UNL     1     -13.020  13.416  72.563  1.00  0.00    -0.209 C  
HETATM   26  C   UNL     1     -14.035  15.150  71.097  1.00  0.00    -0.404 C  
HETATM   27  C   UNL     1     -13.116  15.780  73.322  1.00  0.00    -0.584 C  
ENDBRANCH  23  24
ENDBRANCH  22  23
ENDBRANCH  21  22
ENDBRANCH  18  21
ENDBRANCH  17  18
ENDBRANCH  16  17
ENDBRANCH  15  16
ENDBRANCH  14  15
ENDBRANCH  13  14
ENDBRANCH  12  13
ENDBRANCH  11  12
ENDBRANCH  10  11
ENDBRANCH   9  10
ENDBRANCH   8   9
ENDBRANCH   7   8
ENDBRANCH   6   7
ENDBRANCH   5   6
ENDBRANCH   4   5
ENDBRANCH   3   4
ENDBRANCH   2   3
TORSDOF 20
ENDMDL
MODEL       62
REMARK 921   NORMALIZED FREE ENERGY PREDICTED BY IDOCK:   -4.35 KCAL/MOL
REMARK 922        TOTAL FREE ENERGY PREDICTED BY IDOCK:  -11.37 KCAL/MOL
REMARK 923 INTER-LIGAND FREE ENERGY PREDICTED BY IDOCK:   -8.98 KCAL/MOL
REMARK 924 INTRA-LIGAND FREE ENERGY PREDICTED BY IDOCK:   -2.39 KCAL/MOL
REMARK 927      BINDING AFFINITY PREDICTED BY RF-SCORE:    0.00 PKD
ROOT
HETATM    1  C   UNL     1     -12.479  15.473  70.972  1.00  0.00    -0.492 C  
HETATM    2  C   UNL     1     -12.152  15.034  69.555  1.00  0.00    -0.311 C  
ENDROOT
BRANCH   2   3
HETATM    3  C   UNL     1     -11.737  13.565  69.515  1.00  0.00    -0.382 C  
BRANCH   3   4
HETATM    4  C   UNL     1     -11.933  12.978  68.121  1.00  0.00    -0.322 C  
BRANCH   4   5
HETATM    5  C   UNL     1     -11.936  14.080  67.066  1.00  0.00    -0.472 C  
BRANCH   5   6
HETATM    6  C   UNL     1     -12.603  13.597  65.784  1.00  0.00    -0.511 C  
BRANCH   6   7
HETATM    7  C   UNL     1     -11.872  14.141  64.564  1.00  0.00    -0.451 C  
BRANCH   7   8
HETATM    8  C   UNL     1     -12.203  13.312  63.330  1.00  0.00    -0.476 C  
BRANCH   8   9
HETATM    9  C   UNL     1     -11.858  11.851  63.574  1.00  0.00    -0.560 C  
BRANCH   9  10
HETATM   10  C   UNL     1     -10.352  11.643  63.543  1.00  0.00    -0.488 C  
BRANCH  10  11
HETATM   11  C   UNL     1      -9.984  10.417  64.364  1.00  0.00    -0.388 C  
BRANCH  11  12
HETATM   12  C   UNL     1      -8.714  10.670  65.158  1.00  0.00    -0.196 C  
BRANCH  12  13
HETATM   13  C   UNL     1      -9.007  11.594  66.331  1.00  0.00    -0.198 C  
BRANCH  13  14
HETATM   14  C   UNL     1      -8.057  11.283  67.470  1.00  0.00    -0.124 C  
BRANCH  14  15
HETATM   15  C   UNL     1      -7.611  12.551  68.184  1.00  0.00    -0.127 C  
BRANCH  15  16
HETATM   16  C   UNL     1      -8.406  13.708  67.623  1.00  0.00    -0.182 C  
BRANCH  16  17
HETATM   17  O   UNL     1      -7.923  14.940  68.145  1.00  0.00    -0.120 OA 
BRANCH  17  18
HETATM   18  P   UNL     1      -7.784  16.166  66.933  1.00  0.00    -0.235 P  
HETATM   19  O   UNL     1      -8.800  15.399  66.080  1.00  0.00    -0.307 OA 
HETATM   20  O   UNL     1      -6.271  15.982  66.830  1.00  0.00    -0.315 OA 
BRANCH  18  21
HETATM   21  O   UNL     1      -7.644  17.393  65.721  1.00  0.00    -0.484 OA 
BRANCH  21  22
HETATM   22  C   UNL     1      -7.807  18.721  66.213  1.00  0.00    -0.272 C  
BRANCH  22  23
HETATM   23  C   UNL     1      -8.537  18.757  67.537  1.00  0.00    -0.274 C  
BRANCH  23  24
HETATM   24  N   UNL     1     -10.026  19.160  67.453  1.00  0.00    -0.333 N  
HETATM   25  C   UNL     1     -10.840  17.902  67.685  1.00  0.00    -0.229 C  
HETATM   26  C   UNL     1     -10.335  19.718  66.063  1.00  0.00    -0.511 C  
HETATM   27  C   UNL     1     -10.369  20.200  68.504  1.00  0.00    -0.216 C  
ENDBRANCH  23  24
ENDBRANCH  22  23
ENDBRANCH  21  22
ENDBRANCH  18  21
ENDBRANCH  17  18
ENDBRANCH  16  17
ENDBRANCH  15  16
ENDBRANCH  14  15
ENDBRANCH  13  14
ENDBRANCH  12  13
ENDBRANCH  11  12
ENDBRANCH  10  11
ENDBRANCH   9  10
ENDBRANCH   8   9
ENDBRANCH   7   8
ENDBRANCH   6   7
ENDBRANCH   5   6
ENDBRANCH   4   5
ENDBRANCH   3   4
ENDBRANCH   2   3
TORSDOF 20
ENDMDL
MODEL       63
REMARK 921   NORMALIZED FREE ENERGY PREDICTED BY IDOCK:   -4.35 KCAL/MOL
REMARK 922        TOTAL FREE ENERGY PREDICTED BY IDOCK:  -11.36 KCAL/MOL
REMARK 923 INTER-LIGAND FREE ENERGY PREDICTED BY IDOCK:   -8.93 KCAL/MOL
REMARK 924 INTRA-LIGAND FREE ENERGY PREDICTED BY IDOCK:   -2.43 KCAL/MOL
REMARK 927      BINDING AFFINITY PREDICTED BY RF-SCORE:    0.00 PKD
ROOT
HETATM    1  C   UNL     1     -10.486   5.799  68.894  1.00  0.00    -0.326 C  
HETATM    2  C   UNL     1     -11.459   6.372  69.910  1.00  0.00    -0.483 C  
ENDROOT
BRANCH   2   3
HETATM    3  C   UNL     1     -10.723   7.145  71.002  1.00  0.00    -0.252 C  
BRANCH   3   4
HETATM    4  C   UNL     1     -11.684   7.594  72.098  1.00  0.00    -0.355 C  
BRANCH   4   5
HETATM    5  C   UNL     1     -13.117   7.629  71.579  1.00  0.00    -0.379 C  
BRANCH   5   6
HETATM    6  C   UNL     1     -13.750   8.992  71.833  1.00  0.00    -0.495 C  
BRANCH   6   7
HETATM    7  C   UNL     1     -12.675  10.041  72.085  1.00  0.00    -0.354 C  
BRANCH   7   8
HETATM    8  C   UNL     1     -13.130  11.402  71.576  1.00  0.00    -0.438 C  
BRANCH   8   9
HETATM    9  C   UNL     1     -12.266  11.838  70.402  1.00  0.00    -0.416 C  
BRANCH   9  10
HETATM   10  C   UNL     1     -11.189  10.804  70.116  1.00  0.00    -0.345 C  
BRANCH  10  11
HETATM   11  C   UNL     1     -11.323  10.302  68.686  1.00  0.00    -0.226 C  
BRANCH  11  12
HETATM   12  C   UNL     1     -10.070   9.553  68.266  1.00  0.00    -0.210 C  
BRANCH  12  13
HETATM   13  C   UNL     1     -10.301   8.857  66.932  1.00  0.00    -0.332 C  
BRANCH  13  14
HETATM   14  C   UNL     1      -9.520   9.571  65.847  1.00  0.00    -0.307 C  
BRANCH  14  15
HETATM   15  C   UNL     1     -10.300  10.751  65.286  1.00  0.00    -0.327 C  
BRANCH  15  16
HETATM   16  C   UNL     1      -9.666  12.021  65.808  1.00  0.00    -0.235 C  
BRANCH  16  17
HETATM   17  O   UNL     1     -10.575  13.109  65.695  1.00  0.00    -0.270 OA 
BRANCH  17  18
HETATM   18  P   UNL     1     -10.630  14.078  67.127  1.00  0.00    -0.276 P  
HETATM   19  O   UNL     1      -9.448  13.276  67.682  1.00  0.00    -0.197 OA 
HETATM   20  O   UNL     1     -12.094  13.729  67.384  1.00  0.00    -0.386 OA 
BRANCH  18  21
HETATM   21  O   UNL     1     -10.686  15.048  68.559  1.00  0.00    -0.233 OA 
BRANCH  21  22
HETATM   22  C   UNL     1      -9.911  16.242  68.486  1.00  0.00    -0.234 C  
BRANCH  22  23
HETATM   23  C   UNL     1     -10.646  17.361  67.782  1.00  0.00    -0.371 C  
BRANCH  23  24
HETATM   24  N   UNL     1      -9.804  18.625  67.502  1.00  0.00    -0.310 N  
HETATM   25  C   UNL     1     -10.513  19.397  66.406  1.00  0.00    -0.488 C  
HETATM   26  C   UNL     1      -8.409  18.222  67.020  1.00  0.00    -0.248 C  
HETATM   27  C   UNL     1      -9.681  19.485  68.746  1.00  0.00    -0.438 C  
ENDBRANCH  23  24
ENDBRANCH  22  23
ENDBRANCH  21  22
ENDBRANCH  18  21
ENDBRANCH  17  18
ENDBRANCH  16  17
ENDBRANCH  15  16
ENDBRANCH  14  15
ENDBRANCH  13  14
ENDBRANCH  12  13
ENDBRANCH  11  12
ENDBRANCH  10  11
ENDBRANCH   9  10
ENDBRANCH   8   9
ENDBRANCH   7   8
ENDBRANCH   6   7
ENDBRANCH   5   6
ENDBRANCH   4   5
ENDBRANCH   3   4
ENDBRANCH   2   3
TORSDOF 20
ENDMDL
MODEL       64
REMARK 921   NORMALIZED FREE ENERGY PREDICTED BY IDOCK:   -4.35 KCAL/MOL
REMARK 922        TOTAL FREE ENERGY PREDICTED BY IDOCK:  -11.36 KCAL/MOL
REMARK 923 INTER-LIGAND FREE ENERGY PREDICTED BY IDOCK:   -8.35 KCAL/MOL
REMARK 924 INTRA-LIGAND FREE ENERGY PREDICTED BY IDOCK:   -3.01 KCAL/MOL
REMARK 927      BINDING AFFINITY PREDICTED BY RF-SCORE:    0.00 PKD
ROOT
HETATM    1  C   UNL     1      -7.723   6.927  72.019  1.00  0.00    -0.094 C  
HETATM    2  C   UNL     1      -7.401   7.228  70.566  1.00  0.00    -0.074 C  
ENDROOT
BRANCH   2   3
HETATM    3  C   UNL     1      -8.230   8.402  70.050  1.00  0.00    -0.121 C  
BRANCH   3   4
HETATM    4  C   UNL     1      -9.088   8.998  71.161  1.00  0.00    -0.316 C  
BRANCH   4   5
HETATM    5  C   UNL     1     -10.335   9.660  70.584  1.00  0.00    -0.365 C  
BRANCH   5   6
HETATM    6  C   UNL     1     -11.593   9.105  71.242  1.00  0.00    -0.401 C  
BRANCH   6   7
HETATM    7  C   UNL     1     -11.229   8.126  72.350  1.00  0.00    -0.452 C  
BRANCH   7   8
HETATM    8  C   UNL     1     -11.804   6.747  72.052  1.00  0.00    -0.351 C  
BRANCH   8   9
HETATM    9  C   UNL     1     -11.776   6.480  70.555  1.00  0.00    -0.438 C  
BRANCH   9  10
HETATM   10  C   UNL     1     -10.686   5.478  70.208  1.00  0.00    -0.333 C  
BRANCH  10  11
HETATM   11  C   UNL     1     -10.381   5.543  68.720  1.00  0.00    -0.271 C  
BRANCH  11  12
HETATM   12  C   UNL     1     -11.158   6.671  68.065  1.00  0.00    -0.296 C  
BRANCH  12  13
HETATM   13  C   UNL     1     -10.296   7.360  67.017  1.00  0.00    -0.384 C  
BRANCH  13  14
HETATM   14  C   UNL     1     -10.500   8.860  67.100  1.00  0.00    -0.344 C  
BRANCH  14  15
HETATM   15  C   UNL     1      -9.853   9.575  65.923  1.00  0.00    -0.360 C  
BRANCH  15  16
HETATM   16  C   UNL     1     -10.494  10.938  65.794  1.00  0.00    -0.210 C  
BRANCH  16  17
HETATM   17  O   UNL     1     -11.415  11.154  66.856  1.00  0.00    -0.414 OA 
BRANCH  17  18
HETATM   18  P   UNL     1     -11.568  12.825  67.274  1.00  0.00    -0.359 P  
HETATM   19  O   UNL     1     -12.457  13.023  66.041  1.00  0.00    -0.463 OA 
HETATM   20  O   UNL     1     -10.055  13.029  67.276  1.00  0.00    -0.231 OA 
BRANCH  18  21
HETATM   21  O   UNL     1     -11.722  14.497  67.692  1.00  0.00    -0.356 OA 
BRANCH  21  22
HETATM   22  C   UNL     1     -10.525  15.253  67.527  1.00  0.00    -0.265 C  
BRANCH  22  23
HETATM   23  C   UNL     1     -10.621  16.236  66.381  1.00  0.00    -0.253 C  
BRANCH  23  24
HETATM   24  N   UNL     1      -9.938  17.599  66.628  1.00  0.00    -0.313 N  
HETATM   25  C   UNL     1     -10.172  17.955  68.083  1.00  0.00    -0.382 C  
HETATM   26  C   UNL     1     -10.573  18.667  65.734  1.00  0.00    -0.249 C  
HETATM   27  C   UNL     1      -8.449  17.522  66.345  1.00  0.00    -0.252 C  
ENDBRANCH  23  24
ENDBRANCH  22  23
ENDBRANCH  21  22
ENDBRANCH  18  21
ENDBRANCH  17  18
ENDBRANCH  16  17
ENDBRANCH  15  16
ENDBRANCH  14  15
ENDBRANCH  13  14
ENDBRANCH  12  13
ENDBRANCH  11  12
ENDBRANCH  10  11
ENDBRANCH   9  10
ENDBRANCH   8   9
ENDBRANCH   7   8
ENDBRANCH   6   7
ENDBRANCH   5   6
ENDBRANCH   4   5
ENDBRANCH   3   4
ENDBRANCH   2   3
TORSDOF 20
ENDMDL
MODEL       65
REMARK 921   NORMALIZED FREE ENERGY PREDICTED BY IDOCK:   -4.35 KCAL/MOL
REMARK 922        TOTAL FREE ENERGY PREDICTED BY IDOCK:  -11.36 KCAL/MOL
REMARK 923 INTER-LIGAND FREE ENERGY PREDICTED BY IDOCK:   -8.88 KCAL/MOL
REMARK 924 INTRA-LIGAND FREE ENERGY PREDICTED BY IDOCK:   -2.47 KCAL/MOL
REMARK 927      BINDING AFFINITY PREDICTED BY RF-SCORE:    0.00 PKD
ROOT
HETATM    1  C   UNL     1     -13.193  12.041  71.954  1.00  0.00    -0.469 C  
HETATM    2  C   UNL     1     -12.961  10.820  71.080  1.00  0.00    -0.467 C  
ENDROOT
BRANCH   2   3
HETATM    3  C   UNL     1     -12.725   9.573  71.929  1.00  0.00    -0.496 C  
BRANCH   3   4
HETATM    4  C   UNL     1     -13.926   8.634  71.870  1.00  0.00    -0.501 C  
BRANCH   4   5
HETATM    5  C   UNL     1     -13.486   7.215  71.529  1.00  0.00    -0.411 C  
BRANCH   5   6
HETATM    6  C   UNL     1     -11.978   7.155  71.312  1.00  0.00    -0.374 C  
BRANCH   6   7
HETATM    7  C   UNL     1     -11.657   6.489  69.981  1.00  0.00    -0.455 C  
BRANCH   7   8
HETATM    8  C   UNL     1     -10.347   5.717  70.074  1.00  0.00    -0.345 C  
BRANCH   8   9
HETATM    9  C   UNL     1      -9.487   6.279  71.196  1.00  0.00    -0.183 C  
BRANCH   9  10
HETATM   10  C   UNL     1      -8.141   6.739  70.660  1.00  0.00    -0.119 C  
BRANCH  10  11
HETATM   11  C   UNL     1      -8.333   7.936  69.742  1.00  0.00    -0.127 C  
BRANCH  11  12
HETATM   12  C   UNL     1      -8.813   9.141  70.532  1.00  0.00    -0.263 C  
BRANCH  12  13
HETATM   13  C   UNL     1      -9.698  10.020  69.658  1.00  0.00    -0.255 C  
BRANCH  13  14
HETATM   14  C   UNL     1     -10.264   9.195  68.520  1.00  0.00    -0.223 C  
BRANCH  14  15
HETATM   15  C   UNL     1     -11.066  10.056  67.555  1.00  0.00    -0.190 C  
BRANCH  15  16
HETATM   16  C   UNL     1     -10.883  11.502  67.956  1.00  0.00    -0.213 C  
BRANCH  16  17
HETATM   17  O   UNL     1     -12.008  12.273  67.553  1.00  0.00    -0.513 OA 
BRANCH  17  18
HETATM   18  P   UNL     1     -11.734  13.975  67.701  1.00  0.00    -0.391 P  
HETATM   19  O   UNL     1     -12.369  13.927  69.095  1.00  0.00    -0.314 OA 
HETATM   20  O   UNL     1     -12.508  14.276  66.420  1.00  0.00    -0.441 OA 
BRANCH  18  21
HETATM   21  O   UNL     1     -11.458  15.677  67.849  1.00  0.00    -0.329 OA 
BRANCH  21  22
HETATM   22  C   UNL     1     -10.169  16.100  67.413  1.00  0.00    -0.272 C  
BRANCH  22  23
HETATM   23  C   UNL     1      -9.433  16.887  68.475  1.00  0.00    -0.266 C  
BRANCH  23  24
HETATM   24  N   UNL     1      -8.892  18.259  68.017  1.00  0.00    -0.273 N  
HETATM   25  C   UNL     1      -7.402  18.264  68.297  1.00  0.00    -0.269 C  
HETATM   26  C   UNL     1      -9.566  19.375  68.817  1.00  0.00    -0.432 C  
HETATM   27  C   UNL     1      -9.142  18.476  66.535  1.00  0.00    -0.295 C  
ENDBRANCH  23  24
ENDBRANCH  22  23
ENDBRANCH  21  22
ENDBRANCH  18  21
ENDBRANCH  17  18
ENDBRANCH  16  17
ENDBRANCH  15  16
ENDBRANCH  14  15
ENDBRANCH  13  14
ENDBRANCH  12  13
ENDBRANCH  11  12
ENDBRANCH  10  11
ENDBRANCH   9  10
ENDBRANCH   8   9
ENDBRANCH   7   8
ENDBRANCH   6   7
ENDBRANCH   5   6
ENDBRANCH   4   5
ENDBRANCH   3   4
ENDBRANCH   2   3
TORSDOF 20
ENDMDL
MODEL       66
REMARK 921   NORMALIZED FREE ENERGY PREDICTED BY IDOCK:   -4.35 KCAL/MOL
REMARK 922        TOTAL FREE ENERGY PREDICTED BY IDOCK:  -11.35 KCAL/MOL
REMARK 923 INTER-LIGAND FREE ENERGY PREDICTED BY IDOCK:   -8.88 KCAL/MOL
REMARK 924 INTRA-LIGAND FREE ENERGY PREDICTED BY IDOCK:   -2.47 KCAL/MOL
REMARK 927      BINDING AFFINITY PREDICTED BY RF-SCORE:    0.00 PKD
ROOT
HETATM    1  C   UNL     1     -12.778  13.875  65.560  1.00  0.00    -0.536 C  
HETATM    2  C   UNL     1     -12.385  12.505  65.034  1.00  0.00    -0.522 C  
ENDROOT
BRANCH   2   3
HETATM    3  C   UNL     1     -11.953  12.579  63.572  1.00  0.00    -0.629 C  
BRANCH   3   4
HETATM    4  C   UNL     1     -10.632  11.849  63.353  1.00  0.00    -0.485 C  
BRANCH   4   5
HETATM    5  C   UNL     1     -10.408  10.801  64.437  1.00  0.00    -0.405 C  
BRANCH   5   6
HETATM    6  C   UNL     1      -8.971  10.292  64.408  1.00  0.00    -0.255 C  
BRANCH   6   7
HETATM    7  C   UNL     1      -8.748   9.260  65.505  1.00  0.00    -0.204 C  
BRANCH   7   8
HETATM    8  C   UNL     1     -10.074   8.864  66.142  1.00  0.00    -0.209 C  
BRANCH   8   9
HETATM    9  C   UNL     1     -10.030   9.116  67.641  1.00  0.00    -0.245 C  
BRANCH   9  10
HETATM   10  C   UNL     1     -11.106  10.110  68.050  1.00  0.00    -0.302 C  
BRANCH  10  11
HETATM   11  C   UNL     1     -10.460  11.366  68.615  1.00  0.00    -0.224 C  
BRANCH  11  12
HETATM   12  C   UNL     1      -8.953  11.199  68.696  1.00  0.00    -0.162 C  
BRANCH  12  13
HETATM   13  C   UNL     1      -8.260  12.426  68.121  1.00  0.00    -0.173 C  
BRANCH  13  14
HETATM   14  C   UNL     1      -9.140  13.052  67.057  1.00  0.00    -0.230 C  
BRANCH  14  15
HETATM   15  C   UNL     1      -9.474  14.499  67.392  1.00  0.00    -0.202 C  
BRANCH  15  16
HETATM   16  C   UNL     1      -9.330  15.316  66.128  1.00  0.00    -0.325 C  
BRANCH  16  17
HETATM   17  O   UNL     1     -10.420  16.221  65.998  1.00  0.00    -0.325 OA 
BRANCH  17  18
HETATM   18  P   UNL     1      -9.923  17.876  66.088  1.00  0.00    -0.168 P  
HETATM   19  O   UNL     1     -11.028  18.233  65.089  1.00  0.00    -0.628 OA 
HETATM   20  O   UNL     1      -8.489  17.533  65.689  1.00  0.00    -0.451 OA 
BRANCH  18  21
HETATM   21  O   UNL     1      -9.426  19.530  66.180  1.00  0.00    -0.366 OA 
BRANCH  21  22
HETATM   22  C   UNL     1      -9.403  20.061  67.502  1.00  0.00    -0.367 C  
BRANCH  22  23
HETATM   23  C   UNL     1      -8.500  19.270  68.423  1.00  0.00    -0.351 C  
BRANCH  23  24
HETATM   24  N   UNL     1      -7.015  19.695  68.410  1.00  0.00    -0.291 N  
HETATM   25  C   UNL     1      -6.637  20.027  69.840  1.00  0.00    -0.281 C  
HETATM   26  C   UNL     1      -6.840  20.937  67.535  1.00  0.00    -0.360 C  
HETATM   27  C   UNL     1      -6.133  18.577  67.886  1.00  0.00    -0.187 C  
ENDBRANCH  23  24
ENDBRANCH  22  23
ENDBRANCH  21  22
ENDBRANCH  18  21
ENDBRANCH  17  18
ENDBRANCH  16  17
ENDBRANCH  15  16
ENDBRANCH  14  15
ENDBRANCH  13  14
ENDBRANCH  12  13
ENDBRANCH  11  12
ENDBRANCH  10  11
ENDBRANCH   9  10
ENDBRANCH   8   9
ENDBRANCH   7   8
ENDBRANCH   6   7
ENDBRANCH   5   6
ENDBRANCH   4   5
ENDBRANCH   3   4
ENDBRANCH   2   3
TORSDOF 20
ENDMDL
MODEL       67
REMARK 921   NORMALIZED FREE ENERGY PREDICTED BY IDOCK:   -4.34 KCAL/MOL
REMARK 922        TOTAL FREE ENERGY PREDICTED BY IDOCK:  -11.35 KCAL/MOL
REMARK 923 INTER-LIGAND FREE ENERGY PREDICTED BY IDOCK:   -9.93 KCAL/MOL
REMARK 924 INTRA-LIGAND FREE ENERGY PREDICTED BY IDOCK:   -1.41 KCAL/MOL
REMARK 927      BINDING AFFINITY PREDICTED BY RF-SCORE:    0.00 PKD
ROOT
HETATM    1  C   UNL     1     -14.252   8.705  72.136  1.00  0.00    -0.520 C  
HETATM    2  C   UNL     1     -13.178   7.713  71.723  1.00  0.00    -0.360 C  
ENDROOT
BRANCH   2   3
HETATM    3  C   UNL     1     -11.809   8.133  72.251  1.00  0.00    -0.441 C  
BRANCH   3   4
HETATM    4  C   UNL     1     -10.690   7.399  71.518  1.00  0.00    -0.243 C  
BRANCH   4   5
HETATM    5  C   UNL     1     -11.191   6.074  70.956  1.00  0.00    -0.332 C  
BRANCH   5   6
HETATM    6  C   UNL     1     -10.853   5.953  69.475  1.00  0.00    -0.442 C  
BRANCH   6   7
HETATM    7  C   UNL     1     -10.624   7.330  68.866  1.00  0.00    -0.207 C  
BRANCH   7   8
HETATM    8  C   UNL     1     -10.744   7.269  67.349  1.00  0.00    -0.358 C  
BRANCH   8   9
HETATM    9  C   UNL     1     -10.147   8.521  66.725  1.00  0.00    -0.369 C  
BRANCH   9  10
HETATM   10  C   UNL     1      -8.989   8.164  65.808  1.00  0.00    -0.165 C  
BRANCH  10  11
HETATM   11  C   UNL     1      -8.742   9.296  64.824  1.00  0.00    -0.220 C  
BRANCH  11  12
HETATM   12  C   UNL     1      -9.918  10.257  64.811  1.00  0.00    -0.392 C  
BRANCH  12  13
HETATM   13  C   UNL     1      -9.979  10.990  63.479  1.00  0.00    -0.421 C  
BRANCH  13  14
HETATM   14  C   UNL     1     -10.700  12.311  63.660  1.00  0.00    -0.513 C  
BRANCH  14  15
HETATM   15  C   UNL     1     -12.210  12.123  63.676  1.00  0.00    -0.663 C  
BRANCH  15  16
HETATM   16  C   UNL     1     -12.771  12.946  64.814  1.00  0.00    -0.370 C  
BRANCH  16  17
HETATM   17  O   UNL     1     -12.333  12.428  66.063  1.00  0.00    -0.627 OA 
BRANCH  17  18
HETATM   18  P   UNL     1     -11.716  13.657  67.112  1.00  0.00    -0.405 P  
HETATM   19  O   UNL     1     -12.034  14.698  66.034  1.00  0.00    -0.337 OA 
HETATM   20  O   UNL     1     -10.367  12.953  67.249  1.00  0.00    -0.232 OA 
BRANCH  18  21
HETATM   21  O   UNL     1     -11.099  14.886  68.163  1.00  0.00    -0.262 OA 
BRANCH  21  22
HETATM   22  C   UNL     1     -10.441  15.955  67.488  1.00  0.00    -0.298 C  
BRANCH  22  23
HETATM   23  C   UNL     1     -10.758  17.302  68.099  1.00  0.00    -0.363 C  
BRANCH  23  24
HETATM   24  N   UNL     1      -9.760  18.429  67.755  1.00  0.00    -0.292 N  
HETATM   25  C   UNL     1      -8.373  17.818  67.787  1.00  0.00    -0.235 C  
HETATM   26  C   UNL     1      -9.852  19.540  68.803  1.00  0.00    -0.451 C  
HETATM   27  C   UNL     1     -10.041  19.006  66.380  1.00  0.00    -0.415 C  
ENDBRANCH  23  24
ENDBRANCH  22  23
ENDBRANCH  21  22
ENDBRANCH  18  21
ENDBRANCH  17  18
ENDBRANCH  16  17
ENDBRANCH  15  16
ENDBRANCH  14  15
ENDBRANCH  13  14
ENDBRANCH  12  13
ENDBRANCH  11  12
ENDBRANCH  10  11
ENDBRANCH   9  10
ENDBRANCH   8   9
ENDBRANCH   7   8
ENDBRANCH   6   7
ENDBRANCH   5   6
ENDBRANCH   4   5
ENDBRANCH   3   4
ENDBRANCH   2   3
TORSDOF 20
ENDMDL
MODEL       68
REMARK 921   NORMALIZED FREE ENERGY PREDICTED BY IDOCK:   -4.33 KCAL/MOL
REMARK 922        TOTAL FREE ENERGY PREDICTED BY IDOCK:  -11.32 KCAL/MOL
REMARK 923 INTER-LIGAND FREE ENERGY PREDICTED BY IDOCK:   -8.19 KCAL/MOL
REMARK 924 INTRA-LIGAND FREE ENERGY PREDICTED BY IDOCK:   -3.13 KCAL/MOL
REMARK 927      BINDING AFFINITY PREDICTED BY RF-SCORE:    0.00 PKD
ROOT
HETATM    1  C   UNL     1      -9.571   4.825  68.230  1.00  0.00    -0.204 C  
HETATM    2  C   UNL     1     -10.204   5.132  69.577  1.00  0.00    -0.318 C  
ENDROOT
BRANCH   2   3
HETATM    3  C   UNL     1     -11.278   6.210  69.448  1.00  0.00    -0.466 C  
BRANCH   3   4
HETATM    4  C   UNL     1     -11.838   6.592  70.814  1.00  0.00    -0.441 C  
BRANCH   4   5
HETATM    5  C   UNL     1     -11.896   8.108  70.968  1.00  0.00    -0.279 C  
BRANCH   5   6
HETATM    6  C   UNL     1     -11.212   8.545  72.258  1.00  0.00    -0.432 C  
BRANCH   6   7
HETATM    7  C   UNL     1     -10.837   7.333  73.100  1.00  0.00    -0.401 C  
BRANCH   7   8
HETATM    8  C   UNL     1      -9.434   7.495  73.671  1.00  0.00    -0.338 C  
BRANCH   8   9
HETATM    9  C   UNL     1      -8.552   8.249  72.687  1.00  0.00    -0.264 C  
BRANCH   9  10
HETATM   10  C   UNL     1      -7.974   7.301  71.649  1.00  0.00    -0.096 C  
BRANCH  10  11
HETATM   11  C   UNL     1      -8.042   7.941  70.271  1.00  0.00    -0.115 C  
BRANCH  11  12
HETATM   12  C   UNL     1      -8.032   9.456  70.387  1.00  0.00    -0.190 C  
BRANCH  12  13
HETATM   13  C   UNL     1      -9.158  10.050  69.553  1.00  0.00    -0.236 C  
BRANCH  13  14
HETATM   14  C   UNL     1      -9.460   9.135  68.384  1.00  0.00    -0.150 C  
BRANCH  14  15
HETATM   15  C   UNL     1     -10.699   9.591  67.627  1.00  0.00    -0.314 C  
BRANCH  15  16
HETATM   16  C   UNL     1     -11.050  10.984  68.100  1.00  0.00    -0.270 C  
BRANCH  16  17
HETATM   17  O   UNL     1     -12.021  11.568  67.241  1.00  0.00    -0.605 OA 
BRANCH  17  18
HETATM   18  P   UNL     1     -11.601  13.176  66.760  1.00  0.00    -0.399 P  
HETATM   19  O   UNL     1     -12.281  12.920  65.411  1.00  0.00    -0.430 OA 
HETATM   20  O   UNL     1     -10.117  12.936  67.027  1.00  0.00    -0.239 OA 
BRANCH  18  21
HETATM   21  O   UNL     1     -11.182  14.784  66.280  1.00  0.00    -0.338 OA 
BRANCH  21  22
HETATM   22  C   UNL     1      -9.780  15.037  66.247  1.00  0.00    -0.291 C  
BRANCH  22  23
HETATM   23  C   UNL     1      -9.464  16.515  66.183  1.00  0.00    -0.315 C  
BRANCH  23  24
HETATM   24  N   UNL     1      -9.298  17.210  67.552  1.00  0.00    -0.236 N  
HETATM   25  C   UNL     1      -8.241  18.284  67.379  1.00  0.00    -0.237 C  
HETATM   26  C   UNL     1      -8.826  16.195  68.595  1.00  0.00    -0.218 C  
HETATM   27  C   UNL     1     -10.603  17.836  68.008  1.00  0.00    -0.365 C  
ENDBRANCH  23  24
ENDBRANCH  22  23
ENDBRANCH  21  22
ENDBRANCH  18  21
ENDBRANCH  17  18
ENDBRANCH  16  17
ENDBRANCH  15  16
ENDBRANCH  14  15
ENDBRANCH  13  14
ENDBRANCH  12  13
ENDBRANCH  11  12
ENDBRANCH  10  11
ENDBRANCH   9  10
ENDBRANCH   8   9
ENDBRANCH   7   8
ENDBRANCH   6   7
ENDBRANCH   5   6
ENDBRANCH   4   5
ENDBRANCH   3   4
ENDBRANCH   2   3
TORSDOF 20
ENDMDL
MODEL       69
REMARK 921   NORMALIZED FREE ENERGY PREDICTED BY IDOCK:   -4.33 KCAL/MOL
REMARK 922        TOTAL FREE ENERGY PREDICTED BY IDOCK:  -11.31 KCAL/MOL
REMARK 923 INTER-LIGAND FREE ENERGY PREDICTED BY IDOCK:   -9.84 KCAL/MOL
REMARK 924 INTRA-LIGAND FREE ENERGY PREDICTED BY IDOCK:   -1.48 KCAL/MOL
REMARK 927      BINDING AFFINITY PREDICTED BY RF-SCORE:    0.00 PKD
ROOT
HETATM    1  C   UNL     1     -10.110   4.485  65.402  1.00  0.00    -0.211 C  
HETATM    2  C   UNL     1      -9.806   5.165  66.725  1.00  0.00    -0.205 C  
ENDROOT
BRANCH   2   3
HETATM    3  C   UNL     1     -10.789   6.301  66.999  1.00  0.00    -0.458 C  
BRANCH   3   4
HETATM    4  C   UNL     1     -11.129   6.387  68.483  1.00  0.00    -0.385 C  
BRANCH   4   5
HETATM    5  C   UNL     1      -9.912   6.824  69.292  1.00  0.00    -0.168 C  
BRANCH   5   6
HETATM    6  C   UNL     1     -10.295   7.088  70.743  1.00  0.00    -0.222 C  
BRANCH   6   7
HETATM    7  C   UNL     1     -11.790   6.882  70.946  1.00  0.00    -0.424 C  
BRANCH   7   8
HETATM    8  C   UNL     1     -12.261   7.602  72.203  1.00  0.00    -0.301 C  
BRANCH   8   9
HETATM    9  C   UNL     1     -11.854   9.067  72.152  1.00  0.00    -0.384 C  
BRANCH   9  10
HETATM   10  C   UNL     1     -12.856   9.874  71.343  1.00  0.00    -0.505 C  
BRANCH  10  11
HETATM   11  C   UNL     1     -12.195  11.139  70.817  1.00  0.00    -0.484 C  
BRANCH  11  12
HETATM   12  C   UNL     1     -11.165  10.798  69.753  1.00  0.00    -0.365 C  
BRANCH  12  13
HETATM   13  C   UNL     1     -11.780  10.939  68.368  1.00  0.00    -0.290 C  
BRANCH  13  14
HETATM   14  C   UNL     1     -10.886  11.806  67.504  1.00  0.00    -0.286 C  
BRANCH  14  15
HETATM   15  C   UNL     1     -11.590  12.229  66.223  1.00  0.00    -0.446 C  
BRANCH  15  16
HETATM   16  C   UNL     1     -10.690  13.199  65.492  1.00  0.00    -0.283 C  
BRANCH  16  17
HETATM   17  O   UNL     1     -11.463  14.207  64.853  1.00  0.00    -0.335 OA 
BRANCH  17  18
HETATM   18  P   UNL     1     -10.859  15.799  65.155  1.00  0.00    -0.303 P  
HETATM   19  O   UNL     1     -11.276  15.648  66.622  1.00  0.00    -0.221 OA 
HETATM   20  O   UNL     1     -11.747  16.411  64.074  1.00  0.00    -1.044 OA 
BRANCH  18  21
HETATM   21  O   UNL     1     -10.253  17.391  65.458  1.00  0.00    -0.604 OA 
BRANCH  21  22
HETATM   22  C   UNL     1      -9.300  17.463  66.515  1.00  0.00    -0.270 C  
BRANCH  22  23
HETATM   23  C   UNL     1      -8.313  18.594  66.323  1.00  0.00    -0.230 C  
BRANCH  23  24
HETATM   24  N   UNL     1      -8.388  19.716  67.381  1.00  0.00    -0.290 N  
HETATM   25  C   UNL     1      -8.215  19.060  68.737  1.00  0.00    -0.334 C  
HETATM   26  C   UNL     1      -9.755  20.400  67.316  1.00  0.00    -0.461 C  
HETATM   27  C   UNL     1      -7.295  20.746  67.160  1.00  0.00    -0.329 C  
ENDBRANCH  23  24
ENDBRANCH  22  23
ENDBRANCH  21  22
ENDBRANCH  18  21
ENDBRANCH  17  18
ENDBRANCH  16  17
ENDBRANCH  15  16
ENDBRANCH  14  15
ENDBRANCH  13  14
ENDBRANCH  12  13
ENDBRANCH  11  12
ENDBRANCH  10  11
ENDBRANCH   9  10
ENDBRANCH   8   9
ENDBRANCH   7   8
ENDBRANCH   6   7
ENDBRANCH   5   6
ENDBRANCH   4   5
ENDBRANCH   3   4
ENDBRANCH   2   3
TORSDOF 20
ENDMDL
MODEL       70
REMARK 921   NORMALIZED FREE ENERGY PREDICTED BY IDOCK:   -4.33 KCAL/MOL
REMARK 922        TOTAL FREE ENERGY PREDICTED BY IDOCK:  -11.31 KCAL/MOL
REMARK 923 INTER-LIGAND FREE ENERGY PREDICTED BY IDOCK:   -9.40 KCAL/MOL
REMARK 924 INTRA-LIGAND FREE ENERGY PREDICTED BY IDOCK:   -1.92 KCAL/MOL
REMARK 927      BINDING AFFINITY PREDICTED BY RF-SCORE:    0.00 PKD
ROOT
HETATM    1  C   UNL     1     -13.901   9.140  72.340  1.00  0.00    -0.524 C  
HETATM    2  C   UNL     1     -14.349   7.816  71.743  1.00  0.00    -0.594 C  
ENDROOT
BRANCH   2   3
HETATM    3  C   UNL     1     -13.152   6.944  71.376  1.00  0.00    -0.316 C  
BRANCH   3   4
HETATM    4  C   UNL     1     -11.840   7.690  71.601  1.00  0.00    -0.323 C  
BRANCH   4   5
HETATM    5  C   UNL     1     -10.843   7.376  70.491  1.00  0.00    -0.259 C  
BRANCH   5   6
HETATM    6  C   UNL     1     -11.447   6.407  69.481  1.00  0.00    -0.412 C  
BRANCH   6   7
HETATM    7  C   UNL     1     -10.437   6.074  68.392  1.00  0.00    -0.290 C  
BRANCH   7   8
HETATM    8  C   UNL     1     -10.741   6.860  67.124  1.00  0.00    -0.436 C  
BRANCH   8   9
HETATM    9  C   UNL     1      -9.448   7.329  66.475  1.00  0.00    -0.218 C  
BRANCH   9  10
HETATM   10  C   UNL     1      -9.463   8.836  66.277  1.00  0.00    -0.300 C  
BRANCH  10  11
HETATM   11  C   UNL     1     -10.462   9.473  67.231  1.00  0.00    -0.328 C  
BRANCH  11  12
HETATM   12  C   UNL     1     -10.663  10.939  66.890  1.00  0.00    -0.318 C  
BRANCH  12  13
HETATM   13  C   UNL     1     -11.508  11.612  67.962  1.00  0.00    -0.385 C  
BRANCH  13  14
HETATM   14  C   UNL     1     -11.532  10.746  69.206  1.00  0.00    -0.369 C  
BRANCH  14  15
HETATM   15  C   UNL     1     -12.021  11.527  70.418  1.00  0.00    -0.459 C  
BRANCH  15  16
HETATM   16  C   UNL     1     -12.338  12.936  69.969  1.00  0.00    -0.129 C  
BRANCH  16  17
HETATM   17  O   UNL     1     -11.989  13.868  70.985  1.00  0.00    -0.314 OA 
BRANCH  17  18
HETATM   18  P   UNL     1     -11.393  15.359  70.340  1.00  0.00    -0.389 P  
HETATM   19  O   UNL     1     -12.220  16.110  71.390  1.00  0.00    -0.423 OA 
HETATM   20  O   UNL     1     -11.895  15.027  68.937  1.00  0.00    -0.320 OA 
BRANCH  18  21
HETATM   21  O   UNL     1     -10.797  16.850  69.696  1.00  0.00    -0.302 OA 
BRANCH  21  22
HETATM   22  C   UNL     1     -10.083  16.712  68.470  1.00  0.00    -0.266 C  
BRANCH  22  23
HETATM   23  C   UNL     1     -10.609  17.635  67.392  1.00  0.00    -0.318 C  
BRANCH  23  24
HETATM   24  N   UNL     1      -9.851  18.973  67.247  1.00  0.00    -0.315 N  
HETATM   25  C   UNL     1      -8.373  18.662  67.380  1.00  0.00    -0.260 C  
HETATM   26  C   UNL     1     -10.272  19.931  68.363  1.00  0.00    -0.433 C  
HETATM   27  C   UNL     1     -10.128  19.613  65.899  1.00  0.00    -0.397 C  
ENDBRANCH  23  24
ENDBRANCH  22  23
ENDBRANCH  21  22
ENDBRANCH  18  21
ENDBRANCH  17  18
ENDBRANCH  16  17
ENDBRANCH  15  16
ENDBRANCH  14  15
ENDBRANCH  13  14
ENDBRANCH  12  13
ENDBRANCH  11  12
ENDBRANCH  10  11
ENDBRANCH   9  10
ENDBRANCH   8   9
ENDBRANCH   7   8
ENDBRANCH   6   7
ENDBRANCH   5   6
ENDBRANCH   4   5
ENDBRANCH   3   4
ENDBRANCH   2   3
TORSDOF 20
ENDMDL
MODEL       71
REMARK 921   NORMALIZED FREE ENERGY PREDICTED BY IDOCK:   -4.33 KCAL/MOL
REMARK 922        TOTAL FREE ENERGY PREDICTED BY IDOCK:  -11.31 KCAL/MOL
REMARK 923 INTER-LIGAND FREE ENERGY PREDICTED BY IDOCK:   -8.42 KCAL/MOL
REMARK 924 INTRA-LIGAND FREE ENERGY PREDICTED BY IDOCK:   -2.89 KCAL/MOL
REMARK 927      BINDING AFFINITY PREDICTED BY RF-SCORE:    0.00 PKD
ROOT
HETATM    1  C   UNL     1     -11.434   8.072  72.399  1.00  0.00    -0.449 C  
HETATM    2  C   UNL     1     -12.384   8.660  71.370  1.00  0.00    -0.344 C  
ENDROOT
BRANCH   2   3
HETATM    3  C   UNL     1     -12.383  10.186  71.428  1.00  0.00    -0.515 C  
BRANCH   3   4
HETATM    4  C   UNL     1     -12.308  10.788  70.029  1.00  0.00    -0.371 C  
BRANCH   4   5
HETATM    5  C   UNL     1     -11.235  10.092  69.198  1.00  0.00    -0.234 C  
BRANCH   5   6
HETATM    6  C   UNL     1      -9.866  10.710  69.458  1.00  0.00    -0.115 C  
BRANCH   6   7
HETATM    7  C   UNL     1      -8.843   9.627  69.773  1.00  0.00    -0.224 C  
BRANCH   7   8
HETATM    8  C   UNL     1      -9.297   8.286  69.211  1.00  0.00    -0.155 C  
BRANCH   8   9
HETATM    9  C   UNL     1      -8.236   7.725  68.275  1.00  0.00    -0.124 C  
BRANCH   9  10
HETATM   10  C   UNL     1      -8.086   8.606  67.046  1.00  0.00    -0.100 C  
BRANCH  10  11
HETATM   11  C   UNL     1      -9.266   8.395  66.111  1.00  0.00    -0.263 C  
BRANCH  11  12
HETATM   12  C   UNL     1      -9.937   9.719  65.793  1.00  0.00    -0.349 C  
BRANCH  12  13
HETATM   13  C   UNL     1      -8.932  10.856  65.915  1.00  0.00    -0.206 C  
BRANCH  13  14
HETATM   14  C   UNL     1      -9.669  12.161  66.144  1.00  0.00    -0.254 C  
BRANCH  14  15
HETATM   15  C   UNL     1     -11.152  12.024  65.829  1.00  0.00    -0.371 C  
BRANCH  15  16
HETATM   16  C   UNL     1     -11.717  13.413  65.633  1.00  0.00    -0.346 C  
BRANCH  16  17
HETATM   17  O   UNL     1     -10.942  14.133  64.682  1.00  0.00    -0.391 OA 
BRANCH  17  18
HETATM   18  P   UNL     1     -10.793  15.810  65.081  1.00  0.00    -0.303 P  
HETATM   19  O   UNL     1     -11.285  15.488  66.496  1.00  0.00    -0.243 OA 
HETATM   20  O   UNL     1     -11.708  16.230  63.934  1.00  0.00    -0.986 OA 
BRANCH  18  21
HETATM   21  O   UNL     1     -10.641  17.486  65.480  1.00  0.00    -0.612 OA 
BRANCH  21  22
HETATM   22  C   UNL     1      -9.949  17.736  66.700  1.00  0.00    -0.338 C  
BRANCH  22  23
HETATM   23  C   UNL     1      -8.490  17.343  66.624  1.00  0.00    -0.261 C  
BRANCH  23  24
HETATM   24  N   UNL     1      -7.845  16.956  67.973  1.00  0.00    -0.175 N  
HETATM   25  C   UNL     1      -6.827  15.870  67.682  1.00  0.00    -0.166 C  
HETATM   26  C   UNL     1      -8.913  16.411  68.922  1.00  0.00    -0.256 C  
HETATM   27  C   UNL     1      -7.160  18.150  68.612  1.00  0.00    -0.268 C  
ENDBRANCH  23  24
ENDBRANCH  22  23
ENDBRANCH  21  22
ENDBRANCH  18  21
ENDBRANCH  17  18
ENDBRANCH  16  17
ENDBRANCH  15  16
ENDBRANCH  14  15
ENDBRANCH  13  14
ENDBRANCH  12  13
ENDBRANCH  11  12
ENDBRANCH  10  11
ENDBRANCH   9  10
ENDBRANCH   8   9
ENDBRANCH   7   8
ENDBRANCH   6   7
ENDBRANCH   5   6
ENDBRANCH   4   5
ENDBRANCH   3   4
ENDBRANCH   2   3
TORSDOF 20
ENDMDL
MODEL       72
REMARK 921   NORMALIZED FREE ENERGY PREDICTED BY IDOCK:   -4.33 KCAL/MOL
REMARK 922        TOTAL FREE ENERGY PREDICTED BY IDOCK:  -11.31 KCAL/MOL
REMARK 923 INTER-LIGAND FREE ENERGY PREDICTED BY IDOCK:   -8.51 KCAL/MOL
REMARK 924 INTRA-LIGAND FREE ENERGY PREDICTED BY IDOCK:   -2.79 KCAL/MOL
REMARK 927      BINDING AFFINITY PREDICTED BY RF-SCORE:    0.00 PKD
ROOT
HETATM    1  C   UNL     1     -10.766   7.505  67.129  1.00  0.00    -0.379 C  
HETATM    2  C   UNL     1      -9.531   7.925  66.352  1.00  0.00    -0.258 C  
ENDROOT
BRANCH   2   3
HETATM    3  C   UNL     1      -9.246   9.414  66.532  1.00  0.00    -0.202 C  
BRANCH   3   4
HETATM    4  C   UNL     1      -9.370  10.161  65.208  1.00  0.00    -0.278 C  
BRANCH   4   5
HETATM    5  C   UNL     1     -10.771  10.738  65.042  1.00  0.00    -0.160 C  
BRANCH   5   6
HETATM    6  C   UNL     1     -10.921  11.407  63.681  1.00  0.00    -0.443 C  
BRANCH   6   7
HETATM    7  C   UNL     1     -12.272  12.103  63.575  1.00  0.00    -0.670 C  
BRANCH   7   8
HETATM    8  C   UNL     1     -12.141  13.578  63.930  1.00  0.00    -0.493 C  
BRANCH   8   9
HETATM    9  C   UNL     1     -12.638  13.822  65.347  1.00  0.00    -0.534 C  
BRANCH   9  10
HETATM   10  C   UNL     1     -11.665  14.704  66.113  1.00  0.00    -0.316 C  
BRANCH  10  11
HETATM   11  C   UNL     1     -10.249  14.467  65.612  1.00  0.00    -0.379 C  
BRANCH  11  12
HETATM   12  C   UNL     1      -9.473  13.611  66.597  1.00  0.00    -0.285 C  
BRANCH  12  13
HETATM   13  C   UNL     1     -10.095  13.714  67.982  1.00  0.00    -0.250 C  
BRANCH  13  14
HETATM   14  C   UNL     1     -10.252  12.326  68.571  1.00  0.00    -0.213 C  
BRANCH  14  15
HETATM   15  C   UNL     1     -11.661  11.790  68.365  1.00  0.00    -0.380 C  
BRANCH  15  16
HETATM   16  C   UNL     1     -12.029  10.964  69.577  1.00  0.00    -0.330 C  
BRANCH  16  17
HETATM   17  O   UNL     1     -10.918  10.180  69.997  1.00  0.00    -0.263 OA 
BRANCH  17  18
HETATM   18  P   UNL     1     -11.360   8.967  71.149  1.00  0.00    -0.363 P  
HETATM   19  O   UNL     1     -12.632   9.763  71.457  1.00  0.00    -0.340 OA 
HETATM   20  O   UNL     1     -10.048   9.125  71.913  1.00  0.00    -0.322 OA 
BRANCH  18  21
HETATM   21  O   UNL     1     -11.802   7.753  72.299  1.00  0.00    -0.309 OA 
BRANCH  21  22
HETATM   22  C   UNL     1     -11.811   6.428  71.775  1.00  0.00    -0.321 C  
BRANCH  22  23
HETATM   23  C   UNL     1     -11.087   6.329  70.451  1.00  0.00    -0.352 C  
BRANCH  23  24
HETATM   24  N   UNL     1      -9.738   5.578  70.495  1.00  0.00    -0.175 N  
HETATM   25  C   UNL     1      -9.575   5.043  71.904  1.00  0.00    -0.152 C  
HETATM   26  C   UNL     1      -8.596   6.545  70.181  1.00  0.00    -0.140 C  
HETATM   27  C   UNL     1      -9.720   4.432  69.500  1.00  0.00    -0.210 C  
ENDBRANCH  23  24
ENDBRANCH  22  23
ENDBRANCH  21  22
ENDBRANCH  18  21
ENDBRANCH  17  18
ENDBRANCH  16  17
ENDBRANCH  15  16
ENDBRANCH  14  15
ENDBRANCH  13  14
ENDBRANCH  12  13
ENDBRANCH  11  12
ENDBRANCH  10  11
ENDBRANCH   9  10
ENDBRANCH   8   9
ENDBRANCH   7   8
ENDBRANCH   6   7
ENDBRANCH   5   6
ENDBRANCH   4   5
ENDBRANCH   3   4
ENDBRANCH   2   3
TORSDOF 20
ENDMDL
MODEL       73
REMARK 921   NORMALIZED FREE ENERGY PREDICTED BY IDOCK:   -4.32 KCAL/MOL
REMARK 922        TOTAL FREE ENERGY PREDICTED BY IDOCK:  -11.29 KCAL/MOL
REMARK 923 INTER-LIGAND FREE ENERGY PREDICTED BY IDOCK:   -8.29 KCAL/MOL
REMARK 924 INTRA-LIGAND FREE ENERGY PREDICTED BY IDOCK:   -3.00 KCAL/MOL
REMARK 927      BINDING AFFINITY PREDICTED BY RF-SCORE:    0.00 PKD
ROOT
HETATM    1  C   UNL     1      -9.520   4.318  68.395  1.00  0.00    -0.215 C  
HETATM    2  C   UNL     1     -10.019   5.373  69.367  1.00  0.00    -0.280 C  
ENDROOT
BRANCH   2   3
HETATM    3  C   UNL     1     -10.887   6.410  68.658  1.00  0.00    -0.379 C  
BRANCH   3   4
HETATM    4  C   UNL     1     -10.450   7.827  69.013  1.00  0.00    -0.215 C  
BRANCH   4   5
HETATM    5  C   UNL     1      -9.053   7.823  69.624  1.00  0.00    -0.146 C  
BRANCH   5   6
HETATM    6  C   UNL     1      -8.939   8.881  70.716  1.00  0.00    -0.254 C  
BRANCH   6   7
HETATM    7  C   UNL     1      -8.117   8.355  71.885  1.00  0.00    -0.193 C  
BRANCH   7   8
HETATM    8  C   UNL     1      -8.676   7.025  72.374  1.00  0.00    -0.136 C  
BRANCH   8   9
HETATM    9  C   UNL     1      -9.969   7.251  73.142  1.00  0.00    -0.295 C  
BRANCH   9  10
HETATM   10  C   UNL     1     -10.951   6.121  72.883  1.00  0.00    -0.294 C  
BRANCH  10  11
HETATM   11  C   UNL     1     -12.117   6.631  72.051  1.00  0.00    -0.353 C  
BRANCH  11  12
HETATM   12  C   UNL     1     -12.236   8.140  72.170  1.00  0.00    -0.398 C  
BRANCH  12  13
HETATM   13  C   UNL     1     -13.617   8.592  71.716  1.00  0.00    -0.439 C  
BRANCH  13  14
HETATM   14  C   UNL     1     -13.552  10.036  71.259  1.00  0.00    -0.236 C  
BRANCH  14  15
HETATM   15  C   UNL     1     -12.112  10.514  71.130  1.00  0.00    -0.473 C  
BRANCH  15  16
HETATM   16  C   UNL     1     -11.958  11.172  69.778  1.00  0.00    -0.357 C  
BRANCH  16  17
HETATM   17  O   UNL     1     -11.760  12.573  69.929  1.00  0.00    -0.303 OA 
BRANCH  17  18
HETATM   18  P   UNL     1     -11.456  13.367  68.422  1.00  0.00    -0.365 P  
HETATM   19  O   UNL     1     -10.032  12.802  68.444  1.00  0.00    -0.226 OA 
HETATM   20  O   UNL     1     -11.843  14.730  68.990  1.00  0.00    -0.298 OA 
BRANCH  18  21
HETATM   21  O   UNL     1     -11.154  14.160  66.915  1.00  0.00    -0.296 OA 
BRANCH  21  22
HETATM   22  C   UNL     1     -10.092  13.587  66.156  1.00  0.00    -0.304 C  
BRANCH  22  23
HETATM   23  C   UNL     1     -10.436  13.469  64.687  1.00  0.00    -0.421 C  
BRANCH  23  24
HETATM   24  N   UNL     1     -10.712  12.032  64.192  1.00  0.00    -0.324 N  
HETATM   25  C   UNL     1     -12.130  12.013  63.655  1.00  0.00    -0.527 C  
HETATM   26  C   UNL     1     -10.596  11.050  65.360  1.00  0.00    -0.202 C  
HETATM   27  C   UNL     1      -9.738  11.636  63.098  1.00  0.00    -0.360 C  
ENDBRANCH  23  24
ENDBRANCH  22  23
ENDBRANCH  21  22
ENDBRANCH  18  21
ENDBRANCH  17  18
ENDBRANCH  16  17
ENDBRANCH  15  16
ENDBRANCH  14  15
ENDBRANCH  13  14
ENDBRANCH  12  13
ENDBRANCH  11  12
ENDBRANCH  10  11
ENDBRANCH   9  10
ENDBRANCH   8   9
ENDBRANCH   7   8
ENDBRANCH   6   7
ENDBRANCH   5   6
ENDBRANCH   4   5
ENDBRANCH   3   4
ENDBRANCH   2   3
TORSDOF 20
ENDMDL
MODEL       74
REMARK 921   NORMALIZED FREE ENERGY PREDICTED BY IDOCK:   -4.32 KCAL/MOL
REMARK 922        TOTAL FREE ENERGY PREDICTED BY IDOCK:  -11.29 KCAL/MOL
REMARK 923 INTER-LIGAND FREE ENERGY PREDICTED BY IDOCK:   -9.63 KCAL/MOL
REMARK 924 INTRA-LIGAND FREE ENERGY PREDICTED BY IDOCK:   -1.66 KCAL/MOL
REMARK 927      BINDING AFFINITY PREDICTED BY RF-SCORE:    0.00 PKD
ROOT
HETATM    1  C   UNL     1     -14.159   8.692  72.009  1.00  0.00    -0.523 C  
HETATM    2  C   UNL     1     -12.795   9.360  71.969  1.00  0.00    -0.496 C  
ENDROOT
BRANCH   2   3
HETATM    3  C   UNL     1     -12.847  10.676  71.197  1.00  0.00    -0.518 C  
BRANCH   3   4
HETATM    4  C   UNL     1     -13.563  11.755  72.002  1.00  0.00    -0.167 C  
BRANCH   4   5
HETATM    5  C   UNL     1     -13.034  13.139  71.641  1.00  0.00    -0.429 C  
BRANCH   5   6
HETATM    6  C   UNL     1     -14.011  14.222  72.080  1.00  0.00    -0.595 C  
BRANCH   6   7
HETATM    7  C   UNL     1     -13.266  15.384  72.724  1.00  0.00    -0.590 C  
BRANCH   7   8
HETATM    8  C   UNL     1     -11.808  15.391  72.284  1.00  0.00    -0.551 C  
BRANCH   8   9
HETATM    9  C   UNL     1     -11.648  16.217  71.016  1.00  0.00    -0.434 C  
BRANCH   9  10
HETATM   10  C   UNL     1     -10.784  15.482  70.004  1.00  0.00    -0.331 C  
BRANCH  10  11
HETATM   11  C   UNL     1     -11.540  15.332  68.693  1.00  0.00    -0.370 C  
BRANCH  11  12
HETATM   12  C   UNL     1     -10.722  15.888  67.540  1.00  0.00    -0.318 C  
BRANCH  12  13
HETATM   13  C   UNL     1     -11.059  15.146  66.255  1.00  0.00    -0.309 C  
BRANCH  13  14
HETATM   14  C   UNL     1     -12.247  14.236  66.493  1.00  0.00    -0.419 C  
BRANCH  14  15
HETATM   15  C   UNL     1     -12.296  13.107  65.473  1.00  0.00    -0.529 C  
BRANCH  15  16
HETATM   16  C   UNL     1     -11.406  11.990  65.969  1.00  0.00    -0.343 C  
BRANCH  16  17
HETATM   17  O   UNL     1     -11.677  11.712  67.337  1.00  0.00    -0.556 OA 
BRANCH  17  18
HETATM   18  P   UNL     1     -10.734  10.396  67.946  1.00  0.00    -0.298 P  
HETATM   19  O   UNL     1      -9.968  11.389  68.827  1.00  0.00    -0.206 OA 
HETATM   20  O   UNL     1     -10.292   9.980  66.545  1.00  0.00    -0.232 OA 
BRANCH  18  21
HETATM   21  O   UNL     1      -9.792   9.079  68.556  1.00  0.00    -0.160 OA 
BRANCH  21  22
HETATM   22  C   UNL     1     -10.555   8.069  69.211  1.00  0.00    -0.184 C  
BRANCH  22  23
HETATM   23  C   UNL     1      -9.957   7.670  70.542  1.00  0.00    -0.184 C  
BRANCH  23  24
HETATM   24  N   UNL     1     -10.047   6.165  70.877  1.00  0.00    -0.188 N  
HETATM   25  C   UNL     1     -11.138   6.008  71.919  1.00  0.00    -0.277 C  
HETATM   26  C   UNL     1      -8.716   5.682  71.456  1.00  0.00    -0.132 C  
HETATM   27  C   UNL     1     -10.388   5.352  69.642  1.00  0.00    -0.291 C  
ENDBRANCH  23  24
ENDBRANCH  22  23
ENDBRANCH  21  22
ENDBRANCH  18  21
ENDBRANCH  17  18
ENDBRANCH  16  17
ENDBRANCH  15  16
ENDBRANCH  14  15
ENDBRANCH  13  14
ENDBRANCH  12  13
ENDBRANCH  11  12
ENDBRANCH  10  11
ENDBRANCH   9  10
ENDBRANCH   8   9
ENDBRANCH   7   8
ENDBRANCH   6   7
ENDBRANCH   5   6
ENDBRANCH   4   5
ENDBRANCH   3   4
ENDBRANCH   2   3
TORSDOF 20
ENDMDL
MODEL       75
REMARK 921   NORMALIZED FREE ENERGY PREDICTED BY IDOCK:   -4.32 KCAL/MOL
REMARK 922        TOTAL FREE ENERGY PREDICTED BY IDOCK:  -11.29 KCAL/MOL
REMARK 923 INTER-LIGAND FREE ENERGY PREDICTED BY IDOCK:   -9.66 KCAL/MOL
REMARK 924 INTRA-LIGAND FREE ENERGY PREDICTED BY IDOCK:   -1.63 KCAL/MOL
REMARK 927      BINDING AFFINITY PREDICTED BY RF-SCORE:    0.00 PKD
ROOT
HETATM    1  C   UNL     1     -12.505  13.403  65.125  1.00  0.00    -0.509 C  
HETATM    2  C   UNL     1     -12.088  12.839  63.778  1.00  0.00    -0.596 C  
ENDROOT
BRANCH   2   3
HETATM    3  C   UNL     1     -10.576  12.637  63.709  1.00  0.00    -0.432 C  
BRANCH   3   4
HETATM    4  C   UNL     1     -10.219  11.154  63.740  1.00  0.00    -0.434 C  
BRANCH   4   5
HETATM    5  C   UNL     1      -9.965  10.690  65.170  1.00  0.00    -0.366 C  
BRANCH   5   6
HETATM    6  C   UNL     1      -9.375  11.818  66.007  1.00  0.00    -0.231 C  
BRANCH   6   7
HETATM    7  C   UNL     1     -10.138  11.967  67.316  1.00  0.00    -0.208 C  
BRANCH   7   8
HETATM    8  C   UNL     1      -9.658  13.197  68.076  1.00  0.00    -0.220 C  
BRANCH   8   9
HETATM    9  C   UNL     1     -10.848  14.024  68.538  1.00  0.00    -0.268 C  
BRANCH   9  10
HETATM   10  C   UNL     1     -10.439  14.976  69.651  1.00  0.00    -0.226 C  
BRANCH  10  11
HETATM   11  C   UNL     1     -11.473  16.082  69.791  1.00  0.00    -0.318 C  
BRANCH  11  12
HETATM   12  C   UNL     1     -12.576  15.661  70.747  1.00  0.00    -0.482 C  
BRANCH  12  13
HETATM   13  C   UNL     1     -12.072  15.720  72.183  1.00  0.00    -0.570 C  
BRANCH  13  14
HETATM   14  C   UNL     1     -12.934  14.833  73.058  1.00  0.00    -0.609 C  
BRANCH  14  15
HETATM   15  C   UNL     1     -13.980  14.091  72.239  1.00  0.00    -0.651 C  
BRANCH  15  16
HETATM   16  C   UNL     1     -13.635  12.619  72.262  1.00  0.00    -0.409 C  
BRANCH  16  17
HETATM   17  O   UNL     1     -12.693  12.316  71.240  1.00  0.00    -0.361 OA 
BRANCH  17  18
HETATM   18  P   UNL     1     -12.382  10.620  71.106  1.00  0.00    -0.386 P  
HETATM   19  O   UNL     1     -12.416  10.763  69.580  1.00  0.00    -0.289 OA 
HETATM   20  O   UNL     1     -13.599  10.264  71.957  1.00  0.00    -0.339 OA 
BRANCH  18  21
HETATM   21  O   UNL     1     -12.070   8.923  70.972  1.00  0.00    -0.288 OA 
BRANCH  21  22
HETATM   22  C   UNL     1     -12.001   8.242  72.222  1.00  0.00    -0.386 C  
BRANCH  22  23
HETATM   23  C   UNL     1     -11.555   6.804  72.068  1.00  0.00    -0.291 C  
BRANCH  23  24
HETATM   24  N   UNL     1     -10.062   6.546  72.366  1.00  0.00    -0.171 N  
HETATM   25  C   UNL     1      -9.703   7.369  73.587  1.00  0.00    -0.299 C  
HETATM   26  C   UNL     1      -9.210   6.999  71.178  1.00  0.00    -0.157 C  
HETATM   27  C   UNL     1      -9.807   5.075  72.639  1.00  0.00    -0.159 C  
ENDBRANCH  23  24
ENDBRANCH  22  23
ENDBRANCH  21  22
ENDBRANCH  18  21
ENDBRANCH  17  18
ENDBRANCH  16  17
ENDBRANCH  15  16
ENDBRANCH  14  15
ENDBRANCH  13  14
ENDBRANCH  12  13
ENDBRANCH  11  12
ENDBRANCH  10  11
ENDBRANCH   9  10
ENDBRANCH   8   9
ENDBRANCH   7   8
ENDBRANCH   6   7
ENDBRANCH   5   6
ENDBRANCH   4   5
ENDBRANCH   3   4
ENDBRANCH   2   3
TORSDOF 20
ENDMDL
MODEL       76
REMARK 921   NORMALIZED FREE ENERGY PREDICTED BY IDOCK:   -4.31 KCAL/MOL
REMARK 922        TOTAL FREE ENERGY PREDICTED BY IDOCK:  -11.28 KCAL/MOL
REMARK 923 INTER-LIGAND FREE ENERGY PREDICTED BY IDOCK:   -8.55 KCAL/MOL
REMARK 924 INTRA-LIGAND FREE ENERGY PREDICTED BY IDOCK:   -2.73 KCAL/MOL
REMARK 927      BINDING AFFINITY PREDICTED BY RF-SCORE:    0.00 PKD
ROOT
HETATM    1  C   UNL     1     -12.229  14.212  64.208  1.00  0.00    -0.449 C  
HETATM    2  C   UNL     1     -12.019  12.837  63.597  1.00  0.00    -0.616 C  
ENDROOT
BRANCH   2   3
HETATM    3  C   UNL     1     -10.552  12.422  63.665  1.00  0.00    -0.481 C  
BRANCH   3   4
HETATM    4  C   UNL     1     -10.386  10.939  63.349  1.00  0.00    -0.299 C  
BRANCH   4   5
HETATM    5  C   UNL     1      -9.336  10.307  64.257  1.00  0.00    -0.328 C  
BRANCH   5   6
HETATM    6  C   UNL     1      -9.189  11.104  65.548  1.00  0.00    -0.236 C  
BRANCH   6   7
HETATM    7  C   UNL     1      -9.974  10.444  66.674  1.00  0.00    -0.262 C  
BRANCH   7   8
HETATM    8  C   UNL     1     -10.148  11.410  67.839  1.00  0.00    -0.198 C  
BRANCH   8   9
HETATM    9  C   UNL     1     -10.856  12.672  67.371  1.00  0.00    -0.272 C  
BRANCH   9  10
HETATM   10  C   UNL     1     -10.181  13.909  67.942  1.00  0.00    -0.241 C  
BRANCH  10  11
HETATM   11  C   UNL     1     -10.930  15.156  67.499  1.00  0.00    -0.310 C  
BRANCH  11  12
HETATM   12  C   UNL     1     -11.501  15.889  68.701  1.00  0.00    -0.391 C  
BRANCH  12  13
HETATM   13  C   UNL     1     -10.610  15.671  69.916  1.00  0.00    -0.328 C  
BRANCH  13  14
HETATM   14  C   UNL     1     -11.473  15.466  71.145  1.00  0.00    -0.425 C  
BRANCH  14  15
HETATM   15  C   UNL     1     -12.814  14.842  70.785  1.00  0.00    -0.428 C  
BRANCH  15  16
HETATM   16  C   UNL     1     -12.866  13.460  71.396  1.00  0.00    -0.333 C  
BRANCH  16  17
HETATM   17  O   UNL     1     -12.178  12.528  70.571  1.00  0.00    -0.365 OA 
BRANCH  17  18
HETATM   18  P   UNL     1     -12.564  10.887  70.959  1.00  0.00    -0.400 P  
HETATM   19  O   UNL     1     -13.002  10.676  69.505  1.00  0.00    -0.089 OA 
HETATM   20  O   UNL     1     -13.508  11.307  72.083  1.00  0.00    -0.390 OA 
BRANCH  18  21
HETATM   21  O   UNL     1     -12.949   9.246  71.347  1.00  0.00    -0.327 OA 
BRANCH  21  22
HETATM   22  C   UNL     1     -11.845   8.486  71.831  1.00  0.00    -0.341 C  
BRANCH  22  23
HETATM   23  C   UNL     1     -10.515   9.111  71.471  1.00  0.00    -0.352 C  
BRANCH  23  24
HETATM   24  N   UNL     1      -9.613   8.252  70.559  1.00  0.00    -0.166 N  
HETATM   25  C   UNL     1     -10.441   7.871  69.347  1.00  0.00    -0.220 C  
HETATM   26  C   UNL     1      -9.181   6.985  71.300  1.00  0.00    -0.152 C  
HETATM   27  C   UNL     1      -8.383   9.028  70.123  1.00  0.00    -0.151 C  
ENDBRANCH  23  24
ENDBRANCH  22  23
ENDBRANCH  21  22
ENDBRANCH  18  21
ENDBRANCH  17  18
ENDBRANCH  16  17
ENDBRANCH  15  16
ENDBRANCH  14  15
ENDBRANCH  13  14
ENDBRANCH  12  13
ENDBRANCH  11  12
ENDBRANCH  10  11
ENDBRANCH   9  10
ENDBRANCH   8   9
ENDBRANCH   7   8
ENDBRANCH   6   7
ENDBRANCH   5   6
ENDBRANCH   4   5
ENDBRANCH   3   4
ENDBRANCH   2   3
TORSDOF 20
ENDMDL
MODEL       77
REMARK 921   NORMALIZED FREE ENERGY PREDICTED BY IDOCK:   -4.31 KCAL/MOL
REMARK 922        TOTAL FREE ENERGY PREDICTED BY IDOCK:  -11.28 KCAL/MOL
REMARK 923 INTER-LIGAND FREE ENERGY PREDICTED BY IDOCK:   -9.08 KCAL/MOL
REMARK 924 INTRA-LIGAND FREE ENERGY PREDICTED BY IDOCK:   -2.20 KCAL/MOL
REMARK 927      BINDING AFFINITY PREDICTED BY RF-SCORE:    0.00 PKD
ROOT
HETATM    1  C   UNL     1     -13.809  15.015  71.403  1.00  0.00    -0.560 C  
HETATM    2  C   UNL     1     -12.566  15.723  71.912  1.00  0.00    -0.522 C  
ENDROOT
BRANCH   2   3
HETATM    3  C   UNL     1     -11.508  15.835  70.817  1.00  0.00    -0.423 C  
BRANCH   3   4
HETATM    4  C   UNL     1     -12.030  15.287  69.493  1.00  0.00    -0.356 C  
BRANCH   4   5
HETATM    5  C   UNL     1     -10.876  14.954  68.553  1.00  0.00    -0.249 C  
BRANCH   5   6
HETATM    6  C   UNL     1     -11.272  15.202  67.103  1.00  0.00    -0.320 C  
BRANCH   6   7
HETATM    7  C   UNL     1     -12.265  14.147  66.633  1.00  0.00    -0.450 C  
BRANCH   7   8
HETATM    8  C   UNL     1     -12.171  13.961  65.125  1.00  0.00    -0.443 C  
BRANCH   8   9
HETATM    9  C   UNL     1     -11.022  13.025  64.783  1.00  0.00    -0.349 C  
BRANCH   9  10
HETATM   10  C   UNL     1     -11.083  11.768  65.636  1.00  0.00    -0.340 C  
BRANCH  10  11
HETATM   11  C   UNL     1      -9.736  11.529  66.300  1.00  0.00    -0.240 C  
BRANCH  11  12
HETATM   12  C   UNL     1      -9.911  11.288  67.789  1.00  0.00    -0.193 C  
BRANCH  12  13
HETATM   13  C   UNL     1     -11.349  10.886  68.087  1.00  0.00    -0.383 C  
BRANCH  13  14
HETATM   14  C   UNL     1     -11.825  11.597  69.337  1.00  0.00    -0.408 C  
BRANCH  14  15
HETATM   15  C   UNL     1     -11.684  10.712  70.568  1.00  0.00    -0.451 C  
BRANCH  15  16
HETATM   16  C   UNL     1     -12.827  11.031  71.506  1.00  0.00    -0.450 C  
BRANCH  16  17
HETATM   17  O   UNL     1     -13.042   9.952  72.407  1.00  0.00    -0.372 OA 
BRANCH  17  18
HETATM   18  P   UNL     1     -12.526   8.433  71.760  1.00  0.00    -0.368 P  
HETATM   19  O   UNL     1     -13.983   7.960  71.784  1.00  0.00    -0.376 OA 
HETATM   20  O   UNL     1     -11.537   8.210  72.902  1.00  0.00    -0.386 OA 
BRANCH  18  21
HETATM   21  O   UNL     1     -12.009   6.915  71.112  1.00  0.00    -0.329 OA 
BRANCH  21  22
HETATM   22  C   UNL     1     -11.387   6.055  72.063  1.00  0.00    -0.290 C  
BRANCH  22  23
HETATM   23  C   UNL     1     -10.411   5.095  71.418  1.00  0.00    -0.203 C  
BRANCH  23  24
HETATM   24  N   UNL     1      -9.952   3.925  72.314  1.00  0.00    -0.161 N  
HETATM   25  C   UNL     1      -8.565   4.270  72.820  1.00  0.00    -0.101 C  
HETATM   26  C   UNL     1      -9.890   2.636  71.493  1.00  0.00    -0.123 C  
HETATM   27  C   UNL     1     -10.898   3.733  73.486  1.00  0.00    -0.233 C  
ENDBRANCH  23  24
ENDBRANCH  22  23
ENDBRANCH  21  22
ENDBRANCH  18  21
ENDBRANCH  17  18
ENDBRANCH  16  17
ENDBRANCH  15  16
ENDBRANCH  14  15
ENDBRANCH  13  14
ENDBRANCH  12  13
ENDBRANCH  11  12
ENDBRANCH  10  11
ENDBRANCH   9  10
ENDBRANCH   8   9
ENDBRANCH   7   8
ENDBRANCH   6   7
ENDBRANCH   5   6
ENDBRANCH   4   5
ENDBRANCH   3   4
ENDBRANCH   2   3
TORSDOF 20
ENDMDL
MODEL       78
REMARK 921   NORMALIZED FREE ENERGY PREDICTED BY IDOCK:   -4.31 KCAL/MOL
REMARK 922        TOTAL FREE ENERGY PREDICTED BY IDOCK:  -11.27 KCAL/MOL
REMARK 923 INTER-LIGAND FREE ENERGY PREDICTED BY IDOCK:   -8.53 KCAL/MOL
REMARK 924 INTRA-LIGAND FREE ENERGY PREDICTED BY IDOCK:   -2.75 KCAL/MOL
REMARK 927      BINDING AFFINITY PREDICTED BY RF-SCORE:    0.00 PKD
ROOT
HETATM    1  C   UNL     1     -10.176   5.902  74.355  1.00  0.00    -0.304 C  
HETATM    2  C   UNL     1      -9.973   7.235  73.656  1.00  0.00    -0.377 C  
ENDROOT
BRANCH   2   3
HETATM    3  C   UNL     1     -11.200   7.617  72.832  1.00  0.00    -0.426 C  
BRANCH   3   4
HETATM    4  C   UNL     1     -11.699   6.434  72.010  1.00  0.00    -0.376 C  
BRANCH   4   5
HETATM    5  C   UNL     1     -11.981   6.856  70.572  1.00  0.00    -0.358 C  
BRANCH   5   6
HETATM    6  C   UNL     1     -11.036   6.150  69.607  1.00  0.00    -0.459 C  
BRANCH   6   7
HETATM    7  C   UNL     1     -10.192   5.119  70.345  1.00  0.00    -0.334 C  
BRANCH   7   8
HETATM    8  C   UNL     1      -8.710   5.359  70.088  1.00  0.00    -0.134 C  
BRANCH   8   9
HETATM    9  C   UNL     1      -8.518   6.646  69.300  1.00  0.00    -0.124 C  
BRANCH   9  10
HETATM   10  C   UNL     1      -7.808   7.692  70.144  1.00  0.00    -0.097 C  
BRANCH  10  11
HETATM   11  C   UNL     1      -8.194   9.085  69.673  1.00  0.00    -0.116 C  
BRANCH  11  12
HETATM   12  C   UNL     1      -9.261   9.676  70.577  1.00  0.00    -0.212 C  
BRANCH  12  13
HETATM   13  C   UNL     1     -10.445  10.151  69.746  1.00  0.00    -0.301 C  
BRANCH  13  14
HETATM   14  C   UNL     1     -10.090  10.083  68.275  1.00  0.00    -0.182 C  
BRANCH  14  15
HETATM   15  C   UNL     1     -11.284  10.433  67.398  1.00  0.00    -0.205 C  
BRANCH  15  16
HETATM   16  C   UNL     1     -10.977  11.731  66.687  1.00  0.00    -0.294 C  
BRANCH  16  17
HETATM   17  O   UNL     1     -11.322  11.635  65.310  1.00  0.00    -0.257 OA 
BRANCH  17  18
HETATM   18  P   UNL     1     -11.744  13.166  64.623  1.00  0.00    -0.413 P  
HETATM   19  O   UNL     1     -13.155  13.003  65.198  1.00  0.00    -0.740 OA 
HETATM   20  O   UNL     1     -11.337  12.720  63.220  1.00  0.00    -0.446 OA 
BRANCH  18  21
HETATM   21  O   UNL     1     -12.164  14.697  63.936  1.00  0.00    -0.598 OA 
BRANCH  21  22
HETATM   22  C   UNL     1     -11.415  15.794  64.452  1.00  0.00    -0.263 C  
BRANCH  22  23
HETATM   23  C   UNL     1     -10.163  15.346  65.174  1.00  0.00    -0.325 C  
BRANCH  23  24
HETATM   24  N   UNL     1      -9.754  16.217  66.381  1.00  0.00    -0.269 N  
HETATM   25  C   UNL     1      -8.240  16.282  66.390  1.00  0.00    -0.319 C  
HETATM   26  C   UNL     1     -10.244  15.569  67.678  1.00  0.00    -0.255 C  
HETATM   27  C   UNL     1     -10.333  17.616  66.264  1.00  0.00    -0.342 C  
ENDBRANCH  23  24
ENDBRANCH  22  23
ENDBRANCH  21  22
ENDBRANCH  18  21
ENDBRANCH  17  18
ENDBRANCH  16  17
ENDBRANCH  15  16
ENDBRANCH  14  15
ENDBRANCH  13  14
ENDBRANCH  12  13
ENDBRANCH  11  12
ENDBRANCH  10  11
ENDBRANCH   9  10
ENDBRANCH   8   9
ENDBRANCH   7   8
ENDBRANCH   6   7
ENDBRANCH   5   6
ENDBRANCH   4   5
ENDBRANCH   3   4
ENDBRANCH   2   3
TORSDOF 20
ENDMDL
MODEL       79
REMARK 921   NORMALIZED FREE ENERGY PREDICTED BY IDOCK:   -4.30 KCAL/MOL
REMARK 922        TOTAL FREE ENERGY PREDICTED BY IDOCK:  -11.25 KCAL/MOL
REMARK 923 INTER-LIGAND FREE ENERGY PREDICTED BY IDOCK:   -8.44 KCAL/MOL
REMARK 924 INTRA-LIGAND FREE ENERGY PREDICTED BY IDOCK:   -2.81 KCAL/MOL
REMARK 927      BINDING AFFINITY PREDICTED BY RF-SCORE:    0.00 PKD
ROOT
HETATM    1  C   UNL     1      -9.895  11.015  63.222  1.00  0.00    -0.406 C  
HETATM    2  C   UNL     1     -10.629  12.313  63.512  1.00  0.00    -0.488 C  
ENDROOT
BRANCH   2   3
HETATM    3  C   UNL     1     -12.142  12.106  63.494  1.00  0.00    -0.649 C  
BRANCH   3   4
HETATM    4  C   UNL     1     -12.784  12.645  64.768  1.00  0.00    -0.460 C  
BRANCH   4   5
HETATM    5  C   UNL     1     -12.164  13.980  65.162  1.00  0.00    -0.446 C  
BRANCH   5   6
HETATM    6  C   UNL     1     -12.185  14.159  66.676  1.00  0.00    -0.450 C  
BRANCH   6   7
HETATM    7  C   UNL     1     -10.933  14.888  67.145  1.00  0.00    -0.323 C  
BRANCH   7   8
HETATM    8  C   UNL     1      -9.701  14.340  66.438  1.00  0.00    -0.315 C  
BRANCH   8   9
HETATM    9  C   UNL     1      -9.048  13.259  67.286  1.00  0.00    -0.221 C  
BRANCH   9  10
HETATM   10  C   UNL     1      -8.890  11.974  66.489  1.00  0.00    -0.172 C  
BRANCH  10  11
HETATM   11  C   UNL     1      -9.469  10.806  67.273  1.00  0.00    -0.177 C  
BRANCH  11  12
HETATM   12  C   UNL     1     -10.986  10.878  67.292  1.00  0.00    -0.355 C  
BRANCH  12  13
HETATM   13  C   UNL     1     -11.506  10.556  68.686  1.00  0.00    -0.290 C  
BRANCH  13  14
HETATM   14  C   UNL     1     -11.839  11.844  69.412  1.00  0.00    -0.389 C  
BRANCH  14  15
HETATM   15  C   UNL     1     -12.527  11.570  70.741  1.00  0.00    -0.444 C  
BRANCH  15  16
HETATM   16  C   UNL     1     -11.929  10.311  71.327  1.00  0.00    -0.363 C  
BRANCH  16  17
HETATM   17  O   UNL     1     -12.932   9.547  71.986  1.00  0.00    -0.379 OA 
BRANCH  17  18
HETATM   18  P   UNL     1     -12.615   7.847  71.929  1.00  0.00    -0.280 P  
HETATM   19  O   UNL     1     -11.335   8.141  71.140  1.00  0.00    -0.259 OA 
HETATM   20  O   UNL     1     -13.967   7.552  71.284  1.00  0.00    -0.365 OA 
BRANCH  18  21
HETATM   21  O   UNL     1     -12.298   6.147  71.874  1.00  0.00    -0.251 OA 
BRANCH  21  22
HETATM   22  C   UNL     1     -11.321   5.704  72.813  1.00  0.00    -0.299 C  
BRANCH  22  23
HETATM   23  C   UNL     1     -10.207   4.921  72.155  1.00  0.00    -0.196 C  
BRANCH  23  24
HETATM   24  N   UNL     1      -8.795   5.524  72.322  1.00  0.00    -0.132 N  
HETATM   25  C   UNL     1      -7.877   4.394  72.747  1.00  0.00    -0.086 C  
HETATM   26  C   UNL     1      -8.815   6.600  73.408  1.00  0.00    -0.123 C  
HETATM   27  C   UNL     1      -8.304   6.128  71.019  1.00  0.00    -0.124 C  
ENDBRANCH  23  24
ENDBRANCH  22  23
ENDBRANCH  21  22
ENDBRANCH  18  21
ENDBRANCH  17  18
ENDBRANCH  16  17
ENDBRANCH  15  16
ENDBRANCH  14  15
ENDBRANCH  13  14
ENDBRANCH  12  13
ENDBRANCH  11  12
ENDBRANCH  10  11
ENDBRANCH   9  10
ENDBRANCH   8   9
ENDBRANCH   7   8
ENDBRANCH   6   7
ENDBRANCH   5   6
ENDBRANCH   4   5
ENDBRANCH   3   4
ENDBRANCH   2   3
TORSDOF 20
ENDMDL
MODEL       80
REMARK 921   NORMALIZED FREE ENERGY PREDICTED BY IDOCK:   -4.29 KCAL/MOL
REMARK 922        TOTAL FREE ENERGY PREDICTED BY IDOCK:  -11.23 KCAL/MOL
REMARK 923 INTER-LIGAND FREE ENERGY PREDICTED BY IDOCK:   -9.45 KCAL/MOL
REMARK 924 INTRA-LIGAND FREE ENERGY PREDICTED BY IDOCK:   -1.78 KCAL/MOL
REMARK 927      BINDING AFFINITY PREDICTED BY RF-SCORE:    0.00 PKD
ROOT
HETATM    1  C   UNL     1     -11.387  15.611  64.809  1.00  0.00    -0.348 C  
HETATM    2  C   UNL     1     -12.066  14.323  64.375  1.00  0.00    -0.490 C  
ENDROOT
BRANCH   2   3
HETATM    3  C   UNL     1     -12.415  13.451  65.579  1.00  0.00    -0.534 C  
BRANCH   3   4
HETATM    4  C   UNL     1     -11.228  12.587  65.992  1.00  0.00    -0.354 C  
BRANCH   4   5
HETATM    5  C   UNL     1     -10.899  11.567  64.907  1.00  0.00    -0.345 C  
BRANCH   5   6
HETATM    6  C   UNL     1     -10.182  10.361  65.501  1.00  0.00    -0.316 C  
BRANCH   6   7
HETATM    7  C   UNL     1     -10.247  10.397  67.022  1.00  0.00    -0.277 C  
BRANCH   7   8
HETATM    8  C   UNL     1      -8.859  10.204  67.620  1.00  0.00    -0.125 C  
BRANCH   8   9
HETATM    9  C   UNL     1      -8.968   9.620  69.020  1.00  0.00    -0.148 C  
BRANCH   9  10
HETATM   10  C   UNL     1     -10.286  10.018  69.666  1.00  0.00    -0.267 C  
BRANCH  10  11
HETATM   11  C   UNL     1     -10.361   9.453  71.076  1.00  0.00    -0.382 C  
BRANCH  11  12
HETATM   12  C   UNL     1     -11.795   9.458  71.575  1.00  0.00    -0.456 C  
BRANCH  12  13
HETATM   13  C   UNL     1     -12.573  10.590  70.918  1.00  0.00    -0.493 C  
BRANCH  13  14
HETATM   14  C   UNL     1     -13.390  11.317  71.966  1.00  0.00    -0.386 C  
BRANCH  14  15
HETATM   15  C   UNL     1     -13.174  12.822  71.894  1.00  0.00    -0.511 C  
BRANCH  15  16
HETATM   16  C   UNL     1     -12.264  13.108  70.721  1.00  0.00    -0.290 C  
BRANCH  16  17
HETATM   17  O   UNL     1     -12.642  14.322  70.085  1.00  0.00    -0.350 OA 
BRANCH  17  18
HETATM   18  P   UNL     1     -11.303  15.390  69.844  1.00  0.00    -0.370 P  
HETATM   19  O   UNL     1     -11.736  16.169  71.091  1.00  0.00    -0.430 OA 
HETATM   20  O   UNL     1     -11.750  15.734  68.425  1.00  0.00    -0.366 OA 
BRANCH  18  21
HETATM   21  O   UNL     1      -9.962  16.457  69.603  1.00  0.00    -0.201 OA 
BRANCH  21  22
HETATM   22  C   UNL     1     -10.258  17.593  68.794  1.00  0.00    -0.373 C  
BRANCH  22  23
HETATM   23  C   UNL     1      -9.046  18.471  68.572  1.00  0.00    -0.328 C  
BRANCH  23  24
HETATM   24  N   UNL     1      -8.855  18.971  67.124  1.00  0.00    -0.283 N  
HETATM   25  C   UNL     1      -7.903  18.008  66.443  1.00  0.00    -0.269 C  
HETATM   26  C   UNL     1      -8.240  20.372  67.136  1.00  0.00    -0.320 C  
HETATM   27  C   UNL     1     -10.178  19.005  66.380  1.00  0.00    -0.437 C  
ENDBRANCH  23  24
ENDBRANCH  22  23
ENDBRANCH  21  22
ENDBRANCH  18  21
ENDBRANCH  17  18
ENDBRANCH  16  17
ENDBRANCH  15  16
ENDBRANCH  14  15
ENDBRANCH  13  14
ENDBRANCH  12  13
ENDBRANCH  11  12
ENDBRANCH  10  11
ENDBRANCH   9  10
ENDBRANCH   8   9
ENDBRANCH   7   8
ENDBRANCH   6   7
ENDBRANCH   5   6
ENDBRANCH   4   5
ENDBRANCH   3   4
ENDBRANCH   2   3
TORSDOF 20
ENDMDL
MODEL       81
REMARK 921   NORMALIZED FREE ENERGY PREDICTED BY IDOCK:   -4.29 KCAL/MOL
REMARK 922        TOTAL FREE ENERGY PREDICTED BY IDOCK:  -11.23 KCAL/MOL
REMARK 923 INTER-LIGAND FREE ENERGY PREDICTED BY IDOCK:   -9.13 KCAL/MOL
REMARK 924 INTRA-LIGAND FREE ENERGY PREDICTED BY IDOCK:   -2.09 KCAL/MOL
REMARK 927      BINDING AFFINITY PREDICTED BY RF-SCORE:    0.00 PKD
ROOT
HETATM    1  C   UNL     1     -10.729  19.349  67.239  1.00  0.00    -0.603 C  
HETATM    2  C   UNL     1     -10.406  18.234  66.260  1.00  0.00    -0.422 C  
ENDROOT
BRANCH   2   3
HETATM    3  C   UNL     1     -10.178  16.911  66.988  1.00  0.00    -0.297 C  
BRANCH   3   4
HETATM    4  C   UNL     1      -9.476  15.902  66.085  1.00  0.00    -0.375 C  
BRANCH   4   5
HETATM    5  C   UNL     1     -10.479  15.198  65.179  1.00  0.00    -0.437 C  
BRANCH   5   6
HETATM    6  C   UNL     1     -11.561  14.511  66.004  1.00  0.00    -0.356 C  
BRANCH   6   7
HETATM    7  C   UNL     1     -12.709  14.061  65.110  1.00  0.00    -0.419 C  
BRANCH   7   8
HETATM    8  C   UNL     1     -12.626  12.562  64.850  1.00  0.00    -0.469 C  
BRANCH   8   9
HETATM    9  C   UNL     1     -12.210  12.303  63.411  1.00  0.00    -0.630 C  
BRANCH   9  10
HETATM   10  C   UNL     1     -11.025  11.351  63.358  1.00  0.00    -0.342 C  
BRANCH  10  11
HETATM   11  C   UNL     1     -10.330  11.317  64.710  1.00  0.00    -0.366 C  
BRANCH  11  12
HETATM   12  C   UNL     1      -9.886   9.903  65.044  1.00  0.00    -0.323 C  
BRANCH  12  13
HETATM   13  C   UNL     1     -10.152   9.607  66.514  1.00  0.00    -0.314 C  
BRANCH  13  14
HETATM   14  C   UNL     1     -10.377  10.906  67.260  1.00  0.00    -0.255 C  
BRANCH  14  15
HETATM   15  C   UNL     1     -11.533  10.789  68.243  1.00  0.00    -0.353 C  
BRANCH  15  16
HETATM   16  C   UNL     1     -11.577  12.058  69.065  1.00  0.00    -0.313 C  
BRANCH  16  17
HETATM   17  O   UNL     1     -11.784  11.750  70.439  1.00  0.00    -0.300 OA 
BRANCH  17  18
HETATM   18  P   UNL     1     -11.968  10.053  70.718  1.00  0.00    -0.354 P  
HETATM   19  O   UNL     1     -13.177  10.360  71.608  1.00  0.00    -0.399 OA 
HETATM   20  O   UNL     1     -10.538   9.918  71.236  1.00  0.00    -0.194 OA 
BRANCH  18  21
HETATM   21  O   UNL     1     -12.153   8.355  70.996  1.00  0.00    -0.279 OA 
BRANCH  21  22
HETATM   22  C   UNL     1     -11.051   7.568  70.552  1.00  0.00    -0.259 C  
BRANCH  22  23
HETATM   23  C   UNL     1     -11.450   6.574  69.482  1.00  0.00    -0.319 C  
BRANCH  23  24
HETATM   24  N   UNL     1     -10.278   5.972  68.677  1.00  0.00    -0.170 N  
HETATM   25  C   UNL     1      -9.131   6.960  68.758  1.00  0.00    -0.133 C  
HETATM   26  C   UNL     1     -10.692   5.790  67.216  1.00  0.00    -0.261 C  
HETATM   27  C   UNL     1      -9.852   4.634  69.254  1.00  0.00    -0.190 C  
ENDBRANCH  23  24
ENDBRANCH  22  23
ENDBRANCH  21  22
ENDBRANCH  18  21
ENDBRANCH  17  18
ENDBRANCH  16  17
ENDBRANCH  15  16
ENDBRANCH  14  15
ENDBRANCH  13  14
ENDBRANCH  12  13
ENDBRANCH  11  12
ENDBRANCH  10  11
ENDBRANCH   9  10
ENDBRANCH   8   9
ENDBRANCH   7   8
ENDBRANCH   6   7
ENDBRANCH   5   6
ENDBRANCH   4   5
ENDBRANCH   3   4
ENDBRANCH   2   3
TORSDOF 20
ENDMDL
MODEL       82
REMARK 921   NORMALIZED FREE ENERGY PREDICTED BY IDOCK:   -4.29 KCAL/MOL
REMARK 922        TOTAL FREE ENERGY PREDICTED BY IDOCK:  -11.22 KCAL/MOL
REMARK 923 INTER-LIGAND FREE ENERGY PREDICTED BY IDOCK:   -9.19 KCAL/MOL
REMARK 924 INTRA-LIGAND FREE ENERGY PREDICTED BY IDOCK:   -2.02 KCAL/MOL
REMARK 927      BINDING AFFINITY PREDICTED BY RF-SCORE:    0.00 PKD
ROOT
HETATM    1  C   UNL     1     -12.560  16.229  74.435  1.00  0.00    -0.523 C  
HETATM    2  C   UNL     1     -12.719  15.074  73.461  1.00  0.00    -0.667 C  
ENDROOT
BRANCH   2   3
HETATM    3  C   UNL     1     -13.837  15.349  72.458  1.00  0.00    -0.651 C  
BRANCH   3   4
HETATM    4  C   UNL     1     -13.336  15.202  71.025  1.00  0.00    -0.504 C  
BRANCH   4   5
HETATM    5  C   UNL     1     -11.996  14.475  70.993  1.00  0.00    -0.394 C  
BRANCH   5   6
HETATM    6  C   UNL     1     -12.137  13.112  70.326  1.00  0.00    -0.399 C  
BRANCH   6   7
HETATM    7  C   UNL     1     -12.695  12.092  71.309  1.00  0.00    -0.363 C  
BRANCH   7   8
HETATM    8  C   UNL     1     -12.289  10.682  70.902  1.00  0.00    -0.502 C  
BRANCH   8   9
HETATM    9  C   UNL     1     -13.376   9.691  71.290  1.00  0.00    -0.403 C  
BRANCH   9  10
HETATM   10  C   UNL     1     -12.876   8.741  72.366  1.00  0.00    -0.434 C  
BRANCH  10  11
HETATM   11  C   UNL     1     -11.370   8.569  72.243  1.00  0.00    -0.441 C  
BRANCH  11  12
HETATM   12  C   UNL     1     -11.040   7.329  71.430  1.00  0.00    -0.268 C  
BRANCH  12  13
HETATM   13  C   UNL     1      -9.724   7.525  70.690  1.00  0.00    -0.175 C  
BRANCH  13  14
HETATM   14  C   UNL     1      -9.170   8.901  70.999  1.00  0.00    -0.307 C  
BRANCH  14  15
HETATM   15  C   UNL     1      -8.867   9.677  69.725  1.00  0.00    -0.224 C  
BRANCH  15  16
HETATM   16  C   UNL     1      -7.510  10.326  69.885  1.00  0.00    -0.158 C  
BRANCH  16  17
HETATM   17  O   UNL     1      -7.407  11.470  69.046  1.00  0.00    -0.115 OA 
BRANCH  17  18
HETATM   18  P   UNL     1      -7.877  11.141  67.414  1.00  0.00    -0.133 P  
HETATM   19  O   UNL     1      -6.519  10.467  67.188  1.00  0.00    -0.068 OA 
HETATM   20  O   UNL     1      -8.157  12.614  67.129  1.00  0.00    -0.177 OA 
BRANCH  18  21
HETATM   21  O   UNL     1      -8.348  10.811  65.782  1.00  0.00    -0.164 OA 
BRANCH  21  22
HETATM   22  C   UNL     1      -9.699  10.380  65.640  1.00  0.00    -0.236 C  
BRANCH  22  23
HETATM   23  C   UNL     1     -10.403  11.068  64.491  1.00  0.00    -0.354 C  
BRANCH  23  24
HETATM   24  N   UNL     1     -11.259  12.291  64.885  1.00  0.00    -0.311 N  
HETATM   25  C   UNL     1     -10.424  13.526  64.606  1.00  0.00    -0.421 C  
HETATM   26  C   UNL     1     -11.595  12.230  66.376  1.00  0.00    -0.383 C  
HETATM   27  C   UNL     1     -12.544  12.340  64.078  1.00  0.00    -0.420 C  
ENDBRANCH  23  24
ENDBRANCH  22  23
ENDBRANCH  21  22
ENDBRANCH  18  21
ENDBRANCH  17  18
ENDBRANCH  16  17
ENDBRANCH  15  16
ENDBRANCH  14  15
ENDBRANCH  13  14
ENDBRANCH  12  13
ENDBRANCH  11  12
ENDBRANCH  10  11
ENDBRANCH   9  10
ENDBRANCH   8   9
ENDBRANCH   7   8
ENDBRANCH   6   7
ENDBRANCH   5   6
ENDBRANCH   4   5
ENDBRANCH   3   4
ENDBRANCH   2   3
TORSDOF 20
ENDMDL
MODEL       83
REMARK 921   NORMALIZED FREE ENERGY PREDICTED BY IDOCK:   -4.28 KCAL/MOL
REMARK 922        TOTAL FREE ENERGY PREDICTED BY IDOCK:  -11.21 KCAL/MOL
REMARK 923 INTER-LIGAND FREE ENERGY PREDICTED BY IDOCK:   -9.40 KCAL/MOL
REMARK 924 INTRA-LIGAND FREE ENERGY PREDICTED BY IDOCK:   -1.81 KCAL/MOL
REMARK 927      BINDING AFFINITY PREDICTED BY RF-SCORE:    0.00 PKD
ROOT
HETATM    1  C   UNL     1     -12.019  11.211  70.318  1.00  0.00    -0.460 C  
HETATM    2  C   UNL     1     -12.756  10.248  71.232  1.00  0.00    -0.523 C  
ENDROOT
BRANCH   2   3
HETATM    3  C   UNL     1     -11.791   9.264  71.890  1.00  0.00    -0.426 C  
BRANCH   3   4
HETATM    4  C   UNL     1     -10.392   9.387  71.295  1.00  0.00    -0.363 C  
BRANCH   4   5
HETATM    5  C   UNL     1      -9.774   8.011  71.079  1.00  0.00    -0.185 C  
BRANCH   5   6
HETATM    6  C   UNL     1     -10.857   6.943  70.973  1.00  0.00    -0.272 C  
BRANCH   6   7
HETATM    7  C   UNL     1     -10.611   6.051  69.764  1.00  0.00    -0.356 C  
BRANCH   7   8
HETATM    8  C   UNL     1     -11.081   6.740  68.489  1.00  0.00    -0.217 C  
BRANCH   8   9
HETATM    9  C   UNL     1     -10.336   6.181  67.287  1.00  0.00    -0.272 C  
BRANCH   9  10
HETATM   10  C   UNL     1      -9.392   7.223  66.709  1.00  0.00    -0.203 C  
BRANCH  10  11
HETATM   11  C   UNL     1     -10.080   8.579  66.673  1.00  0.00    -0.364 C  
BRANCH  11  12
HETATM   12  C   UNL     1      -9.670   9.350  65.431  1.00  0.00    -0.248 C  
BRANCH  12  13
HETATM   13  C   UNL     1     -10.147  10.792  65.531  1.00  0.00    -0.335 C  
BRANCH  13  14
HETATM   14  C   UNL     1     -10.791  11.020  66.884  1.00  0.00    -0.324 C  
BRANCH  14  15
HETATM   15  C   UNL     1     -11.769  12.184  66.846  1.00  0.00    -0.374 C  
BRANCH  15  16
HETATM   16  C   UNL     1     -12.085  12.483  65.397  1.00  0.00    -0.435 C  
BRANCH  16  17
HETATM   17  O   UNL     1     -12.806  13.704  65.289  1.00  0.00    -0.672 OA 
BRANCH  17  18
HETATM   18  P   UNL     1     -11.781  15.049  64.926  1.00  0.00    -0.221 P  
HETATM   19  O   UNL     1     -12.776  15.479  63.843  1.00  0.00    -0.665 OA 
HETATM   20  O   UNL     1     -10.577  14.145  64.670  1.00  0.00    -0.420 OA 
BRANCH  18  21
HETATM   21  O   UNL     1     -10.756  16.395  64.564  1.00  0.00    -0.648 OA 
BRANCH  21  22
HETATM   22  C   UNL     1     -10.320  17.122  65.710  1.00  0.00    -0.240 C  
BRANCH  22  23
HETATM   23  C   UNL     1      -8.982  16.636  66.224  1.00  0.00    -0.305 C  
BRANCH  23  24
HETATM   24  N   UNL     1      -9.025  15.932  67.598  1.00  0.00    -0.189 N  
HETATM   25  C   UNL     1      -7.999  16.618  68.479  1.00  0.00    -0.224 C  
HETATM   26  C   UNL     1      -8.654  14.457  67.437  1.00  0.00    -0.202 C  
HETATM   27  C   UNL     1     -10.403  16.042  68.224  1.00  0.00    -0.261 C  
ENDBRANCH  23  24
ENDBRANCH  22  23
ENDBRANCH  21  22
ENDBRANCH  18  21
ENDBRANCH  17  18
ENDBRANCH  16  17
ENDBRANCH  15  16
ENDBRANCH  14  15
ENDBRANCH  13  14
ENDBRANCH  12  13
ENDBRANCH  11  12
ENDBRANCH  10  11
ENDBRANCH   9  10
ENDBRANCH   8   9
ENDBRANCH   7   8
ENDBRANCH   6   7
ENDBRANCH   5   6
ENDBRANCH   4   5
ENDBRANCH   3   4
ENDBRANCH   2   3
TORSDOF 20
ENDMDL
MODEL       84
REMARK 921   NORMALIZED FREE ENERGY PREDICTED BY IDOCK:   -4.27 KCAL/MOL
REMARK 922        TOTAL FREE ENERGY PREDICTED BY IDOCK:  -11.19 KCAL/MOL
REMARK 923 INTER-LIGAND FREE ENERGY PREDICTED BY IDOCK:   -9.01 KCAL/MOL
REMARK 924 INTRA-LIGAND FREE ENERGY PREDICTED BY IDOCK:   -2.18 KCAL/MOL
REMARK 927      BINDING AFFINITY PREDICTED BY RF-SCORE:    0.00 PKD
ROOT
HETATM    1  C   UNL     1     -14.411   7.862  71.555  1.00  0.00    -0.563 C  
HETATM    2  C   UNL     1     -13.360   8.957  71.618  1.00  0.00    -0.414 C  
ENDROOT
BRANCH   2   3
HETATM    3  C   UNL     1     -12.057   8.436  72.220  1.00  0.00    -0.456 C  
BRANCH   3   4
HETATM    4  C   UNL     1     -10.848   9.109  71.578  1.00  0.00    -0.436 C  
BRANCH   4   5
HETATM    5  C   UNL     1      -9.562   8.380  71.952  1.00  0.00    -0.324 C  
BRANCH   5   6
HETATM    6  C   UNL     1      -8.654   8.232  70.738  1.00  0.00    -0.147 C  
BRANCH   6   7
HETATM    7  C   UNL     1      -8.401   6.760  70.437  1.00  0.00    -0.130 C  
BRANCH   7   8
HETATM    8  C   UNL     1      -9.551   5.906  70.954  1.00  0.00    -0.202 C  
BRANCH   8   9
HETATM    9  C   UNL     1     -10.262   5.227  69.794  1.00  0.00    -0.364 C  
BRANCH   9  10
HETATM   10  C   UNL     1     -11.156   6.214  69.061  1.00  0.00    -0.437 C  
BRANCH  10  11
HETATM   11  C   UNL     1     -10.941   6.089  67.560  1.00  0.00    -0.335 C  
BRANCH  11  12
HETATM   12  C   UNL     1     -10.344   7.368  67.000  1.00  0.00    -0.384 C  
BRANCH  12  13
HETATM   13  C   UNL     1     -10.753   8.555  67.861  1.00  0.00    -0.148 C  
BRANCH  13  14
HETATM   14  C   UNL     1     -10.033   9.800  67.383  1.00  0.00    -0.239 C  
BRANCH  14  15
HETATM   15  C   UNL     1      -9.850   9.790  65.872  1.00  0.00    -0.352 C  
BRANCH  15  16
HETATM   16  C   UNL     1      -9.694  11.222  65.411  1.00  0.00    -0.231 C  
BRANCH  16  17
HETATM   17  O   UNL     1     -10.912  11.697  64.851  1.00  0.00    -0.303 OA 
BRANCH  17  18
HETATM   18  P   UNL     1     -10.958  13.422  64.729  1.00  0.00    -0.401 P  
HETATM   19  O   UNL     1     -10.826  13.505  66.253  1.00  0.00    -0.287 OA 
HETATM   20  O   UNL     1     -12.293  13.398  63.987  1.00  0.00    -0.588 OA 
BRANCH  18  21
HETATM   21  O   UNL     1     -11.003  15.147  64.606  1.00  0.00    -0.377 OA 
BRANCH  21  22
HETATM   22  C   UNL     1     -10.735  15.827  65.830  1.00  0.00    -0.327 C  
BRANCH  22  23
HETATM   23  C   UNL     1     -10.727  17.331  65.661  1.00  0.00    -0.120 C  
BRANCH  23  24
HETATM   24  N   UNL     1      -9.839  18.098  66.664  1.00  0.00    -0.332 N  
HETATM   25  C   UNL     1     -10.333  17.747  68.054  1.00  0.00    -0.393 C  
HETATM   26  C   UNL     1      -9.982  19.604  66.437  1.00  0.00    -0.455 C  
HETATM   27  C   UNL     1      -8.381  17.700  66.516  1.00  0.00    -0.268 C  
ENDBRANCH  23  24
ENDBRANCH  22  23
ENDBRANCH  21  22
ENDBRANCH  18  21
ENDBRANCH  17  18
ENDBRANCH  16  17
ENDBRANCH  15  16
ENDBRANCH  14  15
ENDBRANCH  13  14
ENDBRANCH  12  13
ENDBRANCH  11  12
ENDBRANCH  10  11
ENDBRANCH   9  10
ENDBRANCH   8   9
ENDBRANCH   7   8
ENDBRANCH   6   7
ENDBRANCH   5   6
ENDBRANCH   4   5
ENDBRANCH   3   4
ENDBRANCH   2   3
TORSDOF 20
ENDMDL
MODEL       85
REMARK 921   NORMALIZED FREE ENERGY PREDICTED BY IDOCK:   -4.27 KCAL/MOL
REMARK 922        TOTAL FREE ENERGY PREDICTED BY IDOCK:  -11.18 KCAL/MOL
REMARK 923 INTER-LIGAND FREE ENERGY PREDICTED BY IDOCK:   -8.43 KCAL/MOL
REMARK 924 INTRA-LIGAND FREE ENERGY PREDICTED BY IDOCK:   -2.75 KCAL/MOL
REMARK 927      BINDING AFFINITY PREDICTED BY RF-SCORE:    0.00 PKD
ROOT
HETATM    1  C   UNL     1     -10.532   7.521  73.131  1.00  0.00    -0.419 C  
HETATM    2  C   UNL     1     -11.688   8.281  72.504  1.00  0.00    -0.451 C  
ENDROOT
BRANCH   2   3
HETATM    3  C   UNL     1     -12.359   7.457  71.408  1.00  0.00    -0.394 C  
BRANCH   3   4
HETATM    4  C   UNL     1     -11.487   6.275  70.999  1.00  0.00    -0.370 C  
BRANCH   4   5
HETATM    5  C   UNL     1     -11.331   6.217  69.483  1.00  0.00    -0.475 C  
BRANCH   5   6
HETATM    6  C   UNL     1      -9.859   6.171  69.094  1.00  0.00    -0.176 C  
BRANCH   6   7
HETATM    7  C   UNL     1      -9.006   5.737  70.279  1.00  0.00    -0.149 C  
BRANCH   7   8
HETATM    8  C   UNL     1      -7.892   6.745  70.530  1.00  0.00    -0.105 C  
BRANCH   8   9
HETATM    9  C   UNL     1      -8.068   7.956  69.628  1.00  0.00    -0.117 C  
BRANCH   9  10
HETATM   10  C   UNL     1      -8.505   9.168  70.435  1.00  0.00    -0.222 C  
BRANCH  10  11
HETATM   11  C   UNL     1      -9.148  10.195  69.516  1.00  0.00    -0.213 C  
BRANCH  11  12
HETATM   12  C   UNL     1     -10.617   9.876  69.306  1.00  0.00    -0.245 C  
BRANCH  12  13
HETATM   13  C   UNL     1     -10.893   9.633  67.829  1.00  0.00    -0.278 C  
BRANCH  13  14
HETATM   14  C   UNL     1     -10.041  10.569  66.995  1.00  0.00    -0.259 C  
BRANCH  14  15
HETATM   15  C   UNL     1     -10.149  10.246  65.511  1.00  0.00    -0.351 C  
BRANCH  15  16
HETATM   16  C   UNL     1     -10.587  11.502  64.791  1.00  0.00    -0.305 C  
BRANCH  16  17
HETATM   17  O   UNL     1     -11.641  12.138  65.502  1.00  0.00    -0.359 OA 
BRANCH  17  18
HETATM   18  P   UNL     1     -11.483  13.861  65.521  1.00  0.00    -0.340 P  
HETATM   19  O   UNL     1     -12.980  13.973  65.212  1.00  0.00    -0.743 OA 
HETATM   20  O   UNL     1     -10.390  13.836  64.455  1.00  0.00    -0.415 OA 
BRANCH  18  21
HETATM   21  O   UNL     1     -11.325  15.584  65.541  1.00  0.00    -0.230 OA 
BRANCH  21  22
HETATM   22  C   UNL     1     -10.129  16.053  66.156  1.00  0.00    -0.327 C  
BRANCH  22  23
HETATM   23  C   UNL     1     -10.398  17.122  67.193  1.00  0.00    -0.307 C  
BRANCH  23  24
HETATM   24  N   UNL     1      -9.153  17.905  67.666  1.00  0.00    -0.249 N  
HETATM   25  C   UNL     1      -9.640  18.977  68.621  1.00  0.00    -0.403 C  
HETATM   26  C   UNL     1      -8.468  18.562  66.467  1.00  0.00    -0.277 C  
HETATM   27  C   UNL     1      -8.170  16.989  68.373  1.00  0.00    -0.250 C  
ENDBRANCH  23  24
ENDBRANCH  22  23
ENDBRANCH  21  22
ENDBRANCH  18  21
ENDBRANCH  17  18
ENDBRANCH  16  17
ENDBRANCH  15  16
ENDBRANCH  14  15
ENDBRANCH  13  14
ENDBRANCH  12  13
ENDBRANCH  11  12
ENDBRANCH  10  11
ENDBRANCH   9  10
ENDBRANCH   8   9
ENDBRANCH   7   8
ENDBRANCH   6   7
ENDBRANCH   5   6
ENDBRANCH   4   5
ENDBRANCH   3   4
ENDBRANCH   2   3
TORSDOF 20
ENDMDL
MODEL       86
REMARK 921   NORMALIZED FREE ENERGY PREDICTED BY IDOCK:   -4.26 KCAL/MOL
REMARK 922        TOTAL FREE ENERGY PREDICTED BY IDOCK:  -11.16 KCAL/MOL
REMARK 923 INTER-LIGAND FREE ENERGY PREDICTED BY IDOCK:   -9.26 KCAL/MOL
REMARK 924 INTRA-LIGAND FREE ENERGY PREDICTED BY IDOCK:   -1.89 KCAL/MOL
REMARK 927      BINDING AFFINITY PREDICTED BY RF-SCORE:    0.00 PKD
ROOT
HETATM    1  C   UNL     1      -8.239  19.956  66.294  1.00  0.00    -0.357 C  
HETATM    2  C   UNL     1      -9.066  19.615  67.522  1.00  0.00    -0.396 C  
ENDROOT
BRANCH   2   3
HETATM    3  C   UNL     1     -10.459  19.128  67.129  1.00  0.00    -0.539 C  
BRANCH   3   4
HETATM    4  C   UNL     1     -10.380  17.854  66.294  1.00  0.00    -0.364 C  
BRANCH   4   5
HETATM    5  C   UNL     1     -10.369  16.620  67.189  1.00  0.00    -0.300 C  
BRANCH   5   6
HETATM    6  C   UNL     1     -10.644  15.361  66.376  1.00  0.00    -0.307 C  
BRANCH   6   7
HETATM    7  C   UNL     1     -11.747  14.536  67.025  1.00  0.00    -0.412 C  
BRANCH   7   8
HETATM    8  C   UNL     1     -12.333  13.549  66.025  1.00  0.00    -0.486 C  
BRANCH   8   9
HETATM    9  C   UNL     1     -11.630  13.684  64.683  1.00  0.00    -0.393 C  
BRANCH   9  10
HETATM   10  C   UNL     1     -12.264  12.765  63.650  1.00  0.00    -0.597 C  
BRANCH  10  11
HETATM   11  C   UNL     1     -11.379  11.548  63.431  1.00  0.00    -0.303 C  
BRANCH  11  12
HETATM   12  C   UNL     1      -9.918  11.907  63.637  1.00  0.00    -0.404 C  
BRANCH  12  13
HETATM   13  C   UNL     1      -9.112  10.654  63.951  1.00  0.00    -0.244 C  
BRANCH  13  14
HETATM   14  C   UNL     1      -9.781   9.891  65.076  1.00  0.00    -0.359 C  
BRANCH  14  15
HETATM   15  C   UNL     1      -9.249  10.324  66.435  1.00  0.00    -0.186 C  
BRANCH  15  16
HETATM   16  C   UNL     1     -10.433  10.650  67.318  1.00  0.00    -0.246 C  
BRANCH  16  17
HETATM   17  O   UNL     1      -9.996  11.253  68.529  1.00  0.00    -0.190 OA 
BRANCH  17  18
HETATM   18  P   UNL     1     -11.243  11.318  69.726  1.00  0.00    -0.108 P  
HETATM   19  O   UNL     1     -10.607  10.105  70.414  1.00  0.00    -0.290 OA 
HETATM   20  O   UNL     1     -12.346  11.223  68.674  1.00  0.00    -0.534 OA 
BRANCH  18  21
HETATM   21  O   UNL     1     -12.489  11.385  70.924  1.00  0.00    -0.370 OA 
BRANCH  21  22
HETATM   22  C   UNL     1     -13.185  12.628  70.975  1.00  0.00     0.184 C  
BRANCH  22  23
HETATM   23  C   UNL     1     -13.053  13.305  72.321  1.00  0.00    -0.371 C  
BRANCH  23  24
HETATM   24  N   UNL     1     -12.701  14.807  72.268  1.00  0.00    -0.319 N  
HETATM   25  C   UNL     1     -13.941  15.537  71.791  1.00  0.00    -0.469 C  
HETATM   26  C   UNL     1     -11.561  15.037  71.274  1.00  0.00    -0.335 C  
HETATM   27  C   UNL     1     -12.291  15.320  73.636  1.00  0.00    -0.571 C  
ENDBRANCH  23  24
ENDBRANCH  22  23
ENDBRANCH  21  22
ENDBRANCH  18  21
ENDBRANCH  17  18
ENDBRANCH  16  17
ENDBRANCH  15  16
ENDBRANCH  14  15
ENDBRANCH  13  14
ENDBRANCH  12  13
ENDBRANCH  11  12
ENDBRANCH  10  11
ENDBRANCH   9  10
ENDBRANCH   8   9
ENDBRANCH   7   8
ENDBRANCH   6   7
ENDBRANCH   5   6
ENDBRANCH   4   5
ENDBRANCH   3   4
ENDBRANCH   2   3
TORSDOF 20
ENDMDL
MODEL       87
REMARK 921   NORMALIZED FREE ENERGY PREDICTED BY IDOCK:   -4.26 KCAL/MOL
REMARK 922        TOTAL FREE ENERGY PREDICTED BY IDOCK:  -11.16 KCAL/MOL
REMARK 923 INTER-LIGAND FREE ENERGY PREDICTED BY IDOCK:   -9.65 KCAL/MOL
REMARK 924 INTRA-LIGAND FREE ENERGY PREDICTED BY IDOCK:   -1.51 KCAL/MOL
REMARK 927      BINDING AFFINITY PREDICTED BY RF-SCORE:    0.00 PKD
ROOT
HETATM    1  C   UNL     1      -9.181   8.407  73.031  1.00  0.00    -0.256 C  
HETATM    2  C   UNL     1     -10.170   7.285  73.296  1.00  0.00    -0.365 C  
ENDROOT
BRANCH   2   3
HETATM    3  C   UNL     1     -10.253   6.332  72.106  1.00  0.00    -0.208 C  
BRANCH   3   4
HETATM    4  C   UNL     1     -11.702   5.976  71.788  1.00  0.00    -0.249 C  
BRANCH   4   5
HETATM    5  C   UNL     1     -12.399   7.133  71.080  1.00  0.00    -0.404 C  
BRANCH   5   6
HETATM    6  C   UNL     1     -13.790   7.360  71.660  1.00  0.00    -0.490 C  
BRANCH   6   7
HETATM    7  C   UNL     1     -13.911   8.772  72.219  1.00  0.00    -0.505 C  
BRANCH   7   8
HETATM    8  C   UNL     1     -12.573   9.495  72.134  1.00  0.00    -0.411 C  
BRANCH   8   9
HETATM    9  C   UNL     1     -12.666  10.656  71.156  1.00  0.00    -0.522 C  
BRANCH   9  10
HETATM   10  C   UNL     1     -11.459  10.678  70.232  1.00  0.00    -0.422 C  
BRANCH  10  11
HETATM   11  C   UNL     1     -11.876  11.154  68.850  1.00  0.00    -0.406 C  
BRANCH  11  12
HETATM   12  C   UNL     1     -11.709  12.659  68.732  1.00  0.00    -0.364 C  
BRANCH  12  13
HETATM   13  C   UNL     1     -11.800  13.081  67.272  1.00  0.00    -0.419 C  
BRANCH  13  14
HETATM   14  C   UNL     1     -10.414  13.089  66.660  1.00  0.00    -0.271 C  
BRANCH  14  15
HETATM   15  C   UNL     1     -10.245  14.240  65.680  1.00  0.00    -0.366 C  
BRANCH  15  16
HETATM   16  C   UNL     1      -9.382  15.293  66.339  1.00  0.00    -0.296 C  
BRANCH  16  17
HETATM   17  O   UNL     1     -10.167  16.425  66.694  1.00  0.00    -0.277 OA 
BRANCH  17  18
HETATM   18  P   UNL     1      -9.377  17.920  66.333  1.00  0.00    -0.163 P  
HETATM   19  O   UNL     1     -10.619  18.354  65.547  1.00  0.00    -0.627 OA 
HETATM   20  O   UNL     1      -8.177  17.210  65.710  1.00  0.00    -0.515 OA 
BRANCH  18  21
HETATM   21  O   UNL     1      -8.586  19.416  65.973  1.00  0.00    -0.411 OA 
BRANCH  21  22
HETATM   22  C   UNL     1      -8.394  20.263  67.103  1.00  0.00    -0.336 C  
BRANCH  22  23
HETATM   23  C   UNL     1      -8.239  19.478  68.388  1.00  0.00    -0.344 C  
BRANCH  23  24
HETATM   24  N   UNL     1      -6.783  19.269  68.857  1.00  0.00    -0.297 N  
HETATM   25  C   UNL     1      -6.651  17.812  69.257  1.00  0.00    -0.239 C  
HETATM   26  C   UNL     1      -6.495  20.158  70.068  1.00  0.00    -0.287 C  
HETATM   27  C   UNL     1      -5.801  19.593  67.746  1.00  0.00    -0.195 C  
ENDBRANCH  23  24
ENDBRANCH  22  23
ENDBRANCH  21  22
ENDBRANCH  18  21
ENDBRANCH  17  18
ENDBRANCH  16  17
ENDBRANCH  15  16
ENDBRANCH  14  15
ENDBRANCH  13  14
ENDBRANCH  12  13
ENDBRANCH  11  12
ENDBRANCH  10  11
ENDBRANCH   9  10
ENDBRANCH   8   9
ENDBRANCH   7   8
ENDBRANCH   6   7
ENDBRANCH   5   6
ENDBRANCH   4   5
ENDBRANCH   3   4
ENDBRANCH   2   3
TORSDOF 20
ENDMDL
MODEL       88
REMARK 921   NORMALIZED FREE ENERGY PREDICTED BY IDOCK:   -4.26 KCAL/MOL
REMARK 922        TOTAL FREE ENERGY PREDICTED BY IDOCK:  -11.16 KCAL/MOL
REMARK 923 INTER-LIGAND FREE ENERGY PREDICTED BY IDOCK:   -8.63 KCAL/MOL
REMARK 924 INTRA-LIGAND FREE ENERGY PREDICTED BY IDOCK:   -2.53 KCAL/MOL
REMARK 927      BINDING AFFINITY PREDICTED BY RF-SCORE:    0.00 PKD
ROOT
HETATM    1  C   UNL     1     -11.052   6.098  69.455  1.00  0.00    -0.479 C  
HETATM    2  C   UNL     1     -10.370   6.673  68.225  1.00  0.00    -0.220 C  
ENDROOT
BRANCH   2   3
HETATM    3  C   UNL     1     -10.005   8.141  68.433  1.00  0.00    -0.210 C  
BRANCH   3   4
HETATM    4  C   UNL     1      -8.623   8.278  69.064  1.00  0.00    -0.135 C  
BRANCH   4   5
HETATM    5  C   UNL     1      -8.715   8.977  70.416  1.00  0.00    -0.224 C  
BRANCH   5   6
HETATM    6  C   UNL     1      -8.184   8.077  71.525  1.00  0.00    -0.135 C  
BRANCH   6   7
HETATM    7  C   UNL     1      -9.311   7.662  72.461  1.00  0.00    -0.215 C  
BRANCH   7   8
HETATM    8  C   UNL     1     -10.525   8.561  72.264  1.00  0.00    -0.402 C  
BRANCH   8   9
HETATM    9  C   UNL     1     -11.805   7.755  72.424  1.00  0.00    -0.371 C  
BRANCH   9  10
HETATM   10  C   UNL     1     -13.022   8.620  72.139  1.00  0.00    -0.432 C  
BRANCH  10  11
HETATM   11  C   UNL     1     -12.703   9.611  71.031  1.00  0.00    -0.354 C  
BRANCH  11  12
HETATM   12  C   UNL     1     -12.863  11.037  71.529  1.00  0.00    -0.555 C  
BRANCH  12  13
HETATM   13  C   UNL     1     -12.274  12.012  70.520  1.00  0.00    -0.414 C  
BRANCH  13  14
HETATM   14  C   UNL     1     -11.327  11.274  69.596  1.00  0.00    -0.359 C  
BRANCH  14  15
HETATM   15  C   UNL     1     -11.733  11.434  68.138  1.00  0.00    -0.355 C  
BRANCH  15  16
HETATM   16  C   UNL     1     -12.008  12.900  67.888  1.00  0.00    -0.282 C  
BRANCH  16  17
HETATM   17  O   UNL     1     -10.800  13.583  67.574  1.00  0.00    -0.259 OA 
BRANCH  17  18
HETATM   18  P   UNL     1     -10.876  15.271  67.943  1.00  0.00    -0.306 P  
HETATM   19  O   UNL     1     -12.134  15.003  68.776  1.00  0.00    -0.272 OA 
HETATM   20  O   UNL     1     -10.897  15.658  66.466  1.00  0.00    -0.311 OA 
BRANCH  18  21
HETATM   21  O   UNL     1     -10.951  16.959  68.312  1.00  0.00    -0.364 OA 
BRANCH  21  22
HETATM   22  C   UNL     1      -9.695  17.539  68.655  1.00  0.00    -0.319 C  
BRANCH  22  23
HETATM   23  C   UNL     1      -9.649  19.023  68.363  1.00  0.00    -0.373 C  
BRANCH  23  24
HETATM   24  N   UNL     1      -9.027  19.405  67.002  1.00  0.00    -0.292 N  
HETATM   25  C   UNL     1      -8.210  18.214  66.538  1.00  0.00    -0.267 C  
HETATM   26  C   UNL     1      -8.109  20.616  67.173  1.00  0.00    -0.245 C  
HETATM   27  C   UNL     1     -10.103  19.724  65.981  1.00  0.00    -0.477 C  
ENDBRANCH  23  24
ENDBRANCH  22  23
ENDBRANCH  21  22
ENDBRANCH  18  21
ENDBRANCH  17  18
ENDBRANCH  16  17
ENDBRANCH  15  16
ENDBRANCH  14  15
ENDBRANCH  13  14
ENDBRANCH  12  13
ENDBRANCH  11  12
ENDBRANCH  10  11
ENDBRANCH   9  10
ENDBRANCH   8   9
ENDBRANCH   7   8
ENDBRANCH   6   7
ENDBRANCH   5   6
ENDBRANCH   4   5
ENDBRANCH   3   4
ENDBRANCH   2   3
TORSDOF 20
ENDMDL
MODEL       89
REMARK 921   NORMALIZED FREE ENERGY PREDICTED BY IDOCK:   -4.26 KCAL/MOL
REMARK 922        TOTAL FREE ENERGY PREDICTED BY IDOCK:  -11.15 KCAL/MOL
REMARK 923 INTER-LIGAND FREE ENERGY PREDICTED BY IDOCK:   -9.46 KCAL/MOL
REMARK 924 INTRA-LIGAND FREE ENERGY PREDICTED BY IDOCK:   -1.69 KCAL/MOL
REMARK 927      BINDING AFFINITY PREDICTED BY RF-SCORE:    0.00 PKD
ROOT
HETATM    1  C   UNL     1     -11.023   5.997  68.936  1.00  0.00    -0.395 C  
HETATM    2  C   UNL     1     -10.665   6.032  70.412  1.00  0.00    -0.358 C  
ENDROOT
BRANCH   2   3
HETATM    3  C   UNL     1     -11.814   6.598  71.244  1.00  0.00    -0.403 C  
BRANCH   3   4
HETATM    4  C   UNL     1     -11.321   7.684  72.194  1.00  0.00    -0.341 C  
BRANCH   4   5
HETATM    5  C   UNL     1     -10.395   8.655  71.469  1.00  0.00    -0.341 C  
BRANCH   5   6
HETATM    6  C   UNL     1     -11.190   9.801  70.855  1.00  0.00    -0.429 C  
BRANCH   6   7
HETATM    7  C   UNL     1     -11.020   9.817  69.341  1.00  0.00    -0.241 C  
BRANCH   7   8
HETATM    8  C   UNL     1      -9.544   9.776  68.970  1.00  0.00    -0.177 C  
BRANCH   8   9
HETATM    9  C   UNL     1      -9.357   9.054  67.645  1.00  0.00    -0.154 C  
BRANCH   9  10
HETATM   10  C   UNL     1      -8.997  10.039  66.544  1.00  0.00    -0.162 C  
BRANCH  10  11
HETATM   11  C   UNL     1     -10.189  10.242  65.623  1.00  0.00    -0.301 C  
BRANCH  11  12
HETATM   12  C   UNL     1      -9.743  10.265  64.171  1.00  0.00    -0.357 C  
BRANCH  12  13
HETATM   13  C   UNL     1     -10.333  11.476  63.463  1.00  0.00    -0.484 C  
BRANCH  13  14
HETATM   14  C   UNL     1     -11.476  12.036  64.285  1.00  0.00    -0.435 C  
BRANCH  14  15
HETATM   15  C   UNL     1     -11.562  13.550  64.159  1.00  0.00    -0.415 C  
BRANCH  15  16
HETATM   16  C   UNL     1     -12.120  14.097  65.454  1.00  0.00    -0.410 C  
BRANCH  16  17
HETATM   17  O   UNL     1     -11.501  13.461  66.566  1.00  0.00    -0.317 OA 
BRANCH  17  18
HETATM   18  P   UNL     1     -11.291  14.531  67.909  1.00  0.00    -0.340 P  
HETATM   19  O   UNL     1     -10.112  15.177  67.174  1.00  0.00    -0.236 OA 
HETATM   20  O   UNL     1     -11.152  13.372  68.893  1.00  0.00    -0.253 OA 
BRANCH  18  21
HETATM   21  O   UNL     1     -11.082  15.602  69.252  1.00  0.00    -0.253 OA 
BRANCH  21  22
HETATM   22  C   UNL     1     -12.187  15.632  70.152  1.00  0.00    -0.361 C  
BRANCH  22  23
HETATM   23  C   UNL     1     -11.925  14.833  71.410  1.00  0.00    -0.345 C  
BRANCH  23  24
HETATM   24  N   UNL     1     -13.164  14.582  72.297  1.00  0.00    -0.358 N  
HETATM   25  C   UNL     1     -12.782  14.967  73.713  1.00  0.00    -0.471 C  
HETATM   26  C   UNL     1     -13.539  13.099  72.256  1.00  0.00    -0.581 C  
HETATM   27  C   UNL     1     -14.345  15.415  71.833  1.00  0.00    -0.543 C  
ENDBRANCH  23  24
ENDBRANCH  22  23
ENDBRANCH  21  22
ENDBRANCH  18  21
ENDBRANCH  17  18
ENDBRANCH  16  17
ENDBRANCH  15  16
ENDBRANCH  14  15
ENDBRANCH  13  14
ENDBRANCH  12  13
ENDBRANCH  11  12
ENDBRANCH  10  11
ENDBRANCH   9  10
ENDBRANCH   8   9
ENDBRANCH   7   8
ENDBRANCH   6   7
ENDBRANCH   5   6
ENDBRANCH   4   5
ENDBRANCH   3   4
ENDBRANCH   2   3
TORSDOF 20
ENDMDL
MODEL       90
REMARK 921   NORMALIZED FREE ENERGY PREDICTED BY IDOCK:   -4.25 KCAL/MOL
REMARK 922        TOTAL FREE ENERGY PREDICTED BY IDOCK:  -11.13 KCAL/MOL
REMARK 923 INTER-LIGAND FREE ENERGY PREDICTED BY IDOCK:   -8.63 KCAL/MOL
REMARK 924 INTRA-LIGAND FREE ENERGY PREDICTED BY IDOCK:   -2.51 KCAL/MOL
REMARK 927      BINDING AFFINITY PREDICTED BY RF-SCORE:    0.00 PKD
ROOT
HETATM    1  C   UNL     1      -9.077   7.077  66.301  1.00  0.00    -0.178 C  
HETATM    2  C   UNL     1     -10.415   7.222  67.005  1.00  0.00    -0.398 C  
ENDROOT
BRANCH   2   3
HETATM    3  C   UNL     1     -10.639   8.659  67.472  1.00  0.00    -0.292 C  
BRANCH   3   4
HETATM    4  C   UNL     1      -9.335   9.288  67.954  1.00  0.00    -0.143 C  
BRANCH   4   5
HETATM    5  C   UNL     1      -9.180   9.122  69.462  1.00  0.00    -0.160 C  
BRANCH   5   6
HETATM    6  C   UNL     1      -8.148   8.048  69.783  1.00  0.00    -0.115 C  
BRANCH   6   7
HETATM    7  C   UNL     1      -8.651   7.140  70.897  1.00  0.00    -0.138 C  
BRANCH   7   8
HETATM    8  C   UNL     1      -9.255   5.868  70.316  1.00  0.00    -0.170 C  
BRANCH   8   9
HETATM    9  C   UNL     1     -10.612   5.598  70.948  1.00  0.00    -0.328 C  
BRANCH   9  10
HETATM   10  C   UNL     1     -11.657   6.562  70.409  1.00  0.00    -0.470 C  
BRANCH  10  11
HETATM   11  C   UNL     1     -12.456   7.153  71.559  1.00  0.00    -0.418 C  
BRANCH  11  12
HETATM   12  C   UNL     1     -12.060   8.600  71.795  1.00  0.00    -0.403 C  
BRANCH  12  13
HETATM   13  C   UNL     1     -13.297   9.439  72.083  1.00  0.00    -0.545 C  
BRANCH  13  14
HETATM   14  C   UNL     1     -13.048  10.872  71.655  1.00  0.00    -0.538 C  
BRANCH  14  15
HETATM   15  C   UNL     1     -12.070  10.942  70.491  1.00  0.00    -0.464 C  
BRANCH  15  16
HETATM   16  C   UNL     1     -11.951  12.389  70.068  1.00  0.00    -0.299 C  
BRANCH  16  17
HETATM   17  O   UNL     1     -12.112  12.508  68.660  1.00  0.00    -0.266 OA 
BRANCH  17  18
HETATM   18  P   UNL     1     -11.489  14.000  68.044  1.00  0.00    -0.351 P  
HETATM   19  O   UNL     1     -12.250  13.747  66.739  1.00  0.00    -0.425 OA 
HETATM   20  O   UNL     1     -10.044  13.570  68.287  1.00  0.00    -0.236 OA 
BRANCH  18  21
HETATM   21  O   UNL     1     -10.865  15.492  67.430  1.00  0.00    -0.304 OA 
BRANCH  21  22
HETATM   22  C   UNL     1     -10.951  16.582  68.344  1.00  0.00    -0.348 C  
BRANCH  22  23
HETATM   23  C   UNL     1      -9.596  17.185  68.647  1.00  0.00    -0.281 C  
BRANCH  23  24
HETATM   24  N   UNL     1      -9.217  18.409  67.785  1.00  0.00    -0.274 N  
HETATM   25  C   UNL     1      -8.477  17.884  66.570  1.00  0.00    -0.258 C  
HETATM   26  C   UNL     1      -8.297  19.338  68.579  1.00  0.00    -0.366 C  
HETATM   27  C   UNL     1     -10.453  19.173  67.348  1.00  0.00    -0.458 C  
ENDBRANCH  23  24
ENDBRANCH  22  23
ENDBRANCH  21  22
ENDBRANCH  18  21
ENDBRANCH  17  18
ENDBRANCH  16  17
ENDBRANCH  15  16
ENDBRANCH  14  15
ENDBRANCH  13  14
ENDBRANCH  12  13
ENDBRANCH  11  12
ENDBRANCH  10  11
ENDBRANCH   9  10
ENDBRANCH   8   9
ENDBRANCH   7   8
ENDBRANCH   6   7
ENDBRANCH   5   6
ENDBRANCH   4   5
ENDBRANCH   3   4
ENDBRANCH   2   3
TORSDOF 20
ENDMDL
MODEL       91
REMARK 921   NORMALIZED FREE ENERGY PREDICTED BY IDOCK:   -4.23 KCAL/MOL
REMARK 922        TOTAL FREE ENERGY PREDICTED BY IDOCK:  -11.10 KCAL/MOL
REMARK 923 INTER-LIGAND FREE ENERGY PREDICTED BY IDOCK:   -8.53 KCAL/MOL
REMARK 924 INTRA-LIGAND FREE ENERGY PREDICTED BY IDOCK:   -2.57 KCAL/MOL
REMARK 927      BINDING AFFINITY PREDICTED BY RF-SCORE:    0.00 PKD
ROOT
HETATM    1  C   UNL     1     -10.421  17.081  66.997  1.00  0.00    -0.279 C  
HETATM    2  C   UNL     1     -10.606  16.717  65.534  1.00  0.00    -0.273 C  
ENDROOT
BRANCH   2   3
HETATM    3  C   UNL     1     -10.404  15.220  65.309  1.00  0.00    -0.430 C  
BRANCH   3   4
HETATM    4  C   UNL     1     -11.348  14.402  66.183  1.00  0.00    -0.350 C  
BRANCH   4   5
HETATM    5  C   UNL     1     -12.520  13.872  65.364  1.00  0.00    -0.528 C  
BRANCH   5   6
HETATM    6  C   UNL     1     -12.085  13.568  63.935  1.00  0.00    -0.493 C  
BRANCH   6   7
HETATM    7  C   UNL     1     -11.992  12.065  63.714  1.00  0.00    -0.588 C  
BRANCH   7   8
HETATM    8  C   UNL     1     -10.565  11.666  63.362  1.00  0.00    -0.472 C  
BRANCH   8   9
HETATM    9  C   UNL     1      -9.764  11.412  64.630  1.00  0.00    -0.275 C  
BRANCH   9  10
HETATM   10  C   UNL     1     -10.059  10.027  65.183  1.00  0.00    -0.268 C  
BRANCH  10  11
HETATM   11  C   UNL     1     -10.004  10.056  66.702  1.00  0.00    -0.274 C  
BRANCH  11  12
HETATM   12  C   UNL     1     -11.076  10.979  67.256  1.00  0.00    -0.359 C  
BRANCH  12  13
HETATM   13  C   UNL     1     -10.574  11.662  68.520  1.00  0.00    -0.241 C  
BRANCH  13  14
HETATM   14  C   UNL     1     -11.755  12.090  69.367  1.00  0.00    -0.402 C  
BRANCH  14  15
HETATM   15  C   UNL     1     -12.425  10.896  70.032  1.00  0.00    -0.332 C  
BRANCH  15  16
HETATM   16  C   UNL     1     -11.371  10.143  70.811  1.00  0.00    -0.354 C  
BRANCH  16  17
HETATM   17  O   UNL     1     -11.910   8.934  71.331  1.00  0.00    -0.283 OA 
BRANCH  17  18
HETATM   18  P   UNL     1     -10.939   7.555  70.949  1.00  0.00    -0.263 P  
HETATM   19  O   UNL     1     -10.150   8.420  69.960  1.00  0.00    -0.186 OA 
HETATM   20  O   UNL     1     -12.160   6.720  70.569  1.00  0.00    -0.386 OA 
BRANCH  18  21
HETATM   21  O   UNL     1      -9.967   6.175  70.568  1.00  0.00    -0.175 OA 
BRANCH  21  22
HETATM   22  C   UNL     1     -10.491   5.362  69.521  1.00  0.00    -0.273 C  
BRANCH  22  23
HETATM   23  C   UNL     1      -9.453   5.041  68.468  1.00  0.00    -0.138 C  
BRANCH  23  24
HETATM   24  N   UNL     1      -9.765   5.578  67.055  1.00  0.00    -0.135 N  
HETATM   25  C   UNL     1      -8.567   6.399  66.618  1.00  0.00    -0.121 C  
HETATM   26  C   UNL     1     -11.005   6.472  67.102  1.00  0.00    -0.408 C  
HETATM   27  C   UNL     1      -9.997   4.440  66.078  1.00  0.00    -0.240 C  
ENDBRANCH  23  24
ENDBRANCH  22  23
ENDBRANCH  21  22
ENDBRANCH  18  21
ENDBRANCH  17  18
ENDBRANCH  16  17
ENDBRANCH  15  16
ENDBRANCH  14  15
ENDBRANCH  13  14
ENDBRANCH  12  13
ENDBRANCH  11  12
ENDBRANCH  10  11
ENDBRANCH   9  10
ENDBRANCH   8   9
ENDBRANCH   7   8
ENDBRANCH   6   7
ENDBRANCH   5   6
ENDBRANCH   4   5
ENDBRANCH   3   4
ENDBRANCH   2   3
TORSDOF 20
ENDMDL
MODEL       92
REMARK 921   NORMALIZED FREE ENERGY PREDICTED BY IDOCK:   -4.23 KCAL/MOL
REMARK 922        TOTAL FREE ENERGY PREDICTED BY IDOCK:  -11.09 KCAL/MOL
REMARK 923 INTER-LIGAND FREE ENERGY PREDICTED BY IDOCK:   -8.55 KCAL/MOL
REMARK 924 INTRA-LIGAND FREE ENERGY PREDICTED BY IDOCK:   -2.54 KCAL/MOL
REMARK 927      BINDING AFFINITY PREDICTED BY RF-SCORE:    0.00 PKD
ROOT
HETATM    1  C   UNL     1     -11.910   9.674  70.869  1.00  0.00    -0.403 C  
HETATM    2  C   UNL     1     -10.786   9.033  71.665  1.00  0.00    -0.441 C  
ENDROOT
BRANCH   2   3
HETATM    3  C   UNL     1     -10.195   7.839  70.921  1.00  0.00    -0.207 C  
BRANCH   3   4
HETATM    4  C   UNL     1     -11.255   6.773  70.664  1.00  0.00    -0.361 C  
BRANCH   4   5
HETATM    5  C   UNL     1     -11.065   6.143  69.288  1.00  0.00    -0.463 C  
BRANCH   5   6
HETATM    6  C   UNL     1     -10.007   6.896  68.491  1.00  0.00    -0.149 C  
BRANCH   6   7
HETATM    7  C   UNL     1     -10.594   7.420  67.187  1.00  0.00    -0.413 C  
BRANCH   7   8
HETATM    8  C   UNL     1      -9.672   8.462  66.568  1.00  0.00    -0.330 C  
BRANCH   8   9
HETATM    9  C   UNL     1      -8.575   8.841  67.552  1.00  0.00    -0.127 C  
BRANCH   9  10
HETATM   10  C   UNL     1      -8.309  10.337  67.509  1.00  0.00    -0.114 C  
BRANCH  10  11
HETATM   11  C   UNL     1      -9.094  11.033  68.609  1.00  0.00    -0.174 C  
BRANCH  11  12
HETATM   12  C   UNL     1     -10.417  11.552  68.072  1.00  0.00    -0.214 C  
BRANCH  12  13
HETATM   13  C   UNL     1     -10.246  12.030  66.637  1.00  0.00    -0.229 C  
BRANCH  13  14
HETATM   14  C   UNL     1     -11.581  11.977  65.923  1.00  0.00    -0.364 C  
BRANCH  14  15
HETATM   15  C   UNL     1     -11.425  12.228  64.430  1.00  0.00    -0.417 C  
BRANCH  15  16
HETATM   16  C   UNL     1     -10.719  13.554  64.251  1.00  0.00    -0.308 C  
BRANCH  16  17
HETATM   17  O   UNL     1     -11.565  14.623  64.656  1.00  0.00    -0.394 OA 
BRANCH  17  18
HETATM   18  P   UNL     1     -10.678  15.977  65.265  1.00  0.00    -0.239 P  
HETATM   19  O   UNL     1     -11.219  15.667  66.664  1.00  0.00    -0.221 OA 
HETATM   20  O   UNL     1     -11.347  16.938  64.284  1.00  0.00    -1.202 OA 
BRANCH  18  21
HETATM   21  O   UNL     1      -9.789  17.331  65.873  1.00  0.00    -0.494 OA 
BRANCH  21  22
HETATM   22  C   UNL     1      -8.452  17.026  66.261  1.00  0.00    -0.269 C  
BRANCH  22  23
HETATM   23  C   UNL     1      -8.205  17.294  67.729  1.00  0.00    -0.203 C  
BRANCH  23  24
HETATM   24  N   UNL     1      -7.926  16.041  68.587  1.00  0.00    -0.162 N  
HETATM   25  C   UNL     1      -6.829  16.408  69.567  1.00  0.00    -0.187 C  
HETATM   26  C   UNL     1      -7.447  14.896  67.692  1.00  0.00    -0.185 C  
HETATM   27  C   UNL     1      -9.171  15.608  69.340  1.00  0.00    -0.279 C  
ENDBRANCH  23  24
ENDBRANCH  22  23
ENDBRANCH  21  22
ENDBRANCH  18  21
ENDBRANCH  17  18
ENDBRANCH  16  17
ENDBRANCH  15  16
ENDBRANCH  14  15
ENDBRANCH  13  14
ENDBRANCH  12  13
ENDBRANCH  11  12
ENDBRANCH  10  11
ENDBRANCH   9  10
ENDBRANCH   8   9
ENDBRANCH   7   8
ENDBRANCH   6   7
ENDBRANCH   5   6
ENDBRANCH   4   5
ENDBRANCH   3   4
ENDBRANCH   2   3
TORSDOF 20
ENDMDL
MODEL       93
REMARK 921   NORMALIZED FREE ENERGY PREDICTED BY IDOCK:   -4.23 KCAL/MOL
REMARK 922        TOTAL FREE ENERGY PREDICTED BY IDOCK:  -11.09 KCAL/MOL
REMARK 923 INTER-LIGAND FREE ENERGY PREDICTED BY IDOCK:   -9.48 KCAL/MOL
REMARK 924 INTRA-LIGAND FREE ENERGY PREDICTED BY IDOCK:   -1.60 KCAL/MOL
REMARK 927      BINDING AFFINITY PREDICTED BY RF-SCORE:    0.00 PKD
ROOT
HETATM    1  C   UNL     1      -6.459  20.644  66.493  1.00  0.00    -0.305 C  
HETATM    2  C   UNL     1      -7.608  19.705  66.820  1.00  0.00    -0.274 C  
ENDROOT
BRANCH   2   3
HETATM    3  C   UNL     1      -8.855  20.484  67.233  1.00  0.00    -0.404 C  
BRANCH   3   4
HETATM    4  C   UNL     1     -10.100  19.930  66.548  1.00  0.00    -0.607 C  
BRANCH   4   5
HETATM    5  C   UNL     1     -10.799  18.911  67.441  1.00  0.00    -0.449 C  
BRANCH   5   6
HETATM    6  C   UNL     1     -10.421  17.491  67.039  1.00  0.00    -0.293 C  
BRANCH   6   7
HETATM    7  C   UNL     1     -10.772  16.510  68.149  1.00  0.00    -0.343 C  
BRANCH   7   8
HETATM    8  C   UNL     1     -10.037  15.191  67.948  1.00  0.00    -0.222 C  
BRANCH   8   9
HETATM    9  C   UNL     1     -10.592  14.463  66.733  1.00  0.00    -0.282 C  
BRANCH   9  10
HETATM   10  C   UNL     1     -12.004  13.968  67.003  1.00  0.00    -0.472 C  
BRANCH  10  11
HETATM   11  C   UNL     1     -12.781  13.887  65.698  1.00  0.00    -0.534 C  
BRANCH  11  12
HETATM   12  C   UNL     1     -11.865  14.154  64.517  1.00  0.00    -0.451 C  
BRANCH  12  13
HETATM   13  C   UNL     1     -12.266  13.279  63.337  1.00  0.00    -0.476 C  
BRANCH  13  14
HETATM   14  C   UNL     1     -11.964  11.829  63.657  1.00  0.00    -0.490 C  
BRANCH  14  15
HETATM   15  C   UNL     1     -10.466  11.561  63.661  1.00  0.00    -0.483 C  
BRANCH  15  16
HETATM   16  C   UNL     1     -10.154  10.667  64.840  1.00  0.00    -0.335 C  
BRANCH  16  17
HETATM   17  O   UNL     1     -10.863  11.104  65.993  1.00  0.00    -0.243 OA 
BRANCH  17  18
HETATM   18  P   UNL     1     -10.630  10.059  67.352  1.00  0.00    -0.237 P  
HETATM   19  O   UNL     1      -9.690  11.105  67.960  1.00  0.00    -0.167 OA 
HETATM   20  O   UNL     1     -10.165   8.906  66.465  1.00  0.00    -0.284 OA 
BRANCH  18  21
HETATM   21  O   UNL     1     -10.398   9.013  68.710  1.00  0.00    -0.207 OA 
BRANCH  21  22
HETATM   22  C   UNL     1     -10.873   9.545  69.944  1.00  0.00    -0.246 C  
BRANCH  22  23
HETATM   23  C   UNL     1     -10.370   8.763  71.138  1.00  0.00    -0.246 C  
BRANCH  23  24
HETATM   24  N   UNL     1     -11.442   7.929  71.874  1.00  0.00    -0.266 N  
HETATM   25  C   UNL     1     -12.596   8.863  72.182  1.00  0.00    -0.399 C  
HETATM   26  C   UNL     1     -10.866   7.383  73.182  1.00  0.00    -0.386 C  
HETATM   27  C   UNL     1     -11.923   6.777  71.012  1.00  0.00    -0.379 C  
ENDBRANCH  23  24
ENDBRANCH  22  23
ENDBRANCH  21  22
ENDBRANCH  18  21
ENDBRANCH  17  18
ENDBRANCH  16  17
ENDBRANCH  15  16
ENDBRANCH  14  15
ENDBRANCH  13  14
ENDBRANCH  12  13
ENDBRANCH  11  12
ENDBRANCH  10  11
ENDBRANCH   9  10
ENDBRANCH   8   9
ENDBRANCH   7   8
ENDBRANCH   6   7
ENDBRANCH   5   6
ENDBRANCH   4   5
ENDBRANCH   3   4
ENDBRANCH   2   3
TORSDOF 20
ENDMDL
MODEL       94
REMARK 921   NORMALIZED FREE ENERGY PREDICTED BY IDOCK:   -4.21 KCAL/MOL
REMARK 922        TOTAL FREE ENERGY PREDICTED BY IDOCK:  -11.05 KCAL/MOL
REMARK 923 INTER-LIGAND FREE ENERGY PREDICTED BY IDOCK:   -8.95 KCAL/MOL
REMARK 924 INTRA-LIGAND FREE ENERGY PREDICTED BY IDOCK:   -2.10 KCAL/MOL
REMARK 927      BINDING AFFINITY PREDICTED BY RF-SCORE:    0.00 PKD
ROOT
HETATM    1  C   UNL     1     -14.360  15.268  71.900  1.00  0.00    -0.691 C  
HETATM    2  C   UNL     1     -13.238  15.535  72.889  1.00  0.00    -0.633 C  
ENDROOT
BRANCH   2   3
HETATM    3  C   UNL     1     -12.028  16.156  72.196  1.00  0.00    -0.623 C  
BRANCH   3   4
HETATM    4  C   UNL     1     -11.889  15.638  70.768  1.00  0.00    -0.421 C  
BRANCH   4   5
HETATM    5  C   UNL     1     -10.466  15.160  70.503  1.00  0.00    -0.042 C  
BRANCH   5   6
HETATM    6  C   UNL     1      -9.833  15.954  69.366  1.00  0.00    -0.280 C  
BRANCH   6   7
HETATM    7  C   UNL     1     -10.900  16.436  68.393  1.00  0.00    -0.342 C  
BRANCH   7   8
HETATM    8  C   UNL     1     -10.261  16.925  67.100  1.00  0.00    -0.297 C  
BRANCH   8   9
HETATM    9  C   UNL     1      -9.635  15.758  66.351  1.00  0.00    -0.311 C  
BRANCH   9  10
HETATM   10  C   UNL     1     -10.706  14.918  65.674  1.00  0.00    -0.352 C  
BRANCH  10  11
HETATM   11  C   UNL     1     -10.203  13.496  65.483  1.00  0.00    -0.308 C  
BRANCH  11  12
HETATM   12  C   UNL     1     -11.181  12.501  66.082  1.00  0.00    -0.362 C  
BRANCH  12  13
HETATM   13  C   UNL     1     -12.231  13.232  66.906  1.00  0.00    -0.315 C  
BRANCH  13  14
HETATM   14  C   UNL     1     -12.017  12.938  68.377  1.00  0.00    -0.289 C  
BRANCH  14  15
HETATM   15  C   UNL     1     -11.670  11.474  68.607  1.00  0.00    -0.389 C  
BRANCH  15  16
HETATM   16  C   UNL     1     -11.669  11.223  70.098  1.00  0.00    -0.343 C  
BRANCH  16  17
HETATM   17  O   UNL     1     -12.619  10.218  70.430  1.00  0.00    -0.278 OA 
BRANCH  17  18
HETATM   18  P   UNL     1     -11.907   8.883  71.269  1.00  0.00    -0.332 P  
HETATM   19  O   UNL     1     -13.035   8.968  72.303  1.00  0.00    -0.388 OA 
HETATM   20  O   UNL     1     -10.567   9.601  71.406  1.00  0.00    -0.302 OA 
BRANCH  18  21
HETATM   21  O   UNL     1     -11.195   7.547  72.107  1.00  0.00    -0.246 OA 
BRANCH  21  22
HETATM   22  C   UNL     1     -11.396   6.286  71.475  1.00  0.00    -0.296 C  
BRANCH  22  23
HETATM   23  C   UNL     1     -11.629   6.422  69.986  1.00  0.00    -0.377 C  
BRANCH  23  24
HETATM   24  N   UNL     1     -10.450   5.972  69.095  1.00  0.00    -0.227 N  
HETATM   25  C   UNL     1     -10.121   4.544  69.481  1.00  0.00    -0.069 C  
HETATM   26  C   UNL     1      -9.234   6.863  69.356  1.00  0.00    -0.147 C  
HETATM   27  C   UNL     1     -10.821   6.040  67.625  1.00  0.00    -0.295 C  
ENDBRANCH  23  24
ENDBRANCH  22  23
ENDBRANCH  21  22
ENDBRANCH  18  21
ENDBRANCH  17  18
ENDBRANCH  16  17
ENDBRANCH  15  16
ENDBRANCH  14  15
ENDBRANCH  13  14
ENDBRANCH  12  13
ENDBRANCH  11  12
ENDBRANCH  10  11
ENDBRANCH   9  10
ENDBRANCH   8   9
ENDBRANCH   7   8
ENDBRANCH   6   7
ENDBRANCH   5   6
ENDBRANCH   4   5
ENDBRANCH   3   4
ENDBRANCH   2   3
TORSDOF 20
ENDMDL
MODEL       95
REMARK 921   NORMALIZED FREE ENERGY PREDICTED BY IDOCK:   -4.20 KCAL/MOL
REMARK 922        TOTAL FREE ENERGY PREDICTED BY IDOCK:  -11.03 KCAL/MOL
REMARK 923 INTER-LIGAND FREE ENERGY PREDICTED BY IDOCK:   -8.93 KCAL/MOL
REMARK 924 INTRA-LIGAND FREE ENERGY PREDICTED BY IDOCK:   -2.10 KCAL/MOL
REMARK 927      BINDING AFFINITY PREDICTED BY RF-SCORE:    0.00 PKD
ROOT
HETATM    1  C   UNL     1     -10.639  11.116  66.060  1.00  0.00    -0.298 C  
HETATM    2  C   UNL     1      -9.127  11.253  66.111  1.00  0.00    -0.216 C  
ENDROOT
BRANCH   2   3
HETATM    3  C   UNL     1      -8.560  10.637  67.388  1.00  0.00    -0.122 C  
BRANCH   3   4
HETATM    4  C   UNL     1      -7.712   9.409  67.075  1.00  0.00    -0.091 C  
BRANCH   4   5
HETATM    5  C   UNL     1      -8.335   8.154  67.675  1.00  0.00    -0.127 C  
BRANCH   5   6
HETATM    6  C   UNL     1      -9.328   7.527  66.704  1.00  0.00    -0.222 C  
BRANCH   6   7
HETATM    7  C   UNL     1     -10.677   7.319  67.380  1.00  0.00    -0.358 C  
BRANCH   7   8
HETATM    8  C   UNL     1     -10.552   7.507  68.886  1.00  0.00    -0.184 C  
BRANCH   8   9
HETATM    9  C   UNL     1     -11.134   6.305  69.614  1.00  0.00    -0.479 C  
BRANCH   9  10
HETATM   10  C   UNL     1     -11.854   6.741  70.880  1.00  0.00    -0.438 C  
BRANCH  10  11
HETATM   11  C   UNL     1     -11.024   7.784  71.612  1.00  0.00    -0.272 C  
BRANCH  11  12
HETATM   12  C   UNL     1     -11.925   8.794  72.301  1.00  0.00    -0.415 C  
BRANCH  12  13
HETATM   13  C   UNL     1     -12.235   9.947  71.357  1.00  0.00    -0.499 C  
BRANCH  13  14
HETATM   14  C   UNL     1     -13.205  10.901  72.024  1.00  0.00    -0.456 C  
BRANCH  14  15
HETATM   15  C   UNL     1     -12.811  12.352  71.787  1.00  0.00    -0.350 C  
BRANCH  15  16
HETATM   16  C   UNL     1     -13.925  13.230  72.309  1.00  0.00    -0.461 C  
BRANCH  16  17
HETATM   17  O   UNL     1     -13.389  14.372  72.966  1.00  0.00    -0.589 OA 
BRANCH  17  18
HETATM   18  P   UNL     1     -12.356  15.305  71.939  1.00  0.00    -0.441 P  
HETATM   19  O   UNL     1     -11.954  16.146  73.155  1.00  0.00    -0.480 OA 
HETATM   20  O   UNL     1     -13.506  15.659  70.998  1.00  0.00    -0.575 OA 
BRANCH  18  21
HETATM   21  O   UNL     1     -11.323  16.237  70.911  1.00  0.00    -0.389 OA 
BRANCH  21  22
HETATM   22  C   UNL     1     -11.647  16.153  69.526  1.00  0.00    -0.254 C  
BRANCH  22  23
HETATM   23  C   UNL     1     -10.415  16.146  68.647  1.00  0.00    -0.269 C  
BRANCH  23  24
HETATM   24  N   UNL     1     -10.145  14.819  67.906  1.00  0.00    -0.220 N  
HETATM   25  C   UNL     1     -11.142  13.805  68.434  1.00  0.00    -0.263 C  
HETATM   26  C   UNL     1      -8.724  14.338  68.203  1.00  0.00    -0.174 C  
HETATM   27  C   UNL     1     -10.320  14.986  66.408  1.00  0.00    -0.287 C  
ENDBRANCH  23  24
ENDBRANCH  22  23
ENDBRANCH  21  22
ENDBRANCH  18  21
ENDBRANCH  17  18
ENDBRANCH  16  17
ENDBRANCH  15  16
ENDBRANCH  14  15
ENDBRANCH  13  14
ENDBRANCH  12  13
ENDBRANCH  11  12
ENDBRANCH  10  11
ENDBRANCH   9  10
ENDBRANCH   8   9
ENDBRANCH   7   8
ENDBRANCH   6   7
ENDBRANCH   5   6
ENDBRANCH   4   5
ENDBRANCH   3   4
ENDBRANCH   2   3
TORSDOF 20
ENDMDL
MODEL       96
REMARK 921   NORMALIZED FREE ENERGY PREDICTED BY IDOCK:   -4.19 KCAL/MOL
REMARK 922        TOTAL FREE ENERGY PREDICTED BY IDOCK:  -11.01 KCAL/MOL
REMARK 923 INTER-LIGAND FREE ENERGY PREDICTED BY IDOCK:   -8.61 KCAL/MOL
REMARK 924 INTRA-LIGAND FREE ENERGY PREDICTED BY IDOCK:   -2.41 KCAL/MOL
REMARK 927      BINDING AFFINITY PREDICTED BY RF-SCORE:    0.00 PKD
ROOT
HETATM    1  C   UNL     1     -10.843   8.633  71.163  1.00  0.00    -0.320 C  
HETATM    2  C   UNL     1     -11.868   9.523  70.481  1.00  0.00    -0.246 C  
ENDROOT
BRANCH   2   3
HETATM    3  C   UNL     1     -11.249  10.854  70.059  1.00  0.00    -0.340 C  
BRANCH   3   4
HETATM    4  C   UNL     1     -11.598  11.187  68.613  1.00  0.00    -0.383 C  
BRANCH   4   5
HETATM    5  C   UNL     1     -10.853  10.267  67.652  1.00  0.00    -0.363 C  
BRANCH   5   6
HETATM    6  C   UNL     1      -9.377  10.643  67.581  1.00  0.00    -0.156 C  
BRANCH   6   7
HETATM    7  C   UNL     1      -8.904  10.678  66.134  1.00  0.00    -0.179 C  
BRANCH   7   8
HETATM    8  C   UNL     1      -9.948  10.055  65.217  1.00  0.00    -0.368 C  
BRANCH   8   9
HETATM    9  C   UNL     1      -9.884  10.696  63.839  1.00  0.00    -0.398 C  
BRANCH   9  10
HETATM   10  C   UNL     1     -10.531  12.071  63.856  1.00  0.00    -0.440 C  
BRANCH  10  11
HETATM   11  C   UNL     1     -12.007  11.943  64.198  1.00  0.00    -0.402 C  
BRANCH  11  12
HETATM   12  C   UNL     1     -12.357  12.821  65.386  1.00  0.00    -0.528 C  
BRANCH  12  13
HETATM   13  C   UNL     1     -11.323  13.928  65.539  1.00  0.00    -0.310 C  
BRANCH  13  14
HETATM   14  C   UNL     1     -10.904  14.032  66.992  1.00  0.00    -0.291 C  
BRANCH  14  15
HETATM   15  C   UNL     1     -11.661  15.139  67.711  1.00  0.00    -0.303 C  
BRANCH  15  16
HETATM   16  C   UNL     1     -10.648  16.130  68.240  1.00  0.00    -0.288 C  
BRANCH  16  17
HETATM   17  O   UNL     1      -9.805  16.584  67.188  1.00  0.00    -0.244 OA 
BRANCH  17  18
HETATM   18  P   UNL     1      -9.957  18.284  66.903  1.00  0.00    -0.393 P  
HETATM   19  O   UNL     1     -10.750  18.403  68.209  1.00  0.00    -0.280 OA 
HETATM   20  O   UNL     1     -10.595  18.062  65.534  1.00  0.00    -0.639 OA 
BRANCH  18  21
HETATM   21  O   UNL     1     -10.108  19.984  66.618  1.00  0.00    -0.426 OA 
BRANCH  21  22
HETATM   22  C   UNL     1      -8.884  20.706  66.730  1.00  0.00    -0.039 C  
BRANCH  22  23
HETATM   23  C   UNL     1      -7.895  20.021  67.647  1.00  0.00    -0.306 C  
BRANCH  23  24
HETATM   24  N   UNL     1      -6.436  20.001  67.141  1.00  0.00    -0.195 N  
HETATM   25  C   UNL     1      -5.787  21.289  67.608  1.00  0.00    -0.347 C  
HETATM   26  C   UNL     1      -6.419  19.946  65.612  1.00  0.00    -0.242 C  
HETATM   27  C   UNL     1      -5.682  18.808  67.699  1.00  0.00    -0.180 C  
ENDBRANCH  23  24
ENDBRANCH  22  23
ENDBRANCH  21  22
ENDBRANCH  18  21
ENDBRANCH  17  18
ENDBRANCH  16  17
ENDBRANCH  15  16
ENDBRANCH  14  15
ENDBRANCH  13  14
ENDBRANCH  12  13
ENDBRANCH  11  12
ENDBRANCH  10  11
ENDBRANCH   9  10
ENDBRANCH   8   9
ENDBRANCH   7   8
ENDBRANCH   6   7
ENDBRANCH   5   6
ENDBRANCH   4   5
ENDBRANCH   3   4
ENDBRANCH   2   3
TORSDOF 20
ENDMDL
MODEL       97
REMARK 921   NORMALIZED FREE ENERGY PREDICTED BY IDOCK:   -4.19 KCAL/MOL
REMARK 922        TOTAL FREE ENERGY PREDICTED BY IDOCK:  -11.01 KCAL/MOL
REMARK 923 INTER-LIGAND FREE ENERGY PREDICTED BY IDOCK:   -7.97 KCAL/MOL
REMARK 924 INTRA-LIGAND FREE ENERGY PREDICTED BY IDOCK:   -3.05 KCAL/MOL
REMARK 927      BINDING AFFINITY PREDICTED BY RF-SCORE:    0.00 PKD
ROOT
HETATM    1  C   UNL     1      -9.732  11.233  63.103  1.00  0.00    -0.408 C  
HETATM    2  C   UNL     1     -10.705  12.374  63.349  1.00  0.00    -0.398 C  
ENDROOT
BRANCH   2   3
HETATM    3  C   UNL     1     -12.140  11.863  63.445  1.00  0.00    -0.539 C  
BRANCH   3   4
HETATM    4  C   UNL     1     -12.869  12.493  64.628  1.00  0.00    -0.325 C  
BRANCH   4   5
HETATM    5  C   UNL     1     -12.223  13.818  65.016  1.00  0.00    -0.448 C  
BRANCH   5   6
HETATM    6  C   UNL     1     -12.346  14.059  66.516  1.00  0.00    -0.442 C  
BRANCH   6   7
HETATM    7  C   UNL     1     -11.139  14.831  67.033  1.00  0.00    -0.333 C  
BRANCH   7   8
HETATM    8  C   UNL     1      -9.854  14.273  66.436  1.00  0.00    -0.309 C  
BRANCH   8   9
HETATM    9  C   UNL     1      -9.338  13.122  67.285  1.00  0.00    -0.225 C  
BRANCH   9  10
HETATM   10  C   UNL     1      -8.696  12.056  66.412  1.00  0.00    -0.088 C  
BRANCH  10  11
HETATM   11  C   UNL     1      -9.235  10.686  66.791  1.00  0.00    -0.174 C  
BRANCH  11  12
HETATM   12  C   UNL     1     -10.747  10.725  66.918  1.00  0.00    -0.309 C  
BRANCH  12  13
HETATM   13  C   UNL     1     -11.176  10.099  68.238  1.00  0.00    -0.246 C  
BRANCH  13  14
HETATM   14  C   UNL     1     -11.714  11.175  69.159  1.00  0.00    -0.408 C  
BRANCH  14  15
HETATM   15  C   UNL     1     -12.190  10.590  70.480  1.00  0.00    -0.435 C  
BRANCH  15  16
HETATM   16  C   UNL     1     -11.115   9.658  70.993  1.00  0.00    -0.368 C  
BRANCH  16  17
HETATM   17  O   UNL     1     -11.698   8.584  71.721  1.00  0.00    -0.286 OA 
BRANCH  17  18
HETATM   18  P   UNL     1     -11.174   7.036  71.153  1.00  0.00    -0.301 P  
HETATM   19  O   UNL     1     -10.020   7.727  70.419  1.00  0.00    -0.187 OA 
HETATM   20  O   UNL     1     -12.531   6.737  70.520  1.00  0.00    -0.273 OA 
BRANCH  18  21
HETATM   21  O   UNL     1     -10.650   5.488  70.587  1.00  0.00    -0.262 OA 
BRANCH  21  22
HETATM   22  C   UNL     1      -9.542   5.537  69.692  1.00  0.00    -0.158 C  
BRANCH  22  23
HETATM   23  C   UNL     1      -9.767   4.700  68.452  1.00  0.00    -0.134 C  
BRANCH  23  24
HETATM   24  N   UNL     1      -9.898   5.499  67.137  1.00  0.00    -0.140 N  
HETATM   25  C   UNL     1      -8.572   6.197  66.907  1.00  0.00    -0.109 C  
HETATM   26  C   UNL     1     -11.007   6.544  67.273  1.00  0.00    -0.400 C  
HETATM   27  C   UNL     1     -10.210   4.580  65.970  1.00  0.00    -0.260 C  
ENDBRANCH  23  24
ENDBRANCH  22  23
ENDBRANCH  21  22
ENDBRANCH  18  21
ENDBRANCH  17  18
ENDBRANCH  16  17
ENDBRANCH  15  16
ENDBRANCH  14  15
ENDBRANCH  13  14
ENDBRANCH  12  13
ENDBRANCH  11  12
ENDBRANCH  10  11
ENDBRANCH   9  10
ENDBRANCH   8   9
ENDBRANCH   7   8
ENDBRANCH   6   7
ENDBRANCH   5   6
ENDBRANCH   4   5
ENDBRANCH   3   4
ENDBRANCH   2   3
TORSDOF 20
ENDMDL
MODEL       98
REMARK 921   NORMALIZED FREE ENERGY PREDICTED BY IDOCK:   -4.17 KCAL/MOL
REMARK 922        TOTAL FREE ENERGY PREDICTED BY IDOCK:  -10.97 KCAL/MOL
REMARK 923 INTER-LIGAND FREE ENERGY PREDICTED BY IDOCK:   -8.77 KCAL/MOL
REMARK 924 INTRA-LIGAND FREE ENERGY PREDICTED BY IDOCK:   -2.20 KCAL/MOL
REMARK 927      BINDING AFFINITY PREDICTED BY RF-SCORE:    0.00 PKD
ROOT
HETATM    1  C   UNL     1     -10.490  19.622  65.935  1.00  0.00    -0.591 C  
HETATM    2  C   UNL     1      -9.979  20.257  67.217  1.00  0.00    -0.580 C  
ENDROOT
BRANCH   2   3
HETATM    3  C   UNL     1      -9.731  19.203  68.293  1.00  0.00    -0.439 C  
BRANCH   3   4
HETATM    4  C   UNL     1      -8.255  19.144  68.673  1.00  0.00    -0.404 C  
BRANCH   4   5
HETATM    5  C   UNL     1      -7.675  17.766  68.375  1.00  0.00    -0.278 C  
BRANCH   5   6
HETATM    6  C   UNL     1      -8.776  16.793  67.970  1.00  0.00    -0.212 C  
BRANCH   6   7
HETATM    7  C   UNL     1      -8.506  16.230  66.581  1.00  0.00    -0.306 C  
BRANCH   7   8
HETATM    8  C   UNL     1      -9.486  15.109  66.261  1.00  0.00    -0.341 C  
BRANCH   8   9
HETATM    9  C   UNL     1     -10.846  15.688  65.904  1.00  0.00    -0.297 C  
BRANCH   9  10
HETATM   10  C   UNL     1     -11.492  14.889  64.783  1.00  0.00    -0.410 C  
BRANCH  10  11
HETATM   11  C   UNL     1     -10.652  13.658  64.477  1.00  0.00    -0.428 C  
BRANCH  11  12
HETATM   12  C   UNL     1     -11.538  12.435  64.322  1.00  0.00    -0.436 C  
BRANCH  12  13
HETATM   13  C   UNL     1     -11.388  11.525  65.534  1.00  0.00    -0.151 C  
BRANCH  13  14
HETATM   14  C   UNL     1      -9.946  11.536  65.999  1.00  0.00    -0.258 C  
BRANCH  14  15
HETATM   15  C   UNL     1      -9.779  10.781  67.310  1.00  0.00    -0.187 C  
BRANCH  15  16
HETATM   16  C   UNL     1     -10.906  11.190  68.232  1.00  0.00    -0.212 C  
BRANCH  16  17
HETATM   17  O   UNL     1     -10.606  10.824  69.573  1.00  0.00    -0.223 OA 
BRANCH  17  18
HETATM   18  P   UNL     1     -11.956  11.031  70.635  1.00  0.00    -0.285 P  
HETATM   19  O   UNL     1     -11.387   9.922  71.527  1.00  0.00    -0.343 OA 
HETATM   20  O   UNL     1     -12.960  10.790  69.510  1.00  0.00    -0.118 OA 
BRANCH  18  21
HETATM   21  O   UNL     1     -13.306  11.238  71.697  1.00  0.00    -0.356 OA 
BRANCH  21  22
HETATM   22  C   UNL     1     -13.630  12.599  71.971  1.00  0.00    -0.332 C  
BRANCH  22  23
HETATM   23  C   UNL     1     -12.426  13.509  71.863  1.00  0.00    -0.004 C  
BRANCH  23  24
HETATM   24  N   UNL     1     -12.701  14.886  71.222  1.00  0.00    -0.315 N  
HETATM   25  C   UNL     1     -12.216  14.812  69.787  1.00  0.00    -0.294 C  
HETATM   26  C   UNL     1     -11.921  15.971  71.968  1.00  0.00    -0.537 C  
HETATM   27  C   UNL     1     -14.182  15.216  71.253  1.00  0.00    -0.429 C  
ENDBRANCH  23  24
ENDBRANCH  22  23
ENDBRANCH  21  22
ENDBRANCH  18  21
ENDBRANCH  17  18
ENDBRANCH  16  17
ENDBRANCH  15  16
ENDBRANCH  14  15
ENDBRANCH  13  14
ENDBRANCH  12  13
ENDBRANCH  11  12
ENDBRANCH  10  11
ENDBRANCH   9  10
ENDBRANCH   8   9
ENDBRANCH   7   8
ENDBRANCH   6   7
ENDBRANCH   5   6
ENDBRANCH   4   5
ENDBRANCH   3   4
ENDBRANCH   2   3
TORSDOF 20
ENDMDL
MODEL       99
REMARK 921   NORMALIZED FREE ENERGY PREDICTED BY IDOCK:   -4.15 KCAL/MOL
REMARK 922        TOTAL FREE ENERGY PREDICTED BY IDOCK:  -10.93 KCAL/MOL
REMARK 923 INTER-LIGAND FREE ENERGY PREDICTED BY IDOCK:   -8.65 KCAL/MOL
REMARK 924 INTRA-LIGAND FREE ENERGY PREDICTED BY IDOCK:   -2.28 KCAL/MOL
REMARK 927      BINDING AFFINITY PREDICTED BY RF-SCORE:    0.00 PKD
ROOT
HETATM    1  C   UNL     1     -14.403  15.038  71.878  1.00  0.00    -0.677 C  
HETATM    2  C   UNL     1     -13.068  15.051  72.603  1.00  0.00    -0.509 C  
ENDROOT
BRANCH   2   3
HETATM    3  C   UNL     1     -12.143  16.125  72.035  1.00  0.00    -0.572 C  
BRANCH   3   4
HETATM    4  C   UNL     1     -11.201  15.539  70.989  1.00  0.00    -0.419 C  
BRANCH   4   5
HETATM    5  C   UNL     1     -11.620  15.965  69.586  1.00  0.00    -0.339 C  
BRANCH   5   6
HETATM    6  C   UNL     1     -11.805  14.749  68.686  1.00  0.00    -0.334 C  
BRANCH   6   7
HETATM    7  C   UNL     1     -11.347  13.483  69.399  1.00  0.00    -0.293 C  
BRANCH   7   8
HETATM    8  C   UNL     1     -11.929  12.250  68.720  1.00  0.00    -0.281 C  
BRANCH   8   9
HETATM    9  C   UNL     1     -12.203  11.165  69.751  1.00  0.00    -0.369 C  
BRANCH   9  10
HETATM   10  C   UNL     1     -12.499  11.779  71.110  1.00  0.00    -0.390 C  
BRANCH  10  11
HETATM   11  C   UNL     1     -13.268  10.786  71.968  1.00  0.00    -0.466 C  
BRANCH  11  12
HETATM   12  C   UNL     1     -12.722   9.382  71.775  1.00  0.00    -0.476 C  
BRANCH  12  13
HETATM   13  C   UNL     1     -13.869   8.396  71.604  1.00  0.00    -0.428 C  
BRANCH  13  14
HETATM   14  C   UNL     1     -13.317   6.986  71.529  1.00  0.00    -0.370 C  
BRANCH  14  15
HETATM   15  C   UNL     1     -11.801   6.975  71.664  1.00  0.00    -0.348 C  
BRANCH  15  16
HETATM   16  C   UNL     1     -11.227   6.330  70.422  1.00  0.00    -0.373 C  
BRANCH  16  17
HETATM   17  O   UNL     1      -9.833   6.595  70.328  1.00  0.00    -0.174 OA 
BRANCH  17  18
HETATM   18  P   UNL     1      -9.426   7.517  68.921  1.00  0.00    -0.145 P  
HETATM   19  O   UNL     1      -9.232   8.745  69.817  1.00  0.00    -0.149 OA 
HETATM   20  O   UNL     1     -10.742   7.163  68.231  1.00  0.00    -0.201 OA 
BRANCH  18  21
HETATM   21  O   UNL     1      -9.019   8.438  67.514  1.00  0.00    -0.134 OA 
BRANCH  21  22
HETATM   22  C   UNL     1      -9.951   9.470  67.202  1.00  0.00    -0.204 C  
BRANCH  22  23
HETATM   23  C   UNL     1     -10.167   9.616  65.712  1.00  0.00    -0.102 C  
BRANCH  23  24
HETATM   24  N   UNL     1      -9.416  10.793  65.053  1.00  0.00    -0.224 N  
HETATM   25  C   UNL     1      -9.296  11.884  66.099  1.00  0.00    -0.219 C  
HETATM   26  C   UNL     1     -10.217  11.317  63.859  1.00  0.00    -0.365 C  
HETATM   27  C   UNL     1      -8.035  10.367  64.588  1.00  0.00    -0.092 C  
ENDBRANCH  23  24
ENDBRANCH  22  23
ENDBRANCH  21  22
ENDBRANCH  18  21
ENDBRANCH  17  18
ENDBRANCH  16  17
ENDBRANCH  15  16
ENDBRANCH  14  15
ENDBRANCH  13  14
ENDBRANCH  12  13
ENDBRANCH  11  12
ENDBRANCH  10  11
ENDBRANCH   9  10
ENDBRANCH   8   9
ENDBRANCH   7   8
ENDBRANCH   6   7
ENDBRANCH   5   6
ENDBRANCH   4   5
ENDBRANCH   3   4
ENDBRANCH   2   3
TORSDOF 20
ENDMDL
MODEL      100
REMARK 921   NORMALIZED FREE ENERGY PREDICTED BY IDOCK:   -4.15 KCAL/MOL
REMARK 922        TOTAL FREE ENERGY PREDICTED BY IDOCK:  -10.91 KCAL/MOL
REMARK 923 INTER-LIGAND FREE ENERGY PREDICTED BY IDOCK:   -9.37 KCAL/MOL
REMARK 924 INTRA-LIGAND FREE ENERGY PREDICTED BY IDOCK:   -1.54 KCAL/MOL
REMARK 927      BINDING AFFINITY PREDICTED BY RF-SCORE:    0.00 PKD
ROOT
HETATM    1  C   UNL     1      -6.336  17.381  67.163  1.00  0.00    -0.189 C  
HETATM    2  C   UNL     1      -7.617  17.353  66.347  1.00  0.00    -0.342 C  
ENDROOT
BRANCH   2   3
HETATM    3  C   UNL     1      -8.408  18.647  66.520  1.00  0.00    -0.304 C  
BRANCH   3   4
HETATM    4  C   UNL     1      -9.898  18.414  66.290  1.00  0.00    -0.338 C  
BRANCH   4   5
HETATM    5  C   UNL     1     -10.641  18.321  67.619  1.00  0.00    -0.427 C  
BRANCH   5   6
HETATM    6  C   UNL     1     -10.933  16.867  67.973  1.00  0.00    -0.271 C  
BRANCH   6   7
HETATM    7  C   UNL     1     -10.085  16.426  69.158  1.00  0.00    -0.278 C  
BRANCH   7   8
HETATM    8  C   UNL     1     -10.805  15.347  69.956  1.00  0.00    -0.320 C  
BRANCH   8   9
HETATM    9  C   UNL     1     -11.849  15.977  70.865  1.00  0.00    -0.409 C  
BRANCH   9  10
HETATM   10  C   UNL     1     -11.679  15.489  72.295  1.00  0.00    -0.578 C  
BRANCH  10  11
HETATM   11  C   UNL     1     -13.043  15.246  72.923  1.00  0.00    -0.592 C  
BRANCH  11  12
HETATM   12  C   UNL     1     -13.892  14.364  72.024  1.00  0.00    -0.567 C  
BRANCH  12  13
HETATM   13  C   UNL     1     -13.465  12.909  72.166  1.00  0.00    -0.619 C  
BRANCH  13  14
HETATM   14  C   UNL     1     -12.816  12.445  70.877  1.00  0.00    -0.176 C  
BRANCH  14  15
HETATM   15  C   UNL     1     -12.230  11.048  71.022  1.00  0.00    -0.456 C  
BRANCH  15  16
HETATM   16  C   UNL     1     -13.362  10.096  71.337  1.00  0.00    -0.325 C  
BRANCH  16  17
HETATM   17  O   UNL     1     -12.969   9.175  72.347  1.00  0.00    -0.410 OA 
BRANCH  17  18
HETATM   18  P   UNL     1     -12.317   7.712  71.693  1.00  0.00    -0.345 P  
HETATM   19  O   UNL     1     -13.746   7.186  71.519  1.00  0.00    -0.377 OA 
HETATM   20  O   UNL     1     -11.461   7.464  72.933  1.00  0.00    -0.298 OA 
BRANCH  18  21
HETATM   21  O   UNL     1     -11.665   6.249  71.038  1.00  0.00    -0.319 OA 
BRANCH  21  22
HETATM   22  C   UNL     1     -10.932   6.427  69.828  1.00  0.00    -0.356 C  
BRANCH  22  23
HETATM   23  C   UNL     1     -10.496   7.861  69.626  1.00  0.00    -0.226 C  
BRANCH  23  24
HETATM   24  N   UNL     1     -10.076   8.221  68.184  1.00  0.00    -0.192 N  
HETATM   25  C   UNL     1     -10.801   7.264  67.259  1.00  0.00    -0.284 C  
HETATM   26  C   UNL     1      -8.565   8.039  68.024  1.00  0.00    -0.129 C  
HETATM   27  C   UNL     1     -10.452   9.653  67.849  1.00  0.00    -0.246 C  
ENDBRANCH  23  24
ENDBRANCH  22  23
ENDBRANCH  21  22
ENDBRANCH  18  21
ENDBRANCH  17  18
ENDBRANCH  16  17
ENDBRANCH  15  16
ENDBRANCH  14  15
ENDBRANCH  13  14
ENDBRANCH  12  13
ENDBRANCH  11  12
ENDBRANCH  10  11
ENDBRANCH   9  10
ENDBRANCH   8   9
ENDBRANCH   7   8
ENDBRANCH   6   7
ENDBRANCH   5   6
ENDBRANCH   4   5
ENDBRANCH   3   4
ENDBRANCH   2   3
TORSDOF 20
ENDMDL
MODEL      101
REMARK 921   NORMALIZED FREE ENERGY PREDICTED BY IDOCK:   -4.14 KCAL/MOL
REMARK 922        TOTAL FREE ENERGY PREDICTED BY IDOCK:  -10.91 KCAL/MOL
REMARK 923 INTER-LIGAND FREE ENERGY PREDICTED BY IDOCK:   -8.90 KCAL/MOL
REMARK 924 INTRA-LIGAND FREE ENERGY PREDICTED BY IDOCK:   -2.00 KCAL/MOL
REMARK 927      BINDING AFFINITY PREDICTED BY RF-SCORE:    0.00 PKD
ROOT
HETATM    1  C   UNL     1     -12.854  10.781  71.537  1.00  0.00    -0.567 C  
HETATM    2  C   UNL     1     -13.014   9.317  71.910  1.00  0.00    -0.489 C  
ENDROOT
BRANCH   2   3
HETATM    3  C   UNL     1     -11.668   8.596  71.900  1.00  0.00    -0.422 C  
BRANCH   3   4
HETATM    4  C   UNL     1     -11.812   7.174  71.368  1.00  0.00    -0.344 C  
BRANCH   4   5
HETATM    5  C   UNL     1     -10.445   6.516  71.208  1.00  0.00    -0.250 C  
BRANCH   5   6
HETATM    6  C   UNL     1     -10.379   5.718  69.911  1.00  0.00    -0.330 C  
BRANCH   6   7
HETATM    7  C   UNL     1     -11.246   6.367  68.840  1.00  0.00    -0.385 C  
BRANCH   7   8
HETATM    8  C   UNL     1     -10.827   5.892  67.455  1.00  0.00    -0.335 C  
BRANCH   8   9
HETATM    9  C   UNL     1      -9.693   6.757  66.926  1.00  0.00    -0.215 C  
BRANCH   9  10
HETATM   10  C   UNL     1     -10.062   8.230  67.001  1.00  0.00    -0.353 C  
BRANCH  10  11
HETATM   11  C   UNL     1      -8.804   9.068  67.168  1.00  0.00    -0.130 C  
BRANCH  11  12
HETATM   12  C   UNL     1      -8.667   9.540  68.606  1.00  0.00    -0.127 C  
BRANCH  12  13
HETATM   13  C   UNL     1     -10.037   9.866  69.181  1.00  0.00    -0.210 C  
BRANCH  13  14
HETATM   14  C   UNL     1     -10.403  11.296  68.840  1.00  0.00    -0.214 C  
BRANCH  14  15
HETATM   15  C   UNL     1     -11.702  11.365  68.051  1.00  0.00    -0.324 C  
BRANCH  15  16
HETATM   16  C   UNL     1     -11.357  11.654  66.607  1.00  0.00    -0.270 C  
BRANCH  16  17
HETATM   17  O   UNL     1     -12.078  12.788  66.143  1.00  0.00    -0.455 OA 
BRANCH  17  18
HETATM   18  P   UNL     1     -11.131  14.235  66.172  1.00  0.00    -0.339 P  
HETATM   19  O   UNL     1     -11.773  14.595  67.516  1.00  0.00    -0.365 OA 
HETATM   20  O   UNL     1     -11.670  14.692  64.818  1.00  0.00    -0.391 OA 
BRANCH  18  21
HETATM   21  O   UNL     1     -10.182  15.682  66.201  1.00  0.00    -0.275 OA 
BRANCH  21  22
HETATM   22  C   UNL     1      -9.979  16.221  67.504  1.00  0.00    -0.248 C  
BRANCH  22  23
HETATM   23  C   UNL     1     -10.727  17.520  67.711  1.00  0.00    -0.332 C  
BRANCH  23  24
HETATM   24  N   UNL     1      -9.938  18.796  67.346  1.00  0.00    -0.321 N  
HETATM   25  C   UNL     1     -10.125  19.776  68.488  1.00  0.00    -0.445 C  
HETATM   26  C   UNL     1     -10.500  19.402  66.058  1.00  0.00    -0.505 C  
HETATM   27  C   UNL     1      -8.463  18.491  67.161  1.00  0.00    -0.265 C  
ENDBRANCH  23  24
ENDBRANCH  22  23
ENDBRANCH  21  22
ENDBRANCH  18  21
ENDBRANCH  17  18
ENDBRANCH  16  17
ENDBRANCH  15  16
ENDBRANCH  14  15
ENDBRANCH  13  14
ENDBRANCH  12  13
ENDBRANCH  11  12
ENDBRANCH  10  11
ENDBRANCH   9  10
ENDBRANCH   8   9
ENDBRANCH   7   8
ENDBRANCH   6   7
ENDBRANCH   5   6
ENDBRANCH   4   5
ENDBRANCH   3   4
ENDBRANCH   2   3
TORSDOF 20
ENDMDL
MODEL      102
REMARK 921   NORMALIZED FREE ENERGY PREDICTED BY IDOCK:   -4.14 KCAL/MOL
REMARK 922        TOTAL FREE ENERGY PREDICTED BY IDOCK:  -10.89 KCAL/MOL
REMARK 923 INTER-LIGAND FREE ENERGY PREDICTED BY IDOCK:   -8.95 KCAL/MOL
REMARK 924 INTRA-LIGAND FREE ENERGY PREDICTED BY IDOCK:   -1.94 KCAL/MOL
REMARK 927      BINDING AFFINITY PREDICTED BY RF-SCORE:    0.00 PKD
ROOT
HETATM    1  C   UNL     1     -12.537  15.949  74.240  1.00  0.00    -0.725 C  
HETATM    2  C   UNL     1     -13.021  14.776  73.403  1.00  0.00    -0.550 C  
ENDROOT
BRANCH   2   3
HETATM    3  C   UNL     1     -13.909  15.248  72.255  1.00  0.00    -0.632 C  
BRANCH   3   4
HETATM    4  C   UNL     1     -13.211  15.067  70.911  1.00  0.00    -0.453 C  
BRANCH   4   5
HETATM    5  C   UNL     1     -12.083  14.047  71.023  1.00  0.00    -0.383 C  
BRANCH   5   6
HETATM    6  C   UNL     1     -12.273  12.920  70.014  1.00  0.00    -0.292 C  
BRANCH   6   7
HETATM    7  C   UNL     1     -12.214  11.567  70.710  1.00  0.00    -0.463 C  
BRANCH   7   8
HETATM    8  C   UNL     1     -11.421  10.572  69.872  1.00  0.00    -0.384 C  
BRANCH   8   9
HETATM    9  C   UNL     1     -11.515   9.182  70.483  1.00  0.00    -0.271 C  
BRANCH   9  10
HETATM   10  C   UNL     1     -10.774   9.127  71.810  1.00  0.00    -0.405 C  
BRANCH  10  11
HETATM   11  C   UNL     1      -9.291   8.901  71.564  1.00  0.00    -0.335 C  
BRANCH  11  12
HETATM   12  C   UNL     1      -9.084   7.968  70.384  1.00  0.00    -0.150 C  
BRANCH  12  13
HETATM   13  C   UNL     1      -7.985   8.507  69.478  1.00  0.00    -0.106 C  
BRANCH  13  14
HETATM   14  C   UNL     1      -7.726   9.963  69.810  1.00  0.00    -0.159 C  
BRANCH  14  15
HETATM   15  C   UNL     1      -7.578  10.803  68.549  1.00  0.00    -0.104 C  
BRANCH  15  16
HETATM   16  C   UNL     1      -8.652  10.375  67.574  1.00  0.00    -0.125 C  
BRANCH  16  17
HETATM   17  O   UNL     1      -8.162  10.436  66.240  1.00  0.00    -0.133 OA 
BRANCH  17  18
HETATM   18  P   UNL     1      -9.416  10.734  65.086  1.00  0.00    -0.263 P  
HETATM   19  O   UNL     1     -10.280   9.687  65.797  1.00  0.00    -0.261 OA 
HETATM   20  O   UNL     1      -8.494  10.424  63.909  1.00  0.00    -0.169 OA 
BRANCH  18  21
HETATM   21  O   UNL     1     -10.669  11.034  63.932  1.00  0.00    -0.369 OA 
BRANCH  21  22
HETATM   22  C   UNL     1     -11.036  12.406  63.810  1.00  0.00    -0.447 C  
BRANCH  22  23
HETATM   23  C   UNL     1     -10.218  13.301  64.715  1.00  0.00    -0.304 C  
BRANCH  23  24
HETATM   24  N   UNL     1     -11.039  14.203  65.661  1.00  0.00    -0.301 N  
HETATM   25  C   UNL     1     -10.589  13.891  67.075  1.00  0.00    -0.279 C  
HETATM   26  C   UNL     1     -12.529  13.884  65.518  1.00  0.00    -0.511 C  
HETATM   27  C   UNL     1     -10.804  15.671  65.355  1.00  0.00    -0.381 C  
ENDBRANCH  23  24
ENDBRANCH  22  23
ENDBRANCH  21  22
ENDBRANCH  18  21
ENDBRANCH  17  18
ENDBRANCH  16  17
ENDBRANCH  15  16
ENDBRANCH  14  15
ENDBRANCH  13  14
ENDBRANCH  12  13
ENDBRANCH  11  12
ENDBRANCH  10  11
ENDBRANCH   9  10
ENDBRANCH   8   9
ENDBRANCH   7   8
ENDBRANCH   6   7
ENDBRANCH   5   6
ENDBRANCH   4   5
ENDBRANCH   3   4
ENDBRANCH   2   3
TORSDOF 20
ENDMDL
MODEL      103
REMARK 921   NORMALIZED FREE ENERGY PREDICTED BY IDOCK:   -4.13 KCAL/MOL
REMARK 922        TOTAL FREE ENERGY PREDICTED BY IDOCK:  -10.89 KCAL/MOL
REMARK 923 INTER-LIGAND FREE ENERGY PREDICTED BY IDOCK:   -8.82 KCAL/MOL
REMARK 924 INTRA-LIGAND FREE ENERGY PREDICTED BY IDOCK:   -2.07 KCAL/MOL
REMARK 927      BINDING AFFINITY PREDICTED BY RF-SCORE:    0.00 PKD
ROOT
HETATM    1  C   UNL     1     -13.006  10.586  71.528  1.00  0.00    -0.565 C  
HETATM    2  C   UNL     1     -13.409   9.208  72.023  1.00  0.00    -0.507 C  
ENDROOT
BRANCH   2   3
HETATM    3  C   UNL     1     -12.210   8.264  72.066  1.00  0.00    -0.398 C  
BRANCH   3   4
HETATM    4  C   UNL     1     -11.008   8.872  71.350  1.00  0.00    -0.380 C  
BRANCH   4   5
HETATM    5  C   UNL     1     -10.416   7.882  70.352  1.00  0.00    -0.218 C  
BRANCH   5   6
HETATM    6  C   UNL     1     -11.361   6.707  70.133  1.00  0.00    -0.440 C  
BRANCH   6   7
HETATM    7  C   UNL     1     -10.800   5.759  69.082  1.00  0.00    -0.355 C  
BRANCH   7   8
HETATM    8  C   UNL     1     -11.105   6.276  67.682  1.00  0.00    -0.368 C  
BRANCH   8   9
HETATM    9  C   UNL     1      -9.970   5.921  66.734  1.00  0.00    -0.212 C  
BRANCH   9  10
HETATM   10  C   UNL     1      -9.163   7.159  66.375  1.00  0.00    -0.196 C  
BRANCH  10  11
HETATM   11  C   UNL     1     -10.037   8.397  66.496  1.00  0.00    -0.317 C  
BRANCH  11  12
HETATM   12  C   UNL     1      -9.286   9.627  66.017  1.00  0.00    -0.263 C  
BRANCH  12  13
HETATM   13  C   UNL     1      -9.971  10.888  66.526  1.00  0.00    -0.255 C  
BRANCH  13  14
HETATM   14  C   UNL     1     -10.807  10.553  67.745  1.00  0.00    -0.347 C  
BRANCH  14  15
HETATM   15  C   UNL     1     -11.646  11.743  68.188  1.00  0.00    -0.391 C  
BRANCH  15  16
HETATM   16  C   UNL     1     -11.670  12.745  67.056  1.00  0.00    -0.374 C  
BRANCH  16  17
HETATM   17  O   UNL     1     -12.085  14.019  67.532  1.00  0.00    -0.391 OA 
BRANCH  17  18
HETATM   18  P   UNL     1     -10.787  15.161  67.590  1.00  0.00    -0.309 P  
HETATM   19  O   UNL     1     -10.086  14.378  66.475  1.00  0.00    -0.262 OA 
HETATM   20  O   UNL     1     -10.555  14.919  69.079  1.00  0.00    -0.231 OA 
BRANCH  18  21
HETATM   21  O   UNL     1      -9.489  16.304  67.647  1.00  0.00    -0.219 OA 
BRANCH  21  22
HETATM   22  C   UNL     1      -9.443  17.192  66.533  1.00  0.00    -0.273 C  
BRANCH  22  23
HETATM   23  C   UNL     1      -8.163  17.998  66.495  1.00  0.00    -0.271 C  
BRANCH  23  24
HETATM   24  N   UNL     1      -8.285  19.447  67.016  1.00  0.00    -0.265 N  
HETATM   25  C   UNL     1      -7.086  20.210  66.489  1.00  0.00    -0.251 C  
HETATM   26  C   UNL     1      -8.260  19.452  68.545  1.00  0.00    -0.357 C  
HETATM   27  C   UNL     1      -9.568  20.095  66.528  1.00  0.00    -0.404 C  
ENDBRANCH  23  24
ENDBRANCH  22  23
ENDBRANCH  21  22
ENDBRANCH  18  21
ENDBRANCH  17  18
ENDBRANCH  16  17
ENDBRANCH  15  16
ENDBRANCH  14  15
ENDBRANCH  13  14
ENDBRANCH  12  13
ENDBRANCH  11  12
ENDBRANCH  10  11
ENDBRANCH   9  10
ENDBRANCH   8   9
ENDBRANCH   7   8
ENDBRANCH   6   7
ENDBRANCH   5   6
ENDBRANCH   4   5
ENDBRANCH   3   4
ENDBRANCH   2   3
TORSDOF 20
ENDMDL
MODEL      104
REMARK 921   NORMALIZED FREE ENERGY PREDICTED BY IDOCK:   -4.13 KCAL/MOL
REMARK 922        TOTAL FREE ENERGY PREDICTED BY IDOCK:  -10.88 KCAL/MOL
REMARK 923 INTER-LIGAND FREE ENERGY PREDICTED BY IDOCK:   -8.65 KCAL/MOL
REMARK 924 INTRA-LIGAND FREE ENERGY PREDICTED BY IDOCK:   -2.23 KCAL/MOL
REMARK 927      BINDING AFFINITY PREDICTED BY RF-SCORE:    0.00 PKD
ROOT
HETATM    1  C   UNL     1     -10.922   7.644  73.012  1.00  0.00    -0.457 C  
HETATM    2  C   UNL     1     -12.216   8.267  72.517  1.00  0.00    -0.367 C  
ENDROOT
BRANCH   2   3
HETATM    3  C   UNL     1     -12.317   8.191  70.995  1.00  0.00    -0.152 C  
BRANCH   3   4
HETATM    4  C   UNL     1     -11.124   8.871  70.332  1.00  0.00    -0.270 C  
BRANCH   4   5
HETATM    5  C   UNL     1     -10.306   7.865  69.529  1.00  0.00    -0.217 C  
BRANCH   5   6
HETATM    6  C   UNL     1     -11.061   6.549  69.384  1.00  0.00    -0.407 C  
BRANCH   6   7
HETATM    7  C   UNL     1     -10.339   5.624  68.413  1.00  0.00    -0.258 C  
BRANCH   7   8
HETATM    8  C   UNL     1     -10.645   6.018  66.974  1.00  0.00    -0.385 C  
BRANCH   8   9
HETATM    9  C   UNL     1      -9.370   6.003  66.145  1.00  0.00    -0.140 C  
BRANCH   9  10
HETATM   10  C   UNL     1      -8.316   6.906  66.767  1.00  0.00    -0.116 C  
BRANCH  10  11
HETATM   11  C   UNL     1      -7.671   7.763  65.689  1.00  0.00    -0.101 C  
BRANCH  11  12
HETATM   12  C   UNL     1      -8.636   8.833  65.211  1.00  0.00    -0.212 C  
BRANCH  12  13
HETATM   13  C   UNL     1      -9.077   9.700  66.383  1.00  0.00    -0.191 C  
BRANCH  13  14
HETATM   14  C   UNL     1     -10.574   9.923  66.313  1.00  0.00    -0.089 C  
BRANCH  14  15
HETATM   15  C   UNL     1     -11.056  10.821  67.443  1.00  0.00    -0.363 C  
BRANCH  15  16
HETATM   16  C   UNL     1     -11.404  12.169  66.853  1.00  0.00    -0.343 C  
BRANCH  16  17
HETATM   17  O   UNL     1     -12.160  12.006  65.659  1.00  0.00    -0.508 OA 
BRANCH  17  18
HETATM   18  P   UNL     1     -12.358  13.489  64.791  1.00  0.00    -0.352 P  
HETATM   19  O   UNL     1     -13.481  13.874  65.760  1.00  0.00    -0.464 OA 
HETATM   20  O   UNL     1     -12.584  12.759  63.469  1.00  0.00    -0.703 OA 
BRANCH  18  21
HETATM   21  O   UNL     1     -12.554  14.973  63.923  1.00  0.00    -0.813 OA 
BRANCH  21  22
HETATM   22  C   UNL     1     -11.563  15.954  64.212  1.00  0.00    -0.178 C  
BRANCH  22  23
HETATM   23  C   UNL     1     -10.455  15.411  65.087  1.00  0.00    -0.411 C  
BRANCH  23  24
HETATM   24  N   UNL     1     -10.038  16.325  66.260  1.00  0.00    -0.306 N  
HETATM   25  C   UNL     1      -8.523  16.387  66.258  1.00  0.00    -0.337 C  
HETATM   26  C   UNL     1     -10.521  15.725  67.582  1.00  0.00    -0.282 C  
HETATM   27  C   UNL     1     -10.615  17.719  66.096  1.00  0.00    -0.235 C  
ENDBRANCH  23  24
ENDBRANCH  22  23
ENDBRANCH  21  22
ENDBRANCH  18  21
ENDBRANCH  17  18
ENDBRANCH  16  17
ENDBRANCH  15  16
ENDBRANCH  14  15
ENDBRANCH  13  14
ENDBRANCH  12  13
ENDBRANCH  11  12
ENDBRANCH  10  11
ENDBRANCH   9  10
ENDBRANCH   8   9
ENDBRANCH   7   8
ENDBRANCH   6   7
ENDBRANCH   5   6
ENDBRANCH   4   5
ENDBRANCH   3   4
ENDBRANCH   2   3
TORSDOF 20
ENDMDL
MODEL      105
REMARK 921   NORMALIZED FREE ENERGY PREDICTED BY IDOCK:   -4.13 KCAL/MOL
REMARK 922        TOTAL FREE ENERGY PREDICTED BY IDOCK:  -10.88 KCAL/MOL
REMARK 923 INTER-LIGAND FREE ENERGY PREDICTED BY IDOCK:   -8.43 KCAL/MOL
REMARK 924 INTRA-LIGAND FREE ENERGY PREDICTED BY IDOCK:   -2.44 KCAL/MOL
REMARK 927      BINDING AFFINITY PREDICTED BY RF-SCORE:    0.00 PKD
ROOT
HETATM    1  C   UNL     1     -10.092   4.408  65.656  1.00  0.00    -0.256 C  
HETATM    2  C   UNL     1      -9.773   5.647  66.476  1.00  0.00    -0.181 C  
ENDROOT
BRANCH   2   3
HETATM    3  C   UNL     1     -11.035   6.229  67.108  1.00  0.00    -0.453 C  
BRANCH   3   4
HETATM    4  C   UNL     1     -11.029   6.036  68.621  1.00  0.00    -0.361 C  
BRANCH   4   5
HETATM    5  C   UNL     1      -9.601   5.949  69.149  1.00  0.00    -0.166 C  
BRANCH   5   6
HETATM    6  C   UNL     1      -9.586   5.995  70.672  1.00  0.00    -0.201 C  
BRANCH   6   7
HETATM    7  C   UNL     1     -11.006   6.034  71.219  1.00  0.00    -0.340 C  
BRANCH   7   8
HETATM    8  C   UNL     1     -11.013   6.565  72.647  1.00  0.00    -0.287 C  
BRANCH   8   9
HETATM    9  C   UNL     1     -11.520   7.999  72.670  1.00  0.00    -0.465 C  
BRANCH   9  10
HETATM   10  C   UNL     1     -12.452   8.258  71.497  1.00  0.00    -0.340 C  
BRANCH  10  11
HETATM   11  C   UNL     1     -12.497   9.747  71.192  1.00  0.00    -0.443 C  
BRANCH  11  12
HETATM   12  C   UNL     1     -11.175  10.210  70.603  1.00  0.00    -0.418 C  
BRANCH  12  13
HETATM   13  C   UNL     1     -10.807   9.347  69.404  1.00  0.00    -0.208 C  
BRANCH  13  14
HETATM   14  C   UNL     1     -10.059  10.186  68.388  1.00  0.00    -0.184 C  
BRANCH  14  15
HETATM   15  C   UNL     1     -10.338   9.717  66.967  1.00  0.00    -0.305 C  
BRANCH  15  16
HETATM   16  C   UNL     1      -9.801  10.763  66.016  1.00  0.00    -0.235 C  
BRANCH  16  17
HETATM   17  O   UNL     1     -10.750  11.034  64.991  1.00  0.00    -0.274 OA 
BRANCH  17  18
HETATM   18  P   UNL     1     -11.122  12.718  64.858  1.00  0.00    -0.327 P  
HETATM   19  O   UNL     1     -12.598  12.382  65.096  1.00  0.00    -0.622 OA 
HETATM   20  O   UNL     1     -10.480  12.816  63.476  1.00  0.00    -0.333 OA 
BRANCH  18  21
HETATM   21  O   UNL     1     -11.492  14.403  64.726  1.00  0.00    -0.368 OA 
BRANCH  21  22
HETATM   22  C   UNL     1     -10.762  15.234  65.624  1.00  0.00    -0.365 C  
BRANCH  22  23
HETATM   23  C   UNL     1      -9.992  14.432  66.651  1.00  0.00    -0.272 C  
BRANCH  23  24
HETATM   24  N   UNL     1     -10.310  14.776  68.123  1.00  0.00    -0.236 N  
HETATM   25  C   UNL     1     -11.041  16.103  68.121  1.00  0.00    -0.332 C  
HETATM   26  C   UNL     1      -9.008  14.912  68.916  1.00  0.00    -0.184 C  
HETATM   27  C   UNL     1     -11.179  13.705  68.757  1.00  0.00    -0.279 C  
ENDBRANCH  23  24
ENDBRANCH  22  23
ENDBRANCH  21  22
ENDBRANCH  18  21
ENDBRANCH  17  18
ENDBRANCH  16  17
ENDBRANCH  15  16
ENDBRANCH  14  15
ENDBRANCH  13  14
ENDBRANCH  12  13
ENDBRANCH  11  12
ENDBRANCH  10  11
ENDBRANCH   9  10
ENDBRANCH   8   9
ENDBRANCH   7   8
ENDBRANCH   6   7
ENDBRANCH   5   6
ENDBRANCH   4   5
ENDBRANCH   3   4
ENDBRANCH   2   3
TORSDOF 20
ENDMDL
MODEL      106
REMARK 921   NORMALIZED FREE ENERGY PREDICTED BY IDOCK:   -4.10 KCAL/MOL
REMARK 922        TOTAL FREE ENERGY PREDICTED BY IDOCK:  -10.82 KCAL/MOL
REMARK 923 INTER-LIGAND FREE ENERGY PREDICTED BY IDOCK:   -8.84 KCAL/MOL
REMARK 924 INTRA-LIGAND FREE ENERGY PREDICTED BY IDOCK:   -1.99 KCAL/MOL
REMARK 927      BINDING AFFINITY PREDICTED BY RF-SCORE:    0.00 PKD
ROOT
HETATM    1  C   UNL     1      -7.363  19.255  68.112  1.00  0.00    -0.316 C  
HETATM    2  C   UNL     1      -8.460  19.910  67.290  1.00  0.00    -0.375 C  
ENDROOT
BRANCH   2   3
HETATM    3  C   UNL     1      -9.823  19.742  67.957  1.00  0.00    -0.533 C  
BRANCH   3   4
HETATM    4  C   UNL     1     -10.486  18.437  67.530  1.00  0.00    -0.445 C  
BRANCH   4   5
HETATM    5  C   UNL     1     -10.529  18.326  66.010  1.00  0.00    -0.380 C  
BRANCH   5   6
HETATM    6  C   UNL     1     -10.798  16.888  65.582  1.00  0.00    -0.082 C  
BRANCH   6   7
HETATM    7  C   UNL     1      -9.660  15.978  66.021  1.00  0.00    -0.385 C  
BRANCH   7   8
HETATM    8  C   UNL     1     -10.124  14.528  66.068  1.00  0.00    -0.336 C  
BRANCH   8   9
HETATM    9  C   UNL     1     -11.567  14.455  66.542  1.00  0.00    -0.388 C  
BRANCH   9  10
HETATM   10  C   UNL     1     -12.379  13.531  65.648  1.00  0.00    -0.522 C  
BRANCH  10  11
HETATM   11  C   UNL     1     -12.084  13.835  64.188  1.00  0.00    -0.478 C  
BRANCH  11  12
HETATM   12  C   UNL     1     -11.938  12.548  63.396  1.00  0.00    -0.602 C  
BRANCH  12  13
HETATM   13  C   UNL     1     -10.478  12.116  63.366  1.00  0.00    -0.450 C  
BRANCH  13  14
HETATM   14  C   UNL     1     -10.292  10.898  64.248  1.00  0.00    -0.436 C  
BRANCH  14  15
HETATM   15  C   UNL     1      -8.854  10.776  64.731  1.00  0.00    -0.162 C  
BRANCH  15  16
HETATM   16  C   UNL     1      -8.883  10.474  66.212  1.00  0.00    -0.159 C  
BRANCH  16  17
HETATM   17  O   UNL     1     -10.032  11.058  66.814  1.00  0.00    -0.192 OA 
BRANCH  17  18
HETATM   18  P   UNL     1     -10.589  10.164  68.187  1.00  0.00    -0.252 P  
HETATM   19  O   UNL     1     -10.786   8.946  67.279  1.00  0.00    -0.273 OA 
HETATM   20  O   UNL     1     -11.681  11.188  68.490  1.00  0.00    -0.353 OA 
BRANCH  18  21
HETATM   21  O   UNL     1     -11.145   9.271  69.560  1.00  0.00    -0.192 OA 
BRANCH  21  22
HETATM   22  C   UNL     1     -10.697   9.785  70.812  1.00  0.00    -0.323 C  
BRANCH  22  23
HETATM   23  C   UNL     1      -9.429   9.112  71.288  1.00  0.00    -0.243 C  
BRANCH  23  24
HETATM   24  N   UNL     1      -9.639   7.940  72.271  1.00  0.00    -0.178 N  
HETATM   25  C   UNL     1      -9.269   6.669  71.532  1.00  0.00    -0.146 C  
HETATM   26  C   UNL     1     -11.107   7.874  72.694  1.00  0.00    -0.385 C  
HETATM   27  C   UNL     1      -8.764   8.097  73.502  1.00  0.00    -0.249 C  
ENDBRANCH  23  24
ENDBRANCH  22  23
ENDBRANCH  21  22
ENDBRANCH  18  21
ENDBRANCH  17  18
ENDBRANCH  16  17
ENDBRANCH  15  16
ENDBRANCH  14  15
ENDBRANCH  13  14
ENDBRANCH  12  13
ENDBRANCH  11  12
ENDBRANCH  10  11
ENDBRANCH   9  10
ENDBRANCH   8   9
ENDBRANCH   7   8
ENDBRANCH   6   7
ENDBRANCH   5   6
ENDBRANCH   4   5
ENDBRANCH   3   4
ENDBRANCH   2   3
TORSDOF 20
ENDMDL
MODEL      107
REMARK 921   NORMALIZED FREE ENERGY PREDICTED BY IDOCK:   -4.10 KCAL/MOL
REMARK 922        TOTAL FREE ENERGY PREDICTED BY IDOCK:  -10.81 KCAL/MOL
REMARK 923 INTER-LIGAND FREE ENERGY PREDICTED BY IDOCK:   -8.83 KCAL/MOL
REMARK 924 INTRA-LIGAND FREE ENERGY PREDICTED BY IDOCK:   -1.98 KCAL/MOL
REMARK 927      BINDING AFFINITY PREDICTED BY RF-SCORE:    0.00 PKD
ROOT
HETATM    1  C   UNL     1     -12.861  11.935  63.529  1.00  0.00    -0.435 C  
HETATM    2  C   UNL     1     -12.005  13.189  63.538  1.00  0.00    -0.580 C  
ENDROOT
BRANCH   2   3
HETATM    3  C   UNL     1     -12.312  14.058  64.755  1.00  0.00    -0.437 C  
BRANCH   3   4
HETATM    4  C   UNL     1     -11.082  14.848  65.189  1.00  0.00    -0.399 C  
BRANCH   4   5
HETATM    5  C   UNL     1     -10.718  14.530  66.635  1.00  0.00    -0.305 C  
BRANCH   5   6
HETATM    6  C   UNL     1     -11.892  13.877  67.356  1.00  0.00    -0.437 C  
BRANCH   6   7
HETATM    7  C   UNL     1     -11.610  13.772  68.849  1.00  0.00    -0.358 C  
BRANCH   7   8
HETATM    8  C   UNL     1     -11.194  15.126  69.408  1.00  0.00    -0.293 C  
BRANCH   8   9
HETATM    9  C   UNL     1     -11.767  15.314  70.805  1.00  0.00    -0.377 C  
BRANCH   9  10
HETATM   10  C   UNL     1     -13.136  14.661  70.915  1.00  0.00    -0.416 C  
BRANCH  10  11
HETATM   11  C   UNL     1     -13.288  14.010  72.281  1.00  0.00    -0.574 C  
BRANCH  11  12
HETATM   12  C   UNL     1     -13.769  12.577  72.137  1.00  0.00    -0.338 C  
BRANCH  12  13
HETATM   13  C   UNL     1     -12.665  11.712  71.546  1.00  0.00    -0.423 C  
BRANCH  13  14
HETATM   14  C   UNL     1     -13.251  10.401  71.063  1.00  0.00    -0.361 C  
BRANCH  14  15
HETATM   15  C   UNL     1     -13.522   9.453  72.222  1.00  0.00    -0.539 C  
BRANCH  15  16
HETATM   16  C   UNL     1     -12.801   8.153  71.941  1.00  0.00    -0.335 C  
BRANCH  16  17
HETATM   17  O   UNL     1     -11.609   8.072  72.713  1.00  0.00    -0.405 OA 
BRANCH  17  18
HETATM   18  P   UNL     1     -10.240   7.592  71.772  1.00  0.00    -0.192 P  
HETATM   19  O   UNL     1      -9.581   8.937  72.095  1.00  0.00    -0.301 OA 
HETATM   20  O   UNL     1     -11.099   7.337  70.535  1.00  0.00    -0.254 OA 
BRANCH  18  21
HETATM   21  O   UNL     1      -8.870   7.111  70.831  1.00  0.00    -0.148 OA 
BRANCH  21  22
HETATM   22  C   UNL     1      -9.141   6.959  69.440  1.00  0.00    -0.141 C  
BRANCH  22  23
HETATM   23  C   UNL     1      -8.201   7.775  68.580  1.00  0.00    -0.128 C  
BRANCH  23  24
HETATM   24  N   UNL     1      -8.881   8.843  67.696  1.00  0.00    -0.134 N  
HETATM   25  C   UNL     1      -9.936   8.130  66.872  1.00  0.00    -0.273 C  
HETATM   26  C   UNL     1      -7.849   9.478  66.762  1.00  0.00    -0.101 C  
HETATM   27  C   UNL     1      -9.528   9.922  68.545  1.00  0.00    -0.146 C  
ENDBRANCH  23  24
ENDBRANCH  22  23
ENDBRANCH  21  22
ENDBRANCH  18  21
ENDBRANCH  17  18
ENDBRANCH  16  17
ENDBRANCH  15  16
ENDBRANCH  14  15
ENDBRANCH  13  14
ENDBRANCH  12  13
ENDBRANCH  11  12
ENDBRANCH  10  11
ENDBRANCH   9  10
ENDBRANCH   8   9
ENDBRANCH   7   8
ENDBRANCH   6   7
ENDBRANCH   5   6
ENDBRANCH   4   5
ENDBRANCH   3   4
ENDBRANCH   2   3
TORSDOF 20
ENDMDL
MODEL      108
REMARK 921   NORMALIZED FREE ENERGY PREDICTED BY IDOCK:   -4.09 KCAL/MOL
REMARK 922        TOTAL FREE ENERGY PREDICTED BY IDOCK:  -10.79 KCAL/MOL
REMARK 923 INTER-LIGAND FREE ENERGY PREDICTED BY IDOCK:   -8.24 KCAL/MOL
REMARK 924 INTRA-LIGAND FREE ENERGY PREDICTED BY IDOCK:   -2.55 KCAL/MOL
REMARK 927      BINDING AFFINITY PREDICTED BY RF-SCORE:    0.00 PKD
ROOT
HETATM    1  C   UNL     1      -8.932   9.022  65.415  1.00  0.00    -0.249 C  
HETATM    2  C   UNL     1      -8.778   8.477  66.825  1.00  0.00    -0.133 C  
ENDROOT
BRANCH   2   3
HETATM    3  C   UNL     1      -9.734   7.312  67.073  1.00  0.00    -0.235 C  
BRANCH   3   4
HETATM    4  C   UNL     1      -9.172   6.354  68.118  1.00  0.00    -0.111 C  
BRANCH   4   5
HETATM    5  C   UNL     1     -10.298   5.666  68.880  1.00  0.00    -0.295 C  
BRANCH   5   6
HETATM    6  C   UNL     1     -11.435   6.642  69.160  1.00  0.00    -0.199 C  
BRANCH   6   7
HETATM    7  C   UNL     1     -11.818   6.607  70.634  1.00  0.00    -0.443 C  
BRANCH   7   8
HETATM    8  C   UNL     1     -10.649   7.060  71.499  1.00  0.00    -0.232 C  
BRANCH   8   9
HETATM    9  C   UNL     1     -10.593   8.579  71.548  1.00  0.00    -0.333 C  
BRANCH   9  10
HETATM   10  C   UNL     1      -9.285   9.086  70.962  1.00  0.00    -0.331 C  
BRANCH  10  11
HETATM   11  C   UNL     1      -9.570  10.081  69.848  1.00  0.00    -0.233 C  
BRANCH  11  12
HETATM   12  C   UNL     1     -11.043  10.447  69.825  1.00  0.00    -0.352 C  
BRANCH  12  13
HETATM   13  C   UNL     1     -11.520  10.605  68.388  1.00  0.00    -0.330 C  
BRANCH  13  14
HETATM   14  C   UNL     1     -10.661  11.633  67.681  1.00  0.00    -0.237 C  
BRANCH  14  15
HETATM   15  C   UNL     1     -11.512  12.696  67.000  1.00  0.00    -0.406 C  
BRANCH  15  16
HETATM   16  C   UNL     1     -10.881  14.044  67.271  1.00  0.00    -0.284 C  
BRANCH  16  17
HETATM   17  O   UNL     1     -11.397  15.020  66.374  1.00  0.00    -0.341 OA 
BRANCH  17  18
HETATM   18  P   UNL     1     -10.263  16.285  66.046  1.00  0.00    -0.361 P  
HETATM   19  O   UNL     1     -10.917  16.476  64.673  1.00  0.00    -0.732 OA 
HETATM   20  O   UNL     1      -9.069  15.368  66.303  1.00  0.00    -0.288 OA 
BRANCH  18  21
HETATM   21  O   UNL     1      -9.129  17.550  65.719  1.00  0.00    -0.509 OA 
BRANCH  21  22
HETATM   22  C   UNL     1      -7.884  17.407  66.396  1.00  0.00    -0.302 C  
BRANCH  22  23
HETATM   23  C   UNL     1      -7.055  18.672  66.346  1.00  0.00    -0.235 C  
BRANCH  23  24
HETATM   24  N   UNL     1      -6.715  19.288  67.721  1.00  0.00    -0.221 N  
HETATM   25  C   UNL     1      -5.358  18.746  68.126  1.00  0.00    -0.179 C  
HETATM   26  C   UNL     1      -7.762  18.863  68.752  1.00  0.00    -0.331 C  
HETATM   27  C   UNL     1      -6.666  20.803  67.642  1.00  0.00    -0.343 C  
ENDBRANCH  23  24
ENDBRANCH  22  23
ENDBRANCH  21  22
ENDBRANCH  18  21
ENDBRANCH  17  18
ENDBRANCH  16  17
ENDBRANCH  15  16
ENDBRANCH  14  15
ENDBRANCH  13  14
ENDBRANCH  12  13
ENDBRANCH  11  12
ENDBRANCH  10  11
ENDBRANCH   9  10
ENDBRANCH   8   9
ENDBRANCH   7   8
ENDBRANCH   6   7
ENDBRANCH   5   6
ENDBRANCH   4   5
ENDBRANCH   3   4
ENDBRANCH   2   3
TORSDOF 20
ENDMDL
MODEL      109
REMARK 921   NORMALIZED FREE ENERGY PREDICTED BY IDOCK:   -4.09 KCAL/MOL
REMARK 922        TOTAL FREE ENERGY PREDICTED BY IDOCK:  -10.79 KCAL/MOL
REMARK 923 INTER-LIGAND FREE ENERGY PREDICTED BY IDOCK:   -8.21 KCAL/MOL
REMARK 924 INTRA-LIGAND FREE ENERGY PREDICTED BY IDOCK:   -2.58 KCAL/MOL
REMARK 927      BINDING AFFINITY PREDICTED BY RF-SCORE:    0.00 PKD
ROOT
HETATM    1  C   UNL     1      -8.301  16.534  66.210  1.00  0.00    -0.364 C  
HETATM    2  C   UNL     1      -9.679  16.007  65.847  1.00  0.00    -0.378 C  
ENDROOT
BRANCH   2   3
HETATM    3  C   UNL     1      -9.952  14.666  66.523  1.00  0.00    -0.292 C  
BRANCH   3   4
HETATM    4  C   UNL     1     -11.255  14.706  67.314  1.00  0.00    -0.344 C  
BRANCH   4   5
HETATM    5  C   UNL     1     -12.172  13.559  66.901  1.00  0.00    -0.377 C  
BRANCH   5   6
HETATM    6  C   UNL     1     -12.780  13.822  65.528  1.00  0.00    -0.530 C  
BRANCH   6   7
HETATM    7  C   UNL     1     -12.765  12.553  64.687  1.00  0.00    -0.434 C  
BRANCH   7   8
HETATM    8  C   UNL     1     -11.988  12.778  63.396  1.00  0.00    -0.613 C  
BRANCH   8   9
HETATM    9  C   UNL     1     -10.518  12.448  63.606  1.00  0.00    -0.460 C  
BRANCH   9  10
HETATM   10  C   UNL     1     -10.260  10.971  63.355  1.00  0.00    -0.404 C  
BRANCH  10  11
HETATM   11  C   UNL     1      -9.412  10.397  64.480  1.00  0.00    -0.342 C  
BRANCH  11  12
HETATM   12  C   UNL     1     -10.061  10.668  65.826  1.00  0.00    -0.327 C  
BRANCH  12  13
HETATM   13  C   UNL     1      -9.027  11.205  66.806  1.00  0.00    -0.169 C  
BRANCH  13  14
HETATM   14  C   UNL     1      -9.593  11.169  68.211  1.00  0.00    -0.185 C  
BRANCH  14  15
HETATM   15  C   UNL     1     -10.818  10.270  68.293  1.00  0.00    -0.300 C  
BRANCH  15  16
HETATM   16  C   UNL     1     -10.422   9.007  69.026  1.00  0.00    -0.218 C  
BRANCH  16  17
HETATM   17  O   UNL     1      -9.720   8.130  68.154  1.00  0.00    -0.154 OA 
BRANCH  17  18
HETATM   18  P   UNL     1      -9.784   6.482  68.679  1.00  0.00    -0.132 P  
HETATM   19  O   UNL     1      -8.430   6.244  68.002  1.00  0.00    -0.117 OA 
HETATM   20  O   UNL     1     -11.131   6.251  67.999  1.00  0.00    -0.333 OA 
BRANCH  18  21
HETATM   21  O   UNL     1      -9.848   4.836  69.205  1.00  0.00    -0.175 OA 
BRANCH  21  22
HETATM   22  C   UNL     1     -10.198   4.674  70.577  1.00  0.00    -0.141 C  
BRANCH  22  23
HETATM   23  C   UNL     1     -10.032   5.953  71.367  1.00  0.00    -0.185 C  
BRANCH  23  24
HETATM   24  N   UNL     1     -11.154   6.243  72.388  1.00  0.00    -0.256 N  
HETATM   25  C   UNL     1     -11.475   4.932  73.079  1.00  0.00    -0.243 C  
HETATM   26  C   UNL     1     -12.398   6.754  71.660  1.00  0.00    -0.362 C  
HETATM   27  C   UNL     1     -10.707   7.272  73.410  1.00  0.00    -0.369 C  
ENDBRANCH  23  24
ENDBRANCH  22  23
ENDBRANCH  21  22
ENDBRANCH  18  21
ENDBRANCH  17  18
ENDBRANCH  16  17
ENDBRANCH  15  16
ENDBRANCH  14  15
ENDBRANCH  13  14
ENDBRANCH  12  13
ENDBRANCH  11  12
ENDBRANCH  10  11
ENDBRANCH   9  10
ENDBRANCH   8   9
ENDBRANCH   7   8
ENDBRANCH   6   7
ENDBRANCH   5   6
ENDBRANCH   4   5
ENDBRANCH   3   4
ENDBRANCH   2   3
TORSDOF 20
ENDMDL
MODEL      110
REMARK 921   NORMALIZED FREE ENERGY PREDICTED BY IDOCK:   -4.08 KCAL/MOL
REMARK 922        TOTAL FREE ENERGY PREDICTED BY IDOCK:  -10.77 KCAL/MOL
REMARK 923 INTER-LIGAND FREE ENERGY PREDICTED BY IDOCK:   -8.25 KCAL/MOL
REMARK 924 INTRA-LIGAND FREE ENERGY PREDICTED BY IDOCK:   -2.52 KCAL/MOL
REMARK 927      BINDING AFFINITY PREDICTED BY RF-SCORE:    0.00 PKD
ROOT
HETATM    1  C   UNL     1      -8.150  10.153  64.397  1.00  0.00    -0.163 C  
HETATM    2  C   UNL     1      -9.416   9.688  65.095  1.00  0.00    -0.332 C  
ENDROOT
BRANCH   2   3
HETATM    3  C   UNL     1     -10.553  10.688  64.897  1.00  0.00    -0.192 C  
BRANCH   3   4
HETATM    4  C   UNL     1     -10.403  11.434  63.576  1.00  0.00    -0.476 C  
BRANCH   4   5
HETATM    5  C   UNL     1     -11.578  12.380  63.353  1.00  0.00    -0.541 C  
BRANCH   5   6
HETATM    6  C   UNL     1     -12.438  12.476  64.607  1.00  0.00    -0.539 C  
BRANCH   6   7
HETATM    7  C   UNL     1     -12.578  13.927  65.048  1.00  0.00    -0.422 C  
BRANCH   7   8
HETATM    8  C   UNL     1     -12.251  14.067  66.529  1.00  0.00    -0.485 C  
BRANCH   8   9
HETATM    9  C   UNL     1     -11.064  14.998  66.718  1.00  0.00    -0.326 C  
BRANCH   9  10
HETATM   10  C   UNL     1     -10.079  14.416  67.719  1.00  0.00    -0.226 C  
BRANCH  10  11
HETATM   11  C   UNL     1      -9.322  13.260  67.085  1.00  0.00    -0.240 C  
BRANCH  11  12
HETATM   12  C   UNL     1      -9.232  12.090  68.050  1.00  0.00    -0.192 C  
BRANCH  12  13
HETATM   13  C   UNL     1     -10.613  11.756  68.595  1.00  0.00    -0.250 C  
BRANCH  13  14
HETATM   14  C   UNL     1     -10.696  10.271  68.889  1.00  0.00    -0.256 C  
BRANCH  14  15
HETATM   15  C   UNL     1     -10.762  10.004  70.386  1.00  0.00    -0.369 C  
BRANCH  15  16
HETATM   16  C   UNL     1     -12.173  10.286  70.850  1.00  0.00    -0.365 C  
BRANCH  16  17
HETATM   17  O   UNL     1     -12.481   9.507  71.999  1.00  0.00    -0.371 OA 
BRANCH  17  18
HETATM   18  P   UNL     1     -12.033   7.846  71.814  1.00  0.00    -0.331 P  
HETATM   19  O   UNL     1     -13.518   7.489  71.690  1.00  0.00    -0.362 OA 
HETATM   20  O   UNL     1     -11.261   7.842  73.132  1.00  0.00    -0.402 OA 
BRANCH  18  21
HETATM   21  O   UNL     1     -11.584   6.186  71.629  1.00  0.00    -0.295 OA 
BRANCH  21  22
HETATM   22  C   UNL     1     -10.179   5.969  71.522  1.00  0.00    -0.204 C  
BRANCH  22  23
HETATM   23  C   UNL     1      -9.587   6.633  70.299  1.00  0.00    -0.161 C  
BRANCH  23  24
HETATM   24  N   UNL     1      -9.616   5.782  69.011  1.00  0.00    -0.130 N  
HETATM   25  C   UNL     1      -8.369   6.128  68.221  1.00  0.00    -0.114 C  
HETATM   26  C   UNL     1     -10.856   6.132  68.186  1.00  0.00    -0.306 C  
HETATM   27  C   UNL     1      -9.628   4.300  69.338  1.00  0.00    -0.197 C  
ENDBRANCH  23  24
ENDBRANCH  22  23
ENDBRANCH  21  22
ENDBRANCH  18  21
ENDBRANCH  17  18
ENDBRANCH  16  17
ENDBRANCH  15  16
ENDBRANCH  14  15
ENDBRANCH  13  14
ENDBRANCH  12  13
ENDBRANCH  11  12
ENDBRANCH  10  11
ENDBRANCH   9  10
ENDBRANCH   8   9
ENDBRANCH   7   8
ENDBRANCH   6   7
ENDBRANCH   5   6
ENDBRANCH   4   5
ENDBRANCH   3   4
ENDBRANCH   2   3
TORSDOF 20
ENDMDL
MODEL      111
REMARK 921   NORMALIZED FREE ENERGY PREDICTED BY IDOCK:   -4.08 KCAL/MOL
REMARK 922        TOTAL FREE ENERGY PREDICTED BY IDOCK:  -10.77 KCAL/MOL
REMARK 923 INTER-LIGAND FREE ENERGY PREDICTED BY IDOCK:   -8.48 KCAL/MOL
REMARK 924 INTRA-LIGAND FREE ENERGY PREDICTED BY IDOCK:   -2.29 KCAL/MOL
REMARK 927      BINDING AFFINITY PREDICTED BY RF-SCORE:    0.00 PKD
ROOT
HETATM    1  C   UNL     1      -9.617  17.639  66.999  1.00  0.00    -0.276 C  
HETATM    2  C   UNL     1      -9.813  16.424  67.890  1.00  0.00    -0.238 C  
ENDROOT
BRANCH   2   3
HETATM    3  C   UNL     1     -11.278  16.264  68.289  1.00  0.00    -0.324 C  
BRANCH   3   4
HETATM    4  C   UNL     1     -11.740  14.821  68.113  1.00  0.00    -0.353 C  
BRANCH   4   5
HETATM    5  C   UNL     1     -11.184  14.229  66.823  1.00  0.00    -0.337 C  
BRANCH   5   6
HETATM    6  C   UNL     1     -12.307  13.948  65.831  1.00  0.00    -0.517 C  
BRANCH   6   7
HETATM    7  C   UNL     1     -11.938  14.465  64.447  1.00  0.00    -0.471 C  
BRANCH   7   8
HETATM    8  C   UNL     1     -12.242  13.414  63.387  1.00  0.00    -0.419 C  
BRANCH   8   9
HETATM    9  C   UNL     1     -12.051  12.019  63.963  1.00  0.00    -0.506 C  
BRANCH   9  10
HETATM   10  C   UNL     1     -10.716  11.437  63.528  1.00  0.00    -0.453 C  
BRANCH  10  11
HETATM   11  C   UNL     1      -9.738  11.461  64.692  1.00  0.00    -0.275 C  
BRANCH  11  12
HETATM   12  C   UNL     1     -10.035  10.330  65.660  1.00  0.00    -0.347 C  
BRANCH  12  13
HETATM   13  C   UNL     1     -10.047  10.855  67.089  1.00  0.00    -0.235 C  
BRANCH  13  14
HETATM   14  C   UNL     1     -11.224  10.261  67.837  1.00  0.00    -0.290 C  
BRANCH  14  15
HETATM   15  C   UNL     1     -11.799  11.249  68.842  1.00  0.00    -0.413 C  
BRANCH  15  16
HETATM   16  C   UNL     1     -11.381  10.803  70.226  1.00  0.00    -0.290 C  
BRANCH  16  17
HETATM   17  O   UNL     1     -12.436  10.085  70.853  1.00  0.00    -0.312 OA 
BRANCH  17  18
HETATM   18  P   UNL     1     -11.857   8.827  71.891  1.00  0.00    -0.389 P  
HETATM   19  O   UNL     1     -10.479   8.959  71.235  1.00  0.00    -0.236 OA 
HETATM   20  O   UNL     1     -12.937   7.855  71.422  1.00  0.00    -0.322 OA 
BRANCH  18  21
HETATM   21  O   UNL     1     -11.279   7.571  72.930  1.00  0.00    -0.344 OA 
BRANCH  21  22
HETATM   22  C   UNL     1     -10.079   6.947  72.480  1.00  0.00    -0.172 C  
BRANCH  22  23
HETATM   23  C   UNL     1     -10.287   5.490  72.128  1.00  0.00    -0.213 C  
BRANCH  23  24
HETATM   24  N   UNL     1      -9.560   5.015  70.851  1.00  0.00    -0.168 N  
HETATM   25  C   UNL     1     -10.423   5.420  69.672  1.00  0.00    -0.291 C  
HETATM   26  C   UNL     1      -9.412   3.492  70.875  1.00  0.00    -0.166 C  
HETATM   27  C   UNL     1      -8.189   5.655  70.734  1.00  0.00    -0.118 C  
ENDBRANCH  23  24
ENDBRANCH  22  23
ENDBRANCH  21  22
ENDBRANCH  18  21
ENDBRANCH  17  18
ENDBRANCH  16  17
ENDBRANCH  15  16
ENDBRANCH  14  15
ENDBRANCH  13  14
ENDBRANCH  12  13
ENDBRANCH  11  12
ENDBRANCH  10  11
ENDBRANCH   9  10
ENDBRANCH   8   9
ENDBRANCH   7   8
ENDBRANCH   6   7
ENDBRANCH   5   6
ENDBRANCH   4   5
ENDBRANCH   3   4
ENDBRANCH   2   3
TORSDOF 20
ENDMDL
MODEL      112
REMARK 921   NORMALIZED FREE ENERGY PREDICTED BY IDOCK:   -4.08 KCAL/MOL
REMARK 922        TOTAL FREE ENERGY PREDICTED BY IDOCK:  -10.76 KCAL/MOL
REMARK 923 INTER-LIGAND FREE ENERGY PREDICTED BY IDOCK:   -8.79 KCAL/MOL
REMARK 924 INTRA-LIGAND FREE ENERGY PREDICTED BY IDOCK:   -1.97 KCAL/MOL
REMARK 927      BINDING AFFINITY PREDICTED BY RF-SCORE:    0.00 PKD
ROOT
HETATM    1  C   UNL     1     -11.329  15.089  64.797  1.00  0.00    -0.409 C  
HETATM    2  C   UNL     1     -11.738  13.704  64.324  1.00  0.00    -0.438 C  
ENDROOT
BRANCH   2   3
HETATM    3  C   UNL     1     -12.354  12.893  65.461  1.00  0.00    -0.517 C  
BRANCH   3   4
HETATM    4  C   UNL     1     -11.342  11.912  66.045  1.00  0.00    -0.375 C  
BRANCH   4   5
HETATM    5  C   UNL     1     -11.309  12.012  67.566  1.00  0.00    -0.387 C  
BRANCH   5   6
HETATM    6  C   UNL     1     -12.011  13.279  68.039  1.00  0.00    -0.351 C  
BRANCH   6   7
HETATM    7  C   UNL     1     -11.081  14.111  68.911  1.00  0.00    -0.288 C  
BRANCH   7   8
HETATM    8  C   UNL     1     -11.799  15.353  69.422  1.00  0.00    -0.372 C  
BRANCH   8   9
HETATM    9  C   UNL     1     -12.077  15.222  70.912  1.00  0.00    -0.396 C  
BRANCH   9  10
HETATM   10  C   UNL     1     -13.528  15.559  71.218  1.00  0.00    -0.560 C  
BRANCH  10  11
HETATM   11  C   UNL     1     -14.161  14.432  72.018  1.00  0.00    -0.639 C  
BRANCH  11  12
HETATM   12  C   UNL     1     -13.120  13.390  72.387  1.00  0.00    -0.469 C  
BRANCH  12  13
HETATM   13  C   UNL     1     -13.624  11.999  72.029  1.00  0.00    -0.230 C  
BRANCH  13  14
HETATM   14  C   UNL     1     -12.654  11.340  71.070  1.00  0.00    -0.495 C  
BRANCH  14  15
HETATM   15  C   UNL     1     -12.689   9.824  71.198  1.00  0.00    -0.433 C  
BRANCH  15  16
HETATM   16  C   UNL     1     -11.334   9.365  71.691  1.00  0.00    -0.382 C  
BRANCH  16  17
HETATM   17  O   UNL     1     -11.444   8.101  72.333  1.00  0.00    -0.345 OA 
BRANCH  17  18
HETATM   18  P   UNL     1      -9.903   7.429  72.743  1.00  0.00    -0.235 P  
HETATM   19  O   UNL     1     -10.534   6.823  74.001  1.00  0.00    -0.364 OA 
HETATM   20  O   UNL     1      -9.225   8.796  72.702  1.00  0.00    -0.327 OA 
BRANCH  18  21
HETATM   21  O   UNL     1      -8.363   6.757  73.152  1.00  0.00    -0.114 OA 
BRANCH  21  22
HETATM   22  C   UNL     1      -7.719   6.076  72.079  1.00  0.00    -0.098 C  
BRANCH  22  23
HETATM   23  C   UNL     1      -8.505   6.164  70.789  1.00  0.00    -0.131 C  
BRANCH  23  24
HETATM   24  N   UNL     1      -8.702   4.823  70.048  1.00  0.00    -0.081 N  
HETATM   25  C   UNL     1      -9.294   5.148  68.691  1.00  0.00    -0.125 C  
HETATM   26  C   UNL     1      -9.674   3.937  70.830  1.00  0.00    -0.185 C  
HETATM   27  C   UNL     1      -7.381   4.096  69.877  1.00  0.00    -0.049 C  
ENDBRANCH  23  24
ENDBRANCH  22  23
ENDBRANCH  21  22
ENDBRANCH  18  21
ENDBRANCH  17  18
ENDBRANCH  16  17
ENDBRANCH  15  16
ENDBRANCH  14  15
ENDBRANCH  13  14
ENDBRANCH  12  13
ENDBRANCH  11  12
ENDBRANCH  10  11
ENDBRANCH   9  10
ENDBRANCH   8   9
ENDBRANCH   7   8
ENDBRANCH   6   7
ENDBRANCH   5   6
ENDBRANCH   4   5
ENDBRANCH   3   4
ENDBRANCH   2   3
TORSDOF 20
ENDMDL
MODEL      113
REMARK 921   NORMALIZED FREE ENERGY PREDICTED BY IDOCK:   -4.07 KCAL/MOL
REMARK 922        TOTAL FREE ENERGY PREDICTED BY IDOCK:  -10.76 KCAL/MOL
REMARK 923 INTER-LIGAND FREE ENERGY PREDICTED BY IDOCK:   -8.52 KCAL/MOL
REMARK 924 INTRA-LIGAND FREE ENERGY PREDICTED BY IDOCK:   -2.23 KCAL/MOL
REMARK 927      BINDING AFFINITY PREDICTED BY RF-SCORE:    0.00 PKD
ROOT
HETATM    1  C   UNL     1     -12.239  12.560  63.446  1.00  0.00    -0.613 C  
HETATM    2  C   UNL     1     -11.187  11.936  64.347  1.00  0.00    -0.401 C  
ENDROOT
BRANCH   2   3
HETATM    3  C   UNL     1     -11.432  12.295  65.811  1.00  0.00    -0.417 C  
BRANCH   3   4
HETATM    4  C   UNL     1     -12.278  13.559  65.932  1.00  0.00    -0.507 C  
BRANCH   4   5
HETATM    5  C   UNL     1     -11.775  14.438  67.071  1.00  0.00    -0.420 C  
BRANCH   5   6
HETATM    6  C   UNL     1     -11.313  13.585  68.247  1.00  0.00    -0.328 C  
BRANCH   6   7
HETATM    7  C   UNL     1     -12.058  13.978  69.516  1.00  0.00    -0.397 C  
BRANCH   7   8
HETATM    8  C   UNL     1     -12.251  12.765  70.417  1.00  0.00    -0.371 C  
BRANCH   8   9
HETATM    9  C   UNL     1     -12.057  11.484  69.619  1.00  0.00    -0.363 C  
BRANCH   9  10
HETATM   10  C   UNL     1     -12.100  10.271  70.534  1.00  0.00    -0.401 C  
BRANCH  10  11
HETATM   11  C   UNL     1     -12.982  10.563  71.737  1.00  0.00    -0.582 C  
BRANCH  11  12
HETATM   12  C   UNL     1     -13.387   9.271  72.426  1.00  0.00    -0.521 C  
BRANCH  12  13
HETATM   13  C   UNL     1     -12.565   8.111  71.884  1.00  0.00    -0.368 C  
BRANCH  13  14
HETATM   14  C   UNL     1     -11.401   7.837  72.815  1.00  0.00    -0.446 C  
BRANCH  14  15
HETATM   15  C   UNL     1     -10.562   6.664  72.327  1.00  0.00    -0.241 C  
BRANCH  15  16
HETATM   16  C   UNL     1      -9.650   7.166  71.230  1.00  0.00    -0.163 C  
BRANCH  16  17
HETATM   17  O   UNL     1      -9.589   6.224  70.167  1.00  0.00    -0.161 OA 
BRANCH  17  18
HETATM   18  P   UNL     1     -10.113   6.891  68.659  1.00  0.00    -0.177 P  
HETATM   19  O   UNL     1     -11.530   6.396  68.964  1.00  0.00    -0.337 OA 
HETATM   20  O   UNL     1      -9.079   6.089  67.872  1.00  0.00    -0.119 OA 
BRANCH  18  21
HETATM   21  O   UNL     1     -10.636   7.560  67.151  1.00  0.00    -0.307 OA 
BRANCH  21  22
HETATM   22  C   UNL     1     -10.373   8.953  67.007  1.00  0.00    -0.269 C  
BRANCH  22  23
HETATM   23  C   UNL     1      -9.449   9.477  68.085  1.00  0.00    -0.133 C  
BRANCH  23  24
HETATM   24  N   UNL     1      -8.185  10.200  67.570  1.00  0.00    -0.114 N  
HETATM   25  C   UNL     1      -8.274  10.226  66.057  1.00  0.00    -0.141 C  
HETATM   26  C   UNL     1      -6.936   9.424  67.994  1.00  0.00    -0.079 C  
HETATM   27  C   UNL     1      -8.109  11.616  68.110  1.00  0.00    -0.148 C  
ENDBRANCH  23  24
ENDBRANCH  22  23
ENDBRANCH  21  22
ENDBRANCH  18  21
ENDBRANCH  17  18
ENDBRANCH  16  17
ENDBRANCH  15  16
ENDBRANCH  14  15
ENDBRANCH  13  14
ENDBRANCH  12  13
ENDBRANCH  11  12
ENDBRANCH  10  11
ENDBRANCH   9  10
ENDBRANCH   8   9
ENDBRANCH   7   8
ENDBRANCH   6   7
ENDBRANCH   5   6
ENDBRANCH   4   5
ENDBRANCH   3   4
ENDBRANCH   2   3
TORSDOF 20
ENDMDL
MODEL      114
REMARK 921   NORMALIZED FREE ENERGY PREDICTED BY IDOCK:   -4.07 KCAL/MOL
REMARK 922        TOTAL FREE ENERGY PREDICTED BY IDOCK:  -10.76 KCAL/MOL
REMARK 923 INTER-LIGAND FREE ENERGY PREDICTED BY IDOCK:   -8.88 KCAL/MOL
REMARK 924 INTRA-LIGAND FREE ENERGY PREDICTED BY IDOCK:   -1.87 KCAL/MOL
REMARK 927      BINDING AFFINITY PREDICTED BY RF-SCORE:    0.00 PKD
ROOT
HETATM    1  C   UNL     1     -12.658  11.887  63.353  1.00  0.00    -0.555 C  
HETATM    2  C   UNL     1     -11.242  12.417  63.500  1.00  0.00    -0.540 C  
ENDROOT
BRANCH   2   3
HETATM    3  C   UNL     1     -10.981  12.906  64.922  1.00  0.00    -0.327 C  
BRANCH   3   4
HETATM    4  C   UNL     1     -12.284  13.038  65.704  1.00  0.00    -0.521 C  
BRANCH   4   5
HETATM    5  C   UNL     1     -12.118  14.006  66.871  1.00  0.00    -0.465 C  
BRANCH   5   6
HETATM    6  C   UNL     1     -11.424  13.322  68.043  1.00  0.00    -0.344 C  
BRANCH   6   7
HETATM    7  C   UNL     1     -11.808  13.993  69.355  1.00  0.00    -0.381 C  
BRANCH   7   8
HETATM    8  C   UNL     1     -12.163  12.947  70.405  1.00  0.00    -0.381 C  
BRANCH   8   9
HETATM    9  C   UNL     1     -12.002  11.550  69.827  1.00  0.00    -0.415 C  
BRANCH   9  10
HETATM   10  C   UNL     1     -11.941  10.513  70.937  1.00  0.00    -0.481 C  
BRANCH  10  11
HETATM   11  C   UNL     1     -13.250  10.510  71.712  1.00  0.00    -0.522 C  
BRANCH  11  12
HETATM   12  C   UNL     1     -13.561   9.115  72.226  1.00  0.00    -0.548 C  
BRANCH  12  13
HETATM   13  C   UNL     1     -12.279   8.301  72.332  1.00  0.00    -0.412 C  
BRANCH  13  14
HETATM   14  C   UNL     1     -12.484   6.947  71.682  1.00  0.00    -0.418 C  
BRANCH  14  15
HETATM   15  C   UNL     1     -11.437   5.944  72.143  1.00  0.00    -0.333 C  
BRANCH  15  16
HETATM   16  C   UNL     1     -10.219   6.100  71.260  1.00  0.00    -0.207 C  
BRANCH  16  17
HETATM   17  O   UNL     1      -9.137   6.649  72.002  1.00  0.00    -0.140 OA 
BRANCH  17  18
HETATM   18  P   UNL     1      -8.615   8.178  71.384  1.00  0.00    -0.165 P  
HETATM   19  O   UNL     1      -7.511   7.454  70.605  1.00  0.00    -0.076 OA 
HETATM   20  O   UNL     1      -8.434   8.755  72.785  1.00  0.00    -0.414 OA 
BRANCH  18  21
HETATM   21  O   UNL     1      -8.095   9.707  70.764  1.00  0.00    -0.279 OA 
BRANCH  21  22
HETATM   22  C   UNL     1      -7.834   9.712  69.363  1.00  0.00    -0.104 C  
BRANCH  22  23
HETATM   23  C   UNL     1      -9.090   9.920  68.546  1.00  0.00    -0.125 C  
BRANCH  23  24
HETATM   24  N   UNL     1      -9.346   8.858  67.454  1.00  0.00    -0.134 N  
HETATM   25  C   UNL     1      -8.013   8.200  67.155  1.00  0.00    -0.105 C  
HETATM   26  C   UNL     1      -9.877   9.533  66.188  1.00  0.00    -0.272 C  
HETATM   27  C   UNL     1     -10.343   7.817  67.930  1.00  0.00    -0.217 C  
ENDBRANCH  23  24
ENDBRANCH  22  23
ENDBRANCH  21  22
ENDBRANCH  18  21
ENDBRANCH  17  18
ENDBRANCH  16  17
ENDBRANCH  15  16
ENDBRANCH  14  15
ENDBRANCH  13  14
ENDBRANCH  12  13
ENDBRANCH  11  12
ENDBRANCH  10  11
ENDBRANCH   9  10
ENDBRANCH   8   9
ENDBRANCH   7   8
ENDBRANCH   6   7
ENDBRANCH   5   6
ENDBRANCH   4   5
ENDBRANCH   3   4
ENDBRANCH   2   3
TORSDOF 20
ENDMDL
MODEL      115
REMARK 921   NORMALIZED FREE ENERGY PREDICTED BY IDOCK:   -4.06 KCAL/MOL
REMARK 922        TOTAL FREE ENERGY PREDICTED BY IDOCK:  -10.72 KCAL/MOL
REMARK 923 INTER-LIGAND FREE ENERGY PREDICTED BY IDOCK:   -8.67 KCAL/MOL
REMARK 924 INTRA-LIGAND FREE ENERGY PREDICTED BY IDOCK:   -2.06 KCAL/MOL
REMARK 927      BINDING AFFINITY PREDICTED BY RF-SCORE:    0.00 PKD
ROOT
HETATM    1  C   UNL     1     -14.344  14.448  71.934  1.00  0.00    -0.627 C  
HETATM    2  C   UNL     1     -13.333  15.043  72.899  1.00  0.00    -0.585 C  
ENDROOT
BRANCH   2   3
HETATM    3  C   UNL     1     -12.413  16.034  72.190  1.00  0.00    -0.524 C  
BRANCH   3   4
HETATM    4  C   UNL     1     -11.364  15.308  71.354  1.00  0.00    -0.419 C  
BRANCH   4   5
HETATM    5  C   UNL     1     -11.422  15.764  69.900  1.00  0.00    -0.347 C  
BRANCH   5   6
HETATM    6  C   UNL     1     -11.576  14.570  68.965  1.00  0.00    -0.330 C  
BRANCH   6   7
HETATM    7  C   UNL     1     -11.839  13.299  69.762  1.00  0.00    -0.394 C  
BRANCH   7   8
HETATM    8  C   UNL     1     -11.389  12.075  68.976  1.00  0.00    -0.331 C  
BRANCH   8   9
HETATM    9  C   UNL     1     -11.393  10.846  69.873  1.00  0.00    -0.381 C  
BRANCH   9  10
HETATM   10  C   UNL     1     -12.440  10.983  70.966  1.00  0.00    -0.512 C  
BRANCH  10  11
HETATM   11  C   UNL     1     -12.841   9.606  71.473  1.00  0.00    -0.485 C  
BRANCH  11  12
HETATM   12  C   UNL     1     -11.615   8.824  71.913  1.00  0.00    -0.432 C  
BRANCH  12  13
HETATM   13  C   UNL     1     -11.619   7.444  71.272  1.00  0.00    -0.306 C  
BRANCH  13  14
HETATM   14  C   UNL     1     -10.193   7.006  71.005  1.00  0.00    -0.209 C  
BRANCH  14  15
HETATM   15  C   UNL     1      -9.272   8.201  70.807  1.00  0.00    -0.165 C  
BRANCH  15  16
HETATM   16  C   UNL     1      -8.541   8.017  69.497  1.00  0.00    -0.136 C  
BRANCH  16  17
HETATM   17  O   UNL     1      -9.466   7.956  68.418  1.00  0.00    -0.147 OA 
BRANCH  17  18
HETATM   18  P   UNL     1      -9.108   9.102  67.172  1.00  0.00    -0.129 P  
HETATM   19  O   UNL     1     -10.605   9.179  66.852  1.00  0.00    -0.238 OA 
HETATM   20  O   UNL     1      -8.136   8.147  66.484  1.00  0.00    -0.102 OA 
BRANCH  18  21
HETATM   21  O   UNL     1      -8.750  10.249  65.927  1.00  0.00    -0.147 OA 
BRANCH  21  22
HETATM   22  C   UNL     1      -9.471  11.473  66.035  1.00  0.00    -0.229 C  
BRANCH  22  23
HETATM   23  C   UNL     1     -10.008  11.943  64.701  1.00  0.00    -0.230 C  
BRANCH  23  24
HETATM   24  N   UNL     1     -11.072  13.059  64.778  1.00  0.00    -0.309 N  
HETATM   25  C   UNL     1     -11.572  13.294  63.366  1.00  0.00    -0.155 C  
HETATM   26  C   UNL     1     -10.439  14.343  65.315  1.00  0.00    -0.390 C  
HETATM   27  C   UNL     1     -12.226  12.650  65.676  1.00  0.00    -0.411 C  
ENDBRANCH  23  24
ENDBRANCH  22  23
ENDBRANCH  21  22
ENDBRANCH  18  21
ENDBRANCH  17  18
ENDBRANCH  16  17
ENDBRANCH  15  16
ENDBRANCH  14  15
ENDBRANCH  13  14
ENDBRANCH  12  13
ENDBRANCH  11  12
ENDBRANCH  10  11
ENDBRANCH   9  10
ENDBRANCH   8   9
ENDBRANCH   7   8
ENDBRANCH   6   7
ENDBRANCH   5   6
ENDBRANCH   4   5
ENDBRANCH   3   4
ENDBRANCH   2   3
TORSDOF 20
ENDMDL
MODEL      116
REMARK 921   NORMALIZED FREE ENERGY PREDICTED BY IDOCK:   -4.05 KCAL/MOL
REMARK 922        TOTAL FREE ENERGY PREDICTED BY IDOCK:  -10.71 KCAL/MOL
REMARK 923 INTER-LIGAND FREE ENERGY PREDICTED BY IDOCK:   -8.65 KCAL/MOL
REMARK 924 INTRA-LIGAND FREE ENERGY PREDICTED BY IDOCK:   -2.06 KCAL/MOL
REMARK 927      BINDING AFFINITY PREDICTED BY RF-SCORE:    0.00 PKD
ROOT
HETATM    1  C   UNL     1     -12.633   8.793  71.599  1.00  0.00    -0.393 C  
HETATM    2  C   UNL     1     -11.310   8.326  71.018  1.00  0.00    -0.299 C  
ENDROOT
BRANCH   2   3
HETATM    3  C   UNL     1     -10.357   9.500  70.805  1.00  0.00    -0.377 C  
BRANCH   3   4
HETATM    4  C   UNL     1      -9.856   9.545  69.365  1.00  0.00    -0.194 C  
BRANCH   4   5
HETATM    5  C   UNL     1      -9.996   8.179  68.702  1.00  0.00    -0.201 C  
BRANCH   5   6
HETATM    6  C   UNL     1     -10.419   8.327  67.245  1.00  0.00    -0.373 C  
BRANCH   6   7
HETATM    7  C   UNL     1     -10.323   9.783  66.807  1.00  0.00    -0.289 C  
BRANCH   7   8
HETATM    8  C   UNL     1      -9.653   9.885  65.443  1.00  0.00    -0.350 C  
BRANCH   8   9
HETATM    9  C   UNL     1      -9.773  11.303  64.906  1.00  0.00    -0.297 C  
BRANCH   9  10
HETATM   10  C   UNL     1     -10.509  11.313  63.576  1.00  0.00    -0.457 C  
BRANCH  10  11
HETATM   11  C   UNL     1     -11.480  12.483  63.532  1.00  0.00    -0.570 C  
BRANCH  11  12
HETATM   12  C   UNL     1     -12.366  12.485  64.766  1.00  0.00    -0.544 C  
BRANCH  12  13
HETATM   13  C   UNL     1     -12.748  13.913  65.131  1.00  0.00    -0.434 C  
BRANCH  13  14
HETATM   14  C   UNL     1     -11.899  14.382  66.295  1.00  0.00    -0.391 C  
BRANCH  14  15
HETATM   15  C   UNL     1     -11.706  13.277  67.323  1.00  0.00    -0.424 C  
BRANCH  15  16
HETATM   16  C   UNL     1     -10.278  13.343  67.818  1.00  0.00    -0.235 C  
BRANCH  16  17
HETATM   17  O   UNL     1      -9.547  14.322  67.090  1.00  0.00    -0.231 OA 
BRANCH  17  18
HETATM   18  P   UNL     1      -8.699  15.421  68.123  1.00  0.00    -0.168 P  
HETATM   19  O   UNL     1      -9.891  16.380  68.035  1.00  0.00    -0.232 OA 
HETATM   20  O   UNL     1      -7.493  15.470  67.188  1.00  0.00    -0.206 OA 
BRANCH  18  21
HETATM   21  O   UNL     1      -7.851  16.519  69.157  1.00  0.00    -0.239 OA 
BRANCH  21  22
HETATM   22  C   UNL     1      -7.002  17.433  68.467  1.00  0.00    -0.215 C  
BRANCH  22  23
HETATM   23  C   UNL     1      -7.452  18.868  68.630  1.00  0.00    -0.321 C  
BRANCH  23  24
HETATM   24  N   UNL     1      -7.636  19.651  67.311  1.00  0.00    -0.241 N  
HETATM   25  C   UNL     1      -9.089  20.079  67.249  1.00  0.00    -0.356 C  
HETATM   26  C   UNL     1      -7.321  18.743  66.121  1.00  0.00    -0.262 C  
HETATM   27  C   UNL     1      -6.734  20.871  67.271  1.00  0.00    -0.352 C  
ENDBRANCH  23  24
ENDBRANCH  22  23
ENDBRANCH  21  22
ENDBRANCH  18  21
ENDBRANCH  17  18
ENDBRANCH  16  17
ENDBRANCH  15  16
ENDBRANCH  14  15
ENDBRANCH  13  14
ENDBRANCH  12  13
ENDBRANCH  11  12
ENDBRANCH  10  11
ENDBRANCH   9  10
ENDBRANCH   8   9
ENDBRANCH   7   8
ENDBRANCH   6   7
ENDBRANCH   5   6
ENDBRANCH   4   5
ENDBRANCH   3   4
ENDBRANCH   2   3
TORSDOF 20
ENDMDL
MODEL      117
REMARK 921   NORMALIZED FREE ENERGY PREDICTED BY IDOCK:   -4.04 KCAL/MOL
REMARK 922        TOTAL FREE ENERGY PREDICTED BY IDOCK:  -10.67 KCAL/MOL
REMARK 923 INTER-LIGAND FREE ENERGY PREDICTED BY IDOCK:   -8.19 KCAL/MOL
REMARK 924 INTRA-LIGAND FREE ENERGY PREDICTED BY IDOCK:   -2.48 KCAL/MOL
REMARK 927      BINDING AFFINITY PREDICTED BY RF-SCORE:    0.00 PKD
ROOT
HETATM    1  C   UNL     1     -10.823   6.198  67.103  1.00  0.00    -0.442 C  
HETATM    2  C   UNL     1     -11.053   6.122  68.603  1.00  0.00    -0.378 C  
ENDROOT
BRANCH   2   3
HETATM    3  C   UNL     1      -9.755   5.816  69.345  1.00  0.00    -0.200 C  
BRANCH   3   4
HETATM    4  C   UNL     1     -10.018   4.970  70.587  1.00  0.00    -0.300 C  
BRANCH   4   5
HETATM    5  C   UNL     1      -9.111   5.400  71.735  1.00  0.00    -0.152 C  
BRANCH   5   6
HETATM    6  C   UNL     1      -9.915   5.589  73.016  1.00  0.00    -0.196 C  
BRANCH   6   7
HETATM    7  C   UNL     1     -11.320   6.081  72.696  1.00  0.00    -0.320 C  
BRANCH   7   8
HETATM    8  C   UNL     1     -11.389   7.599  72.796  1.00  0.00    -0.419 C  
BRANCH   8   9
HETATM    9  C   UNL     1     -12.155   8.168  71.612  1.00  0.00    -0.342 C  
BRANCH   9  10
HETATM   10  C   UNL     1     -11.401   9.335  70.996  1.00  0.00    -0.390 C  
BRANCH  10  11
HETATM   11  C   UNL     1      -9.906   9.157  71.214  1.00  0.00    -0.363 C  
BRANCH  11  12
HETATM   12  C   UNL     1      -9.145   9.424  69.927  1.00  0.00    -0.221 C  
BRANCH  12  13
HETATM   13  C   UNL     1     -10.009  10.231  68.968  1.00  0.00    -0.223 C  
BRANCH  13  14
HETATM   14  C   UNL     1     -10.081   9.521  67.631  1.00  0.00    -0.254 C  
BRANCH  14  15
HETATM   15  C   UNL     1     -10.118  10.511  66.476  1.00  0.00    -0.280 C  
BRANCH  15  16
HETATM   16  C   UNL     1     -10.543  11.854  67.026  1.00  0.00    -0.227 C  
BRANCH  16  17
HETATM   17  O   UNL     1      -9.650  12.872  66.592  1.00  0.00    -0.245 OA 
BRANCH  17  18
HETATM   18  P   UNL     1     -10.307  14.460  66.786  1.00  0.00    -0.282 P  
HETATM   19  O   UNL     1     -10.075  14.341  68.296  1.00  0.00    -0.225 OA 
HETATM   20  O   UNL     1     -11.610  14.075  66.089  1.00  0.00    -0.342 OA 
BRANCH  18  21
HETATM   21  O   UNL     1     -10.964  16.049  66.979  1.00  0.00    -0.273 OA 
BRANCH  21  22
HETATM   22  C   UNL     1     -10.357  17.037  66.151  1.00  0.00    -0.319 C  
BRANCH  22  23
HETATM   23  C   UNL     1      -9.173  17.700  66.821  1.00  0.00    -0.271 C  
BRANCH  23  24
HETATM   24  N   UNL     1      -9.335  19.212  67.091  1.00  0.00    -0.304 N  
HETATM   25  C   UNL     1      -9.616  19.370  68.572  1.00  0.00    -0.405 C  
HETATM   26  C   UNL     1     -10.515  19.759  66.286  1.00  0.00    -0.506 C  
HETATM   27  C   UNL     1      -8.073  19.969  66.719  1.00  0.00    -0.317 C  
ENDBRANCH  23  24
ENDBRANCH  22  23
ENDBRANCH  21  22
ENDBRANCH  18  21
ENDBRANCH  17  18
ENDBRANCH  16  17
ENDBRANCH  15  16
ENDBRANCH  14  15
ENDBRANCH  13  14
ENDBRANCH  12  13
ENDBRANCH  11  12
ENDBRANCH  10  11
ENDBRANCH   9  10
ENDBRANCH   8   9
ENDBRANCH   7   8
ENDBRANCH   6   7
ENDBRANCH   5   6
ENDBRANCH   4   5
ENDBRANCH   3   4
ENDBRANCH   2   3
TORSDOF 20
ENDMDL
MODEL      118
REMARK 921   NORMALIZED FREE ENERGY PREDICTED BY IDOCK:   -4.03 KCAL/MOL
REMARK 922        TOTAL FREE ENERGY PREDICTED BY IDOCK:  -10.67 KCAL/MOL
REMARK 923 INTER-LIGAND FREE ENERGY PREDICTED BY IDOCK:   -7.88 KCAL/MOL
REMARK 924 INTRA-LIGAND FREE ENERGY PREDICTED BY IDOCK:   -2.79 KCAL/MOL
REMARK 927      BINDING AFFINITY PREDICTED BY RF-SCORE:    0.00 PKD
ROOT
HETATM    1  C   UNL     1      -7.633   8.783  68.271  1.00  0.00    -0.096 C  
HETATM    2  C   UNL     1      -9.069   9.072  68.672  1.00  0.00    -0.137 C  
ENDROOT
BRANCH   2   3
HETATM    3  C   UNL     1      -9.141   9.649  70.084  1.00  0.00    -0.280 C  
BRANCH   3   4
HETATM    4  C   UNL     1      -7.976   9.159  70.937  1.00  0.00    -0.192 C  
BRANCH   4   5
HETATM    5  C   UNL     1      -8.445   8.111  71.940  1.00  0.00    -0.196 C  
BRANCH   5   6
HETATM    6  C   UNL     1      -7.670   6.811  71.765  1.00  0.00    -0.096 C  
BRANCH   6   7
HETATM    7  C   UNL     1      -8.625   5.628  71.676  1.00  0.00    -0.132 C  
BRANCH   7   8
HETATM    8  C   UNL     1      -9.583   5.803  70.505  1.00  0.00    -0.214 C  
BRANCH   8   9
HETATM    9  C   UNL     1     -11.019   5.846  71.006  1.00  0.00    -0.335 C  
BRANCH   9  10
HETATM   10  C   UNL     1     -11.762   7.027  70.403  1.00  0.00    -0.326 C  
BRANCH  10  11
HETATM   11  C   UNL     1     -12.687   7.640  71.442  1.00  0.00    -0.357 C  
BRANCH  11  12
HETATM   12  C   UNL     1     -12.113   8.946  71.961  1.00  0.00    -0.442 C  
BRANCH  12  13
HETATM   13  C   UNL     1     -13.165  10.044  71.889  1.00  0.00    -0.557 C  
BRANCH  13  14
HETATM   14  C   UNL     1     -12.658  11.174  71.016  1.00  0.00    -0.503 C  
BRANCH  14  15
HETATM   15  C   UNL     1     -12.523  10.738  69.564  1.00  0.00    -0.090 C  
BRANCH  15  16
HETATM   16  C   UNL     1     -11.862  11.861  68.798  1.00  0.00    -0.313 C  
BRANCH  16  17
HETATM   17  O   UNL     1     -12.155  11.753  67.410  1.00  0.00    -0.595 OA 
BRANCH  17  18
HETATM   18  P   UNL     1     -11.366  12.971  66.468  1.00  0.00    -0.354 P  
HETATM   19  O   UNL     1     -12.078  12.431  65.224  1.00  0.00    -0.429 OA 
HETATM   20  O   UNL     1      -9.981  12.518  66.924  1.00  0.00    -0.218 OA 
BRANCH  18  21
HETATM   21  O   UNL     1     -10.578  14.191  65.527  1.00  0.00    -0.296 OA 
BRANCH  21  22
HETATM   22  C   UNL     1      -9.771  15.085  66.289  1.00  0.00    -0.291 C  
BRANCH  22  23
HETATM   23  C   UNL     1     -10.596  16.119  67.023  1.00  0.00    -0.292 C  
BRANCH  23  24
HETATM   24  N   UNL     1     -10.231  16.312  68.511  1.00  0.00    -0.236 N  
HETATM   25  C   UNL     1     -10.144  17.806  68.757  1.00  0.00    -0.381 C  
HETATM   26  C   UNL     1      -8.874  15.669  68.800  1.00  0.00    -0.208 C  
HETATM   27  C   UNL     1     -11.285  15.699  69.414  1.00  0.00    -0.313 C  
ENDBRANCH  23  24
ENDBRANCH  22  23
ENDBRANCH  21  22
ENDBRANCH  18  21
ENDBRANCH  17  18
ENDBRANCH  16  17
ENDBRANCH  15  16
ENDBRANCH  14  15
ENDBRANCH  13  14
ENDBRANCH  12  13
ENDBRANCH  11  12
ENDBRANCH  10  11
ENDBRANCH   9  10
ENDBRANCH   8   9
ENDBRANCH   7   8
ENDBRANCH   6   7
ENDBRANCH   5   6
ENDBRANCH   4   5
ENDBRANCH   3   4
ENDBRANCH   2   3
TORSDOF 20
ENDMDL
MODEL      119
REMARK 921   NORMALIZED FREE ENERGY PREDICTED BY IDOCK:   -4.02 KCAL/MOL
REMARK 922        TOTAL FREE ENERGY PREDICTED BY IDOCK:  -10.64 KCAL/MOL
REMARK 923 INTER-LIGAND FREE ENERGY PREDICTED BY IDOCK:   -8.06 KCAL/MOL
REMARK 924 INTRA-LIGAND FREE ENERGY PREDICTED BY IDOCK:   -2.57 KCAL/MOL
REMARK 927      BINDING AFFINITY PREDICTED BY RF-SCORE:    0.00 PKD
ROOT
HETATM    1  C   UNL     1     -10.589   8.951  71.706  1.00  0.00    -0.432 C  
HETATM    2  C   UNL     1     -11.589   9.215  70.593  1.00  0.00    -0.282 C  
ENDROOT
BRANCH   2   3
HETATM    3  C   UNL     1     -11.482  10.651  70.085  1.00  0.00    -0.411 C  
BRANCH   3   4
HETATM    4  C   UNL     1     -11.434  10.691  68.561  1.00  0.00    -0.333 C  
BRANCH   4   5
HETATM    5  C   UNL     1     -10.141  10.072  68.045  1.00  0.00    -0.197 C  
BRANCH   5   6
HETATM    6  C   UNL     1      -8.937  10.905  68.468  1.00  0.00    -0.157 C  
BRANCH   6   7
HETATM    7  C   UNL     1      -7.707  10.517  67.658  1.00  0.00    -0.097 C  
BRANCH   7   8
HETATM    8  C   UNL     1      -7.904   9.152  67.012  1.00  0.00    -0.102 C  
BRANCH   8   9
HETATM    9  C   UNL     1      -7.187   9.098  65.672  1.00  0.00    -0.082 C  
BRANCH   9  10
HETATM   10  C   UNL     1      -7.762  10.128  64.713  1.00  0.00    -0.141 C  
BRANCH  10  11
HETATM   11  C   UNL     1      -9.143   9.689  64.252  1.00  0.00    -0.267 C  
BRANCH  11  12
HETATM   12  C   UNL     1      -9.920  10.871  63.697  1.00  0.00    -0.415 C  
BRANCH  12  13
HETATM   13  C   UNL     1     -10.260  11.844  64.817  1.00  0.00    -0.314 C  
BRANCH  13  14
HETATM   14  C   UNL     1     -11.728  12.212  64.739  1.00  0.00    -0.390 C  
BRANCH  14  15
HETATM   15  C   UNL     1     -11.922  13.610  64.171  1.00  0.00    -0.488 C  
BRANCH  15  16
HETATM   16  C   UNL     1     -11.640  14.606  65.274  1.00  0.00    -0.354 C  
BRANCH  16  17
HETATM   17  O   UNL     1     -12.243  14.181  66.490  1.00  0.00    -0.445 OA 
BRANCH  17  18
HETATM   18  P   UNL     1     -11.414  14.778  67.886  1.00  0.00    -0.346 P  
HETATM   19  O   UNL     1     -10.129  14.122  67.369  1.00  0.00    -0.237 OA 
HETATM   20  O   UNL     1     -12.396  14.098  68.838  1.00  0.00    -0.284 OA 
BRANCH  18  21
HETATM   21  O   UNL     1     -10.586  15.376  69.282  1.00  0.00    -0.226 OA 
BRANCH  21  22
HETATM   22  C   UNL     1     -10.231  16.754  69.205  1.00  0.00    -0.278 C  
BRANCH  22  23
HETATM   23  C   UNL     1     -10.661  17.385  67.899  1.00  0.00    -0.383 C  
BRANCH  23  24
HETATM   24  N   UNL     1      -9.715  18.480  67.358  1.00  0.00    -0.296 N  
HETATM   25  C   UNL     1     -10.522  19.325  66.392  1.00  0.00    -0.474 C  
HETATM   26  C   UNL     1      -8.545  17.833  66.615  1.00  0.00    -0.258 C  
HETATM   27  C   UNL     1      -9.183  19.346  68.485  1.00  0.00    -0.375 C  
ENDBRANCH  23  24
ENDBRANCH  22  23
ENDBRANCH  21  22
ENDBRANCH  18  21
ENDBRANCH  17  18
ENDBRANCH  16  17
ENDBRANCH  15  16
ENDBRANCH  14  15
ENDBRANCH  13  14
ENDBRANCH  12  13
ENDBRANCH  11  12
ENDBRANCH  10  11
ENDBRANCH   9  10
ENDBRANCH   8   9
ENDBRANCH   7   8
ENDBRANCH   6   7
ENDBRANCH   5   6
ENDBRANCH   4   5
ENDBRANCH   3   4
ENDBRANCH   2   3
TORSDOF 20
ENDMDL
MODEL      120
REMARK 921   NORMALIZED FREE ENERGY PREDICTED BY IDOCK:   -4.01 KCAL/MOL
REMARK 922        TOTAL FREE ENERGY PREDICTED BY IDOCK:  -10.63 KCAL/MOL
REMARK 923 INTER-LIGAND FREE ENERGY PREDICTED BY IDOCK:   -8.21 KCAL/MOL
REMARK 924 INTRA-LIGAND FREE ENERGY PREDICTED BY IDOCK:   -2.42 KCAL/MOL
REMARK 927      BINDING AFFINITY PREDICTED BY RF-SCORE:    0.00 PKD
ROOT
HETATM    1  C   UNL     1     -12.090  14.046  64.111  1.00  0.00    -0.456 C  
HETATM    2  C   UNL     1     -11.618  12.661  64.522  1.00  0.00    -0.399 C  
ENDROOT
BRANCH   2   3
HETATM    3  C   UNL     1     -10.536  12.145  63.575  1.00  0.00    -0.501 C  
BRANCH   3   4
HETATM    4  C   UNL     1     -10.014  10.786  64.029  1.00  0.00    -0.403 C  
BRANCH   4   5
HETATM    5  C   UNL     1     -10.207  10.607  65.531  1.00  0.00    -0.329 C  
BRANCH   5   6
HETATM    6  C   UNL     1      -9.800   9.203  65.963  1.00  0.00    -0.342 C  
BRANCH   6   7
HETATM    7  C   UNL     1      -8.396   9.212  66.553  1.00  0.00    -0.119 C  
BRANCH   7   8
HETATM    8  C   UNL     1      -7.831   7.799  66.605  1.00  0.00    -0.102 C  
BRANCH   8   9
HETATM    9  C   UNL     1      -8.754   6.838  65.871  1.00  0.00    -0.147 C  
BRANCH   9  10
HETATM   10  C   UNL     1      -9.029   5.606  66.717  1.00  0.00    -0.116 C  
BRANCH  10  11
HETATM   11  C   UNL     1     -10.527   5.435  66.910  1.00  0.00    -0.337 C  
BRANCH  11  12
HETATM   12  C   UNL     1     -11.028   6.349  68.015  1.00  0.00    -0.400 C  
BRANCH  12  13
HETATM   13  C   UNL     1     -10.750   5.723  69.375  1.00  0.00    -0.397 C  
BRANCH  13  14
HETATM   14  C   UNL     1     -10.366   6.807  70.362  1.00  0.00    -0.223 C  
BRANCH  14  15
HETATM   15  C   UNL     1     -10.263   8.166  69.683  1.00  0.00    -0.205 C  
BRANCH  15  16
HETATM   16  C   UNL     1     -10.568   9.228  70.715  1.00  0.00    -0.285 C  
BRANCH  16  17
HETATM   17  O   UNL     1     -11.890   9.724  70.539  1.00  0.00    -0.266 OA 
BRANCH  17  18
HETATM   18  P   UNL     1     -11.916  11.377  70.028  1.00  0.00    -0.348 P  
HETATM   19  O   UNL     1     -12.986  11.658  71.088  1.00  0.00    -0.328 OA 
HETATM   20  O   UNL     1     -12.225  10.992  68.583  1.00  0.00    -0.571 OA 
BRANCH  18  21
HETATM   21  O   UNL     1     -11.940  13.030  69.518  1.00  0.00    -0.309 OA 
BRANCH  21  22
HETATM   22  C   UNL     1     -11.543  13.229  68.163  1.00  0.00    -0.338 C  
BRANCH  22  23
HETATM   23  C   UNL     1     -10.078  13.587  68.041  1.00  0.00    -0.244 C  
BRANCH  23  24
HETATM   24  N   UNL     1      -9.790  15.074  67.742  1.00  0.00    -0.219 N  
HETATM   25  C   UNL     1      -8.738  15.530  68.733  1.00  0.00    -0.192 C  
HETATM   26  C   UNL     1     -11.064  15.898  67.935  1.00  0.00    -0.317 C  
HETATM   27  C   UNL     1      -9.279  15.256  66.324  1.00  0.00    -0.315 C  
ENDBRANCH  23  24
ENDBRANCH  22  23
ENDBRANCH  21  22
ENDBRANCH  18  21
ENDBRANCH  17  18
ENDBRANCH  16  17
ENDBRANCH  15  16
ENDBRANCH  14  15
ENDBRANCH  13  14
ENDBRANCH  12  13
ENDBRANCH  11  12
ENDBRANCH  10  11
ENDBRANCH   9  10
ENDBRANCH   8   9
ENDBRANCH   7   8
ENDBRANCH   6   7
ENDBRANCH   5   6
ENDBRANCH   4   5
ENDBRANCH   3   4
ENDBRANCH   2   3
TORSDOF 20
ENDMDL
MODEL      121
REMARK 921   NORMALIZED FREE ENERGY PREDICTED BY IDOCK:   -4.01 KCAL/MOL
REMARK 922        TOTAL FREE ENERGY PREDICTED BY IDOCK:  -10.61 KCAL/MOL
REMARK 923 INTER-LIGAND FREE ENERGY PREDICTED BY IDOCK:   -8.08 KCAL/MOL
REMARK 924 INTRA-LIGAND FREE ENERGY PREDICTED BY IDOCK:   -2.53 KCAL/MOL
REMARK 927      BINDING AFFINITY PREDICTED BY RF-SCORE:    0.00 PKD
ROOT
HETATM    1  C   UNL     1     -14.140   8.905  72.198  1.00  0.00    -0.497 C  
HETATM    2  C   UNL     1     -13.991   7.567  71.496  1.00  0.00    -0.522 C  
ENDROOT
BRANCH   2   3
HETATM    3  C   UNL     1     -12.541   7.090  71.521  1.00  0.00    -0.426 C  
BRANCH   3   4
HETATM    4  C   UNL     1     -11.726   7.867  72.549  1.00  0.00    -0.423 C  
BRANCH   4   5
HETATM    5  C   UNL     1     -10.237   7.793  72.227  1.00  0.00    -0.285 C  
BRANCH   5   6
HETATM    6  C   UNL     1     -10.008   7.084  70.897  1.00  0.00    -0.200 C  
BRANCH   6   7
HETATM    7  C   UNL     1      -8.518   6.940  70.619  1.00  0.00    -0.136 C  
BRANCH   7   8
HETATM    8  C   UNL     1      -8.155   7.615  69.302  1.00  0.00    -0.128 C  
BRANCH   8   9
HETATM    9  C   UNL     1      -7.471   8.947  69.567  1.00  0.00    -0.075 C  
BRANCH   9  10
HETATM   10  C   UNL     1      -7.689   9.903  68.405  1.00  0.00    -0.084 C  
BRANCH  10  11
HETATM   11  C   UNL     1      -8.894  10.787  68.683  1.00  0.00    -0.152 C  
BRANCH  11  12
HETATM   12  C   UNL     1     -10.051  10.410  67.774  1.00  0.00    -0.212 C  
BRANCH  12  13
HETATM   13  C   UNL     1     -11.284  10.084  68.607  1.00  0.00    -0.175 C  
BRANCH  13  14
HETATM   14  C   UNL     1     -11.046  10.497  70.045  1.00  0.00    -0.376 C  
BRANCH  14  15
HETATM   15  C   UNL     1     -12.201  11.329  70.583  1.00  0.00    -0.489 C  
BRANCH  15  16
HETATM   16  C   UNL     1     -12.151  12.685  69.915  1.00  0.00    -0.252 C  
BRANCH  16  17
HETATM   17  O   UNL     1     -12.444  13.711  70.855  1.00  0.00    -0.347 OA 
BRANCH  17  18
HETATM   18  P   UNL     1     -11.700  15.219  70.445  1.00  0.00    -0.380 P  
HETATM   19  O   UNL     1     -11.023  14.529  69.257  1.00  0.00    -0.250 OA 
HETATM   20  O   UNL     1     -11.067  15.355  71.828  1.00  0.00    -0.366 OA 
BRANCH  18  21
HETATM   21  O   UNL     1     -10.958  16.727  70.036  1.00  0.00    -0.275 OA 
BRANCH  21  22
HETATM   22  C   UNL     1     -10.154  16.682  68.860  1.00  0.00    -0.274 C  
BRANCH  22  23
HETATM   23  C   UNL     1     -10.075  18.024  68.167  1.00  0.00    -0.372 C  
BRANCH  23  24
HETATM   24  N   UNL     1      -9.708  17.968  66.668  1.00  0.00    -0.317 N  
HETATM   25  C   UNL     1     -10.475  19.081  65.981  1.00  0.00    -0.458 C  
HETATM   26  C   UNL     1     -10.132  16.620  66.081  1.00  0.00    -0.345 C  
HETATM   27  C   UNL     1      -8.217  18.163  66.464  1.00  0.00    -0.267 C  
ENDBRANCH  23  24
ENDBRANCH  22  23
ENDBRANCH  21  22
ENDBRANCH  18  21
ENDBRANCH  17  18
ENDBRANCH  16  17
ENDBRANCH  15  16
ENDBRANCH  14  15
ENDBRANCH  13  14
ENDBRANCH  12  13
ENDBRANCH  11  12
ENDBRANCH  10  11
ENDBRANCH   9  10
ENDBRANCH   8   9
ENDBRANCH   7   8
ENDBRANCH   6   7
ENDBRANCH   5   6
ENDBRANCH   4   5
ENDBRANCH   3   4
ENDBRANCH   2   3
TORSDOF 20
ENDMDL
MODEL      122
REMARK 921   NORMALIZED FREE ENERGY PREDICTED BY IDOCK:   -4.01 KCAL/MOL
REMARK 922        TOTAL FREE ENERGY PREDICTED BY IDOCK:  -10.61 KCAL/MOL
REMARK 923 INTER-LIGAND FREE ENERGY PREDICTED BY IDOCK:   -8.86 KCAL/MOL
REMARK 924 INTRA-LIGAND FREE ENERGY PREDICTED BY IDOCK:   -1.75 KCAL/MOL
REMARK 927      BINDING AFFINITY PREDICTED BY RF-SCORE:    0.00 PKD
ROOT
HETATM    1  C   UNL     1      -8.996   3.338  69.473  1.00  0.00    -0.176 C  
HETATM    2  C   UNL     1      -7.780   3.299  68.563  1.00  0.00    -0.055 C  
ENDROOT
BRANCH   2   3
HETATM    3  C   UNL     1      -8.064   3.994  67.234  1.00  0.00    -0.095 C  
BRANCH   3   4
HETATM    4  C   UNL     1      -9.559   4.231  67.047  1.00  0.00    -0.227 C  
BRANCH   4   5
HETATM    5  C   UNL     1      -9.826   5.661  66.590  1.00  0.00    -0.191 C  
BRANCH   5   6
HETATM    6  C   UNL     1     -11.034   6.243  67.315  1.00  0.00    -0.455 C  
BRANCH   6   7
HETATM    7  C   UNL     1     -10.613   6.857  68.643  1.00  0.00    -0.254 C  
BRANCH   7   8
HETATM    8  C   UNL     1     -11.423   6.260  69.786  1.00  0.00    -0.449 C  
BRANCH   8   9
HETATM    9  C   UNL     1     -10.736   6.538  71.115  1.00  0.00    -0.285 C  
BRANCH   9  10
HETATM   10  C   UNL     1     -11.577   7.475  71.967  1.00  0.00    -0.326 C  
BRANCH  10  11
HETATM   11  C   UNL     1     -13.030   7.414  71.523  1.00  0.00    -0.421 C  
BRANCH  11  12
HETATM   12  C   UNL     1     -13.608   8.813  71.402  1.00  0.00    -0.292 C  
BRANCH  12  13
HETATM   13  C   UNL     1     -12.549   9.848  71.754  1.00  0.00    -0.506 C  
BRANCH  13  14
HETATM   14  C   UNL     1     -12.437  10.860  70.631  1.00  0.00    -0.460 C  
BRANCH  14  15
HETATM   15  C   UNL     1     -12.450  12.285  71.164  1.00  0.00    -0.328 C  
BRANCH  15  16
HETATM   16  C   UNL     1     -13.632  12.425  72.097  1.00  0.00    -0.306 C  
BRANCH  16  17
HETATM   17  O   UNL     1     -13.790  13.781  72.496  1.00  0.00    -0.609 OA 
BRANCH  17  18
HETATM   18  P   UNL     1     -12.594  14.821  71.801  1.00  0.00    -0.376 P  
HETATM   19  O   UNL     1     -12.110  15.162  73.214  1.00  0.00    -0.396 OA 
HETATM   20  O   UNL     1     -13.645  15.626  71.040  1.00  0.00    -0.588 OA 
BRANCH  18  21
HETATM   21  O   UNL     1     -11.398  15.859  71.105  1.00  0.00    -0.371 OA 
BRANCH  21  22
HETATM   22  C   UNL     1     -11.290  15.758  69.688  1.00  0.00    -0.334 C  
BRANCH  22  23
HETATM   23  C   UNL     1      -9.862  15.550  69.234  1.00  0.00    -0.270 C  
BRANCH  23  24
HETATM   24  N   UNL     1      -9.429  16.401  68.020  1.00  0.00    -0.215 N  
HETATM   25  C   UNL     1      -8.121  17.071  68.391  1.00  0.00    -0.245 C  
HETATM   26  C   UNL     1     -10.485  17.470  67.733  1.00  0.00    -0.381 C  
HETATM   27  C   UNL     1      -9.237  15.535  66.788  1.00  0.00    -0.248 C  
ENDBRANCH  23  24
ENDBRANCH  22  23
ENDBRANCH  21  22
ENDBRANCH  18  21
ENDBRANCH  17  18
ENDBRANCH  16  17
ENDBRANCH  15  16
ENDBRANCH  14  15
ENDBRANCH  13  14
ENDBRANCH  12  13
ENDBRANCH  11  12
ENDBRANCH  10  11
ENDBRANCH   9  10
ENDBRANCH   8   9
ENDBRANCH   7   8
ENDBRANCH   6   7
ENDBRANCH   5   6
ENDBRANCH   4   5
ENDBRANCH   3   4
ENDBRANCH   2   3
TORSDOF 20
ENDMDL
MODEL      123
REMARK 921   NORMALIZED FREE ENERGY PREDICTED BY IDOCK:   -4.00 KCAL/MOL
REMARK 922        TOTAL FREE ENERGY PREDICTED BY IDOCK:  -10.60 KCAL/MOL
REMARK 923 INTER-LIGAND FREE ENERGY PREDICTED BY IDOCK:   -8.09 KCAL/MOL
REMARK 924 INTRA-LIGAND FREE ENERGY PREDICTED BY IDOCK:   -2.51 KCAL/MOL
REMARK 927      BINDING AFFINITY PREDICTED BY RF-SCORE:    0.00 PKD
ROOT
HETATM    1  C   UNL     1      -9.056   3.593  69.242  1.00  0.00    -0.197 C  
HETATM    2  C   UNL     1      -9.506   4.842  69.980  1.00  0.00    -0.234 C  
ENDROOT
BRANCH   2   3
HETATM    3  C   UNL     1     -10.697   5.495  69.281  1.00  0.00    -0.288 C  
BRANCH   3   4
HETATM    4  C   UNL     1     -10.327   6.871  68.738  1.00  0.00    -0.200 C  
BRANCH   4   5
HETATM    5  C   UNL     1      -9.030   7.370  69.368  1.00  0.00    -0.139 C  
BRANCH   5   6
HETATM    6  C   UNL     1      -9.235   8.734  70.016  1.00  0.00    -0.173 C  
BRANCH   6   7
HETATM    7  C   UNL     1      -8.167   8.989  71.072  1.00  0.00    -0.220 C  
BRANCH   7   8
HETATM    8  C   UNL     1      -8.078   7.812  72.034  1.00  0.00    -0.126 C  
BRANCH   8   9
HETATM    9  C   UNL     1      -9.101   7.968  73.149  1.00  0.00    -0.341 C  
BRANCH   9  10
HETATM   10  C   UNL     1      -9.600   6.610  73.613  1.00  0.00    -0.207 C  
BRANCH  10  11
HETATM   11  C   UNL     1     -10.927   6.291  72.943  1.00  0.00    -0.283 C  
BRANCH  11  12
HETATM   12  C   UNL     1     -11.653   7.570  72.564  1.00  0.00    -0.352 C  
BRANCH  12  13
HETATM   13  C   UNL     1     -12.782   7.260  71.592  1.00  0.00    -0.410 C  
BRANCH  13  14
HETATM   14  C   UNL     1     -13.906   8.258  71.787  1.00  0.00    -0.450 C  
BRANCH  14  15
HETATM   15  C   UNL     1     -13.372   9.626  72.187  1.00  0.00    -0.545 C  
BRANCH  15  16
HETATM   16  C   UNL     1     -12.905  10.330  70.932  1.00  0.00    -0.374 C  
BRANCH  16  17
HETATM   17  O   UNL     1     -12.774  11.726  71.169  1.00  0.00    -0.378 OA 
BRANCH  17  18
HETATM   18  P   UNL     1     -11.906  12.534  69.908  1.00  0.00    -0.141 P  
HETATM   19  O   UNL     1     -12.777  13.772  70.141  1.00  0.00    -0.243 OA 
HETATM   20  O   UNL     1     -12.231  11.439  68.895  1.00  0.00    -0.458 OA 
BRANCH  18  21
HETATM   21  O   UNL     1     -11.037  13.341  68.649  1.00  0.00    -0.245 OA 
BRANCH  21  22
HETATM   22  C   UNL     1     -11.866  14.013  67.705  1.00  0.00    -0.384 C  
BRANCH  22  23
HETATM   23  C   UNL     1     -11.062  14.741  66.650  1.00  0.00    -0.333 C  
BRANCH  23  24
HETATM   24  N   UNL     1     -11.477  14.447  65.192  1.00  0.00    -0.347 N  
HETATM   25  C   UNL     1     -10.475  13.453  64.637  1.00  0.00    -0.411 C  
HETATM   26  C   UNL     1     -11.426  15.735  64.368  1.00  0.00    -0.263 C  
HETATM   27  C   UNL     1     -12.876  13.862  65.130  1.00  0.00    -0.342 C  
ENDBRANCH  23  24
ENDBRANCH  22  23
ENDBRANCH  21  22
ENDBRANCH  18  21
ENDBRANCH  17  18
ENDBRANCH  16  17
ENDBRANCH  15  16
ENDBRANCH  14  15
ENDBRANCH  13  14
ENDBRANCH  12  13
ENDBRANCH  11  12
ENDBRANCH  10  11
ENDBRANCH   9  10
ENDBRANCH   8   9
ENDBRANCH   7   8
ENDBRANCH   6   7
ENDBRANCH   5   6
ENDBRANCH   4   5
ENDBRANCH   3   4
ENDBRANCH   2   3
TORSDOF 20
ENDMDL
MODEL      124
REMARK 921   NORMALIZED FREE ENERGY PREDICTED BY IDOCK:   -3.99 KCAL/MOL
REMARK 922        TOTAL FREE ENERGY PREDICTED BY IDOCK:  -10.57 KCAL/MOL
REMARK 923 INTER-LIGAND FREE ENERGY PREDICTED BY IDOCK:   -8.38 KCAL/MOL
REMARK 924 INTRA-LIGAND FREE ENERGY PREDICTED BY IDOCK:   -2.19 KCAL/MOL
REMARK 927      BINDING AFFINITY PREDICTED BY RF-SCORE:    0.00 PKD
ROOT
HETATM    1  C   UNL     1     -12.487  12.006  63.465  1.00  0.00    -0.654 C  
HETATM    2  C   UNL     1     -11.045  12.475  63.555  1.00  0.00    -0.497 C  
ENDROOT
BRANCH   2   3
HETATM    3  C   UNL     1     -10.910  13.658  64.512  1.00  0.00    -0.416 C  
BRANCH   3   4
HETATM    4  C   UNL     1     -12.279  14.187  64.927  1.00  0.00    -0.451 C  
BRANCH   4   5
HETATM    5  C   UNL     1     -12.526  13.939  66.411  1.00  0.00    -0.414 C  
BRANCH   5   6
HETATM    6  C   UNL     1     -11.563  14.758  67.262  1.00  0.00    -0.385 C  
BRANCH   6   7
HETATM    7  C   UNL     1     -11.644  14.330  68.722  1.00  0.00    -0.357 C  
BRANCH   7   8
HETATM    8  C   UNL     1     -11.861  15.541  69.620  1.00  0.00    -0.384 C  
BRANCH   8   9
HETATM    9  C   UNL     1     -12.211  15.090  71.030  1.00  0.00    -0.386 C  
BRANCH   9  10
HETATM   10  C   UNL     1     -13.715  15.127  71.248  1.00  0.00    -0.555 C  
BRANCH  10  11
HETATM   11  C   UNL     1     -14.144  13.937  72.092  1.00  0.00    -0.630 C  
BRANCH  11  12
HETATM   12  C   UNL     1     -12.990  12.966  72.267  1.00  0.00    -0.313 C  
BRANCH  12  13
HETATM   13  C   UNL     1     -13.448  11.549  71.950  1.00  0.00    -0.275 C  
BRANCH  13  14
HETATM   14  C   UNL     1     -12.278  10.746  71.417  1.00  0.00    -0.374 C  
BRANCH  14  15
HETATM   15  C   UNL     1     -12.047  11.015  69.938  1.00  0.00    -0.435 C  
BRANCH  15  16
HETATM   16  C   UNL     1     -10.798  10.273  69.517  1.00  0.00    -0.256 C  
BRANCH  16  17
HETATM   17  O   UNL     1     -11.089   9.381  68.448  1.00  0.00    -0.084 OA 
BRANCH  17  18
HETATM   18  P   UNL     1     -10.092   9.658  67.062  1.00  0.00    -0.232 P  
HETATM   19  O   UNL     1     -10.946  10.886  66.729  1.00  0.00    -0.254 OA 
HETATM   20  O   UNL     1     -10.358   8.259  66.512  1.00  0.00    -0.276 OA 
BRANCH  18  21
HETATM   21  O   UNL     1      -9.094   9.936  65.677  1.00  0.00    -0.156 OA 
BRANCH  21  22
HETATM   22  C   UNL     1      -7.868  10.602  65.964  1.00  0.00    -0.156 C  
BRANCH  22  23
HETATM   23  C   UNL     1      -7.578  10.658  67.448  1.00  0.00    -0.095 C  
BRANCH  23  24
HETATM   24  N   UNL     1      -7.084  12.025  67.970  1.00  0.00    -0.079 N  
HETATM   25  C   UNL     1      -8.236  12.999  67.819  1.00  0.00    -0.168 C  
HETATM   26  C   UNL     1      -5.899  12.503  67.129  1.00  0.00    -0.015 C  
HETATM   27  C   UNL     1      -6.669  11.934  69.426  1.00  0.00    -0.081 C  
ENDBRANCH  23  24
ENDBRANCH  22  23
ENDBRANCH  21  22
ENDBRANCH  18  21
ENDBRANCH  17  18
ENDBRANCH  16  17
ENDBRANCH  15  16
ENDBRANCH  14  15
ENDBRANCH  13  14
ENDBRANCH  12  13
ENDBRANCH  11  12
ENDBRANCH  10  11
ENDBRANCH   9  10
ENDBRANCH   8   9
ENDBRANCH   7   8
ENDBRANCH   6   7
ENDBRANCH   5   6
ENDBRANCH   4   5
ENDBRANCH   3   4
ENDBRANCH   2   3
TORSDOF 20
ENDMDL
MODEL      125
REMARK 921   NORMALIZED FREE ENERGY PREDICTED BY IDOCK:   -3.98 KCAL/MOL
REMARK 922        TOTAL FREE ENERGY PREDICTED BY IDOCK:  -10.56 KCAL/MOL
REMARK 923 INTER-LIGAND FREE ENERGY PREDICTED BY IDOCK:   -7.94 KCAL/MOL
REMARK 924 INTRA-LIGAND FREE ENERGY PREDICTED BY IDOCK:   -2.62 KCAL/MOL
REMARK 927      BINDING AFFINITY PREDICTED BY RF-SCORE:    0.00 PKD
ROOT
HETATM    1  C   UNL     1      -8.071   9.878  66.391  1.00  0.00    -0.118 C  
HETATM    2  C   UNL     1      -9.529   9.451  66.411  1.00  0.00    -0.259 C  
ENDROOT
BRANCH   2   3
HETATM    3  C   UNL     1     -10.327  10.168  65.325  1.00  0.00    -0.154 C  
BRANCH   3   4
HETATM    4  C   UNL     1      -9.425  10.591  64.170  1.00  0.00    -0.342 C  
BRANCH   4   5
HETATM    5  C   UNL     1     -10.076  11.705  63.357  1.00  0.00    -0.468 C  
BRANCH   5   6
HETATM    6  C   UNL     1     -11.543  11.865  63.739  1.00  0.00    -0.555 C  
BRANCH   6   7
HETATM    7  C   UNL     1     -11.924  13.339  63.785  1.00  0.00    -0.551 C  
BRANCH   7   8
HETATM    8  C   UNL     1     -12.419  13.718  65.175  1.00  0.00    -0.483 C  
BRANCH   8   9
HETATM    9  C   UNL     1     -11.476  14.730  65.809  1.00  0.00    -0.322 C  
BRANCH   9  10
HETATM   10  C   UNL     1     -11.162  14.344  67.245  1.00  0.00    -0.334 C  
BRANCH  10  11
HETATM   11  C   UNL     1     -10.037  13.321  67.270  1.00  0.00    -0.234 C  
BRANCH  11  12
HETATM   12  C   UNL     1     -10.260  12.313  68.384  1.00  0.00    -0.220 C  
BRANCH  12  13
HETATM   13  C   UNL     1     -11.751  12.112  68.616  1.00  0.00    -0.382 C  
BRANCH  13  14
HETATM   14  C   UNL     1     -11.981  10.782  69.304  1.00  0.00    -0.334 C  
BRANCH  14  15
HETATM   15  C   UNL     1     -12.739  10.956  70.612  1.00  0.00    -0.396 C  
BRANCH  15  16
HETATM   16  C   UNL     1     -12.282   9.874  71.565  1.00  0.00    -0.416 C  
BRANCH  16  17
HETATM   17  O   UNL     1     -13.169   8.763  71.513  1.00  0.00    -0.333 OA 
BRANCH  17  18
HETATM   18  P   UNL     1     -12.389   7.272  71.915  1.00  0.00    -0.258 P  
HETATM   19  O   UNL     1     -11.487   8.039  72.888  1.00  0.00    -0.411 OA 
HETATM   20  O   UNL     1     -12.031   6.992  70.458  1.00  0.00    -0.325 OA 
BRANCH  18  21
HETATM   21  O   UNL     1     -11.611   5.780  72.318  1.00  0.00    -0.293 OA 
BRANCH  21  22
HETATM   22  C   UNL     1     -10.387   5.934  73.032  1.00  0.00    -0.203 C  
BRANCH  22  23
HETATM   23  C   UNL     1      -9.203   5.385  72.267  1.00  0.00    -0.142 C  
BRANCH  23  24
HETATM   24  N   UNL     1      -8.109   6.419  71.922  1.00  0.00    -0.108 N  
HETATM   25  C   UNL     1      -8.078   7.426  73.055  1.00  0.00    -0.105 C  
HETATM   26  C   UNL     1      -8.464   7.132  70.616  1.00  0.00    -0.138 C  
HETATM   27  C   UNL     1      -6.753   5.752  71.783  1.00  0.00    -0.059 C  
ENDBRANCH  23  24
ENDBRANCH  22  23
ENDBRANCH  21  22
ENDBRANCH  18  21
ENDBRANCH  17  18
ENDBRANCH  16  17
ENDBRANCH  15  16
ENDBRANCH  14  15
ENDBRANCH  13  14
ENDBRANCH  12  13
ENDBRANCH  11  12
ENDBRANCH  10  11
ENDBRANCH   9  10
ENDBRANCH   8   9
ENDBRANCH   7   8
ENDBRANCH   6   7
ENDBRANCH   5   6
ENDBRANCH   4   5
ENDBRANCH   3   4
ENDBRANCH   2   3
TORSDOF 20
ENDMDL
MODEL      126
REMARK 921   NORMALIZED FREE ENERGY PREDICTED BY IDOCK:   -3.98 KCAL/MOL
REMARK 922        TOTAL FREE ENERGY PREDICTED BY IDOCK:  -10.56 KCAL/MOL
REMARK 923 INTER-LIGAND FREE ENERGY PREDICTED BY IDOCK:   -9.35 KCAL/MOL
REMARK 924 INTRA-LIGAND FREE ENERGY PREDICTED BY IDOCK:   -1.21 KCAL/MOL
REMARK 927      BINDING AFFINITY PREDICTED BY RF-SCORE:    0.00 PKD
ROOT
HETATM    1  C   UNL     1     -14.409   7.609  71.588  1.00  0.00    -0.613 C  
HETATM    2  C   UNL     1     -13.957   9.024  71.269  1.00  0.00    -0.195 C  
ENDROOT
BRANCH   2   3
HETATM    3  C   UNL     1     -12.971   9.536  72.317  1.00  0.00    -0.466 C  
BRANCH   3   4
HETATM    4  C   UNL     1     -11.572   8.983  72.070  1.00  0.00    -0.413 C  
BRANCH   4   5
HETATM    5  C   UNL     1     -11.145   9.217  70.625  1.00  0.00    -0.320 C  
BRANCH   5   6
HETATM    6  C   UNL     1      -9.657   9.534  70.546  1.00  0.00    -0.312 C  
BRANCH   6   7
HETATM    7  C   UNL     1      -9.123   9.245  69.150  1.00  0.00    -0.145 C  
BRANCH   7   8
HETATM    8  C   UNL     1      -9.332  10.449  68.240  1.00  0.00    -0.150 C  
BRANCH   8   9
HETATM    9  C   UNL     1     -10.191  10.061  67.046  1.00  0.00    -0.295 C  
BRANCH   9  10
HETATM   10  C   UNL     1     -10.194  11.168  66.005  1.00  0.00    -0.300 C  
BRANCH  10  11
HETATM   11  C   UNL     1     -10.155  10.564  64.610  1.00  0.00    -0.408 C  
BRANCH  11  12
HETATM   12  C   UNL     1     -10.831  11.488  63.611  1.00  0.00    -0.488 C  
BRANCH  12  13
HETATM   13  C   UNL     1     -12.092  12.083  64.221  1.00  0.00    -0.414 C  
BRANCH  13  14
HETATM   14  C   UNL     1     -12.167  13.559  63.889  1.00  0.00    -0.458 C  
BRANCH  14  15
HETATM   15  C   UNL     1     -11.980  14.418  65.132  1.00  0.00    -0.391 C  
BRANCH  15  16
HETATM   16  C   UNL     1     -11.175  15.637  64.740  1.00  0.00    -0.382 C  
BRANCH  16  17
HETATM   17  O   UNL     1     -10.141  15.872  65.688  1.00  0.00    -0.327 OA 
BRANCH  17  18
HETATM   18  P   UNL     1     -10.091  17.517  66.221  1.00  0.00    -0.262 P  
HETATM   19  O   UNL     1     -10.775  17.087  67.523  1.00  0.00    -0.330 OA 
HETATM   20  O   UNL     1     -10.840  18.008  64.984  1.00  0.00    -0.738 OA 
BRANCH  18  21
HETATM   21  O   UNL     1     -10.039  19.162  66.754  1.00  0.00    -0.330 OA 
BRANCH  21  22
HETATM   22  C   UNL     1      -8.733  19.631  67.078  1.00  0.00    -0.316 C  
BRANCH  22  23
HETATM   23  C   UNL     1      -8.325  19.264  68.487  1.00  0.00    -0.366 C  
BRANCH  23  24
HETATM   24  N   UNL     1      -6.999  18.480  68.603  1.00  0.00    -0.264 N  
HETATM   25  C   UNL     1      -6.097  19.268  69.531  1.00  0.00    -0.274 C  
HETATM   26  C   UNL     1      -6.341  18.368  67.226  1.00  0.00    -0.181 C  
HETATM   27  C   UNL     1      -7.235  17.090  69.165  1.00  0.00    -0.209 C  
ENDBRANCH  23  24
ENDBRANCH  22  23
ENDBRANCH  21  22
ENDBRANCH  18  21
ENDBRANCH  17  18
ENDBRANCH  16  17
ENDBRANCH  15  16
ENDBRANCH  14  15
ENDBRANCH  13  14
ENDBRANCH  12  13
ENDBRANCH  11  12
ENDBRANCH  10  11
ENDBRANCH   9  10
ENDBRANCH   8   9
ENDBRANCH   7   8
ENDBRANCH   6   7
ENDBRANCH   5   6
ENDBRANCH   4   5
ENDBRANCH   3   4
ENDBRANCH   2   3
TORSDOF 20
ENDMDL
MODEL      127
REMARK 921   NORMALIZED FREE ENERGY PREDICTED BY IDOCK:   -3.98 KCAL/MOL
REMARK 922        TOTAL FREE ENERGY PREDICTED BY IDOCK:  -10.55 KCAL/MOL
REMARK 923 INTER-LIGAND FREE ENERGY PREDICTED BY IDOCK:   -8.45 KCAL/MOL
REMARK 924 INTRA-LIGAND FREE ENERGY PREDICTED BY IDOCK:   -2.10 KCAL/MOL
REMARK 927      BINDING AFFINITY PREDICTED BY RF-SCORE:    0.00 PKD
ROOT
HETATM    1  C   UNL     1     -14.199   7.464  71.555  1.00  0.00    -0.571 C  
HETATM    2  C   UNL     1     -13.337   8.714  71.590  1.00  0.00    -0.386 C  
ENDROOT
BRANCH   2   3
HETATM    3  C   UNL     1     -12.006   8.445  72.288  1.00  0.00    -0.455 C  
BRANCH   3   4
HETATM    4  C   UNL     1     -10.867   9.197  71.607  1.00  0.00    -0.442 C  
BRANCH   4   5
HETATM    5  C   UNL     1      -9.540   8.479  71.824  1.00  0.00    -0.337 C  
BRANCH   5   6
HETATM    6  C   UNL     1      -8.775   8.351  70.512  1.00  0.00    -0.152 C  
BRANCH   6   7
HETATM    7  C   UNL     1      -8.638   6.887  70.115  1.00  0.00    -0.141 C  
BRANCH   7   8
HETATM    8  C   UNL     1      -9.803   6.074  70.665  1.00  0.00    -0.222 C  
BRANCH   8   9
HETATM    9  C   UNL     1     -10.606   5.471  69.523  1.00  0.00    -0.366 C  
BRANCH   9  10
HETATM   10  C   UNL     1     -11.230   6.564  68.670  1.00  0.00    -0.302 C  
BRANCH  10  11
HETATM   11  C   UNL     1     -10.680   6.491  67.254  1.00  0.00    -0.427 C  
BRANCH  11  12
HETATM   12  C   UNL     1     -10.175   7.852  66.808  1.00  0.00    -0.358 C  
BRANCH  12  13
HETATM   13  C   UNL     1     -10.776   8.944  67.682  1.00  0.00    -0.221 C  
BRANCH  13  14
HETATM   14  C   UNL     1     -10.072  10.257  67.407  1.00  0.00    -0.246 C  
BRANCH  14  15
HETATM   15  C   UNL     1     -10.785  11.054  66.325  1.00  0.00    -0.273 C  
BRANCH  15  16
HETATM   16  C   UNL     1     -10.836  12.500  66.766  1.00  0.00    -0.249 C  
BRANCH  16  17
HETATM   17  O   UNL     1     -11.914  12.704  67.671  1.00  0.00    -0.354 OA 
BRANCH  17  18
HETATM   18  P   UNL     1     -11.578  13.937  68.836  1.00  0.00    -0.359 P  
HETATM   19  O   UNL     1     -10.081  13.736  68.575  1.00  0.00    -0.230 OA 
HETATM   20  O   UNL     1     -12.360  13.208  69.927  1.00  0.00    -0.241 OA 
BRANCH  18  21
HETATM   21  O   UNL     1     -11.242  15.171  70.002  1.00  0.00    -0.247 OA 
BRANCH  21  22
HETATM   22  C   UNL     1     -10.410  16.222  69.517  1.00  0.00    -0.284 C  
BRANCH  22  23
HETATM   23  C   UNL     1     -10.853  16.726  68.161  1.00  0.00    -0.353 C  
BRANCH  23  24
HETATM   24  N   UNL     1      -9.931  17.788  67.523  1.00  0.00    -0.311 N  
HETATM   25  C   UNL     1     -10.248  19.110  68.193  1.00  0.00    -0.403 C  
HETATM   26  C   UNL     1     -10.221  17.894  66.025  1.00  0.00    -0.295 C  
HETATM   27  C   UNL     1      -8.469  17.437  67.733  1.00  0.00    -0.223 C  
ENDBRANCH  23  24
ENDBRANCH  22  23
ENDBRANCH  21  22
ENDBRANCH  18  21
ENDBRANCH  17  18
ENDBRANCH  16  17
ENDBRANCH  15  16
ENDBRANCH  14  15
ENDBRANCH  13  14
ENDBRANCH  12  13
ENDBRANCH  11  12
ENDBRANCH  10  11
ENDBRANCH   9  10
ENDBRANCH   8   9
ENDBRANCH   7   8
ENDBRANCH   6   7
ENDBRANCH   5   6
ENDBRANCH   4   5
ENDBRANCH   3   4
ENDBRANCH   2   3
TORSDOF 20
ENDMDL
MODEL      128
REMARK 921   NORMALIZED FREE ENERGY PREDICTED BY IDOCK:   -3.97 KCAL/MOL
REMARK 922        TOTAL FREE ENERGY PREDICTED BY IDOCK:  -10.54 KCAL/MOL
REMARK 923 INTER-LIGAND FREE ENERGY PREDICTED BY IDOCK:   -8.07 KCAL/MOL
REMARK 924 INTRA-LIGAND FREE ENERGY PREDICTED BY IDOCK:   -2.47 KCAL/MOL
REMARK 927      BINDING AFFINITY PREDICTED BY RF-SCORE:    0.00 PKD
ROOT
HETATM    1  C   UNL     1     -14.019  13.988  72.123  1.00  0.00    -0.633 C  
HETATM    2  C   UNL     1     -13.091  14.827  72.984  1.00  0.00    -0.614 C  
ENDROOT
BRANCH   2   3
HETATM    3  C   UNL     1     -12.205  15.726  72.125  1.00  0.00    -0.552 C  
BRANCH   3   4
HETATM    4  C   UNL     1     -12.169  15.241  70.680  1.00  0.00    -0.412 C  
BRANCH   4   5
HETATM    5  C   UNL     1     -10.736  15.190  70.163  1.00  0.00    -0.245 C  
BRANCH   5   6
HETATM    6  C   UNL     1     -10.662  15.687  68.724  1.00  0.00    -0.250 C  
BRANCH   6   7
HETATM    7  C   UNL     1     -11.750  15.038  67.880  1.00  0.00    -0.310 C  
BRANCH   7   8
HETATM    8  C   UNL     1     -11.273  14.854  66.445  1.00  0.00    -0.331 C  
BRANCH   8   9
HETATM    9  C   UNL     1     -10.874  13.405  66.208  1.00  0.00    -0.294 C  
BRANCH   9  10
HETATM   10  C   UNL     1     -11.766  12.466  67.003  1.00  0.00    -0.423 C  
BRANCH  10  11
HETATM   11  C   UNL     1     -11.054  11.140  67.222  1.00  0.00    -0.366 C  
BRANCH  11  12
HETATM   12  C   UNL     1     -11.187  10.698  68.669  1.00  0.00    -0.337 C  
BRANCH  12  13
HETATM   13  C   UNL     1     -12.301  11.478  69.353  1.00  0.00    -0.157 C  
BRANCH  13  14
HETATM   14  C   UNL     1     -12.300  11.166  70.836  1.00  0.00    -0.500 C  
BRANCH  14  15
HETATM   15  C   UNL     1     -13.000   9.847  71.128  1.00  0.00    -0.456 C  
BRANCH  15  16
HETATM   16  C   UNL     1     -12.066   8.995  71.958  1.00  0.00    -0.370 C  
BRANCH  16  17
HETATM   17  O   UNL     1     -11.566   7.911  71.185  1.00  0.00    -0.274 OA 
BRANCH  17  18
HETATM   18  P   UNL     1      -9.839   7.909  71.084  1.00  0.00    -0.168 P  
HETATM   19  O   UNL     1      -9.858   6.389  71.277  1.00  0.00    -0.180 OA 
HETATM   20  O   UNL     1      -9.708   8.914  72.227  1.00  0.00    -0.284 OA 
BRANCH  18  21
HETATM   21  O   UNL     1      -8.112   7.908  70.982  1.00  0.00    -0.094 OA 
BRANCH  21  22
HETATM   22  C   UNL     1      -7.605   8.003  69.654  1.00  0.00    -0.096 C  
BRANCH  22  23
HETATM   23  C   UNL     1      -8.685   8.345  68.650  1.00  0.00    -0.133 C  
BRANCH  23  24
HETATM   24  N   UNL     1      -8.702   7.466  67.380  1.00  0.00    -0.121 N  
HETATM   25  C   UNL     1     -10.123   7.479  66.851  1.00  0.00    -0.266 C  
HETATM   26  C   UNL     1      -8.304   6.033  67.737  1.00  0.00    -0.112 C  
HETATM   27  C   UNL     1      -7.752   8.009  66.329  1.00  0.00    -0.091 C  
ENDBRANCH  23  24
ENDBRANCH  22  23
ENDBRANCH  21  22
ENDBRANCH  18  21
ENDBRANCH  17  18
ENDBRANCH  16  17
ENDBRANCH  15  16
ENDBRANCH  14  15
ENDBRANCH  13  14
ENDBRANCH  12  13
ENDBRANCH  11  12
ENDBRANCH  10  11
ENDBRANCH   9  10
ENDBRANCH   8   9
ENDBRANCH   7   8
ENDBRANCH   6   7
ENDBRANCH   5   6
ENDBRANCH   4   5
ENDBRANCH   3   4
ENDBRANCH   2   3
TORSDOF 20
ENDMDL
MODEL      129
REMARK 921   NORMALIZED FREE ENERGY PREDICTED BY IDOCK:   -3.97 KCAL/MOL
REMARK 922        TOTAL FREE ENERGY PREDICTED BY IDOCK:  -10.53 KCAL/MOL
REMARK 923 INTER-LIGAND FREE ENERGY PREDICTED BY IDOCK:   -7.93 KCAL/MOL
REMARK 924 INTRA-LIGAND FREE ENERGY PREDICTED BY IDOCK:   -2.61 KCAL/MOL
REMARK 927      BINDING AFFINITY PREDICTED BY RF-SCORE:    0.00 PKD
ROOT
HETATM    1  C   UNL     1     -12.601  14.036  65.375  1.00  0.00    -0.529 C  
HETATM    2  C   UNL     1     -12.349  12.602  64.941  1.00  0.00    -0.563 C  
ENDROOT
BRANCH   2   3
HETATM    3  C   UNL     1     -11.703  12.551  63.558  1.00  0.00    -0.595 C  
BRANCH   3   4
HETATM    4  C   UNL     1     -10.275  12.022  63.640  1.00  0.00    -0.470 C  
BRANCH   4   5
HETATM    5  C   UNL     1     -10.206  10.790  64.535  1.00  0.00    -0.428 C  
BRANCH   5   6
HETATM    6  C   UNL     1      -8.776  10.270  64.628  1.00  0.00    -0.203 C  
BRANCH   6   7
HETATM    7  C   UNL     1      -8.673   9.176  65.683  1.00  0.00    -0.203 C  
BRANCH   7   8
HETATM    8  C   UNL     1     -10.059   8.774  66.169  1.00  0.00    -0.154 C  
BRANCH   8   9
HETATM    9  C   UNL     1     -10.129   8.865  67.686  1.00  0.00    -0.274 C  
BRANCH   9  10
HETATM   10  C   UNL     1     -10.804  10.157  68.116  1.00  0.00    -0.310 C  
BRANCH  10  11
HETATM   11  C   UNL     1      -9.896  10.924  69.065  1.00  0.00    -0.196 C  
BRANCH  11  12
HETATM   12  C   UNL     1      -8.579  11.258  68.387  1.00  0.00    -0.155 C  
BRANCH  12  13
HETATM   13  C   UNL     1      -8.439  12.766  68.234  1.00  0.00    -0.161 C  
BRANCH  13  14
HETATM   14  C   UNL     1      -9.066  13.203  66.925  1.00  0.00    -0.231 C  
BRANCH  14  15
HETATM   15  C   UNL     1      -8.799  14.675  66.644  1.00  0.00    -0.240 C  
BRANCH  15  16
HETATM   16  C   UNL     1      -7.769  15.161  67.639  1.00  0.00    -0.167 C  
BRANCH  16  17
HETATM   17  O   UNL     1      -6.588  15.577  66.964  1.00  0.00    -0.279 OA 
BRANCH  17  18
HETATM   18  P   UNL     1      -6.414  17.298  66.931  1.00  0.00    -0.231 P  
HETATM   19  O   UNL     1      -5.136  17.125  66.104  1.00  0.00    -0.335 OA 
HETATM   20  O   UNL     1      -6.439  17.394  68.455  1.00  0.00    -0.168 OA 
BRANCH  18  21
HETATM   21  O   UNL     1      -6.242  19.019  66.898  1.00  0.00    -0.178 OA 
BRANCH  21  22
HETATM   22  C   UNL     1      -7.400  19.714  66.443  1.00  0.00    -0.255 C  
BRANCH  22  23
HETATM   23  C   UNL     1      -8.573  18.785  66.213  1.00  0.00    -0.234 C  
BRANCH  23  24
HETATM   24  N   UNL     1      -9.917  19.269  66.801  1.00  0.00    -0.334 N  
HETATM   25  C   UNL     1     -10.479  18.126  67.623  1.00  0.00    -0.416 C  
HETATM   26  C   UNL     1     -10.887  19.606  65.667  1.00  0.00    -0.257 C  
HETATM   27  C   UNL     1      -9.719  20.491  67.679  1.00  0.00    -0.361 C  
ENDBRANCH  23  24
ENDBRANCH  22  23
ENDBRANCH  21  22
ENDBRANCH  18  21
ENDBRANCH  17  18
ENDBRANCH  16  17
ENDBRANCH  15  16
ENDBRANCH  14  15
ENDBRANCH  13  14
ENDBRANCH  12  13
ENDBRANCH  11  12
ENDBRANCH  10  11
ENDBRANCH   9  10
ENDBRANCH   8   9
ENDBRANCH   7   8
ENDBRANCH   6   7
ENDBRANCH   5   6
ENDBRANCH   4   5
ENDBRANCH   3   4
ENDBRANCH   2   3
TORSDOF 20
ENDMDL
MODEL      130
REMARK 921   NORMALIZED FREE ENERGY PREDICTED BY IDOCK:   -3.97 KCAL/MOL
REMARK 922        TOTAL FREE ENERGY PREDICTED BY IDOCK:  -10.53 KCAL/MOL
REMARK 923 INTER-LIGAND FREE ENERGY PREDICTED BY IDOCK:   -8.50 KCAL/MOL
REMARK 924 INTRA-LIGAND FREE ENERGY PREDICTED BY IDOCK:   -2.03 KCAL/MOL
REMARK 927      BINDING AFFINITY PREDICTED BY RF-SCORE:    0.00 PKD
ROOT
HETATM    1  C   UNL     1     -14.345  15.252  71.743  1.00  0.00    -0.678 C  
HETATM    2  C   UNL     1     -13.347  15.816  72.739  1.00  0.00    -0.636 C  
ENDROOT
BRANCH   2   3
HETATM    3  C   UNL     1     -12.021  16.151  72.060  1.00  0.00    -0.607 C  
BRANCH   3   4
HETATM    4  C   UNL     1     -12.052  15.778  70.582  1.00  0.00    -0.424 C  
BRANCH   4   5
HETATM    5  C   UNL     1     -10.686  15.282  70.121  1.00  0.00    -0.293 C  
BRANCH   5   6
HETATM    6  C   UNL     1     -10.085  16.234  69.093  1.00  0.00    -0.264 C  
BRANCH   6   7
HETATM    7  C   UNL     1     -11.107  16.569  68.015  1.00  0.00    -0.275 C  
BRANCH   7   8
HETATM    8  C   UNL     1     -10.421  17.190  66.805  1.00  0.00    -0.263 C  
BRANCH   8   9
HETATM    9  C   UNL     1      -9.734  16.111  65.982  1.00  0.00    -0.376 C  
BRANCH   9  10
HETATM   10  C   UNL     1     -10.747  15.357  65.134  1.00  0.00    -0.460 C  
BRANCH  10  11
HETATM   11  C   UNL     1     -10.235  13.956  64.843  1.00  0.00    -0.378 C  
BRANCH  11  12
HETATM   12  C   UNL     1     -11.260  12.917  65.262  1.00  0.00    -0.319 C  
BRANCH  12  13
HETATM   13  C   UNL     1     -12.147  13.475  66.366  1.00  0.00    -0.467 C  
BRANCH  13  14
HETATM   14  C   UNL     1     -11.808  12.799  67.679  1.00  0.00    -0.396 C  
BRANCH  14  15
HETATM   15  C   UNL     1     -11.047  11.500  67.455  1.00  0.00    -0.329 C  
BRANCH  15  16
HETATM   16  C   UNL     1      -9.873  11.476  68.408  1.00  0.00    -0.204 C  
BRANCH  16  17
HETATM   17  O   UNL     1      -9.030  10.365  68.127  1.00  0.00    -0.128 OA 
BRANCH  17  18
HETATM   18  P   UNL     1      -9.905   9.011  67.498  1.00  0.00    -0.209 P  
HETATM   19  O   UNL     1      -9.725   8.305  68.846  1.00  0.00    -0.159 OA 
HETATM   20  O   UNL     1      -8.947   8.858  66.319  1.00  0.00    -0.149 OA 
BRANCH  18  21
HETATM   21  O   UNL     1     -10.781   7.659  66.869  1.00  0.00    -0.351 OA 
BRANCH  21  22
HETATM   22  C   UNL     1     -10.871   6.553  67.764  1.00  0.00    -0.314 C  
BRANCH  22  23
HETATM   23  C   UNL     1     -10.096   5.351  67.271  1.00  0.00    -0.193 C  
BRANCH  23  24
HETATM   24  N   UNL     1      -9.294   4.598  68.354  1.00  0.00    -0.129 N  
HETATM   25  C   UNL     1      -7.873   5.126  68.301  1.00  0.00    -0.087 C  
HETATM   26  C   UNL     1      -9.292   3.099  68.051  1.00  0.00    -0.194 C  
HETATM   27  C   UNL     1      -9.884   4.835  69.732  1.00  0.00    -0.218 C  
ENDBRANCH  23  24
ENDBRANCH  22  23
ENDBRANCH  21  22
ENDBRANCH  18  21
ENDBRANCH  17  18
ENDBRANCH  16  17
ENDBRANCH  15  16
ENDBRANCH  14  15
ENDBRANCH  13  14
ENDBRANCH  12  13
ENDBRANCH  11  12
ENDBRANCH  10  11
ENDBRANCH   9  10
ENDBRANCH   8   9
ENDBRANCH   7   8
ENDBRANCH   6   7
ENDBRANCH   5   6
ENDBRANCH   4   5
ENDBRANCH   3   4
ENDBRANCH   2   3
TORSDOF 20
ENDMDL
MODEL      131
REMARK 921   NORMALIZED FREE ENERGY PREDICTED BY IDOCK:   -3.96 KCAL/MOL
REMARK 922        TOTAL FREE ENERGY PREDICTED BY IDOCK:  -10.52 KCAL/MOL
REMARK 923 INTER-LIGAND FREE ENERGY PREDICTED BY IDOCK:   -7.78 KCAL/MOL
REMARK 924 INTRA-LIGAND FREE ENERGY PREDICTED BY IDOCK:   -2.74 KCAL/MOL
REMARK 927      BINDING AFFINITY PREDICTED BY RF-SCORE:    0.00 PKD
ROOT
HETATM    1  C   UNL     1      -9.675   4.154  68.980  1.00  0.00    -0.188 C  
HETATM    2  C   UNL     1     -10.240   5.208  69.917  1.00  0.00    -0.361 C  
ENDROOT
BRANCH   2   3
HETATM    3  C   UNL     1     -11.122   6.200  69.162  1.00  0.00    -0.448 C  
BRANCH   3   4
HETATM    4  C   UNL     1     -10.443   7.560  69.046  1.00  0.00    -0.216 C  
BRANCH   4   5
HETATM    5  C   UNL     1      -9.101   7.557  69.770  1.00  0.00    -0.140 C  
BRANCH   5   6
HETATM    6  C   UNL     1      -8.770   8.948  70.299  1.00  0.00    -0.183 C  
BRANCH   6   7
HETATM    7  C   UNL     1      -7.644   8.875  71.321  1.00  0.00    -0.132 C  
BRANCH   7   8
HETATM    8  C   UNL     1      -7.868   7.713  72.279  1.00  0.00    -0.116 C  
BRANCH   8   9
HETATM    9  C   UNL     1      -8.995   8.042  73.247  1.00  0.00    -0.338 C  
BRANCH   9  10
HETATM   10  C   UNL     1      -9.701   6.774  73.700  1.00  0.00    -0.247 C  
BRANCH  10  11
HETATM   11  C   UNL     1     -11.079   6.695  73.061  1.00  0.00    -0.238 C  
BRANCH  11  12
HETATM   12  C   UNL     1     -11.551   8.076  72.641  1.00  0.00    -0.448 C  
BRANCH  12  13
HETATM   13  C   UNL     1     -12.854   7.967  71.862  1.00  0.00    -0.343 C  
BRANCH  13  14
HETATM   14  C   UNL     1     -13.434   9.351  71.650  1.00  0.00    -0.467 C  
BRANCH  14  15
HETATM   15  C   UNL     1     -12.343  10.412  71.623  1.00  0.00    -0.402 C  
BRANCH  15  16
HETATM   16  C   UNL     1     -12.066  10.760  70.177  1.00  0.00    -0.346 C  
BRANCH  16  17
HETATM   17  O   UNL     1     -11.767  12.145  70.051  1.00  0.00    -0.308 OA 
BRANCH  17  18
HETATM   18  P   UNL     1     -11.588  12.637  68.402  1.00  0.00    -0.347 P  
HETATM   19  O   UNL     1     -10.081  12.384  68.520  1.00  0.00    -0.221 OA 
HETATM   20  O   UNL     1     -12.250  13.988  68.665  1.00  0.00    -0.332 OA 
BRANCH  18  21
HETATM   21  O   UNL     1     -11.409  13.128  66.752  1.00  0.00    -0.293 OA 
BRANCH  21  22
HETATM   22  C   UNL     1     -11.286  14.536  66.572  1.00  0.00    -0.352 C  
BRANCH  22  23
HETATM   23  C   UNL     1      -9.869  14.952  66.242  1.00  0.00    -0.294 C  
BRANCH  23  24
HETATM   24  N   UNL     1      -9.397  16.260  66.913  1.00  0.00    -0.216 N  
HETATM   25  C   UNL     1      -7.885  16.297  66.799  1.00  0.00    -0.265 C  
HETATM   26  C   UNL     1      -9.797  16.260  68.390  1.00  0.00    -0.229 C  
HETATM   27  C   UNL     1      -9.998  17.473  66.226  1.00  0.00    -0.308 C  
ENDBRANCH  23  24
ENDBRANCH  22  23
ENDBRANCH  21  22
ENDBRANCH  18  21
ENDBRANCH  17  18
ENDBRANCH  16  17
ENDBRANCH  15  16
ENDBRANCH  14  15
ENDBRANCH  13  14
ENDBRANCH  12  13
ENDBRANCH  11  12
ENDBRANCH  10  11
ENDBRANCH   9  10
ENDBRANCH   8   9
ENDBRANCH   7   8
ENDBRANCH   6   7
ENDBRANCH   5   6
ENDBRANCH   4   5
ENDBRANCH   3   4
ENDBRANCH   2   3
TORSDOF 20
ENDMDL
MODEL      132
REMARK 921   NORMALIZED FREE ENERGY PREDICTED BY IDOCK:   -3.96 KCAL/MOL
REMARK 922        TOTAL FREE ENERGY PREDICTED BY IDOCK:  -10.51 KCAL/MOL
REMARK 923 INTER-LIGAND FREE ENERGY PREDICTED BY IDOCK:   -7.96 KCAL/MOL
REMARK 924 INTRA-LIGAND FREE ENERGY PREDICTED BY IDOCK:   -2.55 KCAL/MOL
REMARK 927      BINDING AFFINITY PREDICTED BY RF-SCORE:    0.00 PKD
ROOT
HETATM    1  C   UNL     1      -9.273   9.397  70.351  1.00  0.00    -0.305 C  
HETATM    2  C   UNL     1      -8.143   8.956  71.265  1.00  0.00    -0.185 C  
ENDROOT
BRANCH   2   3
HETATM    3  C   UNL     1      -7.258   7.916  70.584  1.00  0.00    -0.053 C  
BRANCH   3   4
HETATM    4  C   UNL     1      -7.305   6.585  71.326  1.00  0.00    -0.080 C  
BRANCH   4   5
HETATM    5  C   UNL     1      -7.810   5.474  70.412  1.00  0.00    -0.101 C  
BRANCH   5   6
HETATM    6  C   UNL     1      -7.950   5.976  68.980  1.00  0.00    -0.104 C  
BRANCH   6   7
HETATM    7  C   UNL     1      -9.391   5.843  68.506  1.00  0.00    -0.127 C  
BRANCH   7   8
HETATM    8  C   UNL     1     -10.252   5.207  69.589  1.00  0.00    -0.337 C  
BRANCH   8   9
HETATM    9  C   UNL     1     -11.301   6.196  70.072  1.00  0.00    -0.443 C  
BRANCH   9  10
HETATM   10  C   UNL     1     -11.317   6.264  71.591  1.00  0.00    -0.347 C  
BRANCH  10  11
HETATM   11  C   UNL     1     -12.101   7.485  72.045  1.00  0.00    -0.326 C  
BRANCH  11  12
HETATM   12  C   UNL     1     -13.521   7.435  71.509  1.00  0.00    -0.445 C  
BRANCH  12  13
HETATM   13  C   UNL     1     -14.122   8.834  71.492  1.00  0.00    -0.383 C  
BRANCH  13  14
HETATM   14  C   UNL     1     -13.019   9.856  71.308  1.00  0.00    -0.488 C  
BRANCH  14  15
HETATM   15  C   UNL     1     -13.371  11.180  71.972  1.00  0.00    -0.384 C  
BRANCH  15  16
HETATM   16  C   UNL     1     -12.700  12.287  71.192  1.00  0.00    -0.243 C  
BRANCH  16  17
HETATM   17  O   UNL     1     -13.053  13.556  71.730  1.00  0.00    -0.361 OA 
BRANCH  17  18
HETATM   18  P   UNL     1     -12.411  14.870  70.807  1.00  0.00    -0.397 P  
HETATM   19  O   UNL     1     -11.298  15.021  71.849  1.00  0.00    -0.375 OA 
HETATM   20  O   UNL     1     -13.733  15.633  70.853  1.00  0.00    -0.549 OA 
BRANCH  18  21
HETATM   21  O   UNL     1     -11.768  16.184  69.883  1.00  0.00    -0.300 OA 
BRANCH  21  22
HETATM   22  C   UNL     1     -11.642  15.912  68.490  1.00  0.00    -0.349 C  
BRANCH  22  23
HETATM   23  C   UNL     1     -11.712  14.432  68.185  1.00  0.00    -0.342 C  
BRANCH  23  24
HETATM   24  N   UNL     1     -10.400  13.807  67.664  1.00  0.00    -0.237 N  
HETATM   25  C   UNL     1     -10.182  14.338  66.261  1.00  0.00    -0.301 C  
HETATM   26  C   UNL     1     -10.533  12.284  67.617  1.00  0.00    -0.214 C  
HETATM   27  C   UNL     1      -9.227  14.185  68.549  1.00  0.00    -0.187 C  
ENDBRANCH  23  24
ENDBRANCH  22  23
ENDBRANCH  21  22
ENDBRANCH  18  21
ENDBRANCH  17  18
ENDBRANCH  16  17
ENDBRANCH  15  16
ENDBRANCH  14  15
ENDBRANCH  13  14
ENDBRANCH  12  13
ENDBRANCH  11  12
ENDBRANCH  10  11
ENDBRANCH   9  10
ENDBRANCH   8   9
ENDBRANCH   7   8
ENDBRANCH   6   7
ENDBRANCH   5   6
ENDBRANCH   4   5
ENDBRANCH   3   4
ENDBRANCH   2   3
TORSDOF 20
ENDMDL
MODEL      133
REMARK 921   NORMALIZED FREE ENERGY PREDICTED BY IDOCK:   -3.95 KCAL/MOL
REMARK 922        TOTAL FREE ENERGY PREDICTED BY IDOCK:  -10.48 KCAL/MOL
REMARK 923 INTER-LIGAND FREE ENERGY PREDICTED BY IDOCK:   -8.49 KCAL/MOL
REMARK 924 INTRA-LIGAND FREE ENERGY PREDICTED BY IDOCK:   -1.99 KCAL/MOL
REMARK 927      BINDING AFFINITY PREDICTED BY RF-SCORE:    0.00 PKD
ROOT
HETATM    1  C   UNL     1     -12.403  16.383  73.088  1.00  0.00    -0.518 C  
HETATM    2  C   UNL     1     -12.809  14.963  73.441  1.00  0.00    -0.638 C  
ENDROOT
BRANCH   2   3
HETATM    3  C   UNL     1     -13.027  14.123  72.185  1.00  0.00    -0.463 C  
BRANCH   3   4
HETATM    4  C   UNL     1     -13.383  15.004  70.991  1.00  0.00    -0.477 C  
BRANCH   4   5
HETATM    5  C   UNL     1     -12.391  14.798  69.853  1.00  0.00    -0.328 C  
BRANCH   5   6
HETATM    6  C   UNL     1     -11.517  13.576  70.114  1.00  0.00    -0.083 C  
BRANCH   6   7
HETATM    7  C   UNL     1     -11.837  12.469  69.118  1.00  0.00    -0.348 C  
BRANCH   7   8
HETATM    8  C   UNL     1     -11.798  11.109  69.803  1.00  0.00    -0.422 C  
BRANCH   8   9
HETATM    9  C   UNL     1     -11.049  10.108  68.938  1.00  0.00    -0.251 C  
BRANCH   9  10
HETATM   10  C   UNL     1      -9.621   9.936  69.429  1.00  0.00    -0.229 C  
BRANCH  10  11
HETATM   11  C   UNL     1      -8.657  10.028  68.256  1.00  0.00    -0.115 C  
BRANCH  11  12
HETATM   12  C   UNL     1      -8.526  11.467  67.788  1.00  0.00    -0.128 C  
BRANCH  12  13
HETATM   13  C   UNL     1      -8.554  11.525  66.267  1.00  0.00    -0.133 C  
BRANCH  13  14
HETATM   14  C   UNL     1      -9.950  11.887  65.800  1.00  0.00    -0.264 C  
BRANCH  14  15
HETATM   15  C   UNL     1      -9.935  13.119  64.906  1.00  0.00    -0.152 C  
BRANCH  15  16
HETATM   16  C   UNL     1     -11.357  13.398  64.473  1.00  0.00    -0.366 C  
BRANCH  16  17
HETATM   17  O   UNL     1     -11.806  14.633  65.017  1.00  0.00    -0.371 OA 
BRANCH  17  18
HETATM   18  P   UNL     1     -10.516  15.760  65.258  1.00  0.00    -0.280 P  
HETATM   19  O   UNL     1     -10.830  15.755  66.758  1.00  0.00    -0.316 OA 
HETATM   20  O   UNL     1     -11.113  16.754  64.264  1.00  0.00    -1.106 OA 
BRANCH  18  21
HETATM   21  O   UNL     1      -9.226  16.887  65.499  1.00  0.00    -0.443 OA 
BRANCH  21  22
HETATM   22  C   UNL     1      -8.253  16.465  66.451  1.00  0.00    -0.331 C  
BRANCH  22  23
HETATM   23  C   UNL     1      -7.699  17.621  67.257  1.00  0.00    -0.204 C  
BRANCH  23  24
HETATM   24  N   UNL     1      -7.915  17.519  68.782  1.00  0.00    -0.265 N  
HETATM   25  C   UNL     1      -8.900  16.391  69.017  1.00  0.00    -0.240 C  
HETATM   26  C   UNL     1      -8.505  18.828  69.311  1.00  0.00     0.161 C  
HETATM   27  C   UNL     1      -6.610  17.226  69.499  1.00  0.00    -0.178 C  
ENDBRANCH  23  24
ENDBRANCH  22  23
ENDBRANCH  21  22
ENDBRANCH  18  21
ENDBRANCH  17  18
ENDBRANCH  16  17
ENDBRANCH  15  16
ENDBRANCH  14  15
ENDBRANCH  13  14
ENDBRANCH  12  13
ENDBRANCH  11  12
ENDBRANCH  10  11
ENDBRANCH   9  10
ENDBRANCH   8   9
ENDBRANCH   7   8
ENDBRANCH   6   7
ENDBRANCH   5   6
ENDBRANCH   4   5
ENDBRANCH   3   4
ENDBRANCH   2   3
TORSDOF 20
ENDMDL
MODEL      134
REMARK 921   NORMALIZED FREE ENERGY PREDICTED BY IDOCK:   -3.95 KCAL/MOL
REMARK 922        TOTAL FREE ENERGY PREDICTED BY IDOCK:  -10.48 KCAL/MOL
REMARK 923 INTER-LIGAND FREE ENERGY PREDICTED BY IDOCK:   -8.40 KCAL/MOL
REMARK 924 INTRA-LIGAND FREE ENERGY PREDICTED BY IDOCK:   -2.08 KCAL/MOL
REMARK 927      BINDING AFFINITY PREDICTED BY RF-SCORE:    0.00 PKD
ROOT
HETATM    1  C   UNL     1     -12.476  12.066  63.578  1.00  0.00    -0.654 C  
HETATM    2  C   UNL     1     -11.002  12.378  63.773  1.00  0.00    -0.501 C  
ENDROOT
BRANCH   2   3
HETATM    3  C   UNL     1     -10.803  13.453  64.838  1.00  0.00    -0.363 C  
BRANCH   3   4
HETATM    4  C   UNL     1     -12.142  13.971  65.352  1.00  0.00    -0.411 C  
BRANCH   4   5
HETATM    5  C   UNL     1     -12.198  13.907  66.874  1.00  0.00    -0.415 C  
BRANCH   5   6
HETATM    6  C   UNL     1     -11.359  15.019  67.492  1.00  0.00    -0.340 C  
BRANCH   6   7
HETATM    7  C   UNL     1     -10.882  14.618  68.882  1.00  0.00    -0.257 C  
BRANCH   7   8
HETATM    8  C   UNL     1     -11.346  15.633  69.918  1.00  0.00    -0.340 C  
BRANCH   8   9
HETATM    9  C   UNL     1     -11.934  14.918  71.125  1.00  0.00    -0.389 C  
BRANCH   9  10
HETATM   10  C   UNL     1     -13.433  14.728  70.958  1.00  0.00    -0.401 C  
BRANCH  10  11
HETATM   11  C   UNL     1     -13.925  13.644  71.904  1.00  0.00    -0.410 C  
BRANCH  11  12
HETATM   12  C   UNL     1     -12.823  12.636  72.176  1.00  0.00    -0.205 C  
BRANCH  12  13
HETATM   13  C   UNL     1     -13.090  11.350  71.407  1.00  0.00    -0.377 C  
BRANCH  13  14
HETATM   14  C   UNL     1     -11.837  10.937  70.661  1.00  0.00    -0.453 C  
BRANCH  14  15
HETATM   15  C   UNL     1     -12.034  11.018  69.154  1.00  0.00    -0.394 C  
BRANCH  15  16
HETATM   16  C   UNL     1     -10.669  11.099  68.508  1.00  0.00    -0.201 C  
BRANCH  16  17
HETATM   17  O   UNL     1     -10.618  10.267  67.355  1.00  0.00    -0.233 OA 
BRANCH  17  18
HETATM   18  P   UNL     1      -9.934   8.713  67.689  1.00  0.00    -0.226 P  
HETATM   19  O   UNL     1      -8.561   9.263  67.288  1.00  0.00    -0.124 OA 
HETATM   20  O   UNL     1     -10.889   8.015  66.723  1.00  0.00    -0.214 OA 
BRANCH  18  21
HETATM   21  O   UNL     1      -9.251   7.159  68.023  1.00  0.00    -0.132 OA 
BRANCH  21  22
HETATM   22  C   UNL     1      -9.429   6.720  69.367  1.00  0.00    -0.147 C  
BRANCH  22  23
HETATM   23  C   UNL     1     -10.746   7.182  69.952  1.00  0.00    -0.239 C  
BRANCH  23  24
HETATM   24  N   UNL     1     -10.963   6.827  71.439  1.00  0.00    -0.236 N  
HETATM   25  C   UNL     1     -12.397   7.185  71.776  1.00  0.00    -0.350 C  
HETATM   26  C   UNL     1     -10.013   7.649  72.313  1.00  0.00    -0.190 C  
HETATM   27  C   UNL     1     -10.726   5.348  71.686  1.00  0.00    -0.198 C  
ENDBRANCH  23  24
ENDBRANCH  22  23
ENDBRANCH  21  22
ENDBRANCH  18  21
ENDBRANCH  17  18
ENDBRANCH  16  17
ENDBRANCH  15  16
ENDBRANCH  14  15
ENDBRANCH  13  14
ENDBRANCH  12  13
ENDBRANCH  11  12
ENDBRANCH  10  11
ENDBRANCH   9  10
ENDBRANCH   8   9
ENDBRANCH   7   8
ENDBRANCH   6   7
ENDBRANCH   5   6
ENDBRANCH   4   5
ENDBRANCH   3   4
ENDBRANCH   2   3
TORSDOF 20
ENDMDL
MODEL      135
REMARK 921   NORMALIZED FREE ENERGY PREDICTED BY IDOCK:   -3.94 KCAL/MOL
REMARK 922        TOTAL FREE ENERGY PREDICTED BY IDOCK:  -10.46 KCAL/MOL
REMARK 923 INTER-LIGAND FREE ENERGY PREDICTED BY IDOCK:   -9.06 KCAL/MOL
REMARK 924 INTRA-LIGAND FREE ENERGY PREDICTED BY IDOCK:   -1.40 KCAL/MOL
REMARK 927      BINDING AFFINITY PREDICTED BY RF-SCORE:    0.00 PKD
ROOT
HETATM    1  C   UNL     1      -5.582  20.506  65.180  1.00  0.00    -0.223 C  
HETATM    2  C   UNL     1      -6.264  19.825  66.354  1.00  0.00    -0.177 C  
ENDROOT
BRANCH   2   3
HETATM    3  C   UNL     1      -7.028  20.833  67.209  1.00  0.00    -0.414 C  
BRANCH   3   4
HETATM    4  C   UNL     1      -8.455  20.363  67.467  1.00  0.00    -0.349 C  
BRANCH   4   5
HETATM    5  C   UNL     1      -9.036  19.693  66.226  1.00  0.00    -0.420 C  
BRANCH   5   6
HETATM    6  C   UNL     1     -10.514  19.379  66.425  1.00  0.00    -0.581 C  
BRANCH   6   7
HETATM    7  C   UNL     1     -10.760  18.834  67.825  1.00  0.00    -0.406 C  
BRANCH   7   8
HETATM    8  C   UNL     1     -10.634  17.316  67.836  1.00  0.00    -0.384 C  
BRANCH   8   9
HETATM    9  C   UNL     1      -9.416  16.897  68.644  1.00  0.00    -0.268 C  
BRANCH   9  10
HETATM   10  C   UNL     1      -9.735  15.690  69.510  1.00  0.00    -0.287 C  
BRANCH  10  11
HETATM   11  C   UNL     1     -11.221  15.665  69.834  1.00  0.00    -0.335 C  
BRANCH  11  12
HETATM   12  C   UNL     1     -11.467  16.181  71.241  1.00  0.00    -0.433 C  
BRANCH  12  13
HETATM   13  C   UNL     1     -12.556  15.358  71.916  1.00  0.00    -0.455 C  
BRANCH  13  14
HETATM   14  C   UNL     1     -12.575  13.963  71.325  1.00  0.00    -0.450 C  
BRANCH  14  15
HETATM   15  C   UNL     1     -13.475  13.032  72.125  1.00  0.00    -0.638 C  
BRANCH  15  16
HETATM   16  C   UNL     1     -13.140  11.610  71.735  1.00  0.00    -0.382 C  
BRANCH  16  17
HETATM   17  O   UNL     1     -12.193  11.597  70.675  1.00  0.00    -0.369 OA 
BRANCH  17  18
HETATM   18  P   UNL     1     -11.597  10.009  70.336  1.00  0.00    -0.296 P  
HETATM   19  O   UNL     1     -11.773   9.658  71.817  1.00  0.00    -0.388 OA 
HETATM   20  O   UNL     1     -10.302  10.553  69.736  1.00  0.00    -0.232 OA 
BRANCH  18  21
HETATM   21  O   UNL     1     -11.002   8.420  69.996  1.00  0.00    -0.244 OA 
BRANCH  21  22
HETATM   22  C   UNL     1     -11.527   7.405  70.848  1.00  0.00    -0.286 C  
BRANCH  22  23
HETATM   23  C   UNL     1     -10.689   6.146  70.824  1.00  0.00    -0.266 C  
BRANCH  23  24
HETATM   24  N   UNL     1     -10.109   5.719  72.190  1.00  0.00    -0.180 N  
HETATM   25  C   UNL     1      -9.538   6.964  72.839  1.00  0.00    -0.148 C  
HETATM   26  C   UNL     1      -8.991   4.695  71.982  1.00  0.00    -0.126 C  
HETATM   27  C   UNL     1     -11.186   5.119  73.076  1.00  0.00    -0.322 C  
ENDBRANCH  23  24
ENDBRANCH  22  23
ENDBRANCH  21  22
ENDBRANCH  18  21
ENDBRANCH  17  18
ENDBRANCH  16  17
ENDBRANCH  15  16
ENDBRANCH  14  15
ENDBRANCH  13  14
ENDBRANCH  12  13
ENDBRANCH  11  12
ENDBRANCH  10  11
ENDBRANCH   9  10
ENDBRANCH   8   9
ENDBRANCH   7   8
ENDBRANCH   6   7
ENDBRANCH   5   6
ENDBRANCH   4   5
ENDBRANCH   3   4
ENDBRANCH   2   3
TORSDOF 20
ENDMDL
MODEL      136
REMARK 921   NORMALIZED FREE ENERGY PREDICTED BY IDOCK:   -3.93 KCAL/MOL
REMARK 922        TOTAL FREE ENERGY PREDICTED BY IDOCK:  -10.45 KCAL/MOL
REMARK 923 INTER-LIGAND FREE ENERGY PREDICTED BY IDOCK:   -7.59 KCAL/MOL
REMARK 924 INTRA-LIGAND FREE ENERGY PREDICTED BY IDOCK:   -2.86 KCAL/MOL
REMARK 927      BINDING AFFINITY PREDICTED BY RF-SCORE:    0.00 PKD
ROOT
HETATM    1  C   UNL     1      -9.755   9.964  65.110  1.00  0.00    -0.376 C  
HETATM    2  C   UNL     1     -10.355   9.357  66.367  1.00  0.00    -0.237 C  
ENDROOT
BRANCH   2   3
HETATM    3  C   UNL     1      -9.755   7.984  66.656  1.00  0.00    -0.313 C  
BRANCH   3   4
HETATM    4  C   UNL     1     -10.524   7.271  67.764  1.00  0.00    -0.292 C  
BRANCH   4   5
HETATM    5  C   UNL     1      -9.619   6.298  68.511  1.00  0.00    -0.128 C  
BRANCH   5   6
HETATM    6  C   UNL     1     -10.348   5.689  69.702  1.00  0.00    -0.346 C  
BRANCH   6   7
HETATM    7  C   UNL     1     -11.659   6.421  69.957  1.00  0.00    -0.446 C  
BRANCH   7   8
HETATM    8  C   UNL     1     -11.686   6.988  71.370  1.00  0.00    -0.344 C  
BRANCH   8   9
HETATM    9  C   UNL     1     -12.022   8.471  71.333  1.00  0.00    -0.345 C  
BRANCH   9  10
HETATM   10  C   UNL     1     -10.820   9.282  70.877  1.00  0.00    -0.365 C  
BRANCH  10  11
HETATM   11  C   UNL     1      -9.582   8.848  71.647  1.00  0.00    -0.363 C  
BRANCH  11  12
HETATM   12  C   UNL     1      -8.348   8.946  70.768  1.00  0.00    -0.205 C  
BRANCH  12  13
HETATM   13  C   UNL     1      -8.586   9.945  69.644  1.00  0.00    -0.207 C  
BRANCH  13  14
HETATM   14  C   UNL     1      -7.258  10.343  69.031  1.00  0.00    -0.088 C  
BRANCH  14  15
HETATM   15  C   UNL     1      -7.454  11.187  67.780  1.00  0.00    -0.095 C  
BRANCH  15  16
HETATM   16  C   UNL     1      -8.563  12.178  68.054  1.00  0.00    -0.175 C  
BRANCH  16  17
HETATM   17  O   UNL     1      -8.741  13.042  66.938  1.00  0.00    -0.207 OA 
BRANCH  17  18
HETATM   18  P   UNL     1     -10.005  14.196  67.187  1.00  0.00    -0.265 P  
HETATM   19  O   UNL     1     -10.142  13.692  68.628  1.00  0.00    -0.230 OA 
HETATM   20  O   UNL     1     -10.818  13.655  66.013  1.00  0.00    -0.275 OA 
BRANCH  18  21
HETATM   21  O   UNL     1     -11.269  15.351  67.436  1.00  0.00    -0.328 OA 
BRANCH  21  22
HETATM   22  C   UNL     1     -10.825  16.598  67.964  1.00  0.00    -0.337 C  
BRANCH  22  23
HETATM   23  C   UNL     1     -10.385  17.557  66.879  1.00  0.00    -0.315 C  
BRANCH  23  24
HETATM   24  N   UNL     1      -9.380  18.639  67.330  1.00  0.00    -0.284 N  
HETATM   25  C   UNL     1      -8.025  17.967  67.445  1.00  0.00    -0.213 C  
HETATM   26  C   UNL     1      -9.791  19.193  68.695  1.00  0.00    -0.420 C  
HETATM   27  C   UNL     1      -9.312  19.773  66.323  1.00  0.00    -0.391 C  
ENDBRANCH  23  24
ENDBRANCH  22  23
ENDBRANCH  21  22
ENDBRANCH  18  21
ENDBRANCH  17  18
ENDBRANCH  16  17
ENDBRANCH  15  16
ENDBRANCH  14  15
ENDBRANCH  13  14
ENDBRANCH  12  13
ENDBRANCH  11  12
ENDBRANCH  10  11
ENDBRANCH   9  10
ENDBRANCH   8   9
ENDBRANCH   7   8
ENDBRANCH   6   7
ENDBRANCH   5   6
ENDBRANCH   4   5
ENDBRANCH   3   4
ENDBRANCH   2   3
TORSDOF 20
ENDMDL
MODEL      137
REMARK 921   NORMALIZED FREE ENERGY PREDICTED BY IDOCK:   -3.93 KCAL/MOL
REMARK 922        TOTAL FREE ENERGY PREDICTED BY IDOCK:  -10.44 KCAL/MOL
REMARK 923 INTER-LIGAND FREE ENERGY PREDICTED BY IDOCK:   -8.70 KCAL/MOL
REMARK 924 INTRA-LIGAND FREE ENERGY PREDICTED BY IDOCK:   -1.74 KCAL/MOL
REMARK 927      BINDING AFFINITY PREDICTED BY RF-SCORE:    0.00 PKD
ROOT
HETATM    1  C   UNL     1     -11.487  13.204  64.089  1.00  0.00    -0.449 C  
HETATM    2  C   UNL     1     -10.600  14.216  64.795  1.00  0.00    -0.439 C  
ENDROOT
BRANCH   2   3
HETATM    3  C   UNL     1     -11.304  14.812  66.011  1.00  0.00    -0.332 C  
BRANCH   3   4
HETATM    4  C   UNL     1     -12.082  13.744  66.774  1.00  0.00    -0.460 C  
BRANCH   4   5
HETATM    5  C   UNL     1     -11.852  13.877  68.275  1.00  0.00    -0.412 C  
BRANCH   5   6
HETATM    6  C   UNL     1     -11.523  15.319  68.645  1.00  0.00    -0.350 C  
BRANCH   6   7
HETATM    7  C   UNL     1     -10.816  15.376  69.992  1.00  0.00    -0.320 C  
BRANCH   7   8
HETATM    8  C   UNL     1     -11.623  16.207  70.982  1.00  0.00    -0.434 C  
BRANCH   8   9
HETATM    9  C   UNL     1     -12.082  15.339  72.143  1.00  0.00    -0.477 C  
BRANCH   9  10
HETATM   10  C   UNL     1     -13.574  15.059  72.047  1.00  0.00    -0.522 C  
BRANCH  10  11
HETATM   11  C   UNL     1     -13.849  13.604  72.390  1.00  0.00    -0.691 C  
BRANCH  11  12
HETATM   12  C   UNL     1     -12.815  12.700  71.742  1.00  0.00    -0.343 C  
BRANCH  12  13
HETATM   13  C   UNL     1     -13.260  11.247  71.835  1.00  0.00    -0.491 C  
BRANCH  13  14
HETATM   14  C   UNL     1     -12.126  10.341  71.398  1.00  0.00    -0.457 C  
BRANCH  14  15
HETATM   15  C   UNL     1     -11.697  10.637  69.969  1.00  0.00    -0.405 C  
BRANCH  15  16
HETATM   16  C   UNL     1     -10.395   9.912  69.712  1.00  0.00    -0.246 C  
BRANCH  16  17
HETATM   17  O   UNL     1     -10.428   9.270  68.442  1.00  0.00    -0.204 OA 
BRANCH  17  18
HETATM   18  P   UNL     1      -9.877   7.632  68.512  1.00  0.00    -0.176 P  
HETATM   19  O   UNL     1     -10.839   7.290  67.370  1.00  0.00    -0.274 OA 
HETATM   20  O   UNL     1     -10.230   7.509  69.992  1.00  0.00    -0.206 OA 
BRANCH  18  21
HETATM   21  O   UNL     1      -9.324   5.994  68.581  1.00  0.00    -0.118 OA 
BRANCH  21  22
HETATM   22  C   UNL     1      -9.952   5.208  69.590  1.00  0.00    -0.243 C  
BRANCH  22  23
HETATM   23  C   UNL     1      -9.194   3.930  69.877  1.00  0.00    -0.144 C  
BRANCH  23  24
HETATM   24  N   UNL     1      -9.169   3.502  71.360  1.00  0.00    -0.115 N  
HETATM   25  C   UNL     1      -9.724   2.092  71.424  1.00  0.00    -0.142 C  
HETATM   26  C   UNL     1     -10.055   4.437  72.185  1.00  0.00    -0.195 C  
HETATM   27  C   UNL     1      -7.755   3.527  71.911  1.00  0.00    -0.058 C  
ENDBRANCH  23  24
ENDBRANCH  22  23
ENDBRANCH  21  22
ENDBRANCH  18  21
ENDBRANCH  17  18
ENDBRANCH  16  17
ENDBRANCH  15  16
ENDBRANCH  14  15
ENDBRANCH  13  14
ENDBRANCH  12  13
ENDBRANCH  11  12
ENDBRANCH  10  11
ENDBRANCH   9  10
ENDBRANCH   8   9
ENDBRANCH   7   8
ENDBRANCH   6   7
ENDBRANCH   5   6
ENDBRANCH   4   5
ENDBRANCH   3   4
ENDBRANCH   2   3
TORSDOF 20
ENDMDL
MODEL      138
REMARK 921   NORMALIZED FREE ENERGY PREDICTED BY IDOCK:   -3.92 KCAL/MOL
REMARK 922        TOTAL FREE ENERGY PREDICTED BY IDOCK:  -10.43 KCAL/MOL
REMARK 923 INTER-LIGAND FREE ENERGY PREDICTED BY IDOCK:   -7.92 KCAL/MOL
REMARK 924 INTRA-LIGAND FREE ENERGY PREDICTED BY IDOCK:   -2.51 KCAL/MOL
REMARK 927      BINDING AFFINITY PREDICTED BY RF-SCORE:    0.00 PKD
ROOT
HETATM    1  C   UNL     1      -6.735   9.005  68.146  1.00  0.00    -0.065 C  
HETATM    2  C   UNL     1      -8.198   9.016  68.552  1.00  0.00    -0.112 C  
ENDROOT
BRANCH   2   3
HETATM    3  C   UNL     1      -9.011   9.948  67.657  1.00  0.00    -0.133 C  
BRANCH   3   4
HETATM    4  C   UNL     1     -10.254   9.246  67.119  1.00  0.00    -0.324 C  
BRANCH   4   5
HETATM    5  C   UNL     1      -9.936   7.804  66.736  1.00  0.00    -0.331 C  
BRANCH   5   6
HETATM    6  C   UNL     1     -11.116   6.891  67.049  1.00  0.00    -0.315 C  
BRANCH   6   7
HETATM    7  C   UNL     1     -10.635   5.469  67.308  1.00  0.00    -0.294 C  
BRANCH   7   8
HETATM    8  C   UNL     1      -9.860   5.398  68.617  1.00  0.00    -0.204 C  
BRANCH   8   9
HETATM    9  C   UNL     1     -10.741   5.848  69.772  1.00  0.00    -0.411 C  
BRANCH   9  10
HETATM   10  C   UNL     1      -9.893   6.266  70.963  1.00  0.00    -0.206 C  
BRANCH  10  11
HETATM   11  C   UNL     1     -10.483   7.511  71.605  1.00  0.00    -0.226 C  
BRANCH  11  12
HETATM   12  C   UNL     1     -11.394   8.233  70.627  1.00  0.00    -0.257 C  
BRANCH  12  13
HETATM   13  C   UNL     1     -11.143   9.733  70.689  1.00  0.00    -0.398 C  
BRANCH  13  14
HETATM   14  C   UNL     1     -12.383  10.473  70.233  1.00  0.00    -0.377 C  
BRANCH  14  15
HETATM   15  C   UNL     1     -12.272  11.966  70.506  1.00  0.00    -0.426 C  
BRANCH  15  16
HETATM   16  C   UNL     1     -11.695  12.625  69.272  1.00  0.00    -0.322 C  
BRANCH  16  17
HETATM   17  O   UNL     1     -12.057  14.000  69.231  1.00  0.00    -0.333 OA 
BRANCH  17  18
HETATM   18  P   UNL     1     -11.227  14.868  67.986  1.00  0.00    -0.329 P  
HETATM   19  O   UNL     1     -11.456  16.162  68.774  1.00  0.00    -0.362 OA 
HETATM   20  O   UNL     1     -12.172  14.347  66.905  1.00  0.00    -0.415 OA 
BRANCH  18  21
HETATM   21  O   UNL     1     -10.396  15.734  66.741  1.00  0.00    -0.280 OA 
BRANCH  21  22
HETATM   22  C   UNL     1      -9.219  16.407  67.182  1.00  0.00    -0.213 C  
BRANCH  22  23
HETATM   23  C   UNL     1      -8.927  17.648  66.367  1.00  0.00    -0.231 C  
BRANCH  23  24
HETATM   24  N   UNL     1      -8.805  18.954  67.182  1.00  0.00    -0.279 N  
HETATM   25  C   UNL     1     -10.215  19.413  67.497  1.00  0.00    -0.425 C  
HETATM   26  C   UNL     1      -8.096  20.021  66.347  1.00  0.00    -0.307 C  
HETATM   27  C   UNL     1      -8.035  18.723  68.469  1.00  0.00    -0.345 C  
ENDBRANCH  23  24
ENDBRANCH  22  23
ENDBRANCH  21  22
ENDBRANCH  18  21
ENDBRANCH  17  18
ENDBRANCH  16  17
ENDBRANCH  15  16
ENDBRANCH  14  15
ENDBRANCH  13  14
ENDBRANCH  12  13
ENDBRANCH  11  12
ENDBRANCH  10  11
ENDBRANCH   9  10
ENDBRANCH   8   9
ENDBRANCH   7   8
ENDBRANCH   6   7
ENDBRANCH   5   6
ENDBRANCH   4   5
ENDBRANCH   3   4
ENDBRANCH   2   3
TORSDOF 20
ENDMDL
MODEL      139
REMARK 921   NORMALIZED FREE ENERGY PREDICTED BY IDOCK:   -3.92 KCAL/MOL
REMARK 922        TOTAL FREE ENERGY PREDICTED BY IDOCK:  -10.42 KCAL/MOL
REMARK 923 INTER-LIGAND FREE ENERGY PREDICTED BY IDOCK:   -8.96 KCAL/MOL
REMARK 924 INTRA-LIGAND FREE ENERGY PREDICTED BY IDOCK:   -1.46 KCAL/MOL
REMARK 927      BINDING AFFINITY PREDICTED BY RF-SCORE:    0.00 PKD
ROOT
HETATM    1  C   UNL     1      -8.936   3.139  65.800  1.00  0.00    -0.143 C  
HETATM    2  C   UNL     1      -7.596   2.886  66.469  1.00  0.00    -0.076 C  
ENDROOT
BRANCH   2   3
HETATM    3  C   UNL     1      -7.779   2.389  67.900  1.00  0.00    -0.059 C  
BRANCH   3   4
HETATM    4  C   UNL     1      -9.254   2.364  68.287  1.00  0.00    -0.255 C  
BRANCH   4   5
HETATM    5  C   UNL     1      -9.456   2.940  69.684  1.00  0.00    -0.164 C  
BRANCH   5   6
HETATM    6  C   UNL     1      -9.084   4.417  69.718  1.00  0.00    -0.174 C  
BRANCH   6   7
HETATM    7  C   UNL     1     -10.029   5.226  68.839  1.00  0.00    -0.250 C  
BRANCH   7   8
HETATM    8  C   UNL     1     -10.937   6.099  69.696  1.00  0.00    -0.459 C  
BRANCH   8   9
HETATM    9  C   UNL     1     -10.602   5.915  71.169  1.00  0.00    -0.306 C  
BRANCH   9  10
HETATM   10  C   UNL     1     -11.842   6.104  72.028  1.00  0.00    -0.336 C  
BRANCH  10  11
HETATM   11  C   UNL     1     -12.693   7.232  71.465  1.00  0.00    -0.422 C  
BRANCH  11  12
HETATM   12  C   UNL     1     -12.515   8.495  72.290  1.00  0.00    -0.448 C  
BRANCH  12  13
HETATM   13  C   UNL     1     -11.913   9.598  71.432  1.00  0.00    -0.480 C  
BRANCH  13  14
HETATM   14  C   UNL     1     -13.017  10.498  70.914  1.00  0.00    -0.455 C  
BRANCH  14  15
HETATM   15  C   UNL     1     -12.643  11.967  71.040  1.00  0.00    -0.370 C  
BRANCH  15  16
HETATM   16  C   UNL     1     -13.483  12.571  72.142  1.00  0.00    -0.422 C  
BRANCH  16  17
HETATM   17  O   UNL     1     -13.054  13.898  72.421  1.00  0.00    -0.414 OA 
BRANCH  17  18
HETATM   18  P   UNL     1     -12.569  14.752  70.997  1.00  0.00    -0.398 P  
HETATM   19  O   UNL     1     -11.303  15.203  71.733  1.00  0.00    -0.397 OA 
HETATM   20  O   UNL     1     -13.867  15.556  70.960  1.00  0.00    -0.545 OA 
BRANCH  18  21
HETATM   21  O   UNL     1     -12.084  15.605  69.572  1.00  0.00    -0.360 OA 
BRANCH  21  22
HETATM   22  C   UNL     1     -12.084  14.812  68.388  1.00  0.00    -0.167 C  
BRANCH  22  23
HETATM   23  C   UNL     1     -10.964  15.190  67.443  1.00  0.00    -0.314 C  
BRANCH  23  24
HETATM   24  N   UNL     1     -11.083  14.606  66.019  1.00  0.00    -0.327 N  
HETATM   25  C   UNL     1     -12.500  14.088  65.868  1.00  0.00    -0.481 C  
HETATM   26  C   UNL     1     -10.097  13.449  65.849  1.00  0.00    -0.293 C  
HETATM   27  C   UNL     1     -10.805  15.667  64.970  1.00  0.00    -0.450 C  
ENDBRANCH  23  24
ENDBRANCH  22  23
ENDBRANCH  21  22
ENDBRANCH  18  21
ENDBRANCH  17  18
ENDBRANCH  16  17
ENDBRANCH  15  16
ENDBRANCH  14  15
ENDBRANCH  13  14
ENDBRANCH  12  13
ENDBRANCH  11  12
ENDBRANCH  10  11
ENDBRANCH   9  10
ENDBRANCH   8   9
ENDBRANCH   7   8
ENDBRANCH   6   7
ENDBRANCH   5   6
ENDBRANCH   4   5
ENDBRANCH   3   4
ENDBRANCH   2   3
TORSDOF 20
ENDMDL
MODEL      140
REMARK 921   NORMALIZED FREE ENERGY PREDICTED BY IDOCK:   -3.91 KCAL/MOL
REMARK 922        TOTAL FREE ENERGY PREDICTED BY IDOCK:  -10.40 KCAL/MOL
REMARK 923 INTER-LIGAND FREE ENERGY PREDICTED BY IDOCK:   -8.31 KCAL/MOL
REMARK 924 INTRA-LIGAND FREE ENERGY PREDICTED BY IDOCK:   -2.09 KCAL/MOL
REMARK 927      BINDING AFFINITY PREDICTED BY RF-SCORE:    0.00 PKD
ROOT
HETATM    1  C   UNL     1     -12.750  13.967  65.168  1.00  0.00    -0.419 C  
HETATM    2  C   UNL     1     -12.098  13.495  63.879  1.00  0.00    -0.493 C  
ENDROOT
BRANCH   2   3
HETATM    3  C   UNL     1     -12.155  11.974  63.758  1.00  0.00    -0.599 C  
BRANCH   3   4
HETATM    4  C   UNL     1     -10.754  11.377  63.687  1.00  0.00    -0.470 C  
BRANCH   4   5
HETATM    5  C   UNL     1      -9.983  11.654  64.973  1.00  0.00    -0.297 C  
BRANCH   5   6
HETATM    6  C   UNL     1     -10.653  10.973  66.161  1.00  0.00    -0.288 C  
BRANCH   6   7
HETATM    7  C   UNL     1     -10.438  11.785  67.432  1.00  0.00    -0.238 C  
BRANCH   7   8
HETATM    8  C   UNL     1     -11.775  12.140  68.069  1.00  0.00    -0.409 C  
BRANCH   8   9
HETATM    9  C   UNL     1     -11.923  11.428  69.405  1.00  0.00    -0.407 C  
BRANCH   9  10
HETATM   10  C   UNL     1     -12.234  12.423  70.512  1.00  0.00    -0.382 C  
BRANCH  10  11
HETATM   11  C   UNL     1     -12.943  11.717  71.657  1.00  0.00    -0.483 C  
BRANCH  11  12
HETATM   12  C   UNL     1     -13.244  10.275  71.288  1.00  0.00    -0.447 C  
BRANCH  12  13
HETATM   13  C   UNL     1     -12.830   9.348  72.422  1.00  0.00    -0.394 C  
BRANCH  13  14
HETATM   14  C   UNL     1     -11.825   8.337  71.909  1.00  0.00    -0.380 C  
BRANCH  14  15
HETATM   15  C   UNL     1     -10.418   8.917  71.879  1.00  0.00    -0.415 C  
BRANCH  15  16
HETATM   16  C   UNL     1      -9.836   8.659  70.507  1.00  0.00    -0.179 C  
BRANCH  16  17
HETATM   17  O   UNL     1      -9.729   7.260  70.270  1.00  0.00    -0.175 OA 
BRANCH  17  18
HETATM   18  P   UNL     1     -10.397   6.793  68.744  1.00  0.00    -0.225 P  
HETATM   19  O   UNL     1     -10.589   8.275  68.407  1.00  0.00    -0.186 OA 
HETATM   20  O   UNL     1     -11.463   5.922  69.405  1.00  0.00    -0.265 OA 
BRANCH  18  21
HETATM   21  O   UNL     1     -11.063   6.325  67.218  1.00  0.00    -0.353 OA 
BRANCH  21  22
HETATM   22  C   UNL     1     -10.327   5.307  66.546  1.00  0.00    -0.285 C  
BRANCH  22  23
HETATM   23  C   UNL     1      -8.921   5.163  67.087  1.00  0.00    -0.112 C  
BRANCH  23  24
HETATM   24  N   UNL     1      -8.452   3.710  67.316  1.00  0.00    -0.098 N  
HETATM   25  C   UNL     1      -9.501   3.035  68.177  1.00  0.00    -0.159 C  
HETATM   26  C   UNL     1      -7.110   3.708  68.051  1.00  0.00    -0.051 C  
HETATM   27  C   UNL     1      -8.308   2.970  65.998  1.00  0.00    -0.098 C  
ENDBRANCH  23  24
ENDBRANCH  22  23
ENDBRANCH  21  22
ENDBRANCH  18  21
ENDBRANCH  17  18
ENDBRANCH  16  17
ENDBRANCH  15  16
ENDBRANCH  14  15
ENDBRANCH  13  14
ENDBRANCH  12  13
ENDBRANCH  11  12
ENDBRANCH  10  11
ENDBRANCH   9  10
ENDBRANCH   8   9
ENDBRANCH   7   8
ENDBRANCH   6   7
ENDBRANCH   5   6
ENDBRANCH   4   5
ENDBRANCH   3   4
ENDBRANCH   2   3
TORSDOF 20
ENDMDL
MODEL      141
REMARK 921   NORMALIZED FREE ENERGY PREDICTED BY IDOCK:   -3.90 KCAL/MOL
REMARK 922        TOTAL FREE ENERGY PREDICTED BY IDOCK:  -10.39 KCAL/MOL
REMARK 923 INTER-LIGAND FREE ENERGY PREDICTED BY IDOCK:   -8.43 KCAL/MOL
REMARK 924 INTRA-LIGAND FREE ENERGY PREDICTED BY IDOCK:   -1.96 KCAL/MOL
REMARK 927      BINDING AFFINITY PREDICTED BY RF-SCORE:    0.00 PKD
ROOT
HETATM    1  C   UNL     1     -10.488  18.530  65.922  1.00  0.00    -0.379 C  
HETATM    2  C   UNL     1     -10.224  17.034  65.944  1.00  0.00    -0.311 C  
ENDROOT
BRANCH   2   3
HETATM    3  C   UNL     1     -11.041  16.315  64.873  1.00  0.00    -0.301 C  
BRANCH   3   4
HETATM    4  C   UNL     1     -10.915  14.802  65.011  1.00  0.00    -0.426 C  
BRANCH   4   5
HETATM    5  C   UNL     1     -12.244  14.119  64.704  1.00  0.00    -0.465 C  
BRANCH   5   6
HETATM    6  C   UNL     1     -12.076  13.087  63.596  1.00  0.00    -0.604 C  
BRANCH   6   7
HETATM    7  C   UNL     1     -11.636  11.749  64.175  1.00  0.00    -0.394 C  
BRANCH   7   8
HETATM    8  C   UNL     1     -10.493  11.164  63.355  1.00  0.00    -0.382 C  
BRANCH   8   9
HETATM    9  C   UNL     1      -9.267  10.964  64.233  1.00  0.00    -0.221 C  
BRANCH   9  10
HETATM   10  C   UNL     1      -9.647  11.018  65.705  1.00  0.00    -0.265 C  
BRANCH  10  11
HETATM   11  C   UNL     1      -9.807   9.607  66.248  1.00  0.00    -0.323 C  
BRANCH  11  12
HETATM   12  C   UNL     1     -10.745   9.601  67.443  1.00  0.00    -0.308 C  
BRANCH  12  13
HETATM   13  C   UNL     1     -11.353  10.983  67.636  1.00  0.00    -0.355 C  
BRANCH  13  14
HETATM   14  C   UNL     1     -11.843  11.125  69.063  1.00  0.00    -0.418 C  
BRANCH  14  15
HETATM   15  C   UNL     1     -11.700  12.556  69.561  1.00  0.00    -0.375 C  
BRANCH  15  16
HETATM   16  C   UNL     1     -10.948  13.343  68.511  1.00  0.00    -0.268 C  
BRANCH  16  17
HETATM   17  O   UNL     1     -10.900  14.720  68.865  1.00  0.00    -0.237 OA 
BRANCH  17  18
HETATM   18  P   UNL     1      -9.285  15.277  69.141  1.00  0.00    -0.207 P  
HETATM   19  O   UNL     1      -9.825  16.708  69.234  1.00  0.00    -0.251 OA 
HETATM   20  O   UNL     1      -8.776  14.638  67.851  1.00  0.00    -0.158 OA 
BRANCH  18  21
HETATM   21  O   UNL     1      -7.671  15.833  69.418  1.00  0.00    -0.219 OA 
BRANCH  21  22
HETATM   22  C   UNL     1      -7.287  16.940  68.607  1.00  0.00    -0.222 C  
BRANCH  22  23
HETATM   23  C   UNL     1      -6.390  17.909  69.345  1.00  0.00    -0.239 C  
BRANCH  23  24
HETATM   24  N   UNL     1      -6.345  19.337  68.757  1.00  0.00    -0.242 N  
HETATM   25  C   UNL     1      -7.759  19.689  68.338  1.00  0.00    -0.331 C  
HETATM   26  C   UNL     1      -5.428  19.366  67.533  1.00  0.00    -0.176 C  
HETATM   27  C   UNL     1      -5.846  20.334  69.787  1.00  0.00    -0.348 C  
ENDBRANCH  23  24
ENDBRANCH  22  23
ENDBRANCH  21  22
ENDBRANCH  18  21
ENDBRANCH  17  18
ENDBRANCH  16  17
ENDBRANCH  15  16
ENDBRANCH  14  15
ENDBRANCH  13  14
ENDBRANCH  12  13
ENDBRANCH  11  12
ENDBRANCH  10  11
ENDBRANCH   9  10
ENDBRANCH   8   9
ENDBRANCH   7   8
ENDBRANCH   6   7
ENDBRANCH   5   6
ENDBRANCH   4   5
ENDBRANCH   3   4
ENDBRANCH   2   3
TORSDOF 20
ENDMDL
MODEL      142
REMARK 921   NORMALIZED FREE ENERGY PREDICTED BY IDOCK:   -3.90 KCAL/MOL
REMARK 922        TOTAL FREE ENERGY PREDICTED BY IDOCK:  -10.38 KCAL/MOL
REMARK 923 INTER-LIGAND FREE ENERGY PREDICTED BY IDOCK:   -8.50 KCAL/MOL
REMARK 924 INTRA-LIGAND FREE ENERGY PREDICTED BY IDOCK:   -1.87 KCAL/MOL
REMARK 927      BINDING AFFINITY PREDICTED BY RF-SCORE:    0.00 PKD
ROOT
HETATM    1  C   UNL     1     -10.018  17.147  68.257  1.00  0.00    -0.300 C  
HETATM    2  C   UNL     1      -9.631  16.098  67.230  1.00  0.00    -0.231 C  
ENDROOT
BRANCH   2   3
HETATM    3  C   UNL     1     -10.369  16.317  65.912  1.00  0.00    -0.381 C  
BRANCH   3   4
HETATM    4  C   UNL     1     -10.509  15.011  65.137  1.00  0.00    -0.438 C  
BRANCH   4   5
HETATM    5  C   UNL     1     -11.881  14.918  64.479  1.00  0.00    -0.404 C  
BRANCH   5   6
HETATM    6  C   UNL     1     -12.702  13.794  65.099  1.00  0.00    -0.439 C  
BRANCH   6   7
HETATM    7  C   UNL     1     -11.874  12.519  65.197  1.00  0.00    -0.450 C  
BRANCH   7   8
HETATM    8  C   UNL     1     -11.706  11.886  63.822  1.00  0.00    -0.554 C  
BRANCH   8   9
HETATM    9  C   UNL     1     -10.234  11.834  63.445  1.00  0.00    -0.482 C  
BRANCH   9  10
HETATM   10  C   UNL     1      -9.753  10.395  63.357  1.00  0.00    -0.318 C  
BRANCH  10  11
HETATM   11  C   UNL     1      -9.438   9.870  64.749  1.00  0.00    -0.356 C  
BRANCH  11  12
HETATM   12  C   UNL     1      -8.092  10.391  65.222  1.00  0.00    -0.152 C  
BRANCH  12  13
HETATM   13  C   UNL     1      -8.159  10.745  66.701  1.00  0.00    -0.142 C  
BRANCH  13  14
HETATM   14  C   UNL     1      -8.670  12.163  66.858  1.00  0.00    -0.194 C  
BRANCH  14  15
HETATM   15  C   UNL     1      -9.677  12.269  67.995  1.00  0.00    -0.205 C  
BRANCH  15  16
HETATM   16  C   UNL     1     -10.205  10.881  68.281  1.00  0.00    -0.173 C  
BRANCH  16  17
HETATM   17  O   UNL     1     -11.542  10.950  68.763  1.00  0.00    -0.279 OA 
BRANCH  17  18
HETATM   18  P   UNL     1     -11.710  10.286  70.351  1.00  0.00    -0.337 P  
HETATM   19  O   UNL     1     -12.289  11.626  70.819  1.00  0.00    -0.376 OA 
HETATM   20  O   UNL     1     -10.229   9.923  70.426  1.00  0.00    -0.277 OA 
BRANCH  18  21
HETATM   21  O   UNL     1     -11.879   9.622  71.940  1.00  0.00    -0.367 OA 
BRANCH  21  22
HETATM   22  C   UNL     1     -12.698   8.457  72.002  1.00  0.00    -0.360 C  
BRANCH  22  23
HETATM   23  C   UNL     1     -12.066   7.272  71.306  1.00  0.00    -0.338 C  
BRANCH  23  24
HETATM   24  N   UNL     1     -10.996   6.523  72.129  1.00  0.00    -0.239 N  
HETATM   25  C   UNL     1     -10.666   7.394  73.325  1.00  0.00    -0.391 C  
HETATM   26  C   UNL     1      -9.738   6.322  71.282  1.00  0.00    -0.174 C  
HETATM   27  C   UNL     1     -11.513   5.174  72.596  1.00  0.00    -0.147 C  
ENDBRANCH  23  24
ENDBRANCH  22  23
ENDBRANCH  21  22
ENDBRANCH  18  21
ENDBRANCH  17  18
ENDBRANCH  16  17
ENDBRANCH  15  16
ENDBRANCH  14  15
ENDBRANCH  13  14
ENDBRANCH  12  13
ENDBRANCH  11  12
ENDBRANCH  10  11
ENDBRANCH   9  10
ENDBRANCH   8   9
ENDBRANCH   7   8
ENDBRANCH   6   7
ENDBRANCH   5   6
ENDBRANCH   4   5
ENDBRANCH   3   4
ENDBRANCH   2   3
TORSDOF 20
ENDMDL
MODEL      143
REMARK 921   NORMALIZED FREE ENERGY PREDICTED BY IDOCK:   -3.87 KCAL/MOL
REMARK 922        TOTAL FREE ENERGY PREDICTED BY IDOCK:  -10.32 KCAL/MOL
REMARK 923 INTER-LIGAND FREE ENERGY PREDICTED BY IDOCK:   -8.37 KCAL/MOL
REMARK 924 INTRA-LIGAND FREE ENERGY PREDICTED BY IDOCK:   -1.95 KCAL/MOL
REMARK 927      BINDING AFFINITY PREDICTED BY RF-SCORE:    0.00 PKD
ROOT
HETATM    1  C   UNL     1     -11.093  11.930  65.623  1.00  0.00    -0.362 C  
HETATM    2  C   UNL     1     -10.452  13.284  65.876  1.00  0.00    -0.289 C  
ENDROOT
BRANCH   2   3
HETATM    3  C   UNL     1     -10.047  13.437  67.340  1.00  0.00    -0.237 C  
BRANCH   3   4
HETATM    4  C   UNL     1      -8.667  14.074  67.464  1.00  0.00    -0.201 C  
BRANCH   4   5
HETATM    5  C   UNL     1      -7.687  13.115  68.131  1.00  0.00    -0.143 C  
BRANCH   5   6
HETATM    6  C   UNL     1      -7.173  12.086  67.131  1.00  0.00    -0.131 C  
BRANCH   6   7
HETATM    7  C   UNL     1      -7.752  10.711  67.435  1.00  0.00    -0.106 C  
BRANCH   7   8
HETATM    8  C   UNL     1      -8.162  10.617  68.899  1.00  0.00    -0.145 C  
BRANCH   8   9
HETATM    9  C   UNL     1      -8.336   9.161  69.302  1.00  0.00    -0.123 C  
BRANCH   9  10
HETATM   10  C   UNL     1      -9.762   8.897  69.756  1.00  0.00    -0.180 C  
BRANCH  10  11
HETATM   11  C   UNL     1      -9.855   9.031  71.268  1.00  0.00    -0.376 C  
BRANCH  11  12
HETATM   12  C   UNL     1     -11.308   9.077  71.710  1.00  0.00    -0.447 C  
BRANCH  12  13
HETATM   13  C   UNL     1     -12.106   9.984  70.784  1.00  0.00    -0.418 C  
BRANCH  13  14
HETATM   14  C   UNL     1     -13.064  10.826  71.602  1.00  0.00    -0.551 C  
BRANCH  14  15
HETATM   15  C   UNL     1     -12.801  12.313  71.411  1.00  0.00    -0.373 C  
BRANCH  15  16
HETATM   16  C   UNL     1     -13.687  13.071  72.373  1.00  0.00    -0.494 C  
BRANCH  16  17
HETATM   17  O   UNL     1     -13.276  14.431  72.457  1.00  0.00    -0.399 OA 
BRANCH  17  18
HETATM   18  P   UNL     1     -12.114  14.849  71.245  1.00  0.00    -0.379 P  
HETATM   19  O   UNL     1     -11.179  15.344  72.353  1.00  0.00    -0.388 OA 
HETATM   20  O   UNL     1     -13.111  15.740  70.506  1.00  0.00    -0.461 OA 
BRANCH  18  21
HETATM   21  O   UNL     1     -10.953  15.266  70.032  1.00  0.00    -0.254 OA 
BRANCH  21  22
HETATM   22  C   UNL     1     -10.819  16.667  69.808  1.00  0.00    -0.237 C  
BRANCH  22  23
HETATM   23  C   UNL     1     -10.833  17.017  68.337  1.00  0.00    -0.333 C  
BRANCH  23  24
HETATM   24  N   UNL     1      -9.757  18.033  67.895  1.00  0.00    -0.287 N  
HETATM   25  C   UNL     1      -9.929  19.266  68.761  1.00  0.00    -0.440 C  
HETATM   26  C   UNL     1      -9.970  18.408  66.427  1.00  0.00    -0.386 C  
HETATM   27  C   UNL     1      -8.362  17.463  68.074  1.00  0.00    -0.231 C  
ENDBRANCH  23  24
ENDBRANCH  22  23
ENDBRANCH  21  22
ENDBRANCH  18  21
ENDBRANCH  17  18
ENDBRANCH  16  17
ENDBRANCH  15  16
ENDBRANCH  14  15
ENDBRANCH  13  14
ENDBRANCH  12  13
ENDBRANCH  11  12
ENDBRANCH  10  11
ENDBRANCH   9  10
ENDBRANCH   8   9
ENDBRANCH   7   8
ENDBRANCH   6   7
ENDBRANCH   5   6
ENDBRANCH   4   5
ENDBRANCH   3   4
ENDBRANCH   2   3
TORSDOF 20
ENDMDL
MODEL      144
REMARK 921   NORMALIZED FREE ENERGY PREDICTED BY IDOCK:   -3.87 KCAL/MOL
REMARK 922        TOTAL FREE ENERGY PREDICTED BY IDOCK:  -10.31 KCAL/MOL
REMARK 923 INTER-LIGAND FREE ENERGY PREDICTED BY IDOCK:   -7.86 KCAL/MOL
REMARK 924 INTRA-LIGAND FREE ENERGY PREDICTED BY IDOCK:   -2.45 KCAL/MOL
REMARK 927      BINDING AFFINITY PREDICTED BY RF-SCORE:    0.00 PKD
ROOT
HETATM    1  C   UNL     1     -10.099   4.996  69.609  1.00  0.00    -0.321 C  
HETATM    2  C   UNL     1     -11.035   6.125  69.213  1.00  0.00    -0.450 C  
ENDROOT
BRANCH   2   3
HETATM    3  C   UNL     1     -11.012   6.357  67.704  1.00  0.00    -0.441 C  
BRANCH   3   4
HETATM    4  C   UNL     1     -10.271   5.233  66.988  1.00  0.00    -0.274 C  
BRANCH   4   5
HETATM    5  C   UNL     1      -9.162   5.793  66.106  1.00  0.00    -0.169 C  
BRANCH   5   6
HETATM    6  C   UNL     1      -7.795   5.542  66.732  1.00  0.00    -0.101 C  
BRANCH   6   7
HETATM    7  C   UNL     1      -7.076   6.859  66.991  1.00  0.00    -0.076 C  
BRANCH   7   8
HETATM    8  C   UNL     1      -7.631   7.533  68.238  1.00  0.00    -0.114 C  
BRANCH   8   9
HETATM    9  C   UNL     1      -7.593   9.046  68.077  1.00  0.00    -0.092 C  
BRANCH   9  10
HETATM   10  C   UNL     1      -8.192   9.458  66.742  1.00  0.00    -0.112 C  
BRANCH  10  11
HETATM   11  C   UNL     1      -9.636   9.891  66.936  1.00  0.00    -0.225 C  
BRANCH  11  12
HETATM   12  C   UNL     1     -10.323  10.070  65.593  1.00  0.00    -0.171 C  
BRANCH  12  13
HETATM   13  C   UNL     1      -9.287  10.325  64.507  1.00  0.00    -0.328 C  
BRANCH  13  14
HETATM   14  C   UNL     1      -9.847  11.300  63.491  1.00  0.00    -0.394 C  
BRANCH  14  15
HETATM   15  C   UNL     1     -11.338  11.526  63.702  1.00  0.00    -0.412 C  
BRANCH  15  16
HETATM   16  C   UNL     1     -11.592  13.017  63.680  1.00  0.00    -0.449 C  
BRANCH  16  17
HETATM   17  O   UNL     1     -10.492  13.715  64.251  1.00  0.00    -0.392 OA 
BRANCH  17  18
HETATM   18  P   UNL     1     -10.929  14.588  65.678  1.00  0.00    -0.358 P  
HETATM   19  O   UNL     1     -10.110  13.591  66.505  1.00  0.00    -0.268 OA 
HETATM   20  O   UNL     1     -12.421  14.437  65.391  1.00  0.00    -0.407 OA 
BRANCH  18  21
HETATM   21  O   UNL     1     -11.366  15.463  67.105  1.00  0.00    -0.305 OA 
BRANCH  21  22
HETATM   22  C   UNL     1     -10.484  16.536  67.426  1.00  0.00    -0.310 C  
BRANCH  22  23
HETATM   23  C   UNL     1     -10.258  17.463  66.252  1.00  0.00    -0.341 C  
BRANCH  23  24
HETATM   24  N   UNL     1      -9.735  18.869  66.619  1.00  0.00    -0.331 N  
HETATM   25  C   UNL     1     -10.177  19.150  68.042  1.00  0.00    -0.401 C  
HETATM   26  C   UNL     1     -10.347  19.911  65.680  1.00  0.00    -0.326 C  
HETATM   27  C   UNL     1      -8.221  18.930  66.524  1.00  0.00    -0.297 C  
ENDBRANCH  23  24
ENDBRANCH  22  23
ENDBRANCH  21  22
ENDBRANCH  18  21
ENDBRANCH  17  18
ENDBRANCH  16  17
ENDBRANCH  15  16
ENDBRANCH  14  15
ENDBRANCH  13  14
ENDBRANCH  12  13
ENDBRANCH  11  12
ENDBRANCH  10  11
ENDBRANCH   9  10
ENDBRANCH   8   9
ENDBRANCH   7   8
ENDBRANCH   6   7
ENDBRANCH   5   6
ENDBRANCH   4   5
ENDBRANCH   3   4
ENDBRANCH   2   3
TORSDOF 20
ENDMDL
MODEL      145
REMARK 921   NORMALIZED FREE ENERGY PREDICTED BY IDOCK:   -3.87 KCAL/MOL
REMARK 922        TOTAL FREE ENERGY PREDICTED BY IDOCK:  -10.31 KCAL/MOL
REMARK 923 INTER-LIGAND FREE ENERGY PREDICTED BY IDOCK:   -7.96 KCAL/MOL
REMARK 924 INTRA-LIGAND FREE ENERGY PREDICTED BY IDOCK:   -2.34 KCAL/MOL
REMARK 927      BINDING AFFINITY PREDICTED BY RF-SCORE:    0.00 PKD
ROOT
HETATM    1  C   UNL     1      -8.227   8.523  70.714  1.00  0.00    -0.141 C  
HETATM    2  C   UNL     1      -9.240   8.763  71.821  1.00  0.00    -0.332 C  
ENDROOT
BRANCH   2   3
HETATM    3  C   UNL     1     -10.668   8.689  71.287  1.00  0.00    -0.322 C  
BRANCH   3   4
HETATM    4  C   UNL     1     -11.627   8.176  72.355  1.00  0.00    -0.463 C  
BRANCH   4   5
HETATM    5  C   UNL     1     -10.918   7.212  73.300  1.00  0.00    -0.325 C  
BRANCH   5   6
HETATM    6  C   UNL     1     -11.134   5.769  72.861  1.00  0.00    -0.321 C  
BRANCH   6   7
HETATM    7  C   UNL     1      -9.819   5.145  72.414  1.00  0.00    -0.208 C  
BRANCH   7   8
HETATM    8  C   UNL     1      -9.988   4.450  71.069  1.00  0.00    -0.242 C  
BRANCH   8   9
HETATM    9  C   UNL     1      -9.547   5.374  69.944  1.00  0.00    -0.226 C  
BRANCH   9  10
HETATM   10  C   UNL     1     -10.747   5.853  69.142  1.00  0.00    -0.394 C  
BRANCH  10  11
HETATM   11  C   UNL     1     -10.439   5.773  67.655  1.00  0.00    -0.299 C  
BRANCH  11  12
HETATM   12  C   UNL     1     -10.793   7.080  66.967  1.00  0.00    -0.413 C  
BRANCH  12  13
HETATM   13  C   UNL     1      -9.924   8.207  67.509  1.00  0.00    -0.251 C  
BRANCH  13  14
HETATM   14  C   UNL     1     -10.473   9.540  67.040  1.00  0.00    -0.302 C  
BRANCH  14  15
HETATM   15  C   UNL     1     -10.327  10.609  68.113  1.00  0.00    -0.203 C  
BRANCH  15  16
HETATM   16  C   UNL     1     -11.400  11.651  67.883  1.00  0.00    -0.299 C  
BRANCH  16  17
HETATM   17  O   UNL     1     -10.989  12.570  66.879  1.00  0.00    -0.242 OA 
BRANCH  17  18
HETATM   18  P   UNL     1     -10.800  14.178  67.489  1.00  0.00    -0.285 P  
HETATM   19  O   UNL     1     -12.317  14.249  67.693  1.00  0.00    -0.265 OA 
HETATM   20  O   UNL     1     -10.087  14.644  66.221  1.00  0.00    -0.270 OA 
BRANCH  18  21
HETATM   21  O   UNL     1     -10.610  15.786  68.099  1.00  0.00    -0.258 OA 
BRANCH  21  22
HETATM   22  C   UNL     1     -10.573  16.793  67.092  1.00  0.00    -0.256 C  
BRANCH  22  23
HETATM   23  C   UNL     1     -10.322  18.170  67.666  1.00  0.00    -0.397 C  
BRANCH  23  24
HETATM   24  N   UNL     1      -9.019  18.850  67.193  1.00  0.00    -0.280 N  
HETATM   25  C   UNL     1      -8.114  17.755  66.662  1.00  0.00    -0.258 C  
HETATM   26  C   UNL     1      -8.339  19.546  68.373  1.00  0.00    -0.349 C  
HETATM   27  C   UNL     1      -9.300  19.865  66.100  1.00  0.00    -0.358 C  
ENDBRANCH  23  24
ENDBRANCH  22  23
ENDBRANCH  21  22
ENDBRANCH  18  21
ENDBRANCH  17  18
ENDBRANCH  16  17
ENDBRANCH  15  16
ENDBRANCH  14  15
ENDBRANCH  13  14
ENDBRANCH  12  13
ENDBRANCH  11  12
ENDBRANCH  10  11
ENDBRANCH   9  10
ENDBRANCH   8   9
ENDBRANCH   7   8
ENDBRANCH   6   7
ENDBRANCH   5   6
ENDBRANCH   4   5
ENDBRANCH   3   4
ENDBRANCH   2   3
TORSDOF 20
ENDMDL
MODEL      146
REMARK 921   NORMALIZED FREE ENERGY PREDICTED BY IDOCK:   -3.86 KCAL/MOL
REMARK 922        TOTAL FREE ENERGY PREDICTED BY IDOCK:  -10.30 KCAL/MOL
REMARK 923 INTER-LIGAND FREE ENERGY PREDICTED BY IDOCK:   -8.77 KCAL/MOL
REMARK 924 INTRA-LIGAND FREE ENERGY PREDICTED BY IDOCK:   -1.52 KCAL/MOL
REMARK 927      BINDING AFFINITY PREDICTED BY RF-SCORE:    0.00 PKD
ROOT
HETATM    1  C   UNL     1     -14.366   8.391  71.815  1.00  0.00    -0.558 C  
HETATM    2  C   UNL     1     -12.847   8.362  71.826  1.00  0.00    -0.371 C  
ENDROOT
BRANCH   2   3
HETATM    3  C   UNL     1     -12.267   9.744  71.539  1.00  0.00    -0.493 C  
BRANCH   3   4
HETATM    4  C   UNL     1     -13.277  10.841  71.863  1.00  0.00    -0.524 C  
BRANCH   4   5
HETATM    5  C   UNL     1     -12.715  12.214  71.511  1.00  0.00    -0.348 C  
BRANCH   5   6
HETATM    6  C   UNL     1     -13.593  13.319  72.085  1.00  0.00    -0.655 C  
BRANCH   6   7
HETATM    7  C   UNL     1     -12.778  14.232  72.991  1.00  0.00    -0.391 C  
BRANCH   7   8
HETATM    8  C   UNL     1     -12.122  15.341  72.178  1.00  0.00    -0.477 C  
BRANCH   8   9
HETATM    9  C   UNL     1     -12.787  15.454  70.814  1.00  0.00    -0.524 C  
BRANCH   9  10
HETATM   10  C   UNL     1     -11.777  15.869  69.757  1.00  0.00    -0.323 C  
BRANCH  10  11
HETATM   11  C   UNL     1     -11.876  14.941  68.556  1.00  0.00    -0.325 C  
BRANCH  11  12
HETATM   12  C   UNL     1     -10.892  15.359  67.478  1.00  0.00    -0.305 C  
BRANCH  12  13
HETATM   13  C   UNL     1     -11.448  15.016  66.103  1.00  0.00    -0.222 C  
BRANCH  13  14
HETATM   14  C   UNL     1     -12.301  13.767  66.199  1.00  0.00    -0.496 C  
BRANCH  14  15
HETATM   15  C   UNL     1     -12.020  12.811  65.049  1.00  0.00    -0.456 C  
BRANCH  15  16
HETATM   16  C   UNL     1     -11.085  11.735  65.553  1.00  0.00    -0.280 C  
BRANCH  16  17
HETATM   17  O   UNL     1     -10.605  12.065  66.851  1.00  0.00    -0.219 OA 
BRANCH  17  18
HETATM   18  P   UNL     1     -10.430  10.676  67.867  1.00  0.00    -0.246 P  
HETATM   19  O   UNL     1     -11.956  10.613  67.996  1.00  0.00    -0.457 OA 
HETATM   20  O   UNL     1      -9.521  11.423  68.840  1.00  0.00    -0.155 OA 
BRANCH  18  21
HETATM   21  O   UNL     1     -10.254   9.286  68.882  1.00  0.00    -0.190 OA 
BRANCH  21  22
HETATM   22  C   UNL     1      -9.553   8.204  68.275  1.00  0.00    -0.144 C  
BRANCH  22  23
HETATM   23  C   UNL     1      -9.525   8.313  66.766  1.00  0.00    -0.198 C  
BRANCH  23  24
HETATM   24  N   UNL     1      -8.202   7.871  66.102  1.00  0.00    -0.111 N  
HETATM   25  C   UNL     1      -7.804   8.969  65.135  1.00  0.00    -0.108 C  
HETATM   26  C   UNL     1      -8.419   6.567  65.332  1.00  0.00    -0.115 C  
HETATM   27  C   UNL     1      -7.112   7.673  67.139  1.00  0.00    -0.085 C  
ENDBRANCH  23  24
ENDBRANCH  22  23
ENDBRANCH  21  22
ENDBRANCH  18  21
ENDBRANCH  17  18
ENDBRANCH  16  17
ENDBRANCH  15  16
ENDBRANCH  14  15
ENDBRANCH  13  14
ENDBRANCH  12  13
ENDBRANCH  11  12
ENDBRANCH  10  11
ENDBRANCH   9  10
ENDBRANCH   8   9
ENDBRANCH   7   8
ENDBRANCH   6   7
ENDBRANCH   5   6
ENDBRANCH   4   5
ENDBRANCH   3   4
ENDBRANCH   2   3
TORSDOF 20
ENDMDL
MODEL      147
REMARK 921   NORMALIZED FREE ENERGY PREDICTED BY IDOCK:   -3.86 KCAL/MOL
REMARK 922        TOTAL FREE ENERGY PREDICTED BY IDOCK:  -10.29 KCAL/MOL
REMARK 923 INTER-LIGAND FREE ENERGY PREDICTED BY IDOCK:   -8.15 KCAL/MOL
REMARK 924 INTRA-LIGAND FREE ENERGY PREDICTED BY IDOCK:   -2.14 KCAL/MOL
REMARK 927      BINDING AFFINITY PREDICTED BY RF-SCORE:    0.00 PKD
ROOT
HETATM    1  C   UNL     1      -8.738   9.678  65.892  1.00  0.00    -0.163 C  
HETATM    2  C   UNL     1      -9.104   9.059  67.230  1.00  0.00    -0.151 C  
ENDROOT
BRANCH   2   3
HETATM    3  C   UNL     1     -10.267   8.081  67.086  1.00  0.00    -0.362 C  
BRANCH   3   4
HETATM    4  C   UNL     1     -10.038   6.829  67.926  1.00  0.00    -0.189 C  
BRANCH   4   5
HETATM    5  C   UNL     1     -11.135   6.673  68.974  1.00  0.00    -0.318 C  
BRANCH   5   6
HETATM    6  C   UNL     1     -10.879   5.449  69.845  1.00  0.00    -0.196 C  
BRANCH   6   7
HETATM    7  C   UNL     1      -9.459   5.472  70.393  1.00  0.00    -0.209 C  
BRANCH   7   8
HETATM    8  C   UNL     1      -9.463   5.208  71.893  1.00  0.00    -0.184 C  
BRANCH   8   9
HETATM    9  C   UNL     1      -9.299   6.515  72.655  1.00  0.00    -0.145 C  
BRANCH   9  10
HETATM   10  C   UNL     1     -10.524   6.795  73.511  1.00  0.00    -0.356 C  
BRANCH  10  11
HETATM   11  C   UNL     1     -11.386   7.857  72.847  1.00  0.00    -0.399 C  
BRANCH  11  12
HETATM   12  C   UNL     1     -10.540   8.744  71.950  1.00  0.00    -0.425 C  
BRANCH  12  13
HETATM   13  C   UNL     1     -11.418   9.784  71.268  1.00  0.00    -0.457 C  
BRANCH  13  14
HETATM   14  C   UNL     1     -10.753  10.245  69.986  1.00  0.00    -0.345 C  
BRANCH  14  15
HETATM   15  C   UNL     1     -11.750  10.918  69.054  1.00  0.00    -0.391 C  
BRANCH  15  16
HETATM   16  C   UNL     1     -11.267  12.327  68.791  1.00  0.00    -0.265 C  
BRANCH  16  17
HETATM   17  O   UNL     1     -11.953  13.249  69.629  1.00  0.00    -0.308 OA 
BRANCH  17  18
HETATM   18  P   UNL     1     -11.709  14.893  69.146  1.00  0.00    -0.304 P  
HETATM   19  O   UNL     1     -10.210  14.602  69.015  1.00  0.00    -0.229 OA 
HETATM   20  O   UNL     1     -12.367  15.430  70.415  1.00  0.00    -0.355 OA 
BRANCH  18  21
HETATM   21  O   UNL     1     -11.466  16.536  68.662  1.00  0.00    -0.313 OA 
BRANCH  21  22
HETATM   22  C   UNL     1     -10.097  16.914  68.547  1.00  0.00    -0.297 C  
BRANCH  22  23
HETATM   23  C   UNL     1      -9.823  17.702  67.285  1.00  0.00    -0.303 C  
BRANCH  23  24
HETATM   24  N   UNL     1      -9.595  19.215  67.493  1.00  0.00    -0.304 N  
HETATM   25  C   UNL     1     -10.502  19.939  66.518  1.00  0.00    -0.471 C  
HETATM   26  C   UNL     1      -8.137  19.566  67.189  1.00  0.00    -0.271 C  
HETATM   27  C   UNL     1      -9.929  19.626  68.915  1.00  0.00    -0.438 C  
ENDBRANCH  23  24
ENDBRANCH  22  23
ENDBRANCH  21  22
ENDBRANCH  18  21
ENDBRANCH  17  18
ENDBRANCH  16  17
ENDBRANCH  15  16
ENDBRANCH  14  15
ENDBRANCH  13  14
ENDBRANCH  12  13
ENDBRANCH  11  12
ENDBRANCH  10  11
ENDBRANCH   9  10
ENDBRANCH   8   9
ENDBRANCH   7   8
ENDBRANCH   6   7
ENDBRANCH   5   6
ENDBRANCH   4   5
ENDBRANCH   3   4
ENDBRANCH   2   3
TORSDOF 20
ENDMDL
MODEL      148
REMARK 921   NORMALIZED FREE ENERGY PREDICTED BY IDOCK:   -3.86 KCAL/MOL
REMARK 922        TOTAL FREE ENERGY PREDICTED BY IDOCK:  -10.28 KCAL/MOL
REMARK 923 INTER-LIGAND FREE ENERGY PREDICTED BY IDOCK:   -7.14 KCAL/MOL
REMARK 924 INTRA-LIGAND FREE ENERGY PREDICTED BY IDOCK:   -3.15 KCAL/MOL
REMARK 927      BINDING AFFINITY PREDICTED BY RF-SCORE:    0.00 PKD
ROOT
HETATM    1  C   UNL     1      -6.754   9.533  67.201  1.00  0.00    -0.072 C  
HETATM    2  C   UNL     1      -7.863   8.801  67.938  1.00  0.00    -0.102 C  
ENDROOT
BRANCH   2   3
HETATM    3  C   UNL     1      -9.153   9.618  67.945  1.00  0.00    -0.130 C  
BRANCH   3   4
HETATM    4  C   UNL     1     -10.362   8.735  67.651  1.00  0.00    -0.317 C  
BRANCH   4   5
HETATM    5  C   UNL     1      -9.973   7.570  66.748  1.00  0.00    -0.307 C  
BRANCH   5   6
HETATM    6  C   UNL     1     -10.950   6.411  66.913  1.00  0.00    -0.413 C  
BRANCH   6   7
HETATM    7  C   UNL     1     -10.255   5.085  66.636  1.00  0.00    -0.299 C  
BRANCH   7   8
HETATM    8  C   UNL     1      -8.763   5.195  66.922  1.00  0.00    -0.107 C  
BRANCH   8   9
HETATM    9  C   UNL     1      -8.436   4.541  68.256  1.00  0.00    -0.099 C  
BRANCH   9  10
HETATM   10  C   UNL     1      -7.455   5.393  69.045  1.00  0.00    -0.074 C  
BRANCH  10  11
HETATM   11  C   UNL     1      -8.143   5.971  70.271  1.00  0.00    -0.111 C  
BRANCH  11  12
HETATM   12  C   UNL     1      -9.609   5.572  70.296  1.00  0.00    -0.227 C  
BRANCH  12  13
HETATM   13  C   UNL     1     -10.452   6.718  70.837  1.00  0.00    -0.239 C  
BRANCH  13  14
HETATM   14  C   UNL     1     -11.899   6.515  70.436  1.00  0.00    -0.378 C  
BRANCH  14  15
HETATM   15  C   UNL     1     -12.849   7.149  71.442  1.00  0.00    -0.431 C  
BRANCH  15  16
HETATM   16  C   UNL     1     -12.178   8.381  72.006  1.00  0.00    -0.362 C  
BRANCH  16  17
HETATM   17  O   UNL     1     -12.976   9.534  71.764  1.00  0.00    -0.352 OA 
BRANCH  17  18
HETATM   18  P   UNL     1     -12.197  10.673  70.719  1.00  0.00    -0.421 P  
HETATM   19  O   UNL     1     -10.851  10.029  71.068  1.00  0.00    -0.298 OA 
HETATM   20  O   UNL     1     -12.794  11.863  71.467  1.00  0.00    -0.385 OA 
BRANCH  18  21
HETATM   21  O   UNL     1     -11.420  11.811  69.674  1.00  0.00    -0.276 OA 
BRANCH  21  22
HETATM   22  C   UNL     1     -12.153  13.017  69.476  1.00  0.00    -0.230 C  
BRANCH  22  23
HETATM   23  C   UNL     1     -11.247  14.212  69.269  1.00  0.00    -0.269 C  
BRANCH  23  24
HETATM   24  N   UNL     1     -10.893  14.519  67.797  1.00  0.00    -0.259 N  
HETATM   25  C   UNL     1      -9.630  13.745  67.474  1.00  0.00    -0.219 C  
HETATM   26  C   UNL     1     -10.631  16.016  67.629  1.00  0.00    -0.309 C  
HETATM   27  C   UNL     1     -12.014  14.093  66.867  1.00  0.00    -0.449 C  
ENDBRANCH  23  24
ENDBRANCH  22  23
ENDBRANCH  21  22
ENDBRANCH  18  21
ENDBRANCH  17  18
ENDBRANCH  16  17
ENDBRANCH  15  16
ENDBRANCH  14  15
ENDBRANCH  13  14
ENDBRANCH  12  13
ENDBRANCH  11  12
ENDBRANCH  10  11
ENDBRANCH   9  10
ENDBRANCH   8   9
ENDBRANCH   7   8
ENDBRANCH   6   7
ENDBRANCH   5   6
ENDBRANCH   4   5
ENDBRANCH   3   4
ENDBRANCH   2   3
TORSDOF 20
ENDMDL
MODEL      149
REMARK 921   NORMALIZED FREE ENERGY PREDICTED BY IDOCK:   -3.86 KCAL/MOL
REMARK 922        TOTAL FREE ENERGY PREDICTED BY IDOCK:  -10.28 KCAL/MOL
REMARK 923 INTER-LIGAND FREE ENERGY PREDICTED BY IDOCK:   -8.72 KCAL/MOL
REMARK 924 INTRA-LIGAND FREE ENERGY PREDICTED BY IDOCK:   -1.56 KCAL/MOL
REMARK 927      BINDING AFFINITY PREDICTED BY RF-SCORE:    0.00 PKD
ROOT
HETATM    1  C   UNL     1      -9.147   8.032  73.480  1.00  0.00    -0.327 C  
HETATM    2  C   UNL     1     -10.211   7.034  73.902  1.00  0.00    -0.388 C  
ENDROOT
BRANCH   2   3
HETATM    3  C   UNL     1     -10.486   6.021  72.793  1.00  0.00    -0.243 C  
BRANCH   3   4
HETATM    4  C   UNL     1     -11.976   5.950  72.473  1.00  0.00    -0.173 C  
BRANCH   4   5
HETATM    5  C   UNL     1     -12.317   6.845  71.287  1.00  0.00    -0.422 C  
BRANCH   5   6
HETATM    6  C   UNL     1     -13.724   7.412  71.426  1.00  0.00    -0.419 C  
BRANCH   6   7
HETATM    7  C   UNL     1     -13.671   8.890  71.788  1.00  0.00    -0.471 C  
BRANCH   7   8
HETATM    8  C   UNL     1     -12.248   9.418  71.664  1.00  0.00    -0.467 C  
BRANCH   8   9
HETATM    9  C   UNL     1     -12.244  10.747  70.924  1.00  0.00    -0.487 C  
BRANCH   9  10
HETATM   10  C   UNL     1     -11.150  10.770  69.869  1.00  0.00    -0.339 C  
BRANCH  10  11
HETATM   11  C   UNL     1     -11.763  10.989  68.494  1.00  0.00    -0.348 C  
BRANCH  11  12
HETATM   12  C   UNL     1     -11.614  12.440  68.071  1.00  0.00    -0.403 C  
BRANCH  12  13
HETATM   13  C   UNL     1     -11.639  12.545  66.552  1.00  0.00    -0.447 C  
BRANCH  13  14
HETATM   14  C   UNL     1     -10.382  13.242  66.072  1.00  0.00    -0.290 C  
BRANCH  14  15
HETATM   15  C   UNL     1     -10.711  14.437  65.189  1.00  0.00    -0.413 C  
BRANCH  15  16
HETATM   16  C   UNL     1     -10.046  15.657  65.787  1.00  0.00    -0.366 C  
BRANCH  16  17
HETATM   17  O   UNL     1      -9.788  15.451  67.171  1.00  0.00    -0.219 OA 
BRANCH  17  18
HETATM   18  P   UNL     1      -9.816  16.924  68.077  1.00  0.00    -0.289 P  
HETATM   19  O   UNL     1      -9.862  16.097  69.366  1.00  0.00    -0.242 OA 
HETATM   20  O   UNL     1     -11.055  17.429  67.341  1.00  0.00    -0.134 OA 
BRANCH  18  21
HETATM   21  O   UNL     1      -9.842  18.398  68.983  1.00  0.00    -0.344 OA 
BRANCH  21  22
HETATM   22  C   UNL     1      -8.643  19.162  68.891  1.00  0.00    -0.279 C  
BRANCH  22  23
HETATM   23  C   UNL     1      -7.762  18.712  67.747  1.00  0.00    -0.237 C  
BRANCH  23  24
HETATM   24  N   UNL     1      -7.507  19.777  66.657  1.00  0.00    -0.246 N  
HETATM   25  C   UNL     1      -8.862  20.296  66.219  1.00  0.00    -0.135 C  
HETATM   26  C   UNL     1      -6.796  19.138  65.464  1.00  0.00    -0.245 C  
HETATM   27  C   UNL     1      -6.664  20.918  67.198  1.00  0.00    -0.346 C  
ENDBRANCH  23  24
ENDBRANCH  22  23
ENDBRANCH  21  22
ENDBRANCH  18  21
ENDBRANCH  17  18
ENDBRANCH  16  17
ENDBRANCH  15  16
ENDBRANCH  14  15
ENDBRANCH  13  14
ENDBRANCH  12  13
ENDBRANCH  11  12
ENDBRANCH  10  11
ENDBRANCH   9  10
ENDBRANCH   8   9
ENDBRANCH   7   8
ENDBRANCH   6   7
ENDBRANCH   5   6
ENDBRANCH   4   5
ENDBRANCH   3   4
ENDBRANCH   2   3
TORSDOF 20
ENDMDL
MODEL      150
REMARK 921   NORMALIZED FREE ENERGY PREDICTED BY IDOCK:   -3.85 KCAL/MOL
REMARK 922        TOTAL FREE ENERGY PREDICTED BY IDOCK:  -10.26 KCAL/MOL
REMARK 923 INTER-LIGAND FREE ENERGY PREDICTED BY IDOCK:   -8.25 KCAL/MOL
REMARK 924 INTRA-LIGAND FREE ENERGY PREDICTED BY IDOCK:   -2.02 KCAL/MOL
REMARK 927      BINDING AFFINITY PREDICTED BY RF-SCORE:    0.00 PKD
ROOT
HETATM    1  C   UNL     1     -12.477  15.829  74.435  1.00  0.00    -0.790 C  
HETATM    2  C   UNL     1     -12.826  14.776  73.397  1.00  0.00    -0.597 C  
ENDROOT
BRANCH   2   3
HETATM    3  C   UNL     1     -13.830  15.316  72.380  1.00  0.00    -0.641 C  
BRANCH   3   4
HETATM    4  C   UNL     1     -13.214  15.387  70.987  1.00  0.00    -0.560 C  
BRANCH   4   5
HETATM    5  C   UNL     1     -11.759  14.933  71.015  1.00  0.00    -0.376 C  
BRANCH   5   6
HETATM    6  C   UNL     1     -11.187  14.867  69.604  1.00  0.00    -0.300 C  
BRANCH   6   7
HETATM    7  C   UNL     1     -11.919  13.816  68.780  1.00  0.00    -0.400 C  
BRANCH   7   8
HETATM    8  C   UNL     1     -12.013  14.252  67.323  1.00  0.00    -0.439 C  
BRANCH   8   9
HETATM    9  C   UNL     1     -11.895  13.044  66.407  1.00  0.00    -0.465 C  
BRANCH   9  10
HETATM   10  C   UNL     1     -11.731  11.769  67.218  1.00  0.00    -0.293 C  
BRANCH  10  11
HETATM   11  C   UNL     1     -10.597  10.934  66.643  1.00  0.00    -0.305 C  
BRANCH  11  12
HETATM   12  C   UNL     1      -9.424  11.820  66.262  1.00  0.00    -0.238 C  
BRANCH  12  13
HETATM   13  C   UNL     1      -8.539  12.066  67.475  1.00  0.00    -0.167 C  
BRANCH  13  14
HETATM   14  C   UNL     1      -7.091  11.815  67.105  1.00  0.00    -0.146 C  
BRANCH  14  15
HETATM   15  C   UNL     1      -6.912  10.451  66.453  1.00  0.00    -0.114 C  
BRANCH  15  16
HETATM   16  C   UNL     1      -6.838   9.414  67.551  1.00  0.00    -0.076 C  
BRANCH  16  17
HETATM   17  O   UNL     1      -8.048   8.669  67.611  1.00  0.00    -0.106 OA 
BRANCH  17  18
HETATM   18  P   UNL     1      -8.338   8.000  69.180  1.00  0.00    -0.133 P  
HETATM   19  O   UNL     1      -7.926   9.341  69.797  1.00  0.00    -0.083 OA 
HETATM   20  O   UNL     1      -7.374   6.841  68.934  1.00  0.00    -0.088 OA 
BRANCH  18  21
HETATM   21  O   UNL     1      -8.630   7.330  70.748  1.00  0.00    -0.141 OA 
BRANCH  21  22
HETATM   22  C   UNL     1      -9.798   6.518  70.828  1.00  0.00    -0.184 C  
BRANCH  22  23
HETATM   23  C   UNL     1     -11.043   7.259  70.392  1.00  0.00    -0.268 C  
BRANCH  23  24
HETATM   24  N   UNL     1     -11.764   8.044  71.510  1.00  0.00    -0.274 N  
HETATM   25  C   UNL     1     -11.460   9.512  71.288  1.00  0.00    -0.377 C  
HETATM   26  C   UNL     1     -11.227   7.613  72.876  1.00  0.00    -0.372 C  
HETATM   27  C   UNL     1     -13.263   7.811  71.459  1.00  0.00    -0.316 C  
ENDBRANCH  23  24
ENDBRANCH  22  23
ENDBRANCH  21  22
ENDBRANCH  18  21
ENDBRANCH  17  18
ENDBRANCH  16  17
ENDBRANCH  15  16
ENDBRANCH  14  15
ENDBRANCH  13  14
ENDBRANCH  12  13
ENDBRANCH  11  12
ENDBRANCH  10  11
ENDBRANCH   9  10
ENDBRANCH   8   9
ENDBRANCH   7   8
ENDBRANCH   6   7
ENDBRANCH   5   6
ENDBRANCH   4   5
ENDBRANCH   3   4
ENDBRANCH   2   3
TORSDOF 20
ENDMDL
MODEL      151
REMARK 921   NORMALIZED FREE ENERGY PREDICTED BY IDOCK:   -3.85 KCAL/MOL
REMARK 922        TOTAL FREE ENERGY PREDICTED BY IDOCK:  -10.26 KCAL/MOL
REMARK 923 INTER-LIGAND FREE ENERGY PREDICTED BY IDOCK:   -8.12 KCAL/MOL
REMARK 924 INTRA-LIGAND FREE ENERGY PREDICTED BY IDOCK:   -2.14 KCAL/MOL
REMARK 927      BINDING AFFINITY PREDICTED BY RF-SCORE:    0.00 PKD
ROOT
HETATM    1  C   UNL     1     -11.183  12.512  63.822  1.00  0.00    -0.524 C  
HETATM    2  C   UNL     1     -12.183  12.916  64.892  1.00  0.00    -0.504 C  
ENDROOT
BRANCH   2   3
HETATM    3  C   UNL     1     -11.493  13.137  66.236  1.00  0.00    -0.372 C  
BRANCH   3   4
HETATM    4  C   UNL     1      -9.986  13.295  66.059  1.00  0.00    -0.297 C  
BRANCH   4   5
HETATM    5  C   UNL     1      -9.239  12.724  67.258  1.00  0.00    -0.203 C  
BRANCH   5   6
HETATM    6  C   UNL     1      -7.996  13.551  67.564  1.00  0.00    -0.186 C  
BRANCH   6   7
HETATM    7  C   UNL     1      -8.225  15.013  67.201  1.00  0.00    -0.251 C  
BRANCH   7   8
HETATM    8  C   UNL     1      -6.916  15.788  67.260  1.00  0.00    -0.232 C  
BRANCH   8   9
HETATM    9  C   UNL     1      -6.997  17.022  66.375  1.00  0.00    -0.267 C  
BRANCH   9  10
HETATM   10  C   UNL     1      -6.988  18.288  67.217  1.00  0.00    -0.210 C  
BRANCH  10  11
HETATM   11  C   UNL     1      -8.056  19.248  66.717  1.00  0.00    -0.290 C  
BRANCH  11  12
HETATM   12  C   UNL     1      -9.370  18.517  66.501  1.00  0.00    -0.313 C  
BRANCH  12  13
HETATM   13  C   UNL     1     -10.375  18.923  67.570  1.00  0.00    -0.496 C  
BRANCH  13  14
HETATM   14  C   UNL     1     -10.406  17.871  68.661  1.00  0.00    -0.342 C  
BRANCH  14  15
HETATM   15  C   UNL     1     -10.970  16.554  68.147  1.00  0.00    -0.336 C  
BRANCH  15  16
HETATM   16  C   UNL     1     -11.988  16.059  69.150  1.00  0.00    -0.177 C  
BRANCH  16  17
HETATM   17  O   UNL     1     -11.373  15.848  70.415  1.00  0.00    -0.327 OA 
BRANCH  17  18
HETATM   18  P   UNL     1     -12.312  14.825  71.447  1.00  0.00    -0.386 P  
HETATM   19  O   UNL     1     -13.583  15.457  70.870  1.00  0.00    -0.444 OA 
HETATM   20  O   UNL     1     -11.601  15.329  72.701  1.00  0.00    -0.449 OA 
BRANCH  18  21
HETATM   21  O   UNL     1     -13.250  13.801  72.478  1.00  0.00    -0.478 OA 
BRANCH  21  22
HETATM   22  C   UNL     1     -13.272  12.433  72.080  1.00  0.00    -0.385 C  
BRANCH  22  23
HETATM   23  C   UNL     1     -12.251  12.131  71.005  1.00  0.00    -0.124 C  
BRANCH  23  24
HETATM   24  N   UNL     1     -12.121  10.641  70.624  1.00  0.00    -0.332 N  
HETATM   25  C   UNL     1     -13.438   9.976  70.974  1.00  0.00    -0.189 C  
HETATM   26  C   UNL     1     -10.994   9.995  71.431  1.00  0.00     0.137 C  
HETATM   27  C   UNL     1     -11.838  10.480  69.141  1.00  0.00    -0.146 C  
ENDBRANCH  23  24
ENDBRANCH  22  23
ENDBRANCH  21  22
ENDBRANCH  18  21
ENDBRANCH  17  18
ENDBRANCH  16  17
ENDBRANCH  15  16
ENDBRANCH  14  15
ENDBRANCH  13  14
ENDBRANCH  12  13
ENDBRANCH  11  12
ENDBRANCH  10  11
ENDBRANCH   9  10
ENDBRANCH   8   9
ENDBRANCH   7   8
ENDBRANCH   6   7
ENDBRANCH   5   6
ENDBRANCH   4   5
ENDBRANCH   3   4
ENDBRANCH   2   3
TORSDOF 20
ENDMDL
MODEL      152
REMARK 921   NORMALIZED FREE ENERGY PREDICTED BY IDOCK:   -3.84 KCAL/MOL
REMARK 922        TOTAL FREE ENERGY PREDICTED BY IDOCK:  -10.24 KCAL/MOL
REMARK 923 INTER-LIGAND FREE ENERGY PREDICTED BY IDOCK:   -8.34 KCAL/MOL
REMARK 924 INTRA-LIGAND FREE ENERGY PREDICTED BY IDOCK:   -1.90 KCAL/MOL
REMARK 927      BINDING AFFINITY PREDICTED BY RF-SCORE:    0.00 PKD
ROOT
HETATM    1  C   UNL     1     -12.499  15.828  74.550  1.00  0.00    -0.755 C  
HETATM    2  C   UNL     1     -12.605  14.884  73.365  1.00  0.00    -0.606 C  
ENDROOT
BRANCH   2   3
HETATM    3  C   UNL     1     -13.735  15.301  72.427  1.00  0.00    -0.622 C  
BRANCH   3   4
HETATM    4  C   UNL     1     -13.197  15.663  71.047  1.00  0.00    -0.435 C  
BRANCH   4   5
HETATM    5  C   UNL     1     -11.682  15.833  71.086  1.00  0.00    -0.476 C  
BRANCH   5   6
HETATM    6  C   UNL     1     -11.019  15.011  69.986  1.00  0.00    -0.268 C  
BRANCH   6   7
HETATM    7  C   UNL     1     -11.605  13.607  69.942  1.00  0.00    -0.281 C  
BRANCH   7   8
HETATM    8  C   UNL     1     -11.814  13.161  68.501  1.00  0.00    -0.377 C  
BRANCH   8   9
HETATM    9  C   UNL     1     -11.906  11.644  68.429  1.00  0.00    -0.346 C  
BRANCH   9  10
HETATM   10  C   UNL     1     -11.229  11.009  69.633  1.00  0.00    -0.345 C  
BRANCH  10  11
HETATM   11  C   UNL     1      -9.917  10.368  69.208  1.00  0.00    -0.246 C  
BRANCH  11  12
HETATM   12  C   UNL     1      -9.830  10.288  67.694  1.00  0.00    -0.199 C  
BRANCH  12  13
HETATM   13  C   UNL     1      -8.777  11.261  67.180  1.00  0.00    -0.151 C  
BRANCH  13  14
HETATM   14  C   UNL     1      -7.719  11.471  68.244  1.00  0.00    -0.123 C  
BRANCH  14  15
HETATM   15  C   UNL     1      -7.740  12.897  68.774  1.00  0.00     0.007 C  
BRANCH  15  16
HETATM   16  C   UNL     1      -7.908  13.831  67.597  1.00  0.00    -0.178 C  
BRANCH  16  17
HETATM   17  O   UNL     1      -6.656  14.400  67.234  1.00  0.00    -0.283 OA 
BRANCH  17  18
HETATM   18  P   UNL     1      -6.470  16.020  67.812  1.00  0.00    -0.185 P  
HETATM   19  O   UNL     1      -5.576  16.318  66.604  1.00  0.00    -0.292 OA 
HETATM   20  O   UNL     1      -5.948  15.545  69.166  1.00  0.00    -0.103 OA 
BRANCH  18  21
HETATM   21  O   UNL     1      -6.287  17.640  68.390  1.00  0.00    -0.177 OA 
BRANCH  21  22
HETATM   22  C   UNL     1      -7.517  18.317  68.633  1.00  0.00    -0.295 C  
BRANCH  22  23
HETATM   23  C   UNL     1      -8.643  17.788  67.772  1.00  0.00    -0.237 C  
BRANCH  23  24
HETATM   24  N   UNL     1      -9.526  18.869  67.111  1.00  0.00    -0.299 N  
HETATM   25  C   UNL     1     -10.362  18.173  66.054  1.00  0.00    -0.353 C  
HETATM   26  C   UNL     1      -8.642  19.926  66.446  1.00  0.00    -0.341 C  
HETATM   27  C   UNL     1     -10.430  19.534  68.132  1.00  0.00    -0.377 C  
ENDBRANCH  23  24
ENDBRANCH  22  23
ENDBRANCH  21  22
ENDBRANCH  18  21
ENDBRANCH  17  18
ENDBRANCH  16  17
ENDBRANCH  15  16
ENDBRANCH  14  15
ENDBRANCH  13  14
ENDBRANCH  12  13
ENDBRANCH  11  12
ENDBRANCH  10  11
ENDBRANCH   9  10
ENDBRANCH   8   9
ENDBRANCH   7   8
ENDBRANCH   6   7
ENDBRANCH   5   6
ENDBRANCH   4   5
ENDBRANCH   3   4
ENDBRANCH   2   3
TORSDOF 20
ENDMDL
MODEL      153
REMARK 921   NORMALIZED FREE ENERGY PREDICTED BY IDOCK:   -3.84 KCAL/MOL
REMARK 922        TOTAL FREE ENERGY PREDICTED BY IDOCK:  -10.24 KCAL/MOL
REMARK 923 INTER-LIGAND FREE ENERGY PREDICTED BY IDOCK:   -7.88 KCAL/MOL
REMARK 924 INTRA-LIGAND FREE ENERGY PREDICTED BY IDOCK:   -2.37 KCAL/MOL
REMARK 927      BINDING AFFINITY PREDICTED BY RF-SCORE:    0.00 PKD
ROOT
HETATM    1  C   UNL     1      -9.282   6.883  66.906  1.00  0.00    -0.167 C  
HETATM    2  C   UNL     1      -8.765   7.462  65.600  1.00  0.00    -0.099 C  
ENDROOT
BRANCH   2   3
HETATM    3  C   UNL     1      -8.586   8.975  65.700  1.00  0.00    -0.187 C  
BRANCH   3   4
HETATM    4  C   UNL     1      -8.996   9.662  64.402  1.00  0.00    -0.276 C  
BRANCH   4   5
HETATM    5  C   UNL     1     -10.274  10.470  64.598  1.00  0.00    -0.364 C  
BRANCH   5   6
HETATM    6  C   UNL     1     -10.438  11.500  63.487  1.00  0.00    -0.486 C  
BRANCH   6   7
HETATM    7  C   UNL     1     -11.768  12.228  63.626  1.00  0.00    -0.591 C  
BRANCH   7   8
HETATM    8  C   UNL     1     -11.547  13.652  64.120  1.00  0.00    -0.386 C  
BRANCH   8   9
HETATM    9  C   UNL     1     -12.556  13.992  65.206  1.00  0.00    -0.495 C  
BRANCH   9  10
HETATM   10  C   UNL     1     -12.187  13.310  66.514  1.00  0.00    -0.389 C  
BRANCH  10  11
HETATM   11  C   UNL     1     -11.944  14.356  67.590  1.00  0.00    -0.378 C  
BRANCH  11  12
HETATM   12  C   UNL     1     -10.588  15.012  67.397  1.00  0.00    -0.271 C  
BRANCH  12  13
HETATM   13  C   UNL     1      -9.582  14.430  68.381  1.00  0.00    -0.219 C  
BRANCH  13  14
HETATM   14  C   UNL     1      -8.428  13.811  67.619  1.00  0.00    -0.183 C  
BRANCH  14  15
HETATM   15  C   UNL     1      -8.753  12.393  67.173  1.00  0.00    -0.195 C  
BRANCH  15  16
HETATM   16  C   UNL     1      -9.125  11.591  68.399  1.00  0.00    -0.185 C  
BRANCH  16  17
HETATM   17  O   UNL     1     -10.395  10.976  68.222  1.00  0.00    -0.166 OA 
BRANCH  17  18
HETATM   18  P   UNL     1     -11.120  10.506  69.721  1.00  0.00    -0.307 P  
HETATM   19  O   UNL     1     -11.553  11.960  69.935  1.00  0.00    -0.296 OA 
HETATM   20  O   UNL     1      -9.811   9.919  70.243  1.00  0.00    -0.253 OA 
BRANCH  18  21
HETATM   21  O   UNL     1     -11.846  10.035  71.219  1.00  0.00    -0.354 OA 
BRANCH  21  22
HETATM   22  C   UNL     1     -12.369   8.710  71.224  1.00  0.00    -0.263 C  
BRANCH  22  23
HETATM   23  C   UNL     1     -11.832   7.884  72.372  1.00  0.00    -0.348 C  
BRANCH  23  24
HETATM   24  N   UNL     1     -10.950   6.685  71.961  1.00  0.00    -0.234 N  
HETATM   25  C   UNL     1      -9.508   7.101  72.176  1.00  0.00    -0.135 C  
HETATM   26  C   UNL     1     -11.172   6.360  70.483  1.00  0.00    -0.352 C  
HETATM   27  C   UNL     1     -11.267   5.462  72.802  1.00  0.00    -0.300 C  
ENDBRANCH  23  24
ENDBRANCH  22  23
ENDBRANCH  21  22
ENDBRANCH  18  21
ENDBRANCH  17  18
ENDBRANCH  16  17
ENDBRANCH  15  16
ENDBRANCH  14  15
ENDBRANCH  13  14
ENDBRANCH  12  13
ENDBRANCH  11  12
ENDBRANCH  10  11
ENDBRANCH   9  10
ENDBRANCH   8   9
ENDBRANCH   7   8
ENDBRANCH   6   7
ENDBRANCH   5   6
ENDBRANCH   4   5
ENDBRANCH   3   4
ENDBRANCH   2   3
TORSDOF 20
ENDMDL
MODEL      154
REMARK 921   NORMALIZED FREE ENERGY PREDICTED BY IDOCK:   -3.82 KCAL/MOL
REMARK 922        TOTAL FREE ENERGY PREDICTED BY IDOCK:  -10.20 KCAL/MOL
REMARK 923 INTER-LIGAND FREE ENERGY PREDICTED BY IDOCK:   -8.56 KCAL/MOL
REMARK 924 INTRA-LIGAND FREE ENERGY PREDICTED BY IDOCK:   -1.64 KCAL/MOL
REMARK 927      BINDING AFFINITY PREDICTED BY RF-SCORE:    0.00 PKD
ROOT
HETATM    1  C   UNL     1     -13.911  15.475  72.520  1.00  0.00    -0.646 C  
HETATM    2  C   UNL     1     -12.404  15.657  72.471  1.00  0.00    -0.528 C  
ENDROOT
BRANCH   2   3
HETATM    3  C   UNL     1     -11.958  16.189  71.111  1.00  0.00    -0.357 C  
BRANCH   3   4
HETATM    4  C   UNL     1     -10.990  15.223  70.435  1.00  0.00    -0.317 C  
BRANCH   4   5
HETATM    5  C   UNL     1     -11.743  14.055  69.807  1.00  0.00    -0.375 C  
BRANCH   5   6
HETATM    6  C   UNL     1     -12.076  14.350  68.349  1.00  0.00    -0.278 C  
BRANCH   6   7
HETATM    7  C   UNL     1     -10.810  14.667  67.566  1.00  0.00    -0.286 C  
BRANCH   7   8
HETATM    8  C   UNL     1     -10.835  13.974  66.209  1.00  0.00    -0.291 C  
BRANCH   8   9
HETATM    9  C   UNL     1     -12.001  13.000  66.141  1.00  0.00    -0.488 C  
BRANCH   9  10
HETATM   10  C   UNL     1     -12.219  12.524  64.713  1.00  0.00    -0.532 C  
BRANCH  10  11
HETATM   11  C   UNL     1     -10.877  12.313  64.029  1.00  0.00    -0.439 C  
BRANCH  11  12
HETATM   12  C   UNL     1     -10.403  10.883  64.217  1.00  0.00    -0.436 C  
BRANCH  12  13
HETATM   13  C   UNL     1      -9.139  10.859  65.066  1.00  0.00    -0.209 C  
BRANCH  13  14
HETATM   14  C   UNL     1      -9.120   9.601  65.911  1.00  0.00    -0.221 C  
BRANCH  14  15
HETATM   15  C   UNL     1      -8.445   8.450  65.180  1.00  0.00    -0.179 C  
BRANCH  15  16
HETATM   16  C   UNL     1      -8.222   7.332  66.174  1.00  0.00    -0.131 C  
BRANCH  16  17
HETATM   17  O   UNL     1      -9.251   6.357  66.060  1.00  0.00    -0.143 OA 
BRANCH  17  18
HETATM   18  P   UNL     1      -9.930   5.926  67.592  1.00  0.00    -0.172 P  
HETATM   19  O   UNL     1     -11.244   6.586  67.163  1.00  0.00    -0.388 OA 
HETATM   20  O   UNL     1      -8.822   6.647  68.357  1.00  0.00    -0.122 OA 
BRANCH  18  21
HETATM   21  O   UNL     1     -10.608   5.495  69.124  1.00  0.00    -0.255 OA 
BRANCH  21  22
HETATM   22  C   UNL     1     -10.239   6.363  70.192  1.00  0.00    -0.187 C  
BRANCH  22  23
HETATM   23  C   UNL     1     -11.351   7.317  70.567  1.00  0.00    -0.280 C  
BRANCH  23  24
HETATM   24  N   UNL     1     -11.023   8.282  71.727  1.00  0.00    -0.260 N  
HETATM   25  C   UNL     1     -11.161   7.493  73.014  1.00  0.00    -0.362 C  
HETATM   26  C   UNL     1     -12.019   9.444  71.733  1.00  0.00    -0.382 C  
HETATM   27  C   UNL     1      -9.611   8.826  71.601  1.00  0.00    -0.293 C  
ENDBRANCH  23  24
ENDBRANCH  22  23
ENDBRANCH  21  22
ENDBRANCH  18  21
ENDBRANCH  17  18
ENDBRANCH  16  17
ENDBRANCH  15  16
ENDBRANCH  14  15
ENDBRANCH  13  14
ENDBRANCH  12  13
ENDBRANCH  11  12
ENDBRANCH  10  11
ENDBRANCH   9  10
ENDBRANCH   8   9
ENDBRANCH   7   8
ENDBRANCH   6   7
ENDBRANCH   5   6
ENDBRANCH   4   5
ENDBRANCH   3   4
ENDBRANCH   2   3
TORSDOF 20
ENDMDL
MODEL      155
REMARK 921   NORMALIZED FREE ENERGY PREDICTED BY IDOCK:   -3.81 KCAL/MOL
REMARK 922        TOTAL FREE ENERGY PREDICTED BY IDOCK:  -10.19 KCAL/MOL
REMARK 923 INTER-LIGAND FREE ENERGY PREDICTED BY IDOCK:   -8.31 KCAL/MOL
REMARK 924 INTRA-LIGAND FREE ENERGY PREDICTED BY IDOCK:   -1.88 KCAL/MOL
REMARK 927      BINDING AFFINITY PREDICTED BY RF-SCORE:    0.00 PKD
ROOT
HETATM    1  C   UNL     1     -12.153  11.281  69.464  1.00  0.00    -0.386 C  
HETATM    2  C   UNL     1     -12.385  12.166  70.676  1.00  0.00    -0.385 C  
ENDROOT
BRANCH   2   3
HETATM    3  C   UNL     1     -13.038  11.383  71.813  1.00  0.00    -0.523 C  
BRANCH   3   4
HETATM    4  C   UNL     1     -13.290   9.934  71.407  1.00  0.00    -0.447 C  
BRANCH   4   5
HETATM    5  C   UNL     1     -12.385   8.989  72.190  1.00  0.00    -0.442 C  
BRANCH   5   6
HETATM    6  C   UNL     1     -12.198   7.676  71.438  1.00  0.00    -0.351 C  
BRANCH   6   7
HETATM    7  C   UNL     1     -10.732   7.472  71.079  1.00  0.00    -0.243 C  
BRANCH   7   8
HETATM    8  C   UNL     1      -9.960   8.777  71.225  1.00  0.00    -0.333 C  
BRANCH   8   9
HETATM    9  C   UNL     1      -9.338   9.169  69.894  1.00  0.00    -0.198 C  
BRANCH   9  10
HETATM   10  C   UNL     1      -8.024   9.902  70.112  1.00  0.00    -0.181 C  
BRANCH  10  11
HETATM   11  C   UNL     1      -7.534  10.485  68.796  1.00  0.00    -0.097 C  
BRANCH  11  12
HETATM   12  C   UNL     1      -8.599  11.375  68.179  1.00  0.00    -0.153 C  
BRANCH  12  13
HETATM   13  C   UNL     1      -7.986  12.249  67.094  1.00  0.00    -0.161 C  
BRANCH  13  14
HETATM   14  C   UNL     1      -8.482  13.672  67.249  1.00  0.00    -0.203 C  
BRANCH  14  15
HETATM   15  C   UNL     1      -9.986  13.715  67.478  1.00  0.00    -0.230 C  
BRANCH  15  16
HETATM   16  C   UNL     1     -10.422  15.163  67.454  1.00  0.00    -0.264 C  
BRANCH  16  17
HETATM   17  O   UNL     1     -10.387  15.668  66.125  1.00  0.00    -0.285 OA 
BRANCH  17  18
HETATM   18  P   UNL     1      -9.970  17.346  66.064  1.00  0.00    -0.089 P  
HETATM   19  O   UNL     1     -11.004  17.533  64.949  1.00  0.00    -0.887 OA 
HETATM   20  O   UNL     1      -8.495  17.036  65.817  1.00  0.00    -0.508 OA 
BRANCH  18  21
HETATM   21  O   UNL     1      -9.553  19.024  66.004  1.00  0.00    -0.453 OA 
BRANCH  21  22
HETATM   22  C   UNL     1      -8.152  19.280  66.063  1.00  0.00    -0.221 C  
BRANCH  22  23
HETATM   23  C   UNL     1      -7.766  20.081  67.287  1.00  0.00    -0.294 C  
BRANCH  23  24
HETATM   24  N   UNL     1      -6.699  19.426  68.190  1.00  0.00    -0.252 N  
HETATM   25  C   UNL     1      -5.549  19.014  67.291  1.00  0.00    -0.164 C  
HETATM   26  C   UNL     1      -7.284  18.186  68.868  1.00  0.00    -0.258 C  
HETATM   27  C   UNL     1      -6.208  20.397  69.247  1.00  0.00    -0.300 C  
ENDBRANCH  23  24
ENDBRANCH  22  23
ENDBRANCH  21  22
ENDBRANCH  18  21
ENDBRANCH  17  18
ENDBRANCH  16  17
ENDBRANCH  15  16
ENDBRANCH  14  15
ENDBRANCH  13  14
ENDBRANCH  12  13
ENDBRANCH  11  12
ENDBRANCH  10  11
ENDBRANCH   9  10
ENDBRANCH   8   9
ENDBRANCH   7   8
ENDBRANCH   6   7
ENDBRANCH   5   6
ENDBRANCH   4   5
ENDBRANCH   3   4
ENDBRANCH   2   3
TORSDOF 20
ENDMDL
MODEL      156
REMARK 921   NORMALIZED FREE ENERGY PREDICTED BY IDOCK:   -3.80 KCAL/MOL
REMARK 922        TOTAL FREE ENERGY PREDICTED BY IDOCK:  -10.17 KCAL/MOL
REMARK 923 INTER-LIGAND FREE ENERGY PREDICTED BY IDOCK:   -7.45 KCAL/MOL
REMARK 924 INTRA-LIGAND FREE ENERGY PREDICTED BY IDOCK:   -2.72 KCAL/MOL
REMARK 927      BINDING AFFINITY PREDICTED BY RF-SCORE:    0.00 PKD
ROOT
HETATM    1  C   UNL     1     -13.852   7.395  71.536  1.00  0.00    -0.483 C  
HETATM    2  C   UNL     1     -12.741   8.428  71.454  1.00  0.00    -0.280 C  
ENDROOT
BRANCH   2   3
HETATM    3  C   UNL     1     -11.567   8.047  72.354  1.00  0.00    -0.450 C  
BRANCH   3   4
HETATM    4  C   UNL     1     -10.338   8.892  72.039  1.00  0.00    -0.378 C  
BRANCH   4   5
HETATM    5  C   UNL     1      -9.107   8.341  72.750  1.00  0.00    -0.332 C  
BRANCH   5   6
HETATM    6  C   UNL     1      -8.023   7.972  71.745  1.00  0.00    -0.133 C  
BRANCH   6   7
HETATM    7  C   UNL     1      -7.611   6.516  71.914  1.00  0.00    -0.094 C  
BRANCH   7   8
HETATM    8  C   UNL     1      -8.669   5.750  72.696  1.00  0.00    -0.119 C  
BRANCH   8   9
HETATM    9  C   UNL     1      -9.172   4.569  71.880  1.00  0.00    -0.178 C  
BRANCH   9  10
HETATM   10  C   UNL     1     -10.265   5.008  70.919  1.00  0.00    -0.287 C  
BRANCH  10  11
HETATM   11  C   UNL     1     -10.003   4.427  69.539  1.00  0.00    -0.187 C  
BRANCH  11  12
HETATM   12  C   UNL     1      -9.812   5.538  68.521  1.00  0.00    -0.193 C  
BRANCH  12  13
HETATM   13  C   UNL     1     -10.431   6.830  69.036  1.00  0.00    -0.229 C  
BRANCH  13  14
HETATM   14  C   UNL     1      -9.734   8.015  68.399  1.00  0.00    -0.168 C  
BRANCH  14  15
HETATM   15  C   UNL     1     -10.489   8.512  67.175  1.00  0.00    -0.370 C  
BRANCH  15  16
HETATM   16  C   UNL     1     -10.638  10.012  67.295  1.00  0.00    -0.257 C  
BRANCH  16  17
HETATM   17  O   UNL     1     -11.738  10.334  68.137  1.00  0.00    -0.287 OA 
BRANCH  17  18
HETATM   18  P   UNL     1     -11.768  12.006  68.579  1.00  0.00    -0.262 P  
HETATM   19  O   UNL     1     -10.273  12.090  68.253  1.00  0.00    -0.195 OA 
HETATM   20  O   UNL     1     -12.323  11.695  69.968  1.00  0.00    -0.255 OA 
BRANCH  18  21
HETATM   21  O   UNL     1     -11.799  13.679  69.021  1.00  0.00    -0.310 OA 
BRANCH  21  22
HETATM   22  C   UNL     1     -11.363  14.563  67.991  1.00  0.00    -0.306 C  
BRANCH  22  23
HETATM   23  C   UNL     1     -12.107  14.342  66.692  1.00  0.00    -0.420 C  
BRANCH  23  24
HETATM   24  N   UNL     1     -11.269  14.558  65.413  1.00  0.00    -0.329 N  
HETATM   25  C   UNL     1     -10.984  16.044  65.316  1.00  0.00    -0.299 C  
HETATM   26  C   UNL     1     -12.069  14.112  64.188  1.00  0.00    -0.406 C  
HETATM   27  C   UNL     1      -9.966  13.783  65.476  1.00  0.00    -0.238 C  
ENDBRANCH  23  24
ENDBRANCH  22  23
ENDBRANCH  21  22
ENDBRANCH  18  21
ENDBRANCH  17  18
ENDBRANCH  16  17
ENDBRANCH  15  16
ENDBRANCH  14  15
ENDBRANCH  13  14
ENDBRANCH  12  13
ENDBRANCH  11  12
ENDBRANCH  10  11
ENDBRANCH   9  10
ENDBRANCH   8   9
ENDBRANCH   7   8
ENDBRANCH   6   7
ENDBRANCH   5   6
ENDBRANCH   4   5
ENDBRANCH   3   4
ENDBRANCH   2   3
TORSDOF 20
ENDMDL
MODEL      157
REMARK 921   NORMALIZED FREE ENERGY PREDICTED BY IDOCK:   -3.80 KCAL/MOL
REMARK 922        TOTAL FREE ENERGY PREDICTED BY IDOCK:  -10.16 KCAL/MOL
REMARK 923 INTER-LIGAND FREE ENERGY PREDICTED BY IDOCK:   -7.62 KCAL/MOL
REMARK 924 INTRA-LIGAND FREE ENERGY PREDICTED BY IDOCK:   -2.53 KCAL/MOL
REMARK 927      BINDING AFFINITY PREDICTED BY RF-SCORE:    0.00 PKD
ROOT
HETATM    1  C   UNL     1      -7.740   8.746  68.222  1.00  0.00    -0.100 C  
HETATM    2  C   UNL     1      -8.482   7.503  67.761  1.00  0.00    -0.118 C  
ENDROOT
BRANCH   2   3
HETATM    3  C   UNL     1      -9.993   7.701  67.842  1.00  0.00    -0.208 C  
BRANCH   3   4
HETATM    4  C   UNL     1     -10.721   6.770  66.877  1.00  0.00    -0.394 C  
BRANCH   4   5
HETATM    5  C   UNL     1      -9.802   5.643  66.419  1.00  0.00    -0.184 C  
BRANCH   5   6
HETATM    6  C   UNL     1     -10.120   4.351  67.163  1.00  0.00    -0.121 C  
BRANCH   6   7
HETATM    7  C   UNL     1      -8.911   3.883  67.961  1.00  0.00    -0.136 C  
BRANCH   7   8
HETATM    8  C   UNL     1      -9.305   3.588  69.403  1.00  0.00    -0.243 C  
BRANCH   8   9
HETATM    9  C   UNL     1     -10.108   4.747  69.973  1.00  0.00    -0.308 C  
BRANCH   9  10
HETATM   10  C   UNL     1      -9.633   5.090  71.376  1.00  0.00    -0.220 C  
BRANCH  10  11
HETATM   11  C   UNL     1      -8.571   6.176  71.309  1.00  0.00    -0.129 C  
BRANCH  11  12
HETATM   12  C   UNL     1      -8.673   7.095  72.514  1.00  0.00    -0.140 C  
BRANCH  12  13
HETATM   13  C   UNL     1      -9.420   8.367  72.139  1.00  0.00    -0.360 C  
BRANCH  13  14
HETATM   14  C   UNL     1     -10.865   8.254  72.580  1.00  0.00    -0.381 C  
BRANCH  14  15
HETATM   15  C   UNL     1     -11.815   8.303  71.392  1.00  0.00    -0.330 C  
BRANCH  15  16
HETATM   16  C   UNL     1     -12.605   9.589  71.478  1.00  0.00    -0.373 C  
BRANCH  16  17
HETATM   17  O   UNL     1     -11.767  10.704  71.195  1.00  0.00    -0.305 OA 
BRANCH  17  18
HETATM   18  P   UNL     1     -11.879  11.217  69.547  1.00  0.00    -0.375 P  
HETATM   19  O   UNL     1     -10.452  10.708  69.321  1.00  0.00    -0.207 OA 
HETATM   20  O   UNL     1     -12.222  12.649  69.949  1.00  0.00    -0.258 OA 
BRANCH  18  21
HETATM   21  O   UNL     1     -11.993  11.729  67.898  1.00  0.00    -0.575 OA 
BRANCH  21  22
HETATM   22  C   UNL     1     -11.494  13.043  67.659  1.00  0.00    -0.324 C  
BRANCH  22  23
HETATM   23  C   UNL     1     -10.436  13.067  66.578  1.00  0.00    -0.277 C  
BRANCH  23  24
HETATM   24  N   UNL     1     -10.897  13.643  65.221  1.00  0.00    -0.309 N  
HETATM   25  C   UNL     1     -10.303  15.032  65.103  1.00  0.00    -0.392 C  
HETATM   26  C   UNL     1     -12.424  13.737  65.191  1.00  0.00    -0.450 C  
HETATM   27  C   UNL     1     -10.420  12.775  64.071  1.00  0.00    -0.406 C  
ENDBRANCH  23  24
ENDBRANCH  22  23
ENDBRANCH  21  22
ENDBRANCH  18  21
ENDBRANCH  17  18
ENDBRANCH  16  17
ENDBRANCH  15  16
ENDBRANCH  14  15
ENDBRANCH  13  14
ENDBRANCH  12  13
ENDBRANCH  11  12
ENDBRANCH  10  11
ENDBRANCH   9  10
ENDBRANCH   8   9
ENDBRANCH   7   8
ENDBRANCH   6   7
ENDBRANCH   5   6
ENDBRANCH   4   5
ENDBRANCH   3   4
ENDBRANCH   2   3
TORSDOF 20
ENDMDL
MODEL      158
REMARK 921   NORMALIZED FREE ENERGY PREDICTED BY IDOCK:   -3.79 KCAL/MOL
REMARK 922        TOTAL FREE ENERGY PREDICTED BY IDOCK:  -10.15 KCAL/MOL
REMARK 923 INTER-LIGAND FREE ENERGY PREDICTED BY IDOCK:   -8.32 KCAL/MOL
REMARK 924 INTRA-LIGAND FREE ENERGY PREDICTED BY IDOCK:   -1.83 KCAL/MOL
REMARK 927      BINDING AFFINITY PREDICTED BY RF-SCORE:    0.00 PKD
ROOT
HETATM    1  C   UNL     1     -11.002   6.243  68.070  1.00  0.00    -0.418 C  
HETATM    2  C   UNL     1     -10.820   5.851  69.527  1.00  0.00    -0.442 C  
ENDROOT
BRANCH   2   3
HETATM    3  C   UNL     1     -11.595   6.789  70.450  1.00  0.00    -0.422 C  
BRANCH   3   4
HETATM    4  C   UNL     1     -10.707   7.307  71.576  1.00  0.00    -0.241 C  
BRANCH   4   5
HETATM    5  C   UNL     1     -10.090   8.650  71.203  1.00  0.00    -0.290 C  
BRANCH   5   6
HETATM    6  C   UNL     1     -11.176   9.689  70.944  1.00  0.00    -0.422 C  
BRANCH   6   7
HETATM    7  C   UNL     1     -11.242  10.034  69.463  1.00  0.00    -0.254 C  
BRANCH   7   8
HETATM    8  C   UNL     1      -9.901  10.574  68.981  1.00  0.00    -0.224 C  
BRANCH   8   9
HETATM    9  C   UNL     1      -9.207   9.545  68.102  1.00  0.00    -0.134 C  
BRANCH   9  10
HETATM   10  C   UNL     1      -9.105  10.045  66.670  1.00  0.00    -0.169 C  
BRANCH  10  11
HETATM   11  C   UNL     1     -10.436  10.637  66.234  1.00  0.00    -0.268 C  
BRANCH  11  12
HETATM   12  C   UNL     1     -10.233  11.616  65.090  1.00  0.00    -0.319 C  
BRANCH  12  13
HETATM   13  C   UNL     1     -10.757  12.991  65.480  1.00  0.00    -0.299 C  
BRANCH  13  14
HETATM   14  C   UNL     1     -11.798  12.844  66.572  1.00  0.00    -0.473 C  
BRANCH  14  15
HETATM   15  C   UNL     1     -11.941  14.127  67.379  1.00  0.00    -0.439 C  
BRANCH  15  16
HETATM   16  C   UNL     1     -11.898  13.763  68.846  1.00  0.00    -0.360 C  
BRANCH  16  17
HETATM   17  O   UNL     1     -10.678  14.205  69.430  1.00  0.00    -0.198 OA 
BRANCH  17  18
HETATM   18  P   UNL     1     -10.398  15.894  69.181  1.00  0.00    -0.280 P  
HETATM   19  O   UNL     1      -8.911  15.660  69.465  1.00  0.00    -0.264 OA 
HETATM   20  O   UNL     1     -11.419  16.286  70.247  1.00  0.00    -0.341 OA 
BRANCH  18  21
HETATM   21  O   UNL     1     -10.119  17.583  68.931  1.00  0.00    -0.338 OA 
BRANCH  21  22
HETATM   22  C   UNL     1      -8.842  17.888  68.375  1.00  0.00    -0.289 C  
BRANCH  22  23
HETATM   23  C   UNL     1      -8.325  19.235  68.829  1.00  0.00    -0.351 C  
BRANCH  23  24
HETATM   24  N   UNL     1      -6.787  19.378  68.839  1.00  0.00    -0.320 N  
HETATM   25  C   UNL     1      -6.212  17.997  68.591  1.00  0.00    -0.206 C  
HETATM   26  C   UNL     1      -6.322  19.886  70.205  1.00  0.00    -0.325 C  
HETATM   27  C   UNL     1      -6.322  20.335  67.757  1.00  0.00    -0.237 C  
ENDBRANCH  23  24
ENDBRANCH  22  23
ENDBRANCH  21  22
ENDBRANCH  18  21
ENDBRANCH  17  18
ENDBRANCH  16  17
ENDBRANCH  15  16
ENDBRANCH  14  15
ENDBRANCH  13  14
ENDBRANCH  12  13
ENDBRANCH  11  12
ENDBRANCH  10  11
ENDBRANCH   9  10
ENDBRANCH   8   9
ENDBRANCH   7   8
ENDBRANCH   6   7
ENDBRANCH   5   6
ENDBRANCH   4   5
ENDBRANCH   3   4
ENDBRANCH   2   3
TORSDOF 20
ENDMDL
MODEL      159
REMARK 921   NORMALIZED FREE ENERGY PREDICTED BY IDOCK:   -3.78 KCAL/MOL
REMARK 922        TOTAL FREE ENERGY PREDICTED BY IDOCK:  -10.12 KCAL/MOL
REMARK 923 INTER-LIGAND FREE ENERGY PREDICTED BY IDOCK:   -8.29 KCAL/MOL
REMARK 924 INTRA-LIGAND FREE ENERGY PREDICTED BY IDOCK:   -1.84 KCAL/MOL
REMARK 927      BINDING AFFINITY PREDICTED BY RF-SCORE:    0.00 PKD
ROOT
HETATM    1  C   UNL     1     -10.568  14.414  66.566  1.00  0.00    -0.296 C  
HETATM    2  C   UNL     1     -11.018  14.795  65.167  1.00  0.00    -0.403 C  
ENDROOT
BRANCH   2   3
HETATM    3  C   UNL     1     -12.439  14.308  64.893  1.00  0.00    -0.403 C  
BRANCH   3   4
HETATM    4  C   UNL     1     -12.522  12.787  64.969  1.00  0.00    -0.572 C  
BRANCH   4   5
HETATM    5  C   UNL     1     -12.351  12.168  63.586  1.00  0.00    -0.673 C  
BRANCH   5   6
HETATM    6  C   UNL     1     -11.034  11.407  63.495  1.00  0.00    -0.406 C  
BRANCH   6   7
HETATM    7  C   UNL     1     -10.387  11.293  64.869  1.00  0.00    -0.362 C  
BRANCH   7   8
HETATM    8  C   UNL     1      -9.576  10.008  64.972  1.00  0.00    -0.362 C  
BRANCH   8   9
HETATM    9  C   UNL     1      -9.626   9.469  66.393  1.00  0.00    -0.273 C  
BRANCH   9  10
HETATM   10  C   UNL     1     -10.946   9.828  67.057  1.00  0.00    -0.059 C  
BRANCH  10  11
HETATM   11  C   UNL     1     -10.704  10.221  68.506  1.00  0.00    -0.262 C  
BRANCH  11  12
HETATM   12  C   UNL     1     -11.871  11.034  69.039  1.00  0.00    -0.399 C  
BRANCH  12  13
HETATM   13  C   UNL     1     -11.842  11.054  70.561  1.00  0.00    -0.464 C  
BRANCH  13  14
HETATM   14  C   UNL     1     -13.114  10.431  71.100  1.00  0.00    -0.474 C  
BRANCH  14  15
HETATM   15  C   UNL     1     -12.812   9.238  71.995  1.00  0.00    -0.495 C  
BRANCH  15  16
HETATM   16  C   UNL     1     -13.896   8.206  71.779  1.00  0.00    -0.393 C  
BRANCH  16  17
HETATM   17  O   UNL     1     -13.323   6.916  71.605  1.00  0.00    -0.341 OA 
BRANCH  17  18
HETATM   18  P   UNL     1     -11.601   6.970  71.449  1.00  0.00    -0.333 P  
HETATM   19  O   UNL     1     -11.746   6.497  69.999  1.00  0.00    -0.416 OA 
HETATM   20  O   UNL     1     -11.400   6.033  72.637  1.00  0.00    -0.276 OA 
BRANCH  18  21
HETATM   21  O   UNL     1      -9.879   7.026  71.293  1.00  0.00    -0.176 OA 
BRANCH  21  22
HETATM   22  C   UNL     1      -9.334   6.002  70.465  1.00  0.00    -0.160 C  
BRANCH  22  23
HETATM   23  C   UNL     1      -8.162   5.301  71.115  1.00  0.00    -0.118 C  
BRANCH  23  24
HETATM   24  N   UNL     1      -6.770   5.773  70.640  1.00  0.00    -0.050 N  
HETATM   25  C   UNL     1      -6.362   6.924  71.539  1.00  0.00    -0.041 C  
HETATM   26  C   UNL     1      -6.855   6.262  69.193  1.00  0.00    -0.062 C  
HETATM   27  C   UNL     1      -5.752   4.652  70.738  1.00  0.00    -0.016 C  
ENDBRANCH  23  24
ENDBRANCH  22  23
ENDBRANCH  21  22
ENDBRANCH  18  21
ENDBRANCH  17  18
ENDBRANCH  16  17
ENDBRANCH  15  16
ENDBRANCH  14  15
ENDBRANCH  13  14
ENDBRANCH  12  13
ENDBRANCH  11  12
ENDBRANCH  10  11
ENDBRANCH   9  10
ENDBRANCH   8   9
ENDBRANCH   7   8
ENDBRANCH   6   7
ENDBRANCH   5   6
ENDBRANCH   4   5
ENDBRANCH   3   4
ENDBRANCH   2   3
TORSDOF 20
ENDMDL
MODEL      160
REMARK 921   NORMALIZED FREE ENERGY PREDICTED BY IDOCK:   -3.77 KCAL/MOL
REMARK 922        TOTAL FREE ENERGY PREDICTED BY IDOCK:  -10.09 KCAL/MOL
REMARK 923 INTER-LIGAND FREE ENERGY PREDICTED BY IDOCK:   -8.88 KCAL/MOL
REMARK 924 INTRA-LIGAND FREE ENERGY PREDICTED BY IDOCK:   -1.22 KCAL/MOL
REMARK 927      BINDING AFFINITY PREDICTED BY RF-SCORE:    0.00 PKD
ROOT
HETATM    1  C   UNL     1      -6.256  20.946  64.035  1.00  0.00    -0.355 C  
HETATM    2  C   UNL     1      -6.528  19.996  65.188  1.00  0.00    -0.322 C  
ENDROOT
BRANCH   2   3
HETATM    3  C   UNL     1      -6.642  20.753  66.510  1.00  0.00    -0.331 C  
BRANCH   3   4
HETATM    4  C   UNL     1      -7.937  20.399  67.234  1.00  0.00    -0.376 C  
BRANCH   4   5
HETATM    5  C   UNL     1      -8.863  19.599  66.324  1.00  0.00    -0.410 C  
BRANCH   5   6
HETATM    6  C   UNL     1     -10.304  19.682  66.814  1.00  0.00    -0.591 C  
BRANCH   6   7
HETATM    7  C   UNL     1     -10.458  18.959  68.145  1.00  0.00    -0.387 C  
BRANCH   7   8
HETATM    8  C   UNL     1     -10.393  17.451  67.943  1.00  0.00    -0.369 C  
BRANCH   8   9
HETATM    9  C   UNL     1      -9.234  16.866  68.736  1.00  0.00    -0.260 C  
BRANCH   9  10
HETATM   10  C   UNL     1      -9.704  15.703  69.594  1.00  0.00    -0.276 C  
BRANCH  10  11
HETATM   11  C   UNL     1     -11.180  15.867  69.922  1.00  0.00    -0.348 C  
BRANCH  11  12
HETATM   12  C   UNL     1     -11.378  16.021  71.420  1.00  0.00    -0.371 C  
BRANCH  12  13
HETATM   13  C   UNL     1     -12.817  15.695  71.792  1.00  0.00    -0.530 C  
BRANCH  13  14
HETATM   14  C   UNL     1     -13.204  14.358  71.194  1.00  0.00    -0.414 C  
BRANCH  14  15
HETATM   15  C   UNL     1     -13.769  13.419  72.250  1.00  0.00    -0.705 C  
BRANCH  15  16
HETATM   16  C   UNL     1     -13.112  12.068  72.075  1.00  0.00    -0.351 C  
BRANCH  16  17
HETATM   17  O   UNL     1     -13.274  11.609  70.738  1.00  0.00     0.061 OA 
BRANCH  17  18
HETATM   18  P   UNL     1     -11.794  11.040  70.047  1.00  0.00    -0.406 P  
HETATM   19  O   UNL     1     -12.393  11.259  68.654  1.00  0.00    -0.534 OA 
HETATM   20  O   UNL     1     -11.870   9.721  70.812  1.00  0.00    -0.287 OA 
BRANCH  18  21
HETATM   21  O   UNL     1     -10.313  10.472  69.357  1.00  0.00    -0.221 OA 
BRANCH  21  22
HETATM   22  C   UNL     1     -10.426  10.045  68.002  1.00  0.00    -0.218 C  
BRANCH  22  23
HETATM   23  C   UNL     1      -9.463  10.772  67.089  1.00  0.00    -0.160 C  
BRANCH  23  24
HETATM   24  N   UNL     1      -8.960   9.953  65.880  1.00  0.00    -0.146 N  
HETATM   25  C   UNL     1      -9.949  10.173  64.752  1.00  0.00    -0.264 C  
HETATM   26  C   UNL     1      -8.921   8.467  66.241  1.00  0.00    -0.174 C  
HETATM   27  C   UNL     1      -7.576  10.406  65.453  1.00  0.00    -0.131 C  
ENDBRANCH  23  24
ENDBRANCH  22  23
ENDBRANCH  21  22
ENDBRANCH  18  21
ENDBRANCH  17  18
ENDBRANCH  16  17
ENDBRANCH  15  16
ENDBRANCH  14  15
ENDBRANCH  13  14
ENDBRANCH  12  13
ENDBRANCH  11  12
ENDBRANCH  10  11
ENDBRANCH   9  10
ENDBRANCH   8   9
ENDBRANCH   7   8
ENDBRANCH   6   7
ENDBRANCH   5   6
ENDBRANCH   4   5
ENDBRANCH   3   4
ENDBRANCH   2   3
TORSDOF 20
ENDMDL
MODEL      161
REMARK 921   NORMALIZED FREE ENERGY PREDICTED BY IDOCK:   -3.76 KCAL/MOL
REMARK 922        TOTAL FREE ENERGY PREDICTED BY IDOCK:  -10.08 KCAL/MOL
REMARK 923 INTER-LIGAND FREE ENERGY PREDICTED BY IDOCK:   -7.86 KCAL/MOL
REMARK 924 INTRA-LIGAND FREE ENERGY PREDICTED BY IDOCK:   -2.22 KCAL/MOL
REMARK 927      BINDING AFFINITY PREDICTED BY RF-SCORE:    0.00 PKD
ROOT
HETATM    1  C   UNL     1      -9.315   4.142  67.917  1.00  0.00    -0.210 C  
HETATM    2  C   UNL     1      -8.127   5.033  67.595  1.00  0.00    -0.098 C  
ENDROOT
BRANCH   2   3
HETATM    3  C   UNL     1      -8.566   6.481  67.387  1.00  0.00    -0.118 C  
BRANCH   3   4
HETATM    4  C   UNL     1      -9.248   7.032  68.634  1.00  0.00    -0.131 C  
BRANCH   4   5
HETATM    5  C   UNL     1      -8.344   8.031  69.348  1.00  0.00    -0.131 C  
BRANCH   5   6
HETATM    6  C   UNL     1      -7.536   7.342  70.440  1.00  0.00    -0.083 C  
BRANCH   6   7
HETATM    7  C   UNL     1      -8.420   6.397  71.243  1.00  0.00    -0.123 C  
BRANCH   7   8
HETATM    8  C   UNL     1      -8.429   6.796  72.713  1.00  0.00    -0.124 C  
BRANCH   8   9
HETATM    9  C   UNL     1      -9.284   8.038  72.913  1.00  0.00    -0.332 C  
BRANCH   9  10
HETATM   10  C   UNL     1     -10.704   7.656  73.296  1.00  0.00    -0.409 C  
BRANCH  10  11
HETATM   11  C   UNL     1     -11.670   8.107  72.210  1.00  0.00    -0.439 C  
BRANCH  11  12
HETATM   12  C   UNL     1     -11.120   9.319  71.479  1.00  0.00    -0.443 C  
BRANCH  12  13
HETATM   13  C   UNL     1     -12.200  10.384  71.349  1.00  0.00    -0.461 C  
BRANCH  13  14
HETATM   14  C   UNL     1     -12.076  11.068  70.003  1.00  0.00    -0.441 C  
BRANCH  14  15
HETATM   15  C   UNL     1     -10.891  10.532  69.213  1.00  0.00    -0.284 C  
BRANCH  15  16
HETATM   16  C   UNL     1     -11.136  10.819  67.749  1.00  0.00    -0.318 C  
BRANCH  16  17
HETATM   17  O   UNL     1     -12.223  11.725  67.597  1.00  0.00    -0.534 OA 
BRANCH  17  18
HETATM   18  P   UNL     1     -11.784  13.146  66.714  1.00  0.00    -0.388 P  
HETATM   19  O   UNL     1     -11.150  12.251  65.644  1.00  0.00    -0.295 OA 
HETATM   20  O   UNL     1     -11.021  13.727  67.903  1.00  0.00    -0.244 OA 
BRANCH  18  21
HETATM   21  O   UNL     1     -11.346  14.567  65.831  1.00  0.00    -0.333 OA 
BRANCH  21  22
HETATM   22  C   UNL     1     -10.249  15.287  66.388  1.00  0.00    -0.277 C  
BRANCH  22  23
HETATM   23  C   UNL     1     -10.273  16.752  66.011  1.00  0.00    -0.346 C  
BRANCH  23  24
HETATM   24  N   UNL     1      -9.810  17.722  67.121  1.00  0.00    -0.299 N  
HETATM   25  C   UNL     1     -10.582  19.013  66.932  1.00  0.00    -0.436 C  
HETATM   26  C   UNL     1      -8.312  17.998  66.976  1.00  0.00    -0.236 C  
HETATM   27  C   UNL     1     -10.088  17.147  68.498  1.00  0.00    -0.329 C  
ENDBRANCH  23  24
ENDBRANCH  22  23
ENDBRANCH  21  22
ENDBRANCH  18  21
ENDBRANCH  17  18
ENDBRANCH  16  17
ENDBRANCH  15  16
ENDBRANCH  14  15
ENDBRANCH  13  14
ENDBRANCH  12  13
ENDBRANCH  11  12
ENDBRANCH  10  11
ENDBRANCH   9  10
ENDBRANCH   8   9
ENDBRANCH   7   8
ENDBRANCH   6   7
ENDBRANCH   5   6
ENDBRANCH   4   5
ENDBRANCH   3   4
ENDBRANCH   2   3
TORSDOF 20
ENDMDL
MODEL      162
REMARK 921   NORMALIZED FREE ENERGY PREDICTED BY IDOCK:   -3.76 KCAL/MOL
REMARK 922        TOTAL FREE ENERGY PREDICTED BY IDOCK:  -10.07 KCAL/MOL
REMARK 923 INTER-LIGAND FREE ENERGY PREDICTED BY IDOCK:   -7.97 KCAL/MOL
REMARK 924 INTRA-LIGAND FREE ENERGY PREDICTED BY IDOCK:   -2.10 KCAL/MOL
REMARK 927      BINDING AFFINITY PREDICTED BY RF-SCORE:    0.00 PKD
ROOT
HETATM    1  C   UNL     1     -14.394  15.154  71.651  1.00  0.00    -0.685 C  
HETATM    2  C   UNL     1     -13.428  15.827  72.611  1.00  0.00    -0.624 C  
ENDROOT
BRANCH   2   3
HETATM    3  C   UNL     1     -12.118  16.183  71.914  1.00  0.00    -0.548 C  
BRANCH   3   4
HETATM    4  C   UNL     1     -12.060  15.581  70.514  1.00  0.00    -0.423 C  
BRANCH   4   5
HETATM    5  C   UNL     1     -10.659  15.062  70.207  1.00  0.00    -0.115 C  
BRANCH   5   6
HETATM    6  C   UNL     1      -9.996  15.907  69.125  1.00  0.00    -0.245 C  
BRANCH   6   7
HETATM    7  C   UNL     1     -11.048  16.559  68.238  1.00  0.00    -0.321 C  
BRANCH   7   8
HETATM    8  C   UNL     1     -10.387  17.283  67.072  1.00  0.00    -0.318 C  
BRANCH   8   9
HETATM    9  C   UNL     1      -9.781  16.276  66.106  1.00  0.00    -0.357 C  
BRANCH   9  10
HETATM   10  C   UNL     1     -10.841  15.739  65.157  1.00  0.00    -0.444 C  
BRANCH  10  11
HETATM   11  C   UNL     1     -10.419  14.377  64.630  1.00  0.00    -0.286 C  
BRANCH  11  12
HETATM   12  C   UNL     1     -11.496  13.343  64.905  1.00  0.00    -0.346 C  
BRANCH  12  13
HETATM   13  C   UNL     1     -12.426  13.837  66.004  1.00  0.00    -0.491 C  
BRANCH  13  14
HETATM   14  C   UNL     1     -12.115  13.108  67.296  1.00  0.00    -0.329 C  
BRANCH  14  15
HETATM   15  C   UNL     1     -11.283  11.859  67.043  1.00  0.00    -0.379 C  
BRANCH  15  16
HETATM   16  C   UNL     1     -10.158  11.834  68.053  1.00  0.00    -0.192 C  
BRANCH  16  17
HETATM   17  O   UNL     1      -9.224  10.812  67.728  1.00  0.00    -0.149 OA 
BRANCH  17  18
HETATM   18  P   UNL     1      -9.768   9.240  68.205  1.00  0.00    -0.159 P  
HETATM   19  O   UNL     1      -8.751   9.267  69.351  1.00  0.00    -0.135 OA 
HETATM   20  O   UNL     1      -9.483   8.652  66.825  1.00  0.00    -0.162 OA 
BRANCH  18  21
HETATM   21  O   UNL     1     -10.313   7.669  68.682  1.00  0.00    -0.197 OA 
BRANCH  21  22
HETATM   22  C   UNL     1     -10.632   7.557  70.067  1.00  0.00    -0.237 C  
BRANCH  22  23
HETATM   23  C   UNL     1      -9.958   6.368  70.717  1.00  0.00    -0.185 C  
BRANCH  23  24
HETATM   24  N   UNL     1      -9.222   6.674  72.039  1.00  0.00    -0.143 N  
HETATM   25  C   UNL     1      -9.693   8.038  72.504  1.00  0.00    -0.258 C  
HETATM   26  C   UNL     1      -7.712   6.712  71.795  1.00  0.00    -0.097 C  
HETATM   27  C   UNL     1      -9.538   5.630  73.094  1.00  0.00    -0.150 C  
ENDBRANCH  23  24
ENDBRANCH  22  23
ENDBRANCH  21  22
ENDBRANCH  18  21
ENDBRANCH  17  18
ENDBRANCH  16  17
ENDBRANCH  15  16
ENDBRANCH  14  15
ENDBRANCH  13  14
ENDBRANCH  12  13
ENDBRANCH  11  12
ENDBRANCH  10  11
ENDBRANCH   9  10
ENDBRANCH   8   9
ENDBRANCH   7   8
ENDBRANCH   6   7
ENDBRANCH   5   6
ENDBRANCH   4   5
ENDBRANCH   3   4
ENDBRANCH   2   3
TORSDOF 20
ENDMDL
MODEL      163
REMARK 921   NORMALIZED FREE ENERGY PREDICTED BY IDOCK:   -3.76 KCAL/MOL
REMARK 922        TOTAL FREE ENERGY PREDICTED BY IDOCK:  -10.07 KCAL/MOL
REMARK 923 INTER-LIGAND FREE ENERGY PREDICTED BY IDOCK:   -8.16 KCAL/MOL
REMARK 924 INTRA-LIGAND FREE ENERGY PREDICTED BY IDOCK:   -1.91 KCAL/MOL
REMARK 927      BINDING AFFINITY PREDICTED BY RF-SCORE:    0.00 PKD
ROOT
HETATM    1  C   UNL     1      -9.433   3.317  69.304  1.00  0.00    -0.199 C  
HETATM    2  C   UNL     1      -8.143   3.755  68.632  1.00  0.00    -0.079 C  
ENDROOT
BRANCH   2   3
HETATM    3  C   UNL     1      -8.423   4.455  67.304  1.00  0.00    -0.104 C  
BRANCH   3   4
HETATM    4  C   UNL     1      -9.907   4.776  67.157  1.00  0.00    -0.222 C  
BRANCH   4   5
HETATM    5  C   UNL     1     -10.127   6.282  67.062  1.00  0.00    -0.225 C  
BRANCH   5   6
HETATM    6  C   UNL     1     -11.150   6.744  68.092  1.00  0.00    -0.229 C  
BRANCH   6   7
HETATM    7  C   UNL     1     -10.511   6.848  69.470  1.00  0.00    -0.244 C  
BRANCH   7   8
HETATM    8  C   UNL     1     -11.524   6.508  70.555  1.00  0.00    -0.448 C  
BRANCH   8   9
HETATM    9  C   UNL     1     -10.980   6.898  71.921  1.00  0.00    -0.266 C  
BRANCH   9  10
HETATM   10  C   UNL     1     -11.450   8.290  72.309  1.00  0.00    -0.452 C  
BRANCH  10  11
HETATM   11  C   UNL     1     -12.905   8.474  71.908  1.00  0.00    -0.399 C  
BRANCH  11  12
HETATM   12  C   UNL     1     -13.129   9.864  71.340  1.00  0.00    -0.500 C  
BRANCH  12  13
HETATM   13  C   UNL     1     -11.862  10.360  70.657  1.00  0.00    -0.445 C  
BRANCH  13  14
HETATM   14  C   UNL     1     -12.221  11.029  69.346  1.00  0.00    -0.329 C  
BRANCH  14  15
HETATM   15  C   UNL     1     -11.628  12.428  69.255  1.00  0.00    -0.379 C  
BRANCH  15  16
HETATM   16  C   UNL     1     -12.126  13.225  70.439  1.00  0.00    -0.327 C  
BRANCH  16  17
HETATM   17  O   UNL     1     -11.520  14.512  70.459  1.00  0.00    -0.259 OA 
BRANCH  17  18
HETATM   18  P   UNL     1     -10.834  14.946  68.932  1.00  0.00    -0.273 P  
HETATM   19  O   UNL     1      -9.529  15.303  69.651  1.00  0.00    -0.237 OA 
HETATM   20  O   UNL     1     -11.950  15.947  68.642  1.00  0.00    -0.338 OA 
BRANCH  18  21
HETATM   21  O   UNL     1     -10.148  15.379  67.403  1.00  0.00    -0.230 OA 
BRANCH  21  22
HETATM   22  C   UNL     1     -10.411  16.722  67.004  1.00  0.00    -0.300 C  
BRANCH  22  23
HETATM   23  C   UNL     1      -9.152  17.559  66.941  1.00  0.00    -0.254 C  
BRANCH  23  24
HETATM   24  N   UNL     1      -9.343  19.055  67.272  1.00  0.00    -0.300 N  
HETATM   25  C   UNL     1     -10.835  19.324  67.269  1.00  0.00    -0.449 C  
HETATM   26  C   UNL     1      -8.669  19.913  66.200  1.00  0.00    -0.307 C  
HETATM   27  C   UNL     1      -8.758  19.391  68.631  1.00  0.00    -0.363 C  
ENDBRANCH  23  24
ENDBRANCH  22  23
ENDBRANCH  21  22
ENDBRANCH  18  21
ENDBRANCH  17  18
ENDBRANCH  16  17
ENDBRANCH  15  16
ENDBRANCH  14  15
ENDBRANCH  13  14
ENDBRANCH  12  13
ENDBRANCH  11  12
ENDBRANCH  10  11
ENDBRANCH   9  10
ENDBRANCH   8   9
ENDBRANCH   7   8
ENDBRANCH   6   7
ENDBRANCH   5   6
ENDBRANCH   4   5
ENDBRANCH   3   4
ENDBRANCH   2   3
TORSDOF 20
ENDMDL
MODEL      164
REMARK 921   NORMALIZED FREE ENERGY PREDICTED BY IDOCK:   -3.76 KCAL/MOL
REMARK 922        TOTAL FREE ENERGY PREDICTED BY IDOCK:  -10.07 KCAL/MOL
REMARK 923 INTER-LIGAND FREE ENERGY PREDICTED BY IDOCK:   -7.34 KCAL/MOL
REMARK 924 INTRA-LIGAND FREE ENERGY PREDICTED BY IDOCK:   -2.72 KCAL/MOL
REMARK 927      BINDING AFFINITY PREDICTED BY RF-SCORE:    0.00 PKD
ROOT
HETATM    1  C   UNL     1      -7.918  16.398  66.689  1.00  0.00    -0.323 C  
HETATM    2  C   UNL     1      -9.059  15.627  66.048  1.00  0.00    -0.346 C  
ENDROOT
BRANCH   2   3
HETATM    3  C   UNL     1     -10.227  16.551  65.712  1.00  0.00    -0.350 C  
BRANCH   3   4
HETATM    4  C   UNL     1     -11.116  15.941  64.633  1.00  0.00    -0.368 C  
BRANCH   4   5
HETATM    5  C   UNL     1     -11.248  14.435  64.830  1.00  0.00    -0.392 C  
BRANCH   5   6
HETATM    6  C   UNL     1     -12.590  14.089  65.465  1.00  0.00    -0.543 C  
BRANCH   6   7
HETATM    7  C   UNL     1     -12.387  13.238  66.712  1.00  0.00    -0.239 C  
BRANCH   7   8
HETATM    8  C   UNL     1     -11.958  14.107  67.886  1.00  0.00    -0.378 C  
BRANCH   8   9
HETATM    9  C   UNL     1     -10.852  13.418  68.672  1.00  0.00    -0.287 C  
BRANCH   9  10
HETATM   10  C   UNL     1     -10.315  12.221  67.904  1.00  0.00    -0.216 C  
BRANCH  10  11
HETATM   11  C   UNL     1      -8.819  12.381  67.679  1.00  0.00    -0.177 C  
BRANCH  11  12
HETATM   12  C   UNL     1      -8.375  11.579  66.468  1.00  0.00    -0.147 C  
BRANCH  12  13
HETATM   13  C   UNL     1      -9.589  11.095  65.688  1.00  0.00    -0.259 C  
BRANCH  13  14
HETATM   14  C   UNL     1      -9.296   9.735  65.088  1.00  0.00    -0.322 C  
BRANCH  14  15
HETATM   15  C   UNL     1      -8.259   8.978  65.905  1.00  0.00    -0.118 C  
BRANCH  15  16
HETATM   16  C   UNL     1      -8.669   7.523  65.948  1.00  0.00    -0.147 C  
BRANCH  16  17
HETATM   17  O   UNL     1      -8.300   6.941  67.192  1.00  0.00    -0.119 OA 
BRANCH  17  18
HETATM   18  P   UNL     1      -9.656   6.296  68.051  1.00  0.00    -0.118 P  
HETATM   19  O   UNL     1      -8.786   5.108  68.476  1.00  0.00    -0.097 OA 
HETATM   20  O   UNL     1     -10.534   6.307  66.802  1.00  0.00    -0.228 OA 
BRANCH  18  21
HETATM   21  O   UNL     1     -11.012   5.652  68.911  1.00  0.00    -0.235 OA 
BRANCH  21  22
HETATM   22  C   UNL     1     -11.028   5.971  70.300  1.00  0.00    -0.342 C  
BRANCH  22  23
HETATM   23  C   UNL     1     -10.665   7.417  70.561  1.00  0.00    -0.233 C  
BRANCH  23  24
HETATM   24  N   UNL     1     -11.505   8.118  71.650  1.00  0.00    -0.262 N  
HETATM   25  C   UNL     1     -12.876   7.470  71.638  1.00  0.00    -0.358 C  
HETATM   26  C   UNL     1     -11.642   9.606  71.322  1.00  0.00    -0.393 C  
HETATM   27  C   UNL     1     -10.867   7.958  73.018  1.00  0.00    -0.342 C  
ENDBRANCH  23  24
ENDBRANCH  22  23
ENDBRANCH  21  22
ENDBRANCH  18  21
ENDBRANCH  17  18
ENDBRANCH  16  17
ENDBRANCH  15  16
ENDBRANCH  14  15
ENDBRANCH  13  14
ENDBRANCH  12  13
ENDBRANCH  11  12
ENDBRANCH  10  11
ENDBRANCH   9  10
ENDBRANCH   8   9
ENDBRANCH   7   8
ENDBRANCH   6   7
ENDBRANCH   5   6
ENDBRANCH   4   5
ENDBRANCH   3   4
ENDBRANCH   2   3
TORSDOF 20
ENDMDL
MODEL      165
REMARK 921   NORMALIZED FREE ENERGY PREDICTED BY IDOCK:   -3.75 KCAL/MOL
REMARK 922        TOTAL FREE ENERGY PREDICTED BY IDOCK:  -10.06 KCAL/MOL
REMARK 923 INTER-LIGAND FREE ENERGY PREDICTED BY IDOCK:   -8.76 KCAL/MOL
REMARK 924 INTRA-LIGAND FREE ENERGY PREDICTED BY IDOCK:   -1.30 KCAL/MOL
REMARK 927      BINDING AFFINITY PREDICTED BY RF-SCORE:    0.00 PKD
ROOT
HETATM    1  C   UNL     1      -9.855  18.925  68.740  1.00  0.00    -0.461 C  
HETATM    2  C   UNL     1      -9.570  18.525  67.302  1.00  0.00    -0.305 C  
ENDROOT
BRANCH   2   3
HETATM    3  C   UNL     1     -10.490  17.392  66.853  1.00  0.00    -0.279 C  
BRANCH   3   4
HETATM    4  C   UNL     1      -9.723  16.354  66.040  1.00  0.00    -0.356 C  
BRANCH   4   5
HETATM    5  C   UNL     1     -10.676  15.532  65.179  1.00  0.00    -0.460 C  
BRANCH   5   6
HETATM    6  C   UNL     1     -11.465  14.549  66.036  1.00  0.00    -0.348 C  
BRANCH   6   7
HETATM    7  C   UNL     1     -12.721  14.092  65.305  1.00  0.00    -0.425 C  
BRANCH   7   8
HETATM    8  C   UNL     1     -12.591  12.635  64.882  1.00  0.00    -0.525 C  
BRANCH   8   9
HETATM    9  C   UNL     1     -11.945  12.544  63.508  1.00  0.00    -0.629 C  
BRANCH   9  10
HETATM   10  C   UNL     1     -10.850  11.489  63.499  1.00  0.00    -0.473 C  
BRANCH  10  11
HETATM   11  C   UNL     1     -10.274  11.331  64.897  1.00  0.00    -0.341 C  
BRANCH  11  12
HETATM   12  C   UNL     1      -9.626   9.967  65.054  1.00  0.00    -0.364 C  
BRANCH  12  13
HETATM   13  C   UNL     1      -9.698   9.518  66.507  1.00  0.00    -0.284 C  
BRANCH  13  14
HETATM   14  C   UNL     1     -10.748  10.333  67.236  1.00  0.00    -0.323 C  
BRANCH  14  15
HETATM   15  C   UNL     1     -11.021   9.772  68.625  1.00  0.00    -0.189 C  
BRANCH  15  16
HETATM   16  C   UNL     1     -11.066  10.931  69.596  1.00  0.00    -0.266 C  
BRANCH  16  17
HETATM   17  O   UNL     1     -11.536  10.494  70.865  1.00  0.00    -0.338 OA 
BRANCH  17  18
HETATM   18  P   UNL     1     -10.951   8.922  71.285  1.00  0.00    -0.355 P  
HETATM   19  O   UNL     1     -12.119   8.780  72.267  1.00  0.00    -0.366 OA 
HETATM   20  O   UNL     1      -9.576   9.465  71.667  1.00  0.00    -0.260 OA 
BRANCH  18  21
HETATM   21  O   UNL     1     -10.365   7.348  71.704  1.00  0.00    -0.197 OA 
BRANCH  21  22
HETATM   22  C   UNL     1     -11.317   6.304  71.524  1.00  0.00    -0.296 C  
BRANCH  22  23
HETATM   23  C   UNL     1     -11.578   5.538  72.802  1.00  0.00    -0.235 C  
BRANCH  23  24
HETATM   24  N   UNL     1     -10.506   4.488  73.168  1.00  0.00    -0.181 N  
HETATM   25  C   UNL     1      -9.595   5.125  74.200  1.00  0.00    -0.138 C  
HETATM   26  C   UNL     1      -9.691   4.124  71.925  1.00  0.00    -0.168 C  
HETATM   27  C   UNL     1     -11.142   3.235  73.741  1.00  0.00    -0.197 C  
ENDBRANCH  23  24
ENDBRANCH  22  23
ENDBRANCH  21  22
ENDBRANCH  18  21
ENDBRANCH  17  18
ENDBRANCH  16  17
ENDBRANCH  15  16
ENDBRANCH  14  15
ENDBRANCH  13  14
ENDBRANCH  12  13
ENDBRANCH  11  12
ENDBRANCH  10  11
ENDBRANCH   9  10
ENDBRANCH   8   9
ENDBRANCH   7   8
ENDBRANCH   6   7
ENDBRANCH   5   6
ENDBRANCH   4   5
ENDBRANCH   3   4
ENDBRANCH   2   3
TORSDOF 20
ENDMDL
MODEL      166
REMARK 921   NORMALIZED FREE ENERGY PREDICTED BY IDOCK:   -3.75 KCAL/MOL
REMARK 922        TOTAL FREE ENERGY PREDICTED BY IDOCK:  -10.06 KCAL/MOL
REMARK 923 INTER-LIGAND FREE ENERGY PREDICTED BY IDOCK:   -8.57 KCAL/MOL
REMARK 924 INTRA-LIGAND FREE ENERGY PREDICTED BY IDOCK:   -1.48 KCAL/MOL
REMARK 927      BINDING AFFINITY PREDICTED BY RF-SCORE:    0.00 PKD
ROOT
HETATM    1  C   UNL     1      -9.344  19.627  67.026  1.00  0.00    -0.439 C  
HETATM    2  C   UNL     1     -10.438  18.705  66.516  1.00  0.00    -0.465 C  
ENDROOT
BRANCH   2   3
HETATM    3  C   UNL     1     -10.113  17.244  66.818  1.00  0.00    -0.302 C  
BRANCH   3   4
HETATM    4  C   UNL     1     -10.302  16.935  68.299  1.00  0.00    -0.335 C  
BRANCH   4   5
HETATM    5  C   UNL     1     -10.209  15.435  68.554  1.00  0.00    -0.219 C  
BRANCH   5   6
HETATM    6  C   UNL     1     -11.561  14.766  68.333  1.00  0.00    -0.350 C  
BRANCH   6   7
HETATM    7  C   UNL     1     -11.475  13.751  67.201  1.00  0.00    -0.365 C  
BRANCH   7   8
HETATM    8  C   UNL     1     -12.284  14.224  66.000  1.00  0.00    -0.422 C  
BRANCH   8   9
HETATM    9  C   UNL     1     -11.401  14.278  64.762  1.00  0.00    -0.382 C  
BRANCH   9  10
HETATM   10  C   UNL     1     -12.057  13.545  63.603  1.00  0.00    -0.459 C  
BRANCH  10  11
HETATM   11  C   UNL     1     -11.648  12.081  63.621  1.00  0.00    -0.578 C  
BRANCH  11  12
HETATM   12  C   UNL     1     -10.140  11.949  63.502  1.00  0.00    -0.464 C  
BRANCH  12  13
HETATM   13  C   UNL     1      -9.780  10.595  62.906  1.00  0.00    -0.329 C  
BRANCH  13  14
HETATM   14  C   UNL     1      -8.726   9.927  63.766  1.00  0.00    -0.226 C  
BRANCH  14  15
HETATM   15  C   UNL     1      -8.875  10.317  65.230  1.00  0.00    -0.200 C  
BRANCH  15  16
HETATM   16  C   UNL     1      -9.739   9.276  65.906  1.00  0.00    -0.285 C  
BRANCH  16  17
HETATM   17  O   UNL     1      -8.940   8.194  66.368  1.00  0.00    -0.152 OA 
BRANCH  17  18
HETATM   18  P   UNL     1      -9.691   7.318  67.657  1.00  0.00    -0.159 P  
HETATM   19  O   UNL     1      -8.555   6.292  67.583  1.00  0.00    -0.115 OA 
HETATM   20  O   UNL     1     -11.006   7.193  66.892  1.00  0.00    -0.363 OA 
BRANCH  18  21
HETATM   21  O   UNL     1     -10.441   6.443  68.947  1.00  0.00    -0.181 OA 
BRANCH  21  22
HETATM   22  C   UNL     1     -10.221   7.004  70.239  1.00  0.00    -0.193 C  
BRANCH  22  23
HETATM   23  C   UNL     1     -11.161   8.151  70.535  1.00  0.00    -0.253 C  
BRANCH  23  24
HETATM   24  N   UNL     1     -11.964   8.019  71.848  1.00  0.00    -0.297 N  
HETATM   25  C   UNL     1     -13.045   6.984  71.604  1.00  0.00    -0.330 C  
HETATM   26  C   UNL     1     -12.611   9.360  72.197  1.00  0.00    -0.348 C  
HETATM   27  C   UNL     1     -11.069   7.575  72.991  1.00  0.00    -0.362 C  
ENDBRANCH  23  24
ENDBRANCH  22  23
ENDBRANCH  21  22
ENDBRANCH  18  21
ENDBRANCH  17  18
ENDBRANCH  16  17
ENDBRANCH  15  16
ENDBRANCH  14  15
ENDBRANCH  13  14
ENDBRANCH  12  13
ENDBRANCH  11  12
ENDBRANCH  10  11
ENDBRANCH   9  10
ENDBRANCH   8   9
ENDBRANCH   7   8
ENDBRANCH   6   7
ENDBRANCH   5   6
ENDBRANCH   4   5
ENDBRANCH   3   4
ENDBRANCH   2   3
TORSDOF 20
ENDMDL
MODEL      167
REMARK 921   NORMALIZED FREE ENERGY PREDICTED BY IDOCK:   -3.75 KCAL/MOL
REMARK 922        TOTAL FREE ENERGY PREDICTED BY IDOCK:  -10.05 KCAL/MOL
REMARK 923 INTER-LIGAND FREE ENERGY PREDICTED BY IDOCK:   -7.12 KCAL/MOL
REMARK 924 INTRA-LIGAND FREE ENERGY PREDICTED BY IDOCK:   -2.93 KCAL/MOL
REMARK 927      BINDING AFFINITY PREDICTED BY RF-SCORE:    0.00 PKD
ROOT
HETATM    1  C   UNL     1     -10.593   4.911  66.061  1.00  0.00    -0.312 C  
HETATM    2  C   UNL     1     -10.788   6.107  66.978  1.00  0.00    -0.435 C  
ENDROOT
BRANCH   2   3
HETATM    3  C   UNL     1      -9.698   7.153  66.759  1.00  0.00    -0.252 C  
BRANCH   3   4
HETATM    4  C   UNL     1      -9.082   7.588  68.084  1.00  0.00    -0.128 C  
BRANCH   4   5
HETATM    5  C   UNL     1      -7.563   7.467  68.039  1.00  0.00    -0.114 C  
BRANCH   5   6
HETATM    6  C   UNL     1      -7.083   6.346  68.954  1.00  0.00    -0.082 C  
BRANCH   6   7
HETATM    7  C   UNL     1      -6.742   5.104  68.142  1.00  0.00    -0.055 C  
BRANCH   7   8
HETATM    8  C   UNL     1      -7.742   3.991  68.427  1.00  0.00    -0.066 C  
BRANCH   8   9
HETATM    9  C   UNL     1      -8.220   4.072  69.869  1.00  0.00    -0.069 C  
BRANCH   9  10
HETATM   10  C   UNL     1      -9.726   3.877  69.947  1.00  0.00    -0.235 C  
BRANCH  10  11
HETATM   11  C   UNL     1     -10.382   5.138  70.486  1.00  0.00    -0.314 C  
BRANCH  11  12
HETATM   12  C   UNL     1      -9.699   5.587  71.767  1.00  0.00    -0.202 C  
BRANCH  12  13
HETATM   13  C   UNL     1      -9.356   7.068  71.684  1.00  0.00    -0.158 C  
BRANCH  13  14
HETATM   14  C   UNL     1     -10.112   7.823  72.759  1.00  0.00    -0.344 C  
BRANCH  14  15
HETATM   15  C   UNL     1     -11.414   8.400  72.222  1.00  0.00    -0.454 C  
BRANCH  15  16
HETATM   16  C   UNL     1     -11.120   9.059  70.893  1.00  0.00    -0.280 C  
BRANCH  16  17
HETATM   17  O   UNL     1     -11.447  10.442  70.944  1.00  0.00    -0.344 OA 
BRANCH  17  18
HETATM   18  P   UNL     1     -11.077  11.267  69.469  1.00  0.00    -0.164 P  
HETATM   19  O   UNL     1     -12.364  10.699  68.861  1.00  0.00    -0.358 OA 
HETATM   20  O   UNL     1      -9.711  10.592  69.360  1.00  0.00    -0.198 OA 
BRANCH  18  21
HETATM   21  O   UNL     1     -10.706  12.093  67.995  1.00  0.00    -0.200 OA 
BRANCH  21  22
HETATM   22  C   UNL     1     -11.641  11.860  66.944  1.00  0.00    -0.285 C  
BRANCH  22  23
HETATM   23  C   UNL     1     -11.044  12.117  65.578  1.00  0.00    -0.316 C  
BRANCH  23  24
HETATM   24  N   UNL     1     -11.534  13.405  64.880  1.00  0.00    -0.315 N  
HETATM   25  C   UNL     1     -12.734  13.903  65.660  1.00  0.00    -0.495 C  
HETATM   26  C   UNL     1     -11.955  13.088  63.444  1.00  0.00    -0.520 C  
HETATM   27  C   UNL     1     -10.447  14.464  64.867  1.00  0.00    -0.423 C  
ENDBRANCH  23  24
ENDBRANCH  22  23
ENDBRANCH  21  22
ENDBRANCH  18  21
ENDBRANCH  17  18
ENDBRANCH  16  17
ENDBRANCH  15  16
ENDBRANCH  14  15
ENDBRANCH  13  14
ENDBRANCH  12  13
ENDBRANCH  11  12
ENDBRANCH  10  11
ENDBRANCH   9  10
ENDBRANCH   8   9
ENDBRANCH   7   8
ENDBRANCH   6   7
ENDBRANCH   5   6
ENDBRANCH   4   5
ENDBRANCH   3   4
ENDBRANCH   2   3
TORSDOF 20
ENDMDL
MODEL      168
REMARK 921   NORMALIZED FREE ENERGY PREDICTED BY IDOCK:   -3.75 KCAL/MOL
REMARK 922        TOTAL FREE ENERGY PREDICTED BY IDOCK:  -10.05 KCAL/MOL
REMARK 923 INTER-LIGAND FREE ENERGY PREDICTED BY IDOCK:   -8.27 KCAL/MOL
REMARK 924 INTRA-LIGAND FREE ENERGY PREDICTED BY IDOCK:   -1.78 KCAL/MOL
REMARK 927      BINDING AFFINITY PREDICTED BY RF-SCORE:    0.00 PKD
ROOT
HETATM    1  C   UNL     1      -9.409   6.003  73.109  1.00  0.00    -0.139 C  
HETATM    2  C   UNL     1     -10.320   7.042  73.740  1.00  0.00    -0.408 C  
ENDROOT
BRANCH   2   3
HETATM    3  C   UNL     1     -11.490   7.381  72.820  1.00  0.00    -0.312 C  
BRANCH   3   4
HETATM    4  C   UNL     1     -11.159   8.574  71.929  1.00  0.00    -0.395 C  
BRANCH   4   5
HETATM    5  C   UNL     1     -10.897   8.123  70.497  1.00  0.00    -0.247 C  
BRANCH   5   6
HETATM    6  C   UNL     1     -11.420   6.709  70.273  1.00  0.00    -0.449 C  
BRANCH   6   7
HETATM    7  C   UNL     1     -10.616   6.009  69.185  1.00  0.00    -0.362 C  
BRANCH   7   8
HETATM    8  C   UNL     1     -11.148   6.380  67.807  1.00  0.00    -0.376 C  
BRANCH   8   9
HETATM    9  C   UNL     1     -10.002   6.473  66.811  1.00  0.00    -0.224 C  
BRANCH   9  10
HETATM   10  C   UNL     1      -8.982   7.507  67.261  1.00  0.00    -0.130 C  
BRANCH  10  11
HETATM   11  C   UNL     1      -8.698   8.478  66.126  1.00  0.00    -0.176 C  
BRANCH  11  12
HETATM   12  C   UNL     1      -9.840   9.467  65.973  1.00  0.00    -0.366 C  
BRANCH  12  13
HETATM   13  C   UNL     1      -9.942  10.343  67.214  1.00  0.00    -0.229 C  
BRANCH  13  14
HETATM   14  C   UNL     1     -11.380  10.780  67.409  1.00  0.00    -0.239 C  
BRANCH  14  15
HETATM   15  C   UNL     1     -11.727  10.910  68.885  1.00  0.00    -0.376 C  
BRANCH  15  16
HETATM   16  C   UNL     1     -11.332  12.298  69.337  1.00  0.00    -0.228 C  
BRANCH  16  17
HETATM   17  O   UNL     1     -12.231  13.265  68.808  1.00  0.00    -0.278 OA 
BRANCH  17  18
HETATM   18  P   UNL     1     -11.423  14.490  67.891  1.00  0.00    -0.350 P  
HETATM   19  O   UNL     1     -11.857  15.520  68.939  1.00  0.00    -0.361 OA 
HETATM   20  O   UNL     1     -12.224  14.164  66.631  1.00  0.00    -0.448 OA 
BRANCH  18  21
HETATM   21  O   UNL     1     -10.615  15.713  66.973  1.00  0.00    -0.302 OA 
BRANCH  21  22
HETATM   22  C   UNL     1      -9.419  16.202  67.577  1.00  0.00    -0.223 C  
BRANCH  22  23
HETATM   23  C   UNL     1      -8.826  17.366  66.815  1.00  0.00    -0.251 C  
BRANCH  23  24
HETATM   24  N   UNL     1      -9.254  18.763  67.314  1.00  0.00    -0.284 N  
HETATM   25  C   UNL     1      -7.985  19.534  67.620  1.00  0.00    -0.285 C  
HETATM   26  C   UNL     1     -10.086  18.625  68.590  1.00  0.00    -0.368 C  
HETATM   27  C   UNL     1     -10.064  19.495  66.259  1.00  0.00    -0.468 C  
ENDBRANCH  23  24
ENDBRANCH  22  23
ENDBRANCH  21  22
ENDBRANCH  18  21
ENDBRANCH  17  18
ENDBRANCH  16  17
ENDBRANCH  15  16
ENDBRANCH  14  15
ENDBRANCH  13  14
ENDBRANCH  12  13
ENDBRANCH  11  12
ENDBRANCH  10  11
ENDBRANCH   9  10
ENDBRANCH   8   9
ENDBRANCH   7   8
ENDBRANCH   6   7
ENDBRANCH   5   6
ENDBRANCH   4   5
ENDBRANCH   3   4
ENDBRANCH   2   3
TORSDOF 20
ENDMDL
MODEL      169
REMARK 921   NORMALIZED FREE ENERGY PREDICTED BY IDOCK:   -3.75 KCAL/MOL
REMARK 922        TOTAL FREE ENERGY PREDICTED BY IDOCK:  -10.05 KCAL/MOL
REMARK 923 INTER-LIGAND FREE ENERGY PREDICTED BY IDOCK:   -8.72 KCAL/MOL
REMARK 924 INTRA-LIGAND FREE ENERGY PREDICTED BY IDOCK:   -1.33 KCAL/MOL
REMARK 927      BINDING AFFINITY PREDICTED BY RF-SCORE:    0.00 PKD
ROOT
HETATM    1  C   UNL     1      -6.699  16.744  67.089  1.00  0.00    -0.224 C  
HETATM    2  C   UNL     1      -8.044  16.513  66.421  1.00  0.00    -0.362 C  
ENDROOT
BRANCH   2   3
HETATM    3  C   UNL     1      -8.720  17.836  66.071  1.00  0.00    -0.029 C  
BRANCH   3   4
HETATM    4  C   UNL     1     -10.189  17.826  66.479  1.00  0.00    -0.358 C  
BRANCH   4   5
HETATM    5  C   UNL     1     -10.329  17.909  67.995  1.00  0.00    -0.394 C  
BRANCH   5   6
HETATM    6  C   UNL     1     -11.150  16.740  68.526  1.00  0.00    -0.260 C  
BRANCH   6   7
HETATM    7  C   UNL     1     -10.408  16.035  69.654  1.00  0.00    -0.283 C  
BRANCH   7   8
HETATM    8  C   UNL     1     -11.387  15.293  70.554  1.00  0.00    -0.340 C  
BRANCH   8   9
HETATM    9  C   UNL     1     -11.881  16.212  71.660  1.00  0.00    -0.557 C  
BRANCH   9  10
HETATM   10  C   UNL     1     -12.384  15.404  72.845  1.00  0.00    -0.516 C  
BRANCH  10  11
HETATM   11  C   UNL     1     -13.888  15.209  72.736  1.00  0.00    -0.508 C  
BRANCH  11  12
HETATM   12  C   UNL     1     -14.208  14.033  71.830  1.00  0.00    -0.511 C  
BRANCH  12  13
HETATM   13  C   UNL     1     -13.534  12.772  72.355  1.00  0.00    -0.512 C  
BRANCH  13  14
HETATM   14  C   UNL     1     -12.557  12.253  71.320  1.00  0.00    -0.336 C  
BRANCH  14  15
HETATM   15  C   UNL     1     -12.874  10.817  70.926  1.00  0.00    -0.443 C  
BRANCH  15  16
HETATM   16  C   UNL     1     -12.697   9.947  72.150  1.00  0.00    -0.300 C  
BRANCH  16  17
HETATM   17  O   UNL     1     -11.527   9.149  72.024  1.00  0.00    -0.362 OA 
BRANCH  17  18
HETATM   18  P   UNL     1     -10.949   9.070  70.396  1.00  0.00    -0.243 P  
HETATM   19  O   UNL     1     -11.503   7.644  70.299  1.00  0.00    -0.237 OA 
HETATM   20  O   UNL     1      -9.520   9.404  70.818  1.00  0.00    -0.258 OA 
BRANCH  18  21
HETATM   21  O   UNL     1     -10.373   8.991  68.766  1.00  0.00    -0.207 OA 
BRANCH  21  22
HETATM   22  C   UNL     1     -10.079  10.261  68.189  1.00  0.00    -0.150 C  
BRANCH  22  23
HETATM   23  C   UNL     1     -10.754  10.452  66.848  1.00  0.00    -0.207 C  
BRANCH  23  24
HETATM   24  N   UNL     1     -10.470  11.804  66.158  1.00  0.00    -0.237 N  
HETATM   25  C   UNL     1     -11.593  12.745  66.546  1.00  0.00    -0.376 C  
HETATM   26  C   UNL     1     -10.462  11.619  64.639  1.00  0.00    -0.302 C  
HETATM   27  C   UNL     1      -9.136  12.374  66.606  1.00  0.00    -0.204 C  
ENDBRANCH  23  24
ENDBRANCH  22  23
ENDBRANCH  21  22
ENDBRANCH  18  21
ENDBRANCH  17  18
ENDBRANCH  16  17
ENDBRANCH  15  16
ENDBRANCH  14  15
ENDBRANCH  13  14
ENDBRANCH  12  13
ENDBRANCH  11  12
ENDBRANCH  10  11
ENDBRANCH   9  10
ENDBRANCH   8   9
ENDBRANCH   7   8
ENDBRANCH   6   7
ENDBRANCH   5   6
ENDBRANCH   4   5
ENDBRANCH   3   4
ENDBRANCH   2   3
TORSDOF 20
ENDMDL
MODEL      170
REMARK 921   NORMALIZED FREE ENERGY PREDICTED BY IDOCK:   -3.74 KCAL/MOL
REMARK 922        TOTAL FREE ENERGY PREDICTED BY IDOCK:  -10.03 KCAL/MOL
REMARK 923 INTER-LIGAND FREE ENERGY PREDICTED BY IDOCK:   -8.01 KCAL/MOL
REMARK 924 INTRA-LIGAND FREE ENERGY PREDICTED BY IDOCK:   -2.03 KCAL/MOL
REMARK 927      BINDING AFFINITY PREDICTED BY RF-SCORE:    0.00 PKD
ROOT
HETATM    1  C   UNL     1      -9.234   5.796  68.851  1.00  0.00    -0.127 C  
HETATM    2  C   UNL     1     -10.692   6.170  69.058  1.00  0.00    -0.377 C  
ENDROOT
BRANCH   2   3
HETATM    3  C   UNL     1     -11.102   6.001  70.519  1.00  0.00    -0.385 C  
BRANCH   3   4
HETATM    4  C   UNL     1     -10.829   7.272  71.316  1.00  0.00    -0.255 C  
BRANCH   4   5
HETATM    5  C   UNL     1     -12.130   8.000  71.635  1.00  0.00    -0.339 C  
BRANCH   5   6
HETATM    6  C   UNL     1     -11.944   9.509  71.532  1.00  0.00    -0.475 C  
BRANCH   6   7
HETATM    7  C   UNL     1     -10.783   9.841  70.603  1.00  0.00    -0.394 C  
BRANCH   7   8
HETATM    8  C   UNL     1     -11.289  10.529  69.342  1.00  0.00    -0.331 C  
BRANCH   8   9
HETATM    9  C   UNL     1     -10.868   9.741  68.111  1.00  0.00    -0.264 C  
BRANCH   9  10
HETATM   10  C   UNL     1      -9.446  10.095  67.707  1.00  0.00    -0.160 C  
BRANCH  10  11
HETATM   11  C   UNL     1      -9.457  11.313  66.796  1.00  0.00    -0.196 C  
BRANCH  11  12
HETATM   12  C   UNL     1      -8.186  12.124  66.978  1.00  0.00    -0.164 C  
BRANCH  12  13
HETATM   13  C   UNL     1      -8.531  13.585  67.228  1.00  0.00    -0.200 C  
BRANCH  13  14
HETATM   14  C   UNL     1      -7.259  14.371  67.473  1.00  0.00    -0.202 C  
BRANCH  14  15
HETATM   15  C   UNL     1      -7.559  15.759  68.021  1.00  0.00    -0.134 C  
BRANCH  15  16
HETATM   16  C   UNL     1      -7.510  16.737  66.869  1.00  0.00    -0.222 C  
BRANCH  16  17
HETATM   17  O   UNL     1      -8.694  17.525  66.839  1.00  0.00    -0.235 OA 
BRANCH  17  18
HETATM   18  P   UNL     1      -9.668  17.313  68.253  1.00  0.00    -0.326 P  
HETATM   19  O   UNL     1     -10.856  16.969  67.348  1.00  0.00    -0.281 OA 
HETATM   20  O   UNL     1      -9.358  18.721  68.756  1.00  0.00    -0.338 OA 
BRANCH  18  21
HETATM   21  O   UNL     1     -10.642  17.100  69.667  1.00  0.00    -0.249 OA 
BRANCH  21  22
HETATM   22  C   UNL     1     -10.922  15.739  69.984  1.00  0.00    -0.338 C  
BRANCH  22  23
HETATM   23  C   UNL     1     -12.407  15.466  70.082  1.00  0.00    -0.361 C  
BRANCH  23  24
HETATM   24  N   UNL     1     -12.871  14.832  71.411  1.00  0.00    -0.314 N  
HETATM   25  C   UNL     1     -12.003  15.417  72.508  1.00  0.00    -0.447 C  
HETATM   26  C   UNL     1     -12.674  13.316  71.360  1.00  0.00    -0.309 C  
HETATM   27  C   UNL     1     -14.331  15.145  71.684  1.00  0.00    -0.585 C  
ENDBRANCH  23  24
ENDBRANCH  22  23
ENDBRANCH  21  22
ENDBRANCH  18  21
ENDBRANCH  17  18
ENDBRANCH  16  17
ENDBRANCH  15  16
ENDBRANCH  14  15
ENDBRANCH  13  14
ENDBRANCH  12  13
ENDBRANCH  11  12
ENDBRANCH  10  11
ENDBRANCH   9  10
ENDBRANCH   8   9
ENDBRANCH   7   8
ENDBRANCH   6   7
ENDBRANCH   5   6
ENDBRANCH   4   5
ENDBRANCH   3   4
ENDBRANCH   2   3
TORSDOF 20
ENDMDL
MODEL      171
REMARK 921   NORMALIZED FREE ENERGY PREDICTED BY IDOCK:   -3.72 KCAL/MOL
REMARK 922        TOTAL FREE ENERGY PREDICTED BY IDOCK:   -9.99 KCAL/MOL
REMARK 923 INTER-LIGAND FREE ENERGY PREDICTED BY IDOCK:   -7.26 KCAL/MOL
REMARK 924 INTRA-LIGAND FREE ENERGY PREDICTED BY IDOCK:   -2.72 KCAL/MOL
REMARK 927      BINDING AFFINITY PREDICTED BY RF-SCORE:    0.00 PKD
ROOT
HETATM    1  C   UNL     1      -9.988  10.632  67.855  1.00  0.00    -0.189 C  
HETATM    2  C   UNL     1     -10.830   9.502  67.288  1.00  0.00    -0.188 C  
ENDROOT
BRANCH   2   3
HETATM    3  C   UNL     1     -10.469   8.167  67.935  1.00  0.00    -0.259 C  
BRANCH   3   4
HETATM    4  C   UNL     1     -10.473   7.040  66.908  1.00  0.00    -0.356 C  
BRANCH   4   5
HETATM    5  C   UNL     1      -9.323   6.072  67.163  1.00  0.00    -0.121 C  
BRANCH   5   6
HETATM    6  C   UNL     1      -8.269   6.710  68.060  1.00  0.00    -0.117 C  
BRANCH   6   7
HETATM    7  C   UNL     1      -6.926   6.769  67.345  1.00  0.00    -0.082 C  
BRANCH   7   8
HETATM    8  C   UNL     1      -6.342   8.174  67.421  1.00  0.00    -0.056 C  
BRANCH   8   9
HETATM    9  C   UNL     1      -7.109   9.110  66.500  1.00  0.00    -0.081 C  
BRANCH   9  10
HETATM   10  C   UNL     1      -7.097   8.587  65.073  1.00  0.00    -0.079 C  
BRANCH  10  11
HETATM   11  C   UNL     1      -8.440   8.858  64.413  1.00  0.00    -0.170 C  
BRANCH  11  12
HETATM   12  C   UNL     1      -8.758  10.342  64.443  1.00  0.00    -0.209 C  
BRANCH  12  13
HETATM   13  C   UNL     1      -9.619  10.716  63.244  1.00  0.00    -0.382 C  
BRANCH  13  14
HETATM   14  C   UNL     1     -10.192  12.105  63.446  1.00  0.00    -0.422 C  
BRANCH  14  15
HETATM   15  C   UNL     1     -11.438  12.071  64.318  1.00  0.00    -0.435 C  
BRANCH  15  16
HETATM   16  C   UNL     1     -11.694  13.474  64.822  1.00  0.00    -0.370 C  
BRANCH  16  17
HETATM   17  O   UNL     1     -10.579  14.310  64.543  1.00  0.00    -0.388 OA 
BRANCH  17  18
HETATM   18  P   UNL     1     -10.576  15.753  65.498  1.00  0.00    -0.390 P  
HETATM   19  O   UNL     1     -11.516  15.063  66.492  1.00  0.00    -0.330 OA 
HETATM   20  O   UNL     1     -11.052  16.607  64.325  1.00  0.00    -1.029 OA 
BRANCH  18  21
HETATM   21  O   UNL     1     -10.573  17.196  66.453  1.00  0.00    -0.274 OA 
BRANCH  21  22
HETATM   22  C   UNL     1      -9.299  17.828  66.552  1.00  0.00    -0.279 C  
BRANCH  22  23
HETATM   23  C   UNL     1      -8.158  16.859  66.331  1.00  0.00    -0.315 C  
BRANCH  23  24
HETATM   24  N   UNL     1      -6.775  17.356  66.805  1.00  0.00    -0.190 N  
HETATM   25  C   UNL     1      -7.022  18.405  67.871  1.00  0.00    -0.215 C  
HETATM   26  C   UNL     1      -6.022  17.987  65.633  1.00  0.00    -0.191 C  
HETATM   27  C   UNL     1      -5.954  16.216  67.380  1.00  0.00    -0.146 C  
ENDBRANCH  23  24
ENDBRANCH  22  23
ENDBRANCH  21  22
ENDBRANCH  18  21
ENDBRANCH  17  18
ENDBRANCH  16  17
ENDBRANCH  15  16
ENDBRANCH  14  15
ENDBRANCH  13  14
ENDBRANCH  12  13
ENDBRANCH  11  12
ENDBRANCH  10  11
ENDBRANCH   9  10
ENDBRANCH   8   9
ENDBRANCH   7   8
ENDBRANCH   6   7
ENDBRANCH   5   6
ENDBRANCH   4   5
ENDBRANCH   3   4
ENDBRANCH   2   3
TORSDOF 20
ENDMDL
MODEL      172
REMARK 921   NORMALIZED FREE ENERGY PREDICTED BY IDOCK:   -3.71 KCAL/MOL
REMARK 922        TOTAL FREE ENERGY PREDICTED BY IDOCK:   -9.97 KCAL/MOL
REMARK 923 INTER-LIGAND FREE ENERGY PREDICTED BY IDOCK:   -7.59 KCAL/MOL
REMARK 924 INTRA-LIGAND FREE ENERGY PREDICTED BY IDOCK:   -2.37 KCAL/MOL
REMARK 927      BINDING AFFINITY PREDICTED BY RF-SCORE:    0.00 PKD
ROOT
HETATM    1  C   UNL     1     -13.117   9.020  72.375  1.00  0.00    -0.487 C  
HETATM    2  C   UNL     1     -12.186   8.566  71.264  1.00  0.00    -0.310 C  
ENDROOT
BRANCH   2   3
HETATM    3  C   UNL     1     -11.324   9.721  70.760  1.00  0.00    -0.416 C  
BRANCH   3   4
HETATM    4  C   UNL     1     -12.110  10.617  69.809  1.00  0.00    -0.343 C  
BRANCH   4   5
HETATM    5  C   UNL     1     -11.548  12.035  69.815  1.00  0.00    -0.348 C  
BRANCH   5   6
HETATM    6  C   UNL     1     -12.659  13.054  70.041  1.00  0.00     0.024 C  
BRANCH   6   7
HETATM    7  C   UNL     1     -12.689  13.497  71.497  1.00  0.00    -0.412 C  
BRANCH   7   8
HETATM    8  C   UNL     1     -12.554  15.011  71.596  1.00  0.00    -0.409 C  
BRANCH   8   9
HETATM    9  C   UNL     1     -12.461  15.620  70.206  1.00  0.00    -0.369 C  
BRANCH   9  10
HETATM   10  C   UNL     1     -11.120  16.310  70.011  1.00  0.00    -0.351 C  
BRANCH  10  11
HETATM   11  C   UNL     1     -10.731  16.276  68.542  1.00  0.00    -0.307 C  
BRANCH  11  12
HETATM   12  C   UNL     1      -9.986  14.993  68.218  1.00  0.00    -0.225 C  
BRANCH  12  13
HETATM   13  C   UNL     1     -10.450  14.444  66.877  1.00  0.00    -0.269 C  
BRANCH  13  14
HETATM   14  C   UNL     1     -11.956  14.571  66.772  1.00  0.00    -0.364 C  
BRANCH  14  15
HETATM   15  C   UNL     1     -12.497  13.803  65.574  1.00  0.00    -0.548 C  
BRANCH  15  16
HETATM   16  C   UNL     1     -11.334  13.476  64.665  1.00  0.00    -0.356 C  
BRANCH  16  17
HETATM   17  O   UNL     1     -11.328  12.089  64.348  1.00  0.00    -0.323 OA 
BRANCH  17  18
HETATM   18  P   UNL     1     -10.073  11.226  65.168  1.00  0.00    -0.308 P  
HETATM   19  O   UNL     1      -9.974  10.283  63.964  1.00  0.00    -0.299 OA 
HETATM   20  O   UNL     1     -10.959  10.967  66.385  1.00  0.00    -0.202 OA 
BRANCH  18  21
HETATM   21  O   UNL     1      -8.817  10.364  65.988  1.00  0.00    -0.151 OA 
BRANCH  21  22
HETATM   22  C   UNL     1      -9.285   9.461  66.987  1.00  0.00    -0.142 C  
BRANCH  22  23
HETATM   23  C   UNL     1      -9.016   8.017  66.627  1.00  0.00    -0.150 C  
BRANCH  23  24
HETATM   24  N   UNL     1      -8.805   7.070  67.828  1.00  0.00    -0.124 N  
HETATM   25  C   UNL     1     -10.175   6.782  68.412  1.00  0.00    -0.178 C  
HETATM   26  C   UNL     1      -7.936   7.755  68.883  1.00  0.00    -0.124 C  
HETATM   27  C   UNL     1      -8.145   5.774  67.392  1.00  0.00    -0.102 C  
ENDBRANCH  23  24
ENDBRANCH  22  23
ENDBRANCH  21  22
ENDBRANCH  18  21
ENDBRANCH  17  18
ENDBRANCH  16  17
ENDBRANCH  15  16
ENDBRANCH  14  15
ENDBRANCH  13  14
ENDBRANCH  12  13
ENDBRANCH  11  12
ENDBRANCH  10  11
ENDBRANCH   9  10
ENDBRANCH   8   9
ENDBRANCH   7   8
ENDBRANCH   6   7
ENDBRANCH   5   6
ENDBRANCH   4   5
ENDBRANCH   3   4
ENDBRANCH   2   3
TORSDOF 20
ENDMDL
MODEL      173
REMARK 921   NORMALIZED FREE ENERGY PREDICTED BY IDOCK:   -3.71 KCAL/MOL
REMARK 922        TOTAL FREE ENERGY PREDICTED BY IDOCK:   -9.96 KCAL/MOL
REMARK 923 INTER-LIGAND FREE ENERGY PREDICTED BY IDOCK:   -7.91 KCAL/MOL
REMARK 924 INTRA-LIGAND FREE ENERGY PREDICTED BY IDOCK:   -2.05 KCAL/MOL
REMARK 927      BINDING AFFINITY PREDICTED BY RF-SCORE:    0.00 PKD
ROOT
HETATM    1  C   UNL     1     -13.147  15.179  71.571  1.00  0.00    -0.483 C  
HETATM    2  C   UNL     1     -11.735  15.731  71.661  1.00  0.00    -0.542 C  
ENDROOT
BRANCH   2   3
HETATM    3  C   UNL     1     -11.237  16.197  70.295  1.00  0.00    -0.389 C  
BRANCH   3   4
HETATM    4  C   UNL     1     -10.636  15.039  69.506  1.00  0.00    -0.264 C  
BRANCH   4   5
HETATM    5  C   UNL     1     -10.725  15.303  68.007  1.00  0.00    -0.268 C  
BRANCH   5   6
HETATM    6  C   UNL     1     -10.958  14.005  67.243  1.00  0.00    -0.303 C  
BRANCH   6   7
HETATM    7  C   UNL     1     -11.868  13.076  68.036  1.00  0.00    -0.391 C  
BRANCH   7   8
HETATM    8  C   UNL     1     -11.419  11.629  67.878  1.00  0.00    -0.381 C  
BRANCH   8   9
HETATM    9  C   UNL     1     -11.512  10.903  69.212  1.00  0.00    -0.372 C  
BRANCH   9  10
HETATM   10  C   UNL     1     -12.217  11.767  70.244  1.00  0.00    -0.381 C  
BRANCH  10  11
HETATM   11  C   UNL     1     -12.748  10.895  71.371  1.00  0.00    -0.539 C  
BRANCH  11  12
HETATM   12  C   UNL     1     -12.014   9.566  71.406  1.00  0.00    -0.464 C  
BRANCH  12  13
HETATM   13  C   UNL     1     -12.987   8.440  71.725  1.00  0.00    -0.368 C  
BRANCH  13  14
HETATM   14  C   UNL     1     -12.220   7.148  71.922  1.00  0.00    -0.358 C  
BRANCH  14  15
HETATM   15  C   UNL     1     -11.073   7.327  72.907  1.00  0.00    -0.369 C  
BRANCH  15  16
HETATM   16  C   UNL     1      -9.976   6.358  72.527  1.00  0.00    -0.171 C  
BRANCH  16  17
HETATM   17  O   UNL     1     -10.385   5.554  71.428  1.00  0.00    -0.212 OA 
BRANCH  17  18
HETATM   18  P   UNL     1      -9.098   5.250  70.313  1.00  0.00    -0.143 P  
HETATM   19  O   UNL     1      -9.890   4.057  69.766  1.00  0.00    -0.211 OA 
HETATM   20  O   UNL     1      -8.066   5.147  71.433  1.00  0.00    -0.108 OA 
BRANCH  18  21
HETATM   21  O   UNL     1      -7.811   4.947  69.197  1.00  0.00    -0.071 OA 
BRANCH  21  22
HETATM   22  C   UNL     1      -7.484   6.058  68.367  1.00  0.00    -0.086 C  
BRANCH  22  23
HETATM   23  C   UNL     1      -8.634   7.032  68.231  1.00  0.00    -0.129 C  
BRANCH  23  24
HETATM   24  N   UNL     1      -9.377   6.984  66.878  1.00  0.00    -0.147 N  
HETATM   25  C   UNL     1      -9.206   8.344  66.230  1.00  0.00    -0.208 C  
HETATM   26  C   UNL     1     -10.865   6.715  67.112  1.00  0.00    -0.401 C  
HETATM   27  C   UNL     1      -8.803   5.905  65.979  1.00  0.00    -0.149 C  
ENDBRANCH  23  24
ENDBRANCH  22  23
ENDBRANCH  21  22
ENDBRANCH  18  21
ENDBRANCH  17  18
ENDBRANCH  16  17
ENDBRANCH  15  16
ENDBRANCH  14  15
ENDBRANCH  13  14
ENDBRANCH  12  13
ENDBRANCH  11  12
ENDBRANCH  10  11
ENDBRANCH   9  10
ENDBRANCH   8   9
ENDBRANCH   7   8
ENDBRANCH   6   7
ENDBRANCH   5   6
ENDBRANCH   4   5
ENDBRANCH   3   4
ENDBRANCH   2   3
TORSDOF 20
ENDMDL
MODEL      174
REMARK 921   NORMALIZED FREE ENERGY PREDICTED BY IDOCK:   -3.70 KCAL/MOL
REMARK 922        TOTAL FREE ENERGY PREDICTED BY IDOCK:   -9.95 KCAL/MOL
REMARK 923 INTER-LIGAND FREE ENERGY PREDICTED BY IDOCK:   -8.53 KCAL/MOL
REMARK 924 INTRA-LIGAND FREE ENERGY PREDICTED BY IDOCK:   -1.42 KCAL/MOL
REMARK 927      BINDING AFFINITY PREDICTED BY RF-SCORE:    0.00 PKD
ROOT
HETATM    1  C   UNL     1     -12.491  11.896  63.427  1.00  0.00    -0.582 C  
HETATM    2  C   UNL     1     -11.071  12.391  63.643  1.00  0.00    -0.535 C  
ENDROOT
BRANCH   2   3
HETATM    3  C   UNL     1     -11.044  13.589  64.590  1.00  0.00    -0.383 C  
BRANCH   3   4
HETATM    4  C   UNL     1     -12.390  13.768  65.285  1.00  0.00    -0.491 C  
BRANCH   4   5
HETATM    5  C   UNL     1     -12.198  14.004  66.779  1.00  0.00    -0.439 C  
BRANCH   5   6
HETATM    6  C   UNL     1     -10.932  14.812  67.040  1.00  0.00    -0.324 C  
BRANCH   6   7
HETATM    7  C   UNL     1     -10.452  14.605  68.470  1.00  0.00    -0.247 C  
BRANCH   7   8
HETATM    8  C   UNL     1     -10.396  15.935  69.211  1.00  0.00    -0.249 C  
BRANCH   8   9
HETATM    9  C   UNL     1     -11.088  15.813  70.560  1.00  0.00    -0.383 C  
BRANCH   9  10
HETATM   10  C   UNL     1     -12.514  15.315  70.388  1.00  0.00    -0.426 C  
BRANCH  10  11
HETATM   11  C   UNL     1     -12.784  14.175  71.357  1.00  0.00    -0.439 C  
BRANCH  11  12
HETATM   12  C   UNL     1     -12.522  12.836  70.690  1.00  0.00    -0.328 C  
BRANCH  12  13
HETATM   13  C   UNL     1     -13.005  11.704  71.584  1.00  0.00    -0.483 C  
BRANCH  13  14
HETATM   14  C   UNL     1     -12.980  10.401  70.810  1.00  0.00    -0.422 C  
BRANCH  14  15
HETATM   15  C   UNL     1     -11.561   9.874  70.656  1.00  0.00    -0.413 C  
BRANCH  15  16
HETATM   16  C   UNL     1     -11.615   8.364  70.710  1.00  0.00    -0.232 C  
BRANCH  16  17
HETATM   17  O   UNL     1     -10.301   7.824  70.788  1.00  0.00    -0.202 OA 
BRANCH  17  18
HETATM   18  P   UNL     1      -9.964   6.711  69.508  1.00  0.00    -0.172 P  
HETATM   19  O   UNL     1      -9.441   7.880  68.667  1.00  0.00    -0.149 OA 
HETATM   20  O   UNL     1     -11.407   6.213  69.474  1.00  0.00    -0.418 OA 
BRANCH  18  21
HETATM   21  O   UNL     1      -9.626   5.597  68.228  1.00  0.00    -0.114 OA 
BRANCH  21  22
HETATM   22  C   UNL     1     -10.014   6.056  66.936  1.00  0.00    -0.169 C  
BRANCH  22  23
HETATM   23  C   UNL     1     -10.654   4.964  66.107  1.00  0.00    -0.271 C  
BRANCH  23  24
HETATM   24  N   UNL     1      -9.729   4.308  65.060  1.00  0.00    -0.183 N  
HETATM   25  C   UNL     1     -10.615   3.809  63.935  1.00  0.00    -0.261 C  
HETATM   26  C   UNL     1      -8.991   3.125  65.689  1.00  0.00    -0.145 C  
HETATM   27  C   UNL     1      -8.720   5.306  64.522  1.00  0.00    -0.072 C  
ENDBRANCH  23  24
ENDBRANCH  22  23
ENDBRANCH  21  22
ENDBRANCH  18  21
ENDBRANCH  17  18
ENDBRANCH  16  17
ENDBRANCH  15  16
ENDBRANCH  14  15
ENDBRANCH  13  14
ENDBRANCH  12  13
ENDBRANCH  11  12
ENDBRANCH  10  11
ENDBRANCH   9  10
ENDBRANCH   8   9
ENDBRANCH   7   8
ENDBRANCH   6   7
ENDBRANCH   5   6
ENDBRANCH   4   5
ENDBRANCH   3   4
ENDBRANCH   2   3
TORSDOF 20
ENDMDL
MODEL      175
REMARK 921   NORMALIZED FREE ENERGY PREDICTED BY IDOCK:   -3.69 KCAL/MOL
REMARK 922        TOTAL FREE ENERGY PREDICTED BY IDOCK:   -9.93 KCAL/MOL
REMARK 923 INTER-LIGAND FREE ENERGY PREDICTED BY IDOCK:   -7.85 KCAL/MOL
REMARK 924 INTRA-LIGAND FREE ENERGY PREDICTED BY IDOCK:   -2.08 KCAL/MOL
REMARK 927      BINDING AFFINITY PREDICTED BY RF-SCORE:    0.00 PKD
ROOT
HETATM    1  C   UNL     1      -6.312   8.387  69.661  1.00  0.00    -0.036 C  
HETATM    2  C   UNL     1      -6.999   8.899  70.915  1.00  0.00    -0.080 C  
ENDROOT
BRANCH   2   3
HETATM    3  C   UNL     1      -8.512   8.977  70.722  1.00  0.00    -0.238 C  
BRANCH   3   4
HETATM    4  C   UNL     1      -8.997   7.902  69.755  1.00  0.00    -0.146 C  
BRANCH   4   5
HETATM    5  C   UNL     1     -10.249   7.217  70.292  1.00  0.00    -0.205 C  
BRANCH   5   6
HETATM    6  C   UNL     1     -10.217   7.153  71.815  1.00  0.00    -0.212 C  
BRANCH   6   7
HETATM    7  C   UNL     1     -11.625   7.257  72.383  1.00  0.00    -0.307 C  
BRANCH   7   8
HETATM    8  C   UNL     1     -12.529   8.026  71.429  1.00  0.00    -0.320 C  
BRANCH   8   9
HETATM    9  C   UNL     1     -13.151   9.218  72.141  1.00  0.00    -0.520 C  
BRANCH   9  10
HETATM   10  C   UNL     1     -13.139  10.445  71.244  1.00  0.00    -0.494 C  
BRANCH  10  11
HETATM   11  C   UNL     1     -11.757  10.627  70.636  1.00  0.00    -0.454 C  
BRANCH  11  12
HETATM   12  C   UNL     1     -11.858  11.284  69.271  1.00  0.00    -0.423 C  
BRANCH  12  13
HETATM   13  C   UNL     1     -11.350  10.333  68.196  1.00  0.00    -0.233 C  
BRANCH  13  14
HETATM   14  C   UNL     1     -10.284  11.026  67.371  1.00  0.00    -0.229 C  
BRANCH  14  15
HETATM   15  C   UNL     1     -10.703  11.150  65.913  1.00  0.00    -0.261 C  
BRANCH  15  16
HETATM   16  C   UNL     1     -10.685  12.617  65.545  1.00  0.00    -0.274 C  
BRANCH  16  17
HETATM   17  O   UNL     1     -11.437  13.372  66.488  1.00  0.00    -0.317 OA 
BRANCH  17  18
HETATM   18  P   UNL     1     -10.482  14.570  67.291  1.00  0.00    -0.270 P  
HETATM   19  O   UNL     1     -11.774  15.253  67.749  1.00  0.00    -0.319 OA 
HETATM   20  O   UNL     1      -9.736  14.928  66.007  1.00  0.00    -0.294 OA 
BRANCH  18  21
HETATM   21  O   UNL     1      -9.526  15.768  68.095  1.00  0.00    -0.197 OA 
BRANCH  21  22
HETATM   22  C   UNL     1      -9.980  17.104  67.901  1.00  0.00    -0.292 C  
BRANCH  22  23
HETATM   23  C   UNL     1      -8.896  18.005  67.351  1.00  0.00    -0.245 C  
BRANCH  23  24
HETATM   24  N   UNL     1      -9.304  19.483  67.166  1.00  0.00    -0.315 N  
HETATM   25  C   UNL     1      -8.024  20.296  67.138  1.00  0.00    -0.339 C  
HETATM   26  C   UNL     1     -10.169  19.935  68.344  1.00  0.00    -0.433 C  
HETATM   27  C   UNL     1     -10.070  19.679  65.871  1.00  0.00    -0.397 C  
ENDBRANCH  23  24
ENDBRANCH  22  23
ENDBRANCH  21  22
ENDBRANCH  18  21
ENDBRANCH  17  18
ENDBRANCH  16  17
ENDBRANCH  15  16
ENDBRANCH  14  15
ENDBRANCH  13  14
ENDBRANCH  12  13
ENDBRANCH  11  12
ENDBRANCH  10  11
ENDBRANCH   9  10
ENDBRANCH   8   9
ENDBRANCH   7   8
ENDBRANCH   6   7
ENDBRANCH   5   6
ENDBRANCH   4   5
ENDBRANCH   3   4
ENDBRANCH   2   3
TORSDOF 20
ENDMDL
MODEL      176
REMARK 921   NORMALIZED FREE ENERGY PREDICTED BY IDOCK:   -3.69 KCAL/MOL
REMARK 922        TOTAL FREE ENERGY PREDICTED BY IDOCK:   -9.93 KCAL/MOL
REMARK 923 INTER-LIGAND FREE ENERGY PREDICTED BY IDOCK:   -7.95 KCAL/MOL
REMARK 924 INTRA-LIGAND FREE ENERGY PREDICTED BY IDOCK:   -1.98 KCAL/MOL
REMARK 927      BINDING AFFINITY PREDICTED BY RF-SCORE:    0.00 PKD
ROOT
HETATM    1  C   UNL     1     -10.955  15.127  64.872  1.00  0.00    -0.434 C  
HETATM    2  C   UNL     1     -12.172  14.328  64.440  1.00  0.00    -0.471 C  
ENDROOT
BRANCH   2   3
HETATM    3  C   UNL     1     -12.465  13.196  65.421  1.00  0.00    -0.535 C  
BRANCH   3   4
HETATM    4  C   UNL     1     -11.381  12.124  65.362  1.00  0.00    -0.388 C  
BRANCH   4   5
HETATM    5  C   UNL     1     -10.740  11.929  66.731  1.00  0.00    -0.282 C  
BRANCH   5   6
HETATM    6  C   UNL     1     -11.727  12.267  67.843  1.00  0.00    -0.410 C  
BRANCH   6   7
HETATM    7  C   UNL     1     -11.843  11.108  68.824  1.00  0.00    -0.388 C  
BRANCH   7   8
HETATM    8  C   UNL     1     -12.135  11.624  70.226  1.00  0.00    -0.443 C  
BRANCH   8   9
HETATM    9  C   UNL     1     -11.842  10.542  71.254  1.00  0.00    -0.323 C  
BRANCH   9  10
HETATM   10  C   UNL     1     -13.135   9.970  71.813  1.00  0.00    -0.562 C  
BRANCH  10  11
HETATM   11  C   UNL     1     -12.936   8.508  72.182  1.00  0.00    -0.403 C  
BRANCH  11  12
HETATM   12  C   UNL     1     -11.486   8.245  72.548  1.00  0.00    -0.454 C  
BRANCH  12  13
HETATM   13  C   UNL     1     -10.986   6.995  71.837  1.00  0.00    -0.263 C  
BRANCH  13  14
HETATM   14  C   UNL     1     -11.689   6.857  70.502  1.00  0.00    -0.401 C  
BRANCH  14  15
HETATM   15  C   UNL     1     -10.924   5.935  69.563  1.00  0.00    -0.438 C  
BRANCH  15  16
HETATM   16  C   UNL     1      -9.972   5.106  70.396  1.00  0.00    -0.246 C  
BRANCH  16  17
HETATM   17  O   UNL     1      -9.489   4.001  69.642  1.00  0.00    -0.161 OA 
BRANCH  17  18
HETATM   18  P   UNL     1      -8.579   4.491  68.255  1.00  0.00    -0.102 P  
HETATM   19  O   UNL     1      -9.456   3.578  67.392  1.00  0.00    -0.200 OA 
HETATM   20  O   UNL     1      -7.259   4.057  68.888  1.00  0.00    -0.053 OA 
BRANCH  18  21
HETATM   21  O   UNL     1      -7.669   4.982  66.868  1.00  0.00    -0.091 OA 
BRANCH  21  22
HETATM   22  C   UNL     1      -7.938   6.312  66.433  1.00  0.00    -0.109 C  
BRANCH  22  23
HETATM   23  C   UNL     1      -7.845   7.315  67.563  1.00  0.00    -0.112 C  
BRANCH  23  24
HETATM   24  N   UNL     1      -8.718   8.577  67.393  1.00  0.00    -0.133 N  
HETATM   25  C   UNL     1      -7.968   9.514  66.467  1.00  0.00    -0.112 C  
HETATM   26  C   UNL     1      -8.921   9.254  68.749  1.00  0.00    -0.132 C  
HETATM   27  C   UNL     1     -10.069   8.228  66.794  1.00  0.00    -0.303 C  
ENDBRANCH  23  24
ENDBRANCH  22  23
ENDBRANCH  21  22
ENDBRANCH  18  21
ENDBRANCH  17  18
ENDBRANCH  16  17
ENDBRANCH  15  16
ENDBRANCH  14  15
ENDBRANCH  13  14
ENDBRANCH  12  13
ENDBRANCH  11  12
ENDBRANCH  10  11
ENDBRANCH   9  10
ENDBRANCH   8   9
ENDBRANCH   7   8
ENDBRANCH   6   7
ENDBRANCH   5   6
ENDBRANCH   4   5
ENDBRANCH   3   4
ENDBRANCH   2   3
TORSDOF 20
ENDMDL
MODEL      177
REMARK 921   NORMALIZED FREE ENERGY PREDICTED BY IDOCK:   -3.69 KCAL/MOL
REMARK 922        TOTAL FREE ENERGY PREDICTED BY IDOCK:   -9.91 KCAL/MOL
REMARK 923 INTER-LIGAND FREE ENERGY PREDICTED BY IDOCK:   -8.23 KCAL/MOL
REMARK 924 INTRA-LIGAND FREE ENERGY PREDICTED BY IDOCK:   -1.69 KCAL/MOL
REMARK 927      BINDING AFFINITY PREDICTED BY RF-SCORE:    0.00 PKD
ROOT
HETATM    1  C   UNL     1      -9.040  19.369  68.562  1.00  0.00    -0.426 C  
HETATM    2  C   UNL     1     -10.183  19.244  67.569  1.00  0.00    -0.514 C  
ENDROOT
BRANCH   2   3
HETATM    3  C   UNL     1     -10.579  17.784  67.367  1.00  0.00    -0.341 C  
BRANCH   3   4
HETATM    4  C   UNL     1      -9.719  17.125  66.293  1.00  0.00    -0.296 C  
BRANCH   4   5
HETATM    5  C   UNL     1     -10.477  15.988  65.617  1.00  0.00    -0.416 C  
BRANCH   5   6
HETATM    6  C   UNL     1     -10.669  14.821  66.579  1.00  0.00    -0.319 C  
BRANCH   6   7
HETATM    7  C   UNL     1     -12.031  14.174  66.367  1.00  0.00    -0.457 C  
BRANCH   7   8
HETATM    8  C   UNL     1     -11.870  12.707  65.988  1.00  0.00    -0.492 C  
BRANCH   8   9
HETATM    9  C   UNL     1     -12.406  12.466  64.585  1.00  0.00    -0.518 C  
BRANCH   9  10
HETATM   10  C   UNL     1     -11.263  12.308  63.595  1.00  0.00    -0.539 C  
BRANCH  10  11
HETATM   11  C   UNL     1     -10.022  11.805  64.315  1.00  0.00    -0.287 C  
BRANCH  11  12
HETATM   12  C   UNL     1      -9.595  10.457  63.760  1.00  0.00    -0.366 C  
BRANCH  12  13
HETATM   13  C   UNL     1      -9.077   9.570  64.884  1.00  0.00    -0.276 C  
BRANCH  13  14
HETATM   14  C   UNL     1      -9.928   9.773  66.121  1.00  0.00    -0.338 C  
BRANCH  14  15
HETATM   15  C   UNL     1      -9.088   9.713  67.389  1.00  0.00    -0.144 C  
BRANCH  15  16
HETATM   16  C   UNL     1      -7.980  10.734  67.264  1.00  0.00    -0.117 C  
BRANCH  16  17
HETATM   17  O   UNL     1      -6.867  10.356  68.065  1.00  0.00    -0.068 OA 
BRANCH  17  18
HETATM   18  P   UNL     1      -7.333   9.853  69.654  1.00  0.00    -0.150 P  
HETATM   19  O   UNL     1      -6.762  11.164  70.205  1.00  0.00    -0.218 OA 
HETATM   20  O   UNL     1      -6.537   8.554  69.545  1.00  0.00    -0.040 OA 
BRANCH  18  21
HETATM   21  O   UNL     1      -7.800   9.350  71.242  1.00  0.00    -0.335 OA 
BRANCH  21  22
HETATM   22  C   UNL     1      -9.155   8.919  71.343  1.00  0.00    -0.248 C  
BRANCH  22  23
HETATM   23  C   UNL     1      -9.324   7.463  70.971  1.00  0.00    -0.157 C  
BRANCH  23  24
HETATM   24  N   UNL     1     -10.781   6.951  70.973  1.00  0.00    -0.228 N  
HETATM   25  C   UNL     1     -10.852   5.816  71.976  1.00  0.00    -0.251 C  
HETATM   26  C   UNL     1     -11.147   6.426  69.583  1.00  0.00    -0.401 C  
HETATM   27  C   UNL     1     -11.746   8.054  71.368  1.00  0.00    -0.287 C  
ENDBRANCH  23  24
ENDBRANCH  22  23
ENDBRANCH  21  22
ENDBRANCH  18  21
ENDBRANCH  17  18
ENDBRANCH  16  17
ENDBRANCH  15  16
ENDBRANCH  14  15
ENDBRANCH  13  14
ENDBRANCH  12  13
ENDBRANCH  11  12
ENDBRANCH  10  11
ENDBRANCH   9  10
ENDBRANCH   8   9
ENDBRANCH   7   8
ENDBRANCH   6   7
ENDBRANCH   5   6
ENDBRANCH   4   5
ENDBRANCH   3   4
ENDBRANCH   2   3
TORSDOF 20
ENDMDL
MODEL      178
REMARK 921   NORMALIZED FREE ENERGY PREDICTED BY IDOCK:   -3.67 KCAL/MOL
REMARK 922        TOTAL FREE ENERGY PREDICTED BY IDOCK:   -9.88 KCAL/MOL
REMARK 923 INTER-LIGAND FREE ENERGY PREDICTED BY IDOCK:   -7.66 KCAL/MOL
REMARK 924 INTRA-LIGAND FREE ENERGY PREDICTED BY IDOCK:   -2.22 KCAL/MOL
REMARK 927      BINDING AFFINITY PREDICTED BY RF-SCORE:    0.00 PKD
ROOT
HETATM    1  C   UNL     1      -8.550   6.814  73.093  1.00  0.00    -0.132 C  
HETATM    2  C   UNL     1      -9.584   7.905  73.312  1.00  0.00    -0.351 C  
ENDROOT
BRANCH   2   3
HETATM    3  C   UNL     1     -10.998   7.380  73.076  1.00  0.00    -0.422 C  
BRANCH   3   4
HETATM    4  C   UNL     1     -11.774   8.295  72.134  1.00  0.00    -0.429 C  
BRANCH   4   5
HETATM    5  C   UNL     1     -11.413   8.006  70.681  1.00  0.00    -0.237 C  
BRANCH   5   6
HETATM    6  C   UNL     1     -11.584   6.524  70.368  1.00  0.00    -0.470 C  
BRANCH   6   7
HETATM    7  C   UNL     1     -10.552   6.074  69.343  1.00  0.00    -0.365 C  
BRANCH   7   8
HETATM    8  C   UNL     1     -11.078   6.283  67.929  1.00  0.00    -0.360 C  
BRANCH   8   9
HETATM    9  C   UNL     1     -10.317   5.401  66.951  1.00  0.00    -0.310 C  
BRANCH   9  10
HETATM   10  C   UNL     1      -8.864   5.258  67.376  1.00  0.00    -0.105 C  
BRANCH  10  11
HETATM   11  C   UNL     1      -7.950   5.601  66.210  1.00  0.00    -0.102 C  
BRANCH  11  12
HETATM   12  C   UNL     1      -8.203   7.021  65.734  1.00  0.00    -0.132 C  
BRANCH  12  13
HETATM   13  C   UNL     1      -7.612   8.016  66.723  1.00  0.00    -0.094 C  
BRANCH  13  14
HETATM   14  C   UNL     1      -8.367   9.327  66.634  1.00  0.00    -0.122 C  
BRANCH  14  15
HETATM   15  C   UNL     1      -9.816   9.108  66.226  1.00  0.00    -0.359 C  
BRANCH  15  16
HETATM   16  C   UNL     1     -10.697   9.825  67.225  1.00  0.00    -0.227 C  
BRANCH  16  17
HETATM   17  O   UNL     1     -10.952  11.156  66.793  1.00  0.00    -0.275 OA 
BRANCH  17  18
HETATM   18  P   UNL     1     -11.198  12.246  68.114  1.00  0.00    -0.320 P  
HETATM   19  O   UNL     1      -9.733  12.045  68.516  1.00  0.00    -0.207 OA 
HETATM   20  O   UNL     1     -12.356  11.418  68.665  1.00  0.00    -0.491 OA 
BRANCH  18  21
HETATM   21  O   UNL     1     -11.444  13.338  69.433  1.00  0.00    -0.267 OA 
BRANCH  21  22
HETATM   22  C   UNL     1     -11.624  14.696  69.042  1.00  0.00    -0.298 C  
BRANCH  22  23
HETATM   23  C   UNL     1     -11.447  14.893  67.552  1.00  0.00    -0.348 C  
BRANCH  23  24
HETATM   24  N   UNL     1     -10.336  15.887  67.149  1.00  0.00    -0.294 N  
HETATM   25  C   UNL     1      -9.017  15.275  67.578  1.00  0.00    -0.185 C  
HETATM   26  C   UNL     1     -10.542  17.217  67.877  1.00  0.00    -0.376 C  
HETATM   27  C   UNL     1     -10.335  16.125  65.650  1.00  0.00    -0.382 C  
ENDBRANCH  23  24
ENDBRANCH  22  23
ENDBRANCH  21  22
ENDBRANCH  18  21
ENDBRANCH  17  18
ENDBRANCH  16  17
ENDBRANCH  15  16
ENDBRANCH  14  15
ENDBRANCH  13  14
ENDBRANCH  12  13
ENDBRANCH  11  12
ENDBRANCH  10  11
ENDBRANCH   9  10
ENDBRANCH   8   9
ENDBRANCH   7   8
ENDBRANCH   6   7
ENDBRANCH   5   6
ENDBRANCH   4   5
ENDBRANCH   3   4
ENDBRANCH   2   3
TORSDOF 20
ENDMDL
MODEL      179
REMARK 921   NORMALIZED FREE ENERGY PREDICTED BY IDOCK:   -3.67 KCAL/MOL
REMARK 922        TOTAL FREE ENERGY PREDICTED BY IDOCK:   -9.88 KCAL/MOL
REMARK 923 INTER-LIGAND FREE ENERGY PREDICTED BY IDOCK:   -7.86 KCAL/MOL
REMARK 924 INTRA-LIGAND FREE ENERGY PREDICTED BY IDOCK:   -2.02 KCAL/MOL
REMARK 927      BINDING AFFINITY PREDICTED BY RF-SCORE:    0.00 PKD
ROOT
HETATM    1  C   UNL     1      -6.123  13.945  69.122  1.00  0.00    -0.096 C  
HETATM    2  C   UNL     1      -6.151  13.517  67.664  1.00  0.00    -0.120 C  
ENDROOT
BRANCH   2   3
HETATM    3  C   UNL     1      -6.668  12.088  67.519  1.00  0.00    -0.120 C  
BRANCH   3   4
HETATM    4  C   UNL     1      -7.397  11.638  68.781  1.00  0.00    -0.118 C  
BRANCH   4   5
HETATM    5  C   UNL     1      -7.330  10.122  68.932  1.00  0.00    -0.083 C  
BRANCH   5   6
HETATM    6  C   UNL     1      -7.669   9.707  70.359  1.00  0.00    -0.178 C  
BRANCH   6   7
HETATM    7  C   UNL     1      -8.691   8.578  70.358  1.00  0.00    -0.153 C  
BRANCH   7   8
HETATM    8  C   UNL     1      -8.912   8.062  68.942  1.00  0.00    -0.141 C  
BRANCH   8   9
HETATM    9  C   UNL     1     -10.397   8.058  68.612  1.00  0.00    -0.224 C  
BRANCH   9  10
HETATM   10  C   UNL     1     -10.719   9.124  67.578  1.00  0.00    -0.255 C  
BRANCH  10  11
HETATM   11  C   UNL     1      -9.897   8.889  66.321  1.00  0.00    -0.355 C  
BRANCH  11  12
HETATM   12  C   UNL     1      -9.347  10.202  65.791  1.00  0.00    -0.239 C  
BRANCH  12  13
HETATM   13  C   UNL     1     -10.043  10.572  64.489  1.00  0.00    -0.402 C  
BRANCH  13  14
HETATM   14  C   UNL     1     -11.077  11.648  64.756  1.00  0.00    -0.328 C  
BRANCH  14  15
HETATM   15  C   UNL     1     -11.730  12.123  63.467  1.00  0.00    -0.579 C  
BRANCH  15  16
HETATM   16  C   UNL     1     -12.285  13.509  63.707  1.00  0.00    -0.388 C  
BRANCH  16  17
HETATM   17  O   UNL     1     -12.015  13.925  65.041  1.00  0.00    -0.354 OA 
BRANCH  17  18
HETATM   18  P   UNL     1     -11.348  15.520  65.117  1.00  0.00    -0.116 P  
HETATM   19  O   UNL     1     -12.112  15.870  63.835  1.00  0.00    -0.768 OA 
HETATM   20  O   UNL     1      -9.916  14.989  65.139  1.00  0.00    -0.330 OA 
BRANCH  18  21
HETATM   21  O   UNL     1     -10.681  17.114  65.194  1.00  0.00    -0.680 OA 
BRANCH  21  22
HETATM   22  C   UNL     1     -10.308  17.529  66.505  1.00  0.00    -0.325 C  
BRANCH  22  23
HETATM   23  C   UNL     1      -8.933  18.159  66.539  1.00  0.00    -0.275 C  
BRANCH  23  24
HETATM   24  N   UNL     1      -8.464  18.634  67.931  1.00  0.00    -0.271 N  
HETATM   25  C   UNL     1      -7.944  17.413  68.664  1.00  0.00    -0.271 C  
HETATM   26  C   UNL     1      -9.644  19.226  68.703  1.00  0.00    -0.418 C  
HETATM   27  C   UNL     1      -7.365  19.674  67.811  1.00  0.00    -0.271 C  
ENDBRANCH  23  24
ENDBRANCH  22  23
ENDBRANCH  21  22
ENDBRANCH  18  21
ENDBRANCH  17  18
ENDBRANCH  16  17
ENDBRANCH  15  16
ENDBRANCH  14  15
ENDBRANCH  13  14
ENDBRANCH  12  13
ENDBRANCH  11  12
ENDBRANCH  10  11
ENDBRANCH   9  10
ENDBRANCH   8   9
ENDBRANCH   7   8
ENDBRANCH   6   7
ENDBRANCH   5   6
ENDBRANCH   4   5
ENDBRANCH   3   4
ENDBRANCH   2   3
TORSDOF 20
ENDMDL
MODEL      180
REMARK 921   NORMALIZED FREE ENERGY PREDICTED BY IDOCK:   -3.66 KCAL/MOL
REMARK 922        TOTAL FREE ENERGY PREDICTED BY IDOCK:   -9.86 KCAL/MOL
REMARK 923 INTER-LIGAND FREE ENERGY PREDICTED BY IDOCK:   -8.28 KCAL/MOL
REMARK 924 INTRA-LIGAND FREE ENERGY PREDICTED BY IDOCK:   -1.58 KCAL/MOL
REMARK 927      BINDING AFFINITY PREDICTED BY RF-SCORE:    0.00 PKD
ROOT
HETATM    1  C   UNL     1      -8.669   4.905  66.474  1.00  0.00    -0.112 C  
HETATM    2  C   UNL     1     -10.017   4.919  67.174  1.00  0.00    -0.229 C  
ENDROOT
BRANCH   2   3
HETATM    3  C   UNL     1      -9.934   5.646  68.514  1.00  0.00    -0.205 C  
BRANCH   3   4
HETATM    4  C   UNL     1     -11.145   6.550  68.723  1.00  0.00    -0.357 C  
BRANCH   4   5
HETATM    5  C   UNL     1     -11.559   6.567  70.191  1.00  0.00    -0.466 C  
BRANCH   5   6
HETATM    6  C   UNL     1     -11.290   7.932  70.812  1.00  0.00    -0.283 C  
BRANCH   6   7
HETATM    7  C   UNL     1     -11.002   8.964  69.729  1.00  0.00    -0.164 C  
BRANCH   7   8
HETATM    8  C   UNL     1      -9.551   9.421  69.800  1.00  0.00    -0.216 C  
BRANCH   8   9
HETATM    9  C   UNL     1      -9.308  10.548  68.808  1.00  0.00    -0.181 C  
BRANCH   9  10
HETATM   10  C   UNL     1     -10.389  11.611  68.928  1.00  0.00    -0.175 C  
BRANCH  10  11
HETATM   11  C   UNL     1     -10.869  12.017  67.544  1.00  0.00    -0.284 C  
BRANCH  11  12
HETATM   12  C   UNL     1      -9.857  11.607  66.488  1.00  0.00    -0.228 C  
BRANCH  12  13
HETATM   13  C   UNL     1     -10.573  11.195  65.210  1.00  0.00    -0.303 C  
BRANCH  13  14
HETATM   14  C   UNL     1     -11.991  11.730  65.230  1.00  0.00     0.063 C  
BRANCH  14  15
HETATM   15  C   UNL     1     -12.388  12.305  63.877  1.00  0.00    -0.606 C  
BRANCH  15  16
HETATM   16  C   UNL     1     -11.794  13.691  63.767  1.00  0.00    -0.329 C  
BRANCH  16  17
HETATM   17  O   UNL     1     -11.986  14.410  64.979  1.00  0.00    -0.379 OA 
BRANCH  17  18
HETATM   18  P   UNL     1     -10.779  15.623  65.230  1.00  0.00    -0.382 P  
HETATM   19  O   UNL     1     -11.138  15.633  66.719  1.00  0.00    -0.284 OA 
HETATM   20  O   UNL     1     -11.406  16.553  64.194  1.00  0.00    -1.060 OA 
BRANCH  18  21
HETATM   21  O   UNL     1      -9.570  16.835  65.480  1.00  0.00    -0.515 OA 
BRANCH  21  22
HETATM   22  C   UNL     1     -10.005  17.940  66.270  1.00  0.00    -0.331 C  
BRANCH  22  23
HETATM   23  C   UNL     1      -8.995  19.066  66.287  1.00  0.00    -0.279 C  
BRANCH  23  24
HETATM   24  N   UNL     1      -7.847  18.902  67.306  1.00  0.00    -0.234 N  
HETATM   25  C   UNL     1      -7.583  20.270  67.903  1.00  0.00    -0.244 C  
HETATM   26  C   UNL     1      -6.587  18.406  66.593  1.00  0.00    -0.191 C  
HETATM   27  C   UNL     1      -8.227  17.923  68.402  1.00  0.00    -0.300 C  
ENDBRANCH  23  24
ENDBRANCH  22  23
ENDBRANCH  21  22
ENDBRANCH  18  21
ENDBRANCH  17  18
ENDBRANCH  16  17
ENDBRANCH  15  16
ENDBRANCH  14  15
ENDBRANCH  13  14
ENDBRANCH  12  13
ENDBRANCH  11  12
ENDBRANCH  10  11
ENDBRANCH   9  10
ENDBRANCH   8   9
ENDBRANCH   7   8
ENDBRANCH   6   7
ENDBRANCH   5   6
ENDBRANCH   4   5
ENDBRANCH   3   4
ENDBRANCH   2   3
TORSDOF 20
ENDMDL
MODEL      181
REMARK 921   NORMALIZED FREE ENERGY PREDICTED BY IDOCK:   -3.64 KCAL/MOL
REMARK 922        TOTAL FREE ENERGY PREDICTED BY IDOCK:   -9.82 KCAL/MOL
REMARK 923 INTER-LIGAND FREE ENERGY PREDICTED BY IDOCK:   -7.35 KCAL/MOL
REMARK 924 INTRA-LIGAND FREE ENERGY PREDICTED BY IDOCK:   -2.47 KCAL/MOL
REMARK 927      BINDING AFFINITY PREDICTED BY RF-SCORE:    0.00 PKD
ROOT
HETATM    1  C   UNL     1      -8.482   9.816  64.927  1.00  0.00    -0.165 C  
HETATM    2  C   UNL     1      -9.797   9.638  65.667  1.00  0.00    -0.369 C  
ENDROOT
BRANCH   2   3
HETATM    3  C   UNL     1     -10.757  10.787  65.369  1.00  0.00    -0.149 C  
BRANCH   3   4
HETATM    4  C   UNL     1     -10.526  11.345  63.968  1.00  0.00    -0.435 C  
BRANCH   4   5
HETATM    5  C   UNL     1     -11.477  12.503  63.684  1.00  0.00    -0.568 C  
BRANCH   5   6
HETATM    6  C   UNL     1     -12.575  12.569  64.739  1.00  0.00    -0.493 C  
BRANCH   6   7
HETATM    7  C   UNL     1     -12.634  13.958  65.360  1.00  0.00    -0.538 C  
BRANCH   7   8
HETATM    8  C   UNL     1     -12.279  13.896  66.840  1.00  0.00    -0.415 C  
BRANCH   8   9
HETATM    9  C   UNL     1     -11.172  14.891  67.155  1.00  0.00    -0.345 C  
BRANCH   9  10
HETATM   10  C   UNL     1      -9.997  14.193  67.821  1.00  0.00    -0.235 C  
BRANCH  10  11
HETATM   11  C   UNL     1      -8.915  13.908  66.791  1.00  0.00    -0.206 C  
BRANCH  11  12
HETATM   12  C   UNL     1      -8.076  12.715  67.217  1.00  0.00    -0.178 C  
BRANCH  12  13
HETATM   13  C   UNL     1      -8.734  12.009  68.394  1.00  0.00    -0.147 C  
BRANCH  13  14
HETATM   14  C   UNL     1      -7.971  10.739  68.713  1.00  0.00    -0.136 C  
BRANCH  14  15
HETATM   15  C   UNL     1      -8.667   9.929  69.797  1.00  0.00    -0.229 C  
BRANCH  15  16
HETATM   16  C   UNL     1     -10.151   9.936  69.506  1.00  0.00    -0.221 C  
BRANCH  16  17
HETATM   17  O   UNL     1     -10.893   9.956  70.719  1.00  0.00    -0.309 OA 
BRANCH  17  18
HETATM   18  P   UNL     1     -11.503   8.396  71.150  1.00  0.00    -0.283 P  
HETATM   19  O   UNL     1     -10.596   8.413  72.385  1.00  0.00    -0.316 OA 
HETATM   20  O   UNL     1     -11.101   7.797  69.804  1.00  0.00    -0.204 OA 
BRANCH  18  21
HETATM   21  O   UNL     1     -12.114   6.836  71.580  1.00  0.00    -0.326 OA 
BRANCH  21  22
HETATM   22  C   UNL     1     -11.281   6.110  72.480  1.00  0.00    -0.287 C  
BRANCH  22  23
HETATM   23  C   UNL     1     -10.377   5.131  71.763  1.00  0.00    -0.209 C  
BRANCH  23  24
HETATM   24  N   UNL     1      -9.816   3.992  72.642  1.00  0.00    -0.145 N  
HETATM   25  C   UNL     1      -9.273   2.933  71.702  1.00  0.00    -0.111 C  
HETATM   26  C   UNL     1     -10.937   3.393  73.492  1.00  0.00    -0.233 C  
HETATM   27  C   UNL     1      -8.708   4.498  73.548  1.00  0.00    -0.099 C  
ENDBRANCH  23  24
ENDBRANCH  22  23
ENDBRANCH  21  22
ENDBRANCH  18  21
ENDBRANCH  17  18
ENDBRANCH  16  17
ENDBRANCH  15  16
ENDBRANCH  14  15
ENDBRANCH  13  14
ENDBRANCH  12  13
ENDBRANCH  11  12
ENDBRANCH  10  11
ENDBRANCH   9  10
ENDBRANCH   8   9
ENDBRANCH   7   8
ENDBRANCH   6   7
ENDBRANCH   5   6
ENDBRANCH   4   5
ENDBRANCH   3   4
ENDBRANCH   2   3
TORSDOF 20
ENDMDL
MODEL      182
REMARK 921   NORMALIZED FREE ENERGY PREDICTED BY IDOCK:   -3.64 KCAL/MOL
REMARK 922        TOTAL FREE ENERGY PREDICTED BY IDOCK:   -9.82 KCAL/MOL
REMARK 923 INTER-LIGAND FREE ENERGY PREDICTED BY IDOCK:   -8.73 KCAL/MOL
REMARK 924 INTRA-LIGAND FREE ENERGY PREDICTED BY IDOCK:   -1.10 KCAL/MOL
REMARK 927      BINDING AFFINITY PREDICTED BY RF-SCORE:    0.00 PKD
ROOT
HETATM    1  C   UNL     1     -12.427  11.896  63.274  1.00  0.00    -0.506 C  
HETATM    2  C   UNL     1     -10.945  12.047  63.570  1.00  0.00    -0.514 C  
ENDROOT
BRANCH   2   3
HETATM    3  C   UNL     1     -10.684  13.251  64.472  1.00  0.00    -0.428 C  
BRANCH   3   4
HETATM    4  C   UNL     1     -11.962  14.052  64.701  1.00  0.00    -0.449 C  
BRANCH   4   5
HETATM    5  C   UNL     1     -12.455  13.883  66.134  1.00  0.00    -0.478 C  
BRANCH   5   6
HETATM    6  C   UNL     1     -11.474  14.509  67.119  1.00  0.00    -0.383 C  
BRANCH   6   7
HETATM    7  C   UNL     1     -11.924  14.258  68.552  1.00  0.00    -0.352 C  
BRANCH   7   8
HETATM    8  C   UNL     1     -11.695  15.497  69.407  1.00  0.00    -0.382 C  
BRANCH   8   9
HETATM    9  C   UNL     1     -12.010  15.193  70.864  1.00  0.00    -0.378 C  
BRANCH   9  10
HETATM   10  C   UNL     1     -13.482  15.433  71.157  1.00  0.00    -0.565 C  
BRANCH  10  11
HETATM   11  C   UNL     1     -14.005  14.352  72.090  1.00  0.00    -0.607 C  
BRANCH  11  12
HETATM   12  C   UNL     1     -12.978  13.246  72.252  1.00  0.00    -0.376 C  
BRANCH  12  13
HETATM   13  C   UNL     1     -13.627  11.891  72.010  1.00  0.00    -0.190 C  
BRANCH  13  14
HETATM   14  C   UNL     1     -12.600  10.933  71.440  1.00  0.00    -0.508 C  
BRANCH  14  15
HETATM   15  C   UNL     1     -13.085   9.492  71.512  1.00  0.00    -0.470 C  
BRANCH  15  16
HETATM   16  C   UNL     1     -11.880   8.605  71.736  1.00  0.00    -0.337 C  
BRANCH  16  17
HETATM   17  O   UNL     1     -12.053   7.359  71.072  1.00  0.00    -0.312 OA 
BRANCH  17  18
HETATM   18  P   UNL     1     -10.925   6.161  71.606  1.00  0.00    -0.276 P  
HETATM   19  O   UNL     1     -10.962   5.543  70.204  1.00  0.00    -0.286 OA 
HETATM   20  O   UNL     1     -11.832   5.726  72.755  1.00  0.00    -0.237 OA 
BRANCH  18  21
HETATM   21  O   UNL     1      -9.796   4.963  72.139  1.00  0.00    -0.161 OA 
BRANCH  21  22
HETATM   22  C   UNL     1      -8.541   5.491  72.563  1.00  0.00    -0.121 C  
BRANCH  22  23
HETATM   23  C   UNL     1      -7.605   5.747  71.402  1.00  0.00    -0.105 C  
BRANCH  23  24
HETATM   24  N   UNL     1      -7.046   7.184  71.316  1.00  0.00    -0.068 N  
HETATM   25  C   UNL     1      -7.169   7.622  69.869  1.00  0.00    -0.072 C  
HETATM   26  C   UNL     1      -5.572   7.193  71.727  1.00  0.00    -0.036 C  
HETATM   27  C   UNL     1      -7.827   8.128  72.212  1.00  0.00    -0.127 C  
ENDBRANCH  23  24
ENDBRANCH  22  23
ENDBRANCH  21  22
ENDBRANCH  18  21
ENDBRANCH  17  18
ENDBRANCH  16  17
ENDBRANCH  15  16
ENDBRANCH  14  15
ENDBRANCH  13  14
ENDBRANCH  12  13
ENDBRANCH  11  12
ENDBRANCH  10  11
ENDBRANCH   9  10
ENDBRANCH   8   9
ENDBRANCH   7   8
ENDBRANCH   6   7
ENDBRANCH   5   6
ENDBRANCH   4   5
ENDBRANCH   3   4
ENDBRANCH   2   3
TORSDOF 20
ENDMDL
MODEL      183
REMARK 921   NORMALIZED FREE ENERGY PREDICTED BY IDOCK:   -3.64 KCAL/MOL
REMARK 922        TOTAL FREE ENERGY PREDICTED BY IDOCK:   -9.82 KCAL/MOL
REMARK 923 INTER-LIGAND FREE ENERGY PREDICTED BY IDOCK:   -7.51 KCAL/MOL
REMARK 924 INTRA-LIGAND FREE ENERGY PREDICTED BY IDOCK:   -2.30 KCAL/MOL
REMARK 927      BINDING AFFINITY PREDICTED BY RF-SCORE:    0.00 PKD
ROOT
HETATM    1  C   UNL     1     -10.105  11.402  68.180  1.00  0.00    -0.200 C  
HETATM    2  C   UNL     1     -10.963  10.273  67.634  1.00  0.00    -0.356 C  
ENDROOT
BRANCH   2   3
HETATM    3  C   UNL     1     -10.517   8.923  68.190  1.00  0.00    -0.254 C  
BRANCH   3   4
HETATM    4  C   UNL     1     -10.560   7.845  67.113  1.00  0.00    -0.383 C  
BRANCH   4   5
HETATM    5  C   UNL     1      -9.251   7.064  67.079  1.00  0.00    -0.167 C  
BRANCH   5   6
HETATM    6  C   UNL     1      -8.108   7.902  67.638  1.00  0.00    -0.124 C  
BRANCH   6   7
HETATM    7  C   UNL     1      -6.859   7.739  66.782  1.00  0.00    -0.071 C  
BRANCH   7   8
HETATM    8  C   UNL     1      -6.424   9.083  66.212  1.00  0.00    -0.066 C  
BRANCH   8   9
HETATM    9  C   UNL     1      -7.642   9.949  65.928  1.00  0.00    -0.108 C  
BRANCH   9  10
HETATM   10  C   UNL     1      -7.834  10.131  64.431  1.00  0.00    -0.138 C  
BRANCH  10  11
HETATM   11  C   UNL     1      -9.312  10.035  64.085  1.00  0.00    -0.335 C  
BRANCH  11  12
HETATM   12  C   UNL     1     -10.060  11.248  64.609  1.00  0.00    -0.343 C  
BRANCH  12  13
HETATM   13  C   UNL     1     -11.174  11.632  63.645  1.00  0.00    -0.497 C  
BRANCH  13  14
HETATM   14  C   UNL     1     -11.693  13.012  63.995  1.00  0.00    -0.497 C  
BRANCH  14  15
HETATM   15  C   UNL     1     -12.480  12.996  65.298  1.00  0.00    -0.555 C  
BRANCH  15  16
HETATM   16  C   UNL     1     -12.173  14.274  66.044  1.00  0.00    -0.404 C  
BRANCH  16  17
HETATM   17  O   UNL     1     -10.964  14.850  65.564  1.00  0.00    -0.319 OA 
BRANCH  17  18
HETATM   18  P   UNL     1     -10.093  15.692  66.799  1.00  0.00    -0.293 P  
HETATM   19  O   UNL     1     -10.592  17.015  66.210  1.00  0.00    -0.282 OA 
HETATM   20  O   UNL     1      -8.774  15.027  66.410  1.00  0.00    -0.256 OA 
BRANCH  18  21
HETATM   21  O   UNL     1      -9.222  16.532  68.035  1.00  0.00    -0.209 OA 
BRANCH  21  22
HETATM   22  C   UNL     1      -8.188  17.382  67.546  1.00  0.00    -0.201 C  
BRANCH  22  23
HETATM   23  C   UNL     1      -8.254  18.770  68.144  1.00  0.00    -0.304 C  
BRANCH  23  24
HETATM   24  N   UNL     1      -6.933  19.568  68.098  1.00  0.00    -0.270 N  
HETATM   25  C   UNL     1      -5.897  18.673  67.446  1.00  0.00    -0.158 C  
HETATM   26  C   UNL     1      -6.486  19.912  69.520  1.00  0.00    -0.354 C  
HETATM   27  C   UNL     1      -7.094  20.845  67.294  1.00  0.00    -0.370 C  
ENDBRANCH  23  24
ENDBRANCH  22  23
ENDBRANCH  21  22
ENDBRANCH  18  21
ENDBRANCH  17  18
ENDBRANCH  16  17
ENDBRANCH  15  16
ENDBRANCH  14  15
ENDBRANCH  13  14
ENDBRANCH  12  13
ENDBRANCH  11  12
ENDBRANCH  10  11
ENDBRANCH   9  10
ENDBRANCH   8   9
ENDBRANCH   7   8
ENDBRANCH   6   7
ENDBRANCH   5   6
ENDBRANCH   4   5
ENDBRANCH   3   4
ENDBRANCH   2   3
TORSDOF 20
ENDMDL
MODEL      184
REMARK 921   NORMALIZED FREE ENERGY PREDICTED BY IDOCK:   -3.64 KCAL/MOL
REMARK 922        TOTAL FREE ENERGY PREDICTED BY IDOCK:   -9.81 KCAL/MOL
REMARK 923 INTER-LIGAND FREE ENERGY PREDICTED BY IDOCK:   -7.44 KCAL/MOL
REMARK 924 INTRA-LIGAND FREE ENERGY PREDICTED BY IDOCK:   -2.38 KCAL/MOL
REMARK 927      BINDING AFFINITY PREDICTED BY RF-SCORE:    0.00 PKD
ROOT
HETATM    1  C   UNL     1     -10.475   7.342  68.459  1.00  0.00    -0.215 C  
HETATM    2  C   UNL     1     -11.157   6.209  69.207  1.00  0.00    -0.463 C  
ENDROOT
BRANCH   2   3
HETATM    3  C   UNL     1     -10.168   5.466  70.102  1.00  0.00    -0.342 C  
BRANCH   3   4
HETATM    4  C   UNL     1     -10.337   5.872  71.562  1.00  0.00    -0.273 C  
BRANCH   4   5
HETATM    5  C   UNL     1      -9.347   6.971  71.935  1.00  0.00    -0.147 C  
BRANCH   5   6
HETATM    6  C   UNL     1     -10.075   8.278  72.222  1.00  0.00    -0.370 C  
BRANCH   6   7
HETATM    7  C   UNL     1     -11.553   8.020  72.483  1.00  0.00    -0.464 C  
BRANCH   7   8
HETATM    8  C   UNL     1     -12.413   8.980  71.671  1.00  0.00    -0.418 C  
BRANCH   8   9
HETATM    9  C   UNL     1     -11.532   9.973  70.929  1.00  0.00    -0.452 C  
BRANCH   9  10
HETATM   10  C   UNL     1     -12.211  11.330  70.838  1.00  0.00    -0.460 C  
BRANCH  10  11
HETATM   11  C   UNL     1     -13.264  11.454  71.929  1.00  0.00    -0.485 C  
BRANCH  11  12
HETATM   12  C   UNL     1     -13.632  12.911  72.150  1.00  0.00    -0.589 C  
BRANCH  12  13
HETATM   13  C   UNL     1     -12.673  13.813  71.386  1.00  0.00    -0.450 C  
BRANCH  13  14
HETATM   14  C   UNL     1     -12.327  15.019  72.237  1.00  0.00    -0.434 C  
BRANCH  14  15
HETATM   15  C   UNL     1     -11.495  16.028  71.459  1.00  0.00    -0.459 C  
BRANCH  15  16
HETATM   16  C   UNL     1     -11.493  15.610  70.005  1.00  0.00    -0.344 C  
BRANCH  16  17
HETATM   17  O   UNL     1     -10.505  16.336  69.284  1.00  0.00    -0.244 OA 
BRANCH  17  18
HETATM   18  P   UNL     1      -9.925  15.472  67.901  1.00  0.00    -0.220 P  
HETATM   19  O   UNL     1     -10.556  14.196  68.469  1.00  0.00    -0.239 OA 
HETATM   20  O   UNL     1      -8.482  15.899  68.160  1.00  0.00    -0.163 OA 
BRANCH  18  21
HETATM   21  O   UNL     1      -9.346  14.609  66.518  1.00  0.00    -0.265 OA 
BRANCH  21  22
HETATM   22  C   UNL     1      -9.226  13.203  66.715  1.00  0.00    -0.230 C  
BRANCH  22  23
HETATM   23  C   UNL     1      -7.845  12.690  66.369  1.00  0.00     0.732 C  
BRANCH  23  24
HETATM   24  N   UNL     1      -7.044  12.113  67.556  1.00  0.00    -0.123 N  
HETATM   25  C   UNL     1      -8.052  11.563  68.546  1.00  0.00    -0.146 C  
HETATM   26  C   UNL     1      -6.229  13.224  68.221  1.00  0.00    -0.099 C  
HETATM   27  C   UNL     1      -6.111  11.007  67.097  1.00  0.00    -0.074 C  
ENDBRANCH  23  24
ENDBRANCH  22  23
ENDBRANCH  21  22
ENDBRANCH  18  21
ENDBRANCH  17  18
ENDBRANCH  16  17
ENDBRANCH  15  16
ENDBRANCH  14  15
ENDBRANCH  13  14
ENDBRANCH  12  13
ENDBRANCH  11  12
ENDBRANCH  10  11
ENDBRANCH   9  10
ENDBRANCH   8   9
ENDBRANCH   7   8
ENDBRANCH   6   7
ENDBRANCH   5   6
ENDBRANCH   4   5
ENDBRANCH   3   4
ENDBRANCH   2   3
TORSDOF 20
ENDMDL
MODEL      185
REMARK 921   NORMALIZED FREE ENERGY PREDICTED BY IDOCK:   -3.64 KCAL/MOL
REMARK 922        TOTAL FREE ENERGY PREDICTED BY IDOCK:   -9.81 KCAL/MOL
REMARK 923 INTER-LIGAND FREE ENERGY PREDICTED BY IDOCK:   -8.24 KCAL/MOL
REMARK 924 INTRA-LIGAND FREE ENERGY PREDICTED BY IDOCK:   -1.57 KCAL/MOL
REMARK 927      BINDING AFFINITY PREDICTED BY RF-SCORE:    0.00 PKD
ROOT
HETATM    1  C   UNL     1      -8.230   8.615  67.791  1.00  0.00    -0.118 C  
HETATM    2  C   UNL     1      -9.204   8.757  68.948  1.00  0.00    -0.141 C  
ENDROOT
BRANCH   2   3
HETATM    3  C   UNL     1      -8.536   8.411  70.276  1.00  0.00    -0.126 C  
BRANCH   3   4
HETATM    4  C   UNL     1      -7.796   7.081  70.188  1.00  0.00    -0.109 C  
BRANCH   4   5
HETATM    5  C   UNL     1      -7.801   6.369  71.536  1.00  0.00    -0.101 C  
BRANCH   5   6
HETATM    6  C   UNL     1      -8.364   4.960  71.400  1.00  0.00    -0.116 C  
BRANCH   6   7
HETATM    7  C   UNL     1      -9.680   4.835  72.157  1.00  0.00    -0.218 C  
BRANCH   7   8
HETATM    8  C   UNL     1     -10.818   5.448  71.352  1.00  0.00    -0.210 C  
BRANCH   8   9
HETATM    9  C   UNL     1     -11.725   6.261  72.262  1.00  0.00    -0.344 C  
BRANCH   9  10
HETATM   10  C   UNL     1     -12.584   7.217  71.449  1.00  0.00    -0.432 C  
BRANCH  10  11
HETATM   11  C   UNL     1     -12.579   8.593  72.096  1.00  0.00    -0.451 C  
BRANCH  11  12
HETATM   12  C   UNL     1     -11.866   9.597  71.207  1.00  0.00    -0.460 C  
BRANCH  12  13
HETATM   13  C   UNL     1     -12.619  10.920  71.206  1.00  0.00    -0.526 C  
BRANCH  13  14
HETATM   14  C   UNL     1     -12.070  11.813  70.111  1.00  0.00    -0.398 C  
BRANCH  14  15
HETATM   15  C   UNL     1     -12.238  13.285  70.459  1.00  0.00    -0.416 C  
BRANCH  15  16
HETATM   16  C   UNL     1     -11.708  14.102  69.302  1.00  0.00    -0.323 C  
BRANCH  16  17
HETATM   17  O   UNL     1     -12.030  13.476  68.066  1.00  0.00    -0.355 OA 
BRANCH  17  18
HETATM   18  P   UNL     1     -11.443  14.361  66.701  1.00  0.00    -0.373 P  
HETATM   19  O   UNL     1     -12.632  13.840  65.887  1.00  0.00    -0.472 OA 
HETATM   20  O   UNL     1     -10.081  13.673  66.760  1.00  0.00    -0.258 OA 
BRANCH  18  21
HETATM   21  O   UNL     1     -10.855  15.248  65.336  1.00  0.00    -0.341 OA 
BRANCH  21  22
HETATM   22  C   UNL     1     -10.000  16.337  65.671  1.00  0.00    -0.274 C  
BRANCH  22  23
HETATM   23  C   UNL     1     -10.612  17.248  66.713  1.00  0.00    -0.192 C  
BRANCH  23  24
HETATM   24  N   UNL     1      -9.839  18.559  66.973  1.00  0.00    -0.311 N  
HETATM   25  C   UNL     1      -8.426  18.349  66.466  1.00  0.00    -0.270 C  
HETATM   26  C   UNL     1      -9.804  18.851  68.474  1.00  0.00    -0.399 C  
HETATM   27  C   UNL     1     -10.484  19.725  66.245  1.00  0.00    -0.506 C  
ENDBRANCH  23  24
ENDBRANCH  22  23
ENDBRANCH  21  22
ENDBRANCH  18  21
ENDBRANCH  17  18
ENDBRANCH  16  17
ENDBRANCH  15  16
ENDBRANCH  14  15
ENDBRANCH  13  14
ENDBRANCH  12  13
ENDBRANCH  11  12
ENDBRANCH  10  11
ENDBRANCH   9  10
ENDBRANCH   8   9
ENDBRANCH   7   8
ENDBRANCH   6   7
ENDBRANCH   5   6
ENDBRANCH   4   5
ENDBRANCH   3   4
ENDBRANCH   2   3
TORSDOF 20
ENDMDL
MODEL      186
REMARK 921   NORMALIZED FREE ENERGY PREDICTED BY IDOCK:   -3.63 KCAL/MOL
REMARK 922        TOTAL FREE ENERGY PREDICTED BY IDOCK:   -9.80 KCAL/MOL
REMARK 923 INTER-LIGAND FREE ENERGY PREDICTED BY IDOCK:   -7.71 KCAL/MOL
REMARK 924 INTRA-LIGAND FREE ENERGY PREDICTED BY IDOCK:   -2.09 KCAL/MOL
REMARK 927      BINDING AFFINITY PREDICTED BY RF-SCORE:    0.00 PKD
ROOT
HETATM    1  C   UNL     1     -11.991  14.199  69.097  1.00  0.00    -0.388 C  
HETATM    2  C   UNL     1     -11.149  14.041  67.843  1.00  0.00    -0.274 C  
ENDROOT
BRANCH   2   3
HETATM    3  C   UNL     1     -12.027  13.963  66.596  1.00  0.00    -0.474 C  
BRANCH   3   4
HETATM    4  C   UNL     1     -11.890  12.606  65.913  1.00  0.00    -0.499 C  
BRANCH   4   5
HETATM    5  C   UNL     1     -12.650  12.587  64.592  1.00  0.00    -0.507 C  
BRANCH   5   6
HETATM    6  C   UNL     1     -11.771  12.042  63.472  1.00  0.00    -0.566 C  
BRANCH   6   7
HETATM    7  C   UNL     1     -10.300  12.286  63.781  1.00  0.00    -0.464 C  
BRANCH   7   8
HETATM    8  C   UNL     1      -9.436  11.203  63.147  1.00  0.00    -0.371 C  
BRANCH   8   9
HETATM    9  C   UNL     1      -9.516   9.924  63.966  1.00  0.00    -0.231 C  
BRANCH   9  10
HETATM   10  C   UNL     1      -9.167  10.195  65.421  1.00  0.00    -0.249 C  
BRANCH  10  11
HETATM   11  C   UNL     1     -10.208   9.559  66.328  1.00  0.00    -0.290 C  
BRANCH  11  12
HETATM   12  C   UNL     1      -9.914   8.081  66.522  1.00  0.00    -0.283 C  
BRANCH  12  13
HETATM   13  C   UNL     1      -8.446   7.883  66.874  1.00  0.00    -0.128 C  
BRANCH  13  14
HETATM   14  C   UNL     1      -8.283   7.878  68.380  1.00  0.00    -0.124 C  
BRANCH  14  15
HETATM   15  C   UNL     1      -7.826   9.235  68.895  1.00  0.00    -0.087 C  
BRANCH  15  16
HETATM   16  C   UNL     1      -8.543   9.506  70.198  1.00  0.00    -0.224 C  
BRANCH  16  17
HETATM   17  O   UNL     1      -9.952   9.500  69.998  1.00  0.00    -0.205 OA 
BRANCH  17  18
HETATM   18  P   UNL     1     -10.789   8.582  71.203  1.00  0.00    -0.280 P  
HETATM   19  O   UNL     1     -11.976   9.542  71.069  1.00  0.00    -0.296 OA 
HETATM   20  O   UNL     1      -9.658   8.758  72.214  1.00  0.00    -0.301 OA 
BRANCH  18  21
HETATM   21  O   UNL     1     -11.625   7.663  72.406  1.00  0.00    -0.307 OA 
BRANCH  21  22
HETATM   22  C   UNL     1     -11.305   6.274  72.408  1.00  0.00    -0.292 C  
BRANCH  22  23
HETATM   23  C   UNL     1     -11.022   5.748  71.018  1.00  0.00    -0.230 C  
BRANCH  23  24
HETATM   24  N   UNL     1      -9.800   4.811  70.908  1.00  0.00    -0.195 N  
HETATM   25  C   UNL     1     -10.054   3.640  71.837  1.00  0.00    -0.112 C  
HETATM   26  C   UNL     1      -8.537   5.551  71.354  1.00  0.00    -0.131 C  
HETATM   27  C   UNL     1      -9.620   4.315  69.485  1.00  0.00    -0.204 C  
ENDBRANCH  23  24
ENDBRANCH  22  23
ENDBRANCH  21  22
ENDBRANCH  18  21
ENDBRANCH  17  18
ENDBRANCH  16  17
ENDBRANCH  15  16
ENDBRANCH  14  15
ENDBRANCH  13  14
ENDBRANCH  12  13
ENDBRANCH  11  12
ENDBRANCH  10  11
ENDBRANCH   9  10
ENDBRANCH   8   9
ENDBRANCH   7   8
ENDBRANCH   6   7
ENDBRANCH   5   6
ENDBRANCH   4   5
ENDBRANCH   3   4
ENDBRANCH   2   3
TORSDOF 20
ENDMDL
MODEL      187
REMARK 921   NORMALIZED FREE ENERGY PREDICTED BY IDOCK:   -3.62 KCAL/MOL
REMARK 922        TOTAL FREE ENERGY PREDICTED BY IDOCK:   -9.78 KCAL/MOL
REMARK 923 INTER-LIGAND FREE ENERGY PREDICTED BY IDOCK:   -7.53 KCAL/MOL
REMARK 924 INTRA-LIGAND FREE ENERGY PREDICTED BY IDOCK:   -2.25 KCAL/MOL
REMARK 927      BINDING AFFINITY PREDICTED BY RF-SCORE:    0.00 PKD
ROOT
HETATM    1  C   UNL     1      -7.005  11.177  67.161  1.00  0.00    -0.112 C  
HETATM    2  C   UNL     1      -8.370  11.625  66.666  1.00  0.00    -0.154 C  
ENDROOT
BRANCH   2   3
HETATM    3  C   UNL     1      -8.809  10.811  65.450  1.00  0.00    -0.202 C  
BRANCH   3   4
HETATM    4  C   UNL     1     -10.118  10.079  65.724  1.00  0.00    -0.320 C  
BRANCH   4   5
HETATM    5  C   UNL     1     -10.144   9.533  67.148  1.00  0.00    -0.290 C  
BRANCH   5   6
HETATM    6  C   UNL     1     -10.658   8.098  67.166  1.00  0.00    -0.355 C  
BRANCH   6   7
HETATM    7  C   UNL     1      -9.701   7.198  67.937  1.00  0.00    -0.156 C  
BRANCH   7   8
HETATM    8  C   UNL     1      -8.531   8.007  68.481  1.00  0.00    -0.128 C  
BRANCH   8   9
HETATM    9  C   UNL     1      -8.168   7.527  69.878  1.00  0.00    -0.131 C  
BRANCH   9  10
HETATM   10  C   UNL     1      -8.869   8.368  70.933  1.00  0.00    -0.185 C  
BRANCH  10  11
HETATM   11  C   UNL     1      -9.904   7.524  71.661  1.00  0.00    -0.185 C  
BRANCH  11  12
HETATM   12  C   UNL     1     -11.298   7.822  71.136  1.00  0.00    -0.290 C  
BRANCH  12  13
HETATM   13  C   UNL     1     -11.511   9.327  71.047  1.00  0.00    -0.387 C  
BRANCH  13  14
HETATM   14  C   UNL     1     -12.782   9.702  71.782  1.00  0.00    -0.510 C  
BRANCH  14  15
HETATM   15  C   UNL     1     -13.134  11.167  71.571  1.00  0.00    -0.489 C  
BRANCH  15  16
HETATM   16  C   UNL     1     -12.219  11.719  70.500  1.00  0.00    -0.347 C  
BRANCH  16  17
HETATM   17  O   UNL     1     -12.317  13.137  70.449  1.00  0.00    -0.328 OA 
BRANCH  17  18
HETATM   18  P   UNL     1     -11.436  13.815  69.123  1.00  0.00    -0.324 P  
HETATM   19  O   UNL     1     -10.675  12.491  68.989  1.00  0.00    -0.195 OA 
HETATM   20  O   UNL     1     -10.955  14.995  69.963  1.00  0.00    -0.254 OA 
BRANCH  18  21
HETATM   21  O   UNL     1     -10.556  14.493  67.797  1.00  0.00    -0.247 OA 
BRANCH  21  22
HETATM   22  C   UNL     1     -11.136  15.676  67.254  1.00  0.00    -0.238 C  
BRANCH  22  23
HETATM   23  C   UNL     1     -10.202  16.390  66.302  1.00  0.00    -0.330 C  
BRANCH  23  24
HETATM   24  N   UNL     1      -9.690  17.762  66.792  1.00  0.00    -0.295 N  
HETATM   25  C   UNL     1      -9.926  17.816  68.289  1.00  0.00    -0.355 C  
HETATM   26  C   UNL     1     -10.479  18.882  66.111  1.00  0.00    -0.457 C  
HETATM   27  C   UNL     1      -8.212  17.930  66.494  1.00  0.00    -0.269 C  
ENDBRANCH  23  24
ENDBRANCH  22  23
ENDBRANCH  21  22
ENDBRANCH  18  21
ENDBRANCH  17  18
ENDBRANCH  16  17
ENDBRANCH  15  16
ENDBRANCH  14  15
ENDBRANCH  13  14
ENDBRANCH  12  13
ENDBRANCH  11  12
ENDBRANCH  10  11
ENDBRANCH   9  10
ENDBRANCH   8   9
ENDBRANCH   7   8
ENDBRANCH   6   7
ENDBRANCH   5   6
ENDBRANCH   4   5
ENDBRANCH   3   4
ENDBRANCH   2   3
TORSDOF 20
ENDMDL
MODEL      188
REMARK 921   NORMALIZED FREE ENERGY PREDICTED BY IDOCK:   -3.62 KCAL/MOL
REMARK 922        TOTAL FREE ENERGY PREDICTED BY IDOCK:   -9.78 KCAL/MOL
REMARK 923 INTER-LIGAND FREE ENERGY PREDICTED BY IDOCK:   -7.64 KCAL/MOL
REMARK 924 INTRA-LIGAND FREE ENERGY PREDICTED BY IDOCK:   -2.14 KCAL/MOL
REMARK 927      BINDING AFFINITY PREDICTED BY RF-SCORE:    0.00 PKD
ROOT
HETATM    1  C   UNL     1     -11.095  15.302  65.039  1.00  0.00    -0.436 C  
HETATM    2  C   UNL     1     -12.222  14.503  64.406  1.00  0.00    -0.480 C  
ENDROOT
BRANCH   2   3
HETATM    3  C   UNL     1     -12.502  13.226  65.194  1.00  0.00    -0.525 C  
BRANCH   3   4
HETATM    4  C   UNL     1     -11.566  12.101  64.764  1.00  0.00    -0.380 C  
BRANCH   4   5
HETATM    5  C   UNL     1     -10.831  11.520  65.967  1.00  0.00    -0.330 C  
BRANCH   5   6
HETATM    6  C   UNL     1     -11.369  12.112  67.265  1.00  0.00    -0.398 C  
BRANCH   6   7
HETATM    7  C   UNL     1     -11.681  11.008  68.266  1.00  0.00    -0.301 C  
BRANCH   7   8
HETATM    8  C   UNL     1     -11.905  11.594  69.654  1.00  0.00    -0.419 C  
BRANCH   8   9
HETATM    9  C   UNL     1     -11.704  10.522  70.714  1.00  0.00    -0.454 C  
BRANCH   9  10
HETATM   10  C   UNL     1     -13.001  10.260  71.464  1.00  0.00    -0.556 C  
BRANCH  10  11
HETATM   11  C   UNL     1     -13.081   8.794  71.859  1.00  0.00    -0.420 C  
BRANCH  11  12
HETATM   12  C   UNL     1     -11.764   8.332  72.458  1.00  0.00    -0.451 C  
BRANCH  12  13
HETATM   13  C   UNL     1     -11.395   6.960  71.912  1.00  0.00    -0.297 C  
BRANCH  13  14
HETATM   14  C   UNL     1     -12.009   6.781  70.538  1.00  0.00    -0.385 C  
BRANCH  14  15
HETATM   15  C   UNL     1     -11.042   6.097  69.582  1.00  0.00    -0.489 C  
BRANCH  15  16
HETATM   16  C   UNL     1     -10.255   5.072  70.368  1.00  0.00    -0.254 C  
BRANCH  16  17
HETATM   17  O   UNL     1      -8.921   4.994  69.881  1.00  0.00    -0.102 OA 
BRANCH  17  18
HETATM   18  P   UNL     1      -7.887   6.189  70.586  1.00  0.00    -0.109 P  
HETATM   19  O   UNL     1      -6.802   5.807  69.573  1.00  0.00    -0.057 OA 
HETATM   20  O   UNL     1      -8.014   5.571  71.976  1.00  0.00    -0.107 OA 
BRANCH  18  21
HETATM   21  O   UNL     1      -6.854   7.385  71.290  1.00  0.00    -0.050 OA 
BRANCH  21  22
HETATM   22  C   UNL     1      -7.388   8.706  71.265  1.00  0.00    -0.096 C  
BRANCH  22  23
HETATM   23  C   UNL     1      -8.405   8.893  70.160  1.00  0.00    -0.139 C  
BRANCH  23  24
HETATM   24  N   UNL     1      -7.848   9.493  68.851  1.00  0.00    -0.079 N  
HETATM   25  C   UNL     1      -8.555   8.793  67.707  1.00  0.00    -0.129 C  
HETATM   26  C   UNL     1      -6.344   9.229  68.759  1.00  0.00    -0.048 C  
HETATM   27  C   UNL     1      -8.106  10.987  68.783  1.00  0.00    -0.145 C  
ENDBRANCH  23  24
ENDBRANCH  22  23
ENDBRANCH  21  22
ENDBRANCH  18  21
ENDBRANCH  17  18
ENDBRANCH  16  17
ENDBRANCH  15  16
ENDBRANCH  14  15
ENDBRANCH  13  14
ENDBRANCH  12  13
ENDBRANCH  11  12
ENDBRANCH  10  11
ENDBRANCH   9  10
ENDBRANCH   8   9
ENDBRANCH   7   8
ENDBRANCH   6   7
ENDBRANCH   5   6
ENDBRANCH   4   5
ENDBRANCH   3   4
ENDBRANCH   2   3
TORSDOF 20
ENDMDL
MODEL      189
REMARK 921   NORMALIZED FREE ENERGY PREDICTED BY IDOCK:   -3.61 KCAL/MOL
REMARK 922        TOTAL FREE ENERGY PREDICTED BY IDOCK:   -9.75 KCAL/MOL
REMARK 923 INTER-LIGAND FREE ENERGY PREDICTED BY IDOCK:   -7.54 KCAL/MOL
REMARK 924 INTRA-LIGAND FREE ENERGY PREDICTED BY IDOCK:   -2.22 KCAL/MOL
REMARK 927      BINDING AFFINITY PREDICTED BY RF-SCORE:    0.00 PKD
ROOT
HETATM    1  C   UNL     1      -9.259   8.045  73.267  1.00  0.00    -0.347 C  
HETATM    2  C   UNL     1      -9.668   6.591  73.104  1.00  0.00    -0.171 C  
ENDROOT
BRANCH   2   3
HETATM    3  C   UNL     1     -10.331   6.354  71.750  1.00  0.00    -0.231 C  
BRANCH   3   4
HETATM    4  C   UNL     1     -11.819   6.058  71.912  1.00  0.00    -0.242 C  
BRANCH   4   5
HETATM    5  C   UNL     1     -12.657   7.057  71.122  1.00  0.00    -0.387 C  
BRANCH   5   6
HETATM    6  C   UNL     1     -13.987   7.316  71.819  1.00  0.00    -0.446 C  
BRANCH   6   7
HETATM    7  C   UNL     1     -14.184   8.808  72.055  1.00  0.00    -0.493 C  
BRANCH   7   8
HETATM    8  C   UNL     1     -12.838   9.511  72.171  1.00  0.00    -0.471 C  
BRANCH   8   9
HETATM    9  C   UNL     1     -12.868  10.827  71.409  1.00  0.00    -0.557 C  
BRANCH   9  10
HETATM   10  C   UNL     1     -12.309  10.648  70.006  1.00  0.00    -0.341 C  
BRANCH  10  11
HETATM   11  C   UNL     1     -10.845  10.244  70.082  1.00  0.00    -0.362 C  
BRANCH  11  12
HETATM   12  C   UNL     1     -10.604   8.967  69.296  1.00  0.00    -0.219 C  
BRANCH  12  13
HETATM   13  C   UNL     1      -9.112   8.676  69.217  1.00  0.00    -0.149 C  
BRANCH  13  14
HETATM   14  C   UNL     1      -8.353   9.702  70.032  1.00  0.00    -0.197 C  
BRANCH  14  15
HETATM   15  C   UNL     1      -7.365  10.477  69.171  1.00  0.00    -0.109 C  
BRANCH  15  16
HETATM   16  C   UNL     1      -8.097  10.955  67.937  1.00  0.00    -0.113 C  
BRANCH  16  17
HETATM   17  O   UNL     1      -7.576  12.206  67.506  1.00  0.00    -0.130 OA 
BRANCH  17  18
HETATM   18  P   UNL     1      -8.818  13.362  67.171  1.00  0.00    -0.182 P  
HETATM   19  O   UNL     1      -8.622  13.939  68.577  1.00  0.00    -0.172 OA 
HETATM   20  O   UNL     1      -9.830  12.271  66.828  1.00  0.00    -0.202 OA 
BRANCH  18  21
HETATM   21  O   UNL     1     -10.059  14.519  66.834  1.00  0.00    -0.251 OA 
BRANCH  21  22
HETATM   22  C   UNL     1      -9.641  15.600  66.005  1.00  0.00    -0.351 C  
BRANCH  22  23
HETATM   23  C   UNL     1     -10.426  16.866  66.271  1.00  0.00    -0.262 C  
BRANCH  23  24
HETATM   24  N   UNL     1      -9.640  17.987  66.984  1.00  0.00    -0.278 N  
HETATM   25  C   UNL     1     -10.397  18.323  68.254  1.00  0.00    -0.357 C  
HETATM   26  C   UNL     1      -9.575  19.225  66.088  1.00  0.00    -0.306 C  
HETATM   27  C   UNL     1      -8.232  17.534  67.325  1.00  0.00    -0.208 C  
ENDBRANCH  23  24
ENDBRANCH  22  23
ENDBRANCH  21  22
ENDBRANCH  18  21
ENDBRANCH  17  18
ENDBRANCH  16  17
ENDBRANCH  15  16
ENDBRANCH  14  15
ENDBRANCH  13  14
ENDBRANCH  12  13
ENDBRANCH  11  12
ENDBRANCH  10  11
ENDBRANCH   9  10
ENDBRANCH   8   9
ENDBRANCH   7   8
ENDBRANCH   6   7
ENDBRANCH   5   6
ENDBRANCH   4   5
ENDBRANCH   3   4
ENDBRANCH   2   3
TORSDOF 20
ENDMDL
MODEL      190
REMARK 921   NORMALIZED FREE ENERGY PREDICTED BY IDOCK:   -3.61 KCAL/MOL
REMARK 922        TOTAL FREE ENERGY PREDICTED BY IDOCK:   -9.75 KCAL/MOL
REMARK 923 INTER-LIGAND FREE ENERGY PREDICTED BY IDOCK:   -7.22 KCAL/MOL
REMARK 924 INTRA-LIGAND FREE ENERGY PREDICTED BY IDOCK:   -2.53 KCAL/MOL
REMARK 927      BINDING AFFINITY PREDICTED BY RF-SCORE:    0.00 PKD
ROOT
HETATM    1  C   UNL     1     -13.049   7.424  71.442  1.00  0.00    -0.401 C  
HETATM    2  C   UNL     1     -11.845   8.285  71.787  1.00  0.00    -0.357 C  
ENDROOT
BRANCH   2   3
HETATM    3  C   UNL     1     -11.049   7.681  72.942  1.00  0.00    -0.448 C  
BRANCH   3   4
HETATM    4  C   UNL     1      -9.667   8.318  73.047  1.00  0.00    -0.276 C  
BRANCH   4   5
HETATM    5  C   UNL     1      -9.127   8.668  71.665  1.00  0.00    -0.318 C  
BRANCH   5   6
HETATM    6  C   UNL     1      -7.632   8.386  71.582  1.00  0.00    -0.126 C  
BRANCH   6   7
HETATM    7  C   UNL     1      -7.369   7.134  70.757  1.00  0.00    -0.072 C  
BRANCH   7   8
HETATM    8  C   UNL     1      -7.826   5.892  71.512  1.00  0.00    -0.112 C  
BRANCH   8   9
HETATM    9  C   UNL     1      -8.615   4.978  70.587  1.00  0.00    -0.125 C  
BRANCH   9  10
HETATM   10  C   UNL     1     -10.100   5.293  70.659  1.00  0.00    -0.310 C  
BRANCH  10  11
HETATM   11  C   UNL     1     -10.679   5.372  69.256  1.00  0.00    -0.198 C  
BRANCH  11  12
HETATM   12  C   UNL     1      -9.694   6.036  68.310  1.00  0.00    -0.138 C  
BRANCH  12  13
HETATM   13  C   UNL     1      -9.964   7.533  68.241  1.00  0.00    -0.193 C  
BRANCH  13  14
HETATM   14  C   UNL     1      -8.834   8.217  67.498  1.00  0.00    -0.138 C  
BRANCH  14  15
HETATM   15  C   UNL     1      -9.180   8.427  66.030  1.00  0.00    -0.247 C  
BRANCH  15  16
HETATM   16  C   UNL     1     -10.091   9.630  65.932  1.00  0.00    -0.234 C  
BRANCH  16  17
HETATM   17  O   UNL     1     -10.142  10.103  64.592  1.00  0.00    -0.321 OA 
BRANCH  17  18
HETATM   18  P   UNL     1     -10.626  11.761  64.491  1.00  0.00    -0.363 P  
HETATM   19  O   UNL     1     -10.399  11.706  62.977  1.00  0.00    -0.337 OA 
HETATM   20  O   UNL     1      -9.564  12.198  65.498  1.00  0.00    -0.218 OA 
BRANCH  18  21
HETATM   21  O   UNL     1     -11.110  13.419  64.391  1.00  0.00    -0.363 OA 
BRANCH  21  22
HETATM   22  C   UNL     1     -10.296  14.312  65.146  1.00  0.00    -0.415 C  
BRANCH  22  23
HETATM   23  C   UNL     1     -11.110  15.182  66.079  1.00  0.00    -0.312 C  
BRANCH  23  24
HETATM   24  N   UNL     1     -10.968  14.844  67.580  1.00  0.00    -0.293 N  
HETATM   25  C   UNL     1     -11.419  16.067  68.354  1.00  0.00    -0.331 C  
HETATM   26  C   UNL     1      -9.505  14.544  67.908  1.00  0.00    -0.212 C  
HETATM   27  C   UNL     1     -11.826  13.649  67.953  1.00  0.00    -0.366 C  
ENDBRANCH  23  24
ENDBRANCH  22  23
ENDBRANCH  21  22
ENDBRANCH  18  21
ENDBRANCH  17  18
ENDBRANCH  16  17
ENDBRANCH  15  16
ENDBRANCH  14  15
ENDBRANCH  13  14
ENDBRANCH  12  13
ENDBRANCH  11  12
ENDBRANCH  10  11
ENDBRANCH   9  10
ENDBRANCH   8   9
ENDBRANCH   7   8
ENDBRANCH   6   7
ENDBRANCH   5   6
ENDBRANCH   4   5
ENDBRANCH   3   4
ENDBRANCH   2   3
TORSDOF 20
ENDMDL
MODEL      191
REMARK 921   NORMALIZED FREE ENERGY PREDICTED BY IDOCK:   -3.61 KCAL/MOL
REMARK 922        TOTAL FREE ENERGY PREDICTED BY IDOCK:   -9.75 KCAL/MOL
REMARK 923 INTER-LIGAND FREE ENERGY PREDICTED BY IDOCK:   -8.61 KCAL/MOL
REMARK 924 INTRA-LIGAND FREE ENERGY PREDICTED BY IDOCK:   -1.14 KCAL/MOL
REMARK 927      BINDING AFFINITY PREDICTED BY RF-SCORE:    0.00 PKD
ROOT
HETATM    1  C   UNL     1     -12.460  12.069  63.458  1.00  0.00    -0.654 C  
HETATM    2  C   UNL     1     -10.991  12.437  63.574  1.00  0.00    -0.506 C  
ENDROOT
BRANCH   2   3
HETATM    3  C   UNL     1     -10.780  13.549  64.598  1.00  0.00    -0.429 C  
BRANCH   3   4
HETATM    4  C   UNL     1     -12.052  13.803  65.401  1.00  0.00    -0.427 C  
BRANCH   4   5
HETATM    5  C   UNL     1     -11.971  13.129  66.767  1.00  0.00    -0.434 C  
BRANCH   5   6
HETATM    6  C   UNL     1     -10.867  13.753  67.612  1.00  0.00    -0.264 C  
BRANCH   6   7
HETATM    7  C   UNL     1     -11.252  13.744  69.085  1.00  0.00    -0.307 C  
BRANCH   7   8
HETATM    8  C   UNL     1     -10.976  15.102  69.717  1.00  0.00    -0.293 C  
BRANCH   8   9
HETATM    9  C   UNL     1     -11.760  15.246  71.012  1.00  0.00    -0.394 C  
BRANCH   9  10
HETATM   10  C   UNL     1     -13.255  15.187  70.744  1.00  0.00    -0.433 C  
BRANCH  10  11
HETATM   11  C   UNL     1     -13.989  14.757  72.005  1.00  0.00    -0.582 C  
BRANCH  11  12
HETATM   12  C   UNL     1     -13.289  13.573  72.650  1.00  0.00    -0.546 C  
BRANCH  12  13
HETATM   13  C   UNL     1     -13.908  12.271  72.161  1.00  0.00    -0.034 C  
BRANCH  13  14
HETATM   14  C   UNL     1     -12.814  11.345  71.669  1.00  0.00    -0.497 C  
BRANCH  14  15
HETATM   15  C   UNL     1     -13.385  10.021  71.180  1.00  0.00    -0.379 C  
BRANCH  15  16
HETATM   16  C   UNL     1     -13.234   9.008  72.292  1.00  0.00    -0.460 C  
BRANCH  16  17
HETATM   17  O   UNL     1     -11.884   8.569  72.380  1.00  0.00    -0.380 OA 
BRANCH  17  18
HETATM   18  P   UNL     1     -10.971   8.939  70.958  1.00  0.00    -0.331 P  
HETATM   19  O   UNL     1     -11.138   7.484  70.507  1.00  0.00    -0.253 OA 
HETATM   20  O   UNL     1      -9.785   9.449  71.774  1.00  0.00    -0.226 OA 
BRANCH  18  21
HETATM   21  O   UNL     1     -10.059   9.310  69.535  1.00  0.00    -0.183 OA 
BRANCH  21  22
HETATM   22  C   UNL     1      -8.736   9.771  69.793  1.00  0.00    -0.212 C  
BRANCH  22  23
HETATM   23  C   UNL     1      -8.047  10.270  68.542  1.00  0.00    -0.109 C  
BRANCH  23  24
HETATM   24  N   UNL     1      -6.584  10.724  68.735  1.00  0.00    -0.052 N  
HETATM   25  C   UNL     1      -6.324  11.825  67.725  1.00  0.00    -0.067 C  
HETATM   26  C   UNL     1      -5.638   9.552  68.467  1.00  0.00    -0.040 C  
HETATM   27  C   UNL     1      -6.357  11.246  70.142  1.00  0.00    -0.120 C  
ENDBRANCH  23  24
ENDBRANCH  22  23
ENDBRANCH  21  22
ENDBRANCH  18  21
ENDBRANCH  17  18
ENDBRANCH  16  17
ENDBRANCH  15  16
ENDBRANCH  14  15
ENDBRANCH  13  14
ENDBRANCH  12  13
ENDBRANCH  11  12
ENDBRANCH  10  11
ENDBRANCH   9  10
ENDBRANCH   8   9
ENDBRANCH   7   8
ENDBRANCH   6   7
ENDBRANCH   5   6
ENDBRANCH   4   5
ENDBRANCH   3   4
ENDBRANCH   2   3
TORSDOF 20
ENDMDL
MODEL      192
REMARK 921   NORMALIZED FREE ENERGY PREDICTED BY IDOCK:   -3.58 KCAL/MOL
REMARK 922        TOTAL FREE ENERGY PREDICTED BY IDOCK:   -9.69 KCAL/MOL
REMARK 923 INTER-LIGAND FREE ENERGY PREDICTED BY IDOCK:   -7.29 KCAL/MOL
REMARK 924 INTRA-LIGAND FREE ENERGY PREDICTED BY IDOCK:   -2.41 KCAL/MOL
REMARK 927      BINDING AFFINITY PREDICTED BY RF-SCORE:    0.00 PKD
ROOT
HETATM    1  C   UNL     1     -10.922   6.307  67.205  1.00  0.00    -0.453 C  
HETATM    2  C   UNL     1     -10.492   5.843  68.585  1.00  0.00    -0.302 C  
ENDROOT
BRANCH   2   3
HETATM    3  C   UNL     1      -8.974   5.895  68.736  1.00  0.00    -0.117 C  
BRANCH   3   4
HETATM    4  C   UNL     1      -8.451   4.655  69.454  1.00  0.00    -0.094 C  
BRANCH   4   5
HETATM    5  C   UNL     1      -9.193   3.408  68.988  1.00  0.00    -0.226 C  
BRANCH   5   6
HETATM    6  C   UNL     1      -9.651   2.575  70.179  1.00  0.00    -0.085 C  
BRANCH   6   7
HETATM    7  C   UNL     1      -9.050   3.115  71.470  1.00  0.00    -0.168 C  
BRANCH   7   8
HETATM    8  C   UNL     1     -10.141   3.355  72.506  1.00  0.00    -0.232 C  
BRANCH   8   9
HETATM    9  C   UNL     1     -10.886   4.644  72.193  1.00  0.00    -0.037 C  
BRANCH   9  10
HETATM   10  C   UNL     1     -10.320   5.801  73.000  1.00  0.00    -0.229 C  
BRANCH  10  11
HETATM   11  C   UNL     1      -9.753   6.855  72.062  1.00  0.00    -0.160 C  
BRANCH  11  12
HETATM   12  C   UNL     1     -10.868   7.712  71.488  1.00  0.00    -0.256 C  
BRANCH  12  13
HETATM   13  C   UNL     1     -10.510   9.186  71.613  1.00  0.00    -0.403 C  
BRANCH  13  14
HETATM   14  C   UNL     1      -9.686   9.611  70.415  1.00  0.00    -0.304 C  
BRANCH  14  15
HETATM   15  C   UNL     1     -10.498   9.546  69.130  1.00  0.00    -0.224 C  
BRANCH  15  16
HETATM   16  C   UNL     1      -9.791  10.382  68.087  1.00  0.00    -0.151 C  
BRANCH  16  17
HETATM   17  O   UNL     1     -10.720  10.857  67.120  1.00  0.00    -0.240 OA 
BRANCH  17  18
HETATM   18  P   UNL     1     -11.526  12.301  67.628  1.00  0.00    -0.345 P  
HETATM   19  O   UNL     1     -12.258  12.332  66.282  1.00  0.00    -0.628 OA 
HETATM   20  O   UNL     1     -10.206  13.019  67.898  1.00  0.00    -0.222 OA 
BRANCH  18  21
HETATM   21  O   UNL     1     -12.332  13.745  68.136  1.00  0.00    -0.245 OA 
BRANCH  21  22
HETATM   22  C   UNL     1     -11.760  14.359  69.288  1.00  0.00    -0.317 C  
BRANCH  22  23
HETATM   23  C   UNL     1     -12.317  13.795  70.577  1.00  0.00    -0.359 C  
BRANCH  23  24
HETATM   24  N   UNL     1     -12.665  14.844  71.655  1.00  0.00    -0.310 N  
HETATM   25  C   UNL     1     -14.079  15.315  71.377  1.00  0.00    -0.495 C  
HETATM   26  C   UNL     1     -11.704  16.029  71.554  1.00  0.00    -0.484 C  
HETATM   27  C   UNL     1     -12.583  14.242  73.046  1.00  0.00    -0.200 C  
ENDBRANCH  23  24
ENDBRANCH  22  23
ENDBRANCH  21  22
ENDBRANCH  18  21
ENDBRANCH  17  18
ENDBRANCH  16  17
ENDBRANCH  15  16
ENDBRANCH  14  15
ENDBRANCH  13  14
ENDBRANCH  12  13
ENDBRANCH  11  12
ENDBRANCH  10  11
ENDBRANCH   9  10
ENDBRANCH   8   9
ENDBRANCH   7   8
ENDBRANCH   6   7
ENDBRANCH   5   6
ENDBRANCH   4   5
ENDBRANCH   3   4
ENDBRANCH   2   3
TORSDOF 20
ENDMDL
MODEL      193
REMARK 921   NORMALIZED FREE ENERGY PREDICTED BY IDOCK:   -3.58 KCAL/MOL
REMARK 922        TOTAL FREE ENERGY PREDICTED BY IDOCK:   -9.69 KCAL/MOL
REMARK 923 INTER-LIGAND FREE ENERGY PREDICTED BY IDOCK:   -6.86 KCAL/MOL
REMARK 924 INTRA-LIGAND FREE ENERGY PREDICTED BY IDOCK:   -2.83 KCAL/MOL
REMARK 927      BINDING AFFINITY PREDICTED BY RF-SCORE:    0.00 PKD
ROOT
HETATM    1  C   UNL     1      -8.531  17.215  66.322  1.00  0.00    -0.279 C  
HETATM    2  C   UNL     1      -9.846  16.456  66.379  1.00  0.00    -0.312 C  
ENDROOT
BRANCH   2   3
HETATM    3  C   UNL     1     -10.775  16.876  65.242  1.00  0.00    -0.147 C  
BRANCH   3   4
HETATM    4  C   UNL     1     -11.291  15.661  64.478  1.00  0.00    -0.327 C  
BRANCH   4   5
HETATM    5  C   UNL     1     -10.586  14.391  64.943  1.00  0.00    -0.456 C  
BRANCH   5   6
HETATM    6  C   UNL     1     -11.230  13.158  64.321  1.00  0.00    -0.422 C  
BRANCH   6   7
HETATM    7  C   UNL     1     -11.845  12.275  65.398  1.00  0.00    -0.418 C  
BRANCH   7   8
HETATM    8  C   UNL     1     -11.940  13.032  66.717  1.00  0.00    -0.434 C  
BRANCH   8   9
HETATM    9  C   UNL     1     -11.729  12.079  67.884  1.00  0.00    -0.393 C  
BRANCH   9  10
HETATM   10  C   UNL     1     -10.251  11.958  68.217  1.00  0.00    -0.207 C  
BRANCH  10  11
HETATM   11  C   UNL     1      -9.629  13.342  68.316  1.00  0.00    -0.221 C  
BRANCH  11  12
HETATM   12  C   UNL     1      -8.293  13.378  67.593  1.00  0.00    -0.179 C  
BRANCH  12  13
HETATM   13  C   UNL     1      -8.038  12.046  66.901  1.00  0.00    -0.127 C  
BRANCH  13  14
HETATM   14  C   UNL     1      -6.581  11.664  67.061  1.00  0.00    -0.144 C  
BRANCH  14  15
HETATM   15  C   UNL     1      -6.052  12.048  68.435  1.00  0.00    -0.050 C  
BRANCH  15  16
HETATM   16  C   UNL     1      -5.957  10.790  69.268  1.00  0.00    -0.043 C  
BRANCH  16  17
HETATM   17  O   UNL     1      -7.004  10.753  70.230  1.00  0.00    -0.233 OA 
BRANCH  17  18
HETATM   18  P   UNL     1      -7.996   9.344  70.078  1.00  0.00    -0.171 P  
HETATM   19  O   UNL     1      -8.042   9.245  71.606  1.00  0.00    -0.317 OA 
HETATM   20  O   UNL     1      -6.964   8.633  69.206  1.00  0.00    -0.056 OA 
BRANCH  18  21
HETATM   21  O   UNL     1      -8.990   7.936  69.924  1.00  0.00    -0.144 OA 
BRANCH  21  22
HETATM   22  C   UNL     1     -10.353   8.214  69.617  1.00  0.00    -0.221 C  
BRANCH  22  23
HETATM   23  C   UNL     1     -11.305   7.287  70.340  1.00  0.00    -0.271 C  
BRANCH  23  24
HETATM   24  N   UNL     1     -11.989   7.892  71.586  1.00  0.00    -0.282 N  
HETATM   25  C   UNL     1     -11.767   9.390  71.531  1.00  0.00    -0.394 C  
HETATM   26  C   UNL     1     -11.348   7.328  72.855  1.00  0.00    -0.246 C  
HETATM   27  C   UNL     1     -13.477   7.588  71.592  1.00  0.00    -0.365 C  
ENDBRANCH  23  24
ENDBRANCH  22  23
ENDBRANCH  21  22
ENDBRANCH  18  21
ENDBRANCH  17  18
ENDBRANCH  16  17
ENDBRANCH  15  16
ENDBRANCH  14  15
ENDBRANCH  13  14
ENDBRANCH  12  13
ENDBRANCH  11  12
ENDBRANCH  10  11
ENDBRANCH   9  10
ENDBRANCH   8   9
ENDBRANCH   7   8
ENDBRANCH   6   7
ENDBRANCH   5   6
ENDBRANCH   4   5
ENDBRANCH   3   4
ENDBRANCH   2   3
TORSDOF 20
ENDMDL
MODEL      194
REMARK 921   NORMALIZED FREE ENERGY PREDICTED BY IDOCK:   -3.58 KCAL/MOL
REMARK 922        TOTAL FREE ENERGY PREDICTED BY IDOCK:   -9.68 KCAL/MOL
REMARK 923 INTER-LIGAND FREE ENERGY PREDICTED BY IDOCK:   -7.48 KCAL/MOL
REMARK 924 INTRA-LIGAND FREE ENERGY PREDICTED BY IDOCK:   -2.20 KCAL/MOL
REMARK 927      BINDING AFFINITY PREDICTED BY RF-SCORE:    0.00 PKD
ROOT
HETATM    1  C   UNL     1      -6.288   9.611  64.843  1.00  0.00    -0.090 C  
HETATM    2  C   UNL     1      -7.679  10.168  64.591  1.00  0.00    -0.141 C  
ENDROOT
BRANCH   2   3
HETATM    3  C   UNL     1      -8.749   9.104  64.820  1.00  0.00    -0.208 C  
BRANCH   3   4
HETATM    4  C   UNL     1      -8.540   8.394  66.153  1.00  0.00    -0.157 C  
BRANCH   4   5
HETATM    5  C   UNL     1      -9.244   9.143  67.280  1.00  0.00    -0.157 C  
BRANCH   5   6
HETATM    6  C   UNL     1     -10.620   8.544  67.548  1.00  0.00    -0.284 C  
BRANCH   6   7
HETATM    7  C   UNL     1     -10.670   7.094  67.087  1.00  0.00    -0.422 C  
BRANCH   7   8
HETATM    8  C   UNL     1     -11.124   6.189  68.224  1.00  0.00    -0.336 C  
BRANCH   8   9
HETATM    9  C   UNL     1      -9.930   5.772  69.070  1.00  0.00    -0.222 C  
BRANCH   9  10
HETATM   10  C   UNL     1     -10.390   5.135  70.371  1.00  0.00    -0.326 C  
BRANCH  10  11
HETATM   11  C   UNL     1     -10.928   6.205  71.308  1.00  0.00    -0.340 C  
BRANCH  11  12
HETATM   12  C   UNL     1      -9.822   7.164  71.711  1.00  0.00    -0.171 C  
BRANCH  12  13
HETATM   13  C   UNL     1     -10.413   8.517  72.082  1.00  0.00    -0.412 C  
BRANCH  13  14
HETATM   14  C   UNL     1     -11.456   8.911  71.056  1.00  0.00    -0.351 C  
BRANCH  14  15
HETATM   15  C   UNL     1     -11.954  10.331  71.287  1.00  0.00    -0.457 C  
BRANCH  15  16
HETATM   16  C   UNL     1     -12.435  10.879  69.962  1.00  0.00    -0.263 C  
BRANCH  16  17
HETATM   17  O   UNL     1     -11.336  11.363  69.200  1.00  0.00    -0.238 OA 
BRANCH  17  18
HETATM   18  P   UNL     1     -11.644  12.917  68.504  1.00  0.00    -0.352 P  
HETATM   19  O   UNL     1     -10.257  12.869  67.854  1.00  0.00    -0.221 OA 
HETATM   20  O   UNL     1     -11.927  13.542  69.868  1.00  0.00    -0.316 OA 
BRANCH  18  21
HETATM   21  O   UNL     1     -11.953  14.470  67.808  1.00  0.00    -0.363 OA 
BRANCH  21  22
HETATM   22  C   UNL     1     -11.630  15.567  68.660  1.00  0.00    -0.368 C  
BRANCH  22  23
HETATM   23  C   UNL     1     -10.933  16.685  67.916  1.00  0.00    -0.276 C  
BRANCH  23  24
HETATM   24  N   UNL     1      -9.391  16.657  67.985  1.00  0.00    -0.224 N  
HETATM   25  C   UNL     1      -8.901  16.002  66.709  1.00  0.00    -0.256 C  
HETATM   26  C   UNL     1      -8.941  15.826  69.189  1.00  0.00    -0.256 C  
HETATM   27  C   UNL     1      -8.825  18.060  68.098  1.00  0.00    -0.273 C  
ENDBRANCH  23  24
ENDBRANCH  22  23
ENDBRANCH  21  22
ENDBRANCH  18  21
ENDBRANCH  17  18
ENDBRANCH  16  17
ENDBRANCH  15  16
ENDBRANCH  14  15
ENDBRANCH  13  14
ENDBRANCH  12  13
ENDBRANCH  11  12
ENDBRANCH  10  11
ENDBRANCH   9  10
ENDBRANCH   8   9
ENDBRANCH   7   8
ENDBRANCH   6   7
ENDBRANCH   5   6
ENDBRANCH   4   5
ENDBRANCH   3   4
ENDBRANCH   2   3
TORSDOF 20
ENDMDL
MODEL      195
REMARK 921   NORMALIZED FREE ENERGY PREDICTED BY IDOCK:   -3.57 KCAL/MOL
REMARK 922        TOTAL FREE ENERGY PREDICTED BY IDOCK:   -9.67 KCAL/MOL
REMARK 923 INTER-LIGAND FREE ENERGY PREDICTED BY IDOCK:   -8.10 KCAL/MOL
REMARK 924 INTRA-LIGAND FREE ENERGY PREDICTED BY IDOCK:   -1.56 KCAL/MOL
REMARK 927      BINDING AFFINITY PREDICTED BY RF-SCORE:    0.00 PKD
ROOT
HETATM    1  C   UNL     1      -9.239   2.730  67.748  1.00  0.00    -0.246 C  
HETATM    2  C   UNL     1      -9.383   1.817  68.953  1.00  0.00    -0.209 C  
ENDROOT
BRANCH   2   3
HETATM    3  C   UNL     1      -9.348   2.613  70.256  1.00  0.00    -0.201 C  
BRANCH   3   4
HETATM    4  C   UNL     1      -9.727   4.071  70.017  1.00  0.00    -0.264 C  
BRANCH   4   5
HETATM    5  C   UNL     1      -9.043   4.980  71.033  1.00  0.00    -0.178 C  
BRANCH   5   6
HETATM    6  C   UNL     1      -9.326   4.509  72.454  1.00  0.00    -0.159 C  
BRANCH   6   7
HETATM    7  C   UNL     1     -10.673   5.036  72.933  1.00  0.00    -0.299 C  
BRANCH   7   8
HETATM    8  C   UNL     1     -10.478   6.224  73.866  1.00  0.00    -0.292 C  
BRANCH   8   9
HETATM    9  C   UNL     1     -10.910   7.509  73.176  1.00  0.00    -0.448 C  
BRANCH   9  10
HETATM   10  C   UNL     1     -11.976   7.224  72.130  1.00  0.00    -0.307 C  
BRANCH  10  11
HETATM   11  C   UNL     1     -11.775   8.133  70.928  1.00  0.00    -0.259 C  
BRANCH  11  12
HETATM   12  C   UNL     1     -11.252   9.490  71.368  1.00  0.00    -0.452 C  
BRANCH  12  13
HETATM   13  C   UNL     1     -12.252  10.578  71.002  1.00  0.00    -0.505 C  
BRANCH  13  14
HETATM   14  C   UNL     1     -12.154  10.878  69.520  1.00  0.00    -0.380 C  
BRANCH  14  15
HETATM   15  C   UNL     1     -10.705  11.002  69.072  1.00  0.00    -0.258 C  
BRANCH  15  16
HETATM   16  C   UNL     1     -10.691  11.671  67.716  1.00  0.00    -0.204 C  
BRANCH  16  17
HETATM   17  O   UNL     1     -11.832  12.508  67.566  1.00  0.00    -0.374 OA 
BRANCH  17  18
HETATM   18  P   UNL     1     -11.409  14.159  67.270  1.00  0.00    -0.368 P  
HETATM   19  O   UNL     1      -9.943  13.732  67.144  1.00  0.00    -0.236 OA 
HETATM   20  O   UNL     1     -12.054  14.625  68.573  1.00  0.00    -0.284 OA 
BRANCH  18  21
HETATM   21  O   UNL     1     -10.987  15.810  66.972  1.00  0.00    -0.304 OA 
BRANCH  21  22
HETATM   22  C   UNL     1     -10.815  16.591  68.152  1.00  0.00    -0.345 C  
BRANCH  22  23
HETATM   23  C   UNL     1      -9.416  17.154  68.270  1.00  0.00    -0.276 C  
BRANCH  23  24
HETATM   24  N   UNL     1      -9.272  18.639  67.871  1.00  0.00    -0.288 N  
HETATM   25  C   UNL     1      -8.834  18.669  66.420  1.00  0.00    -0.275 C  
HETATM   26  C   UNL     1      -8.205  19.308  68.740  1.00  0.00    -0.355 C  
HETATM   27  C   UNL     1     -10.589  19.377  68.030  1.00  0.00    -0.338 C  
ENDBRANCH  23  24
ENDBRANCH  22  23
ENDBRANCH  21  22
ENDBRANCH  18  21
ENDBRANCH  17  18
ENDBRANCH  16  17
ENDBRANCH  15  16
ENDBRANCH  14  15
ENDBRANCH  13  14
ENDBRANCH  12  13
ENDBRANCH  11  12
ENDBRANCH  10  11
ENDBRANCH   9  10
ENDBRANCH   8   9
ENDBRANCH   7   8
ENDBRANCH   6   7
ENDBRANCH   5   6
ENDBRANCH   4   5
ENDBRANCH   3   4
ENDBRANCH   2   3
TORSDOF 20
ENDMDL
MODEL      196
REMARK 921   NORMALIZED FREE ENERGY PREDICTED BY IDOCK:   -3.56 KCAL/MOL
REMARK 922        TOTAL FREE ENERGY PREDICTED BY IDOCK:   -9.64 KCAL/MOL
REMARK 923 INTER-LIGAND FREE ENERGY PREDICTED BY IDOCK:   -7.31 KCAL/MOL
REMARK 924 INTRA-LIGAND FREE ENERGY PREDICTED BY IDOCK:   -2.33 KCAL/MOL
REMARK 927      BINDING AFFINITY PREDICTED BY RF-SCORE:    0.00 PKD
ROOT
HETATM    1  C   UNL     1     -11.106   6.283  68.897  1.00  0.00    -0.434 C  
HETATM    2  C   UNL     1     -11.234   6.099  70.400  1.00  0.00    -0.423 C  
ENDROOT
BRANCH   2   3
HETATM    3  C   UNL     1     -11.939   7.290  71.043  1.00  0.00    -0.362 C  
BRANCH   3   4
HETATM    4  C   UNL     1     -11.359   7.592  72.421  1.00  0.00    -0.381 C  
BRANCH   4   5
HETATM    5  C   UNL     1     -10.146   8.508  72.308  1.00  0.00    -0.386 C  
BRANCH   5   6
HETATM    6  C   UNL     1      -8.921   7.863  72.946  1.00  0.00    -0.273 C  
BRANCH   6   7
HETATM    7  C   UNL     1      -8.065   7.181  71.887  1.00  0.00    -0.097 C  
BRANCH   7   8
HETATM    8  C   UNL     1      -6.764   7.946  71.680  1.00  0.00    -0.052 C  
BRANCH   8   9
HETATM    9  C   UNL     1      -6.638   8.380  70.228  1.00  0.00    -0.035 C  
BRANCH   9  10
HETATM   10  C   UNL     1      -7.697   7.705  69.372  1.00  0.00    -0.107 C  
BRANCH  10  11
HETATM   11  C   UNL     1      -7.895   8.488  68.083  1.00  0.00    -0.103 C  
BRANCH  11  12
HETATM   12  C   UNL     1      -8.296   9.920  68.387  1.00  0.00    -0.107 C  
BRANCH  12  13
HETATM   13  C   UNL     1      -9.682   9.952  69.017  1.00  0.00    -0.195 C  
BRANCH  13  14
HETATM   14  C   UNL     1     -10.728   9.683  67.954  1.00  0.00    -0.302 C  
BRANCH  14  15
HETATM   15  C   UNL     1     -11.024  10.932  67.137  1.00  0.00    -0.334 C  
BRANCH  15  16
HETATM   16  C   UNL     1     -11.500  12.009  68.086  1.00  0.00    -0.322 C  
BRANCH  16  17
HETATM   17  O   UNL     1     -11.833  13.190  67.366  1.00  0.00    -0.355 OA 
BRANCH  17  18
HETATM   18  P   UNL     1     -10.677  14.457  67.597  1.00  0.00    -0.271 P  
HETATM   19  O   UNL     1      -9.999  13.603  68.674  1.00  0.00    -0.224 OA 
HETATM   20  O   UNL     1     -11.767  15.486  67.885  1.00  0.00    -0.293 OA 
BRANCH  18  21
HETATM   21  O   UNL     1      -9.521  15.723  67.826  1.00  0.00    -0.210 OA 
BRANCH  21  22
HETATM   22  C   UNL     1      -9.776  16.894  67.056  1.00  0.00    -0.253 C  
BRANCH  22  23
HETATM   23  C   UNL     1      -8.734  17.968  67.281  1.00  0.00    -0.243 C  
BRANCH  23  24
HETATM   24  N   UNL     1      -9.261  19.418  67.208  1.00  0.00    -0.307 N  
HETATM   25  C   UNL     1      -8.050  20.326  67.126  1.00  0.00    -0.335 C  
HETATM   26  C   UNL     1     -10.058  19.744  68.473  1.00  0.00    -0.445 C  
HETATM   27  C   UNL     1     -10.143  19.617  65.989  1.00  0.00    -0.461 C  
ENDBRANCH  23  24
ENDBRANCH  22  23
ENDBRANCH  21  22
ENDBRANCH  18  21
ENDBRANCH  17  18
ENDBRANCH  16  17
ENDBRANCH  15  16
ENDBRANCH  14  15
ENDBRANCH  13  14
ENDBRANCH  12  13
ENDBRANCH  11  12
ENDBRANCH  10  11
ENDBRANCH   9  10
ENDBRANCH   8   9
ENDBRANCH   7   8
ENDBRANCH   6   7
ENDBRANCH   5   6
ENDBRANCH   4   5
ENDBRANCH   3   4
ENDBRANCH   2   3
TORSDOF 20
ENDMDL
MODEL      197
REMARK 921   NORMALIZED FREE ENERGY PREDICTED BY IDOCK:   -3.55 KCAL/MOL
REMARK 922        TOTAL FREE ENERGY PREDICTED BY IDOCK:   -9.62 KCAL/MOL
REMARK 923 INTER-LIGAND FREE ENERGY PREDICTED BY IDOCK:   -7.18 KCAL/MOL
REMARK 924 INTRA-LIGAND FREE ENERGY PREDICTED BY IDOCK:   -2.44 KCAL/MOL
REMARK 927      BINDING AFFINITY PREDICTED BY RF-SCORE:    0.00 PKD
ROOT
HETATM    1  C   UNL     1     -12.272  13.969  70.462  1.00  0.00    -0.435 C  
HETATM    2  C   UNL     1     -11.878  13.109  69.274  1.00  0.00    -0.377 C  
ENDROOT
BRANCH   2   3
HETATM    3  C   UNL     1     -11.905  13.914  67.977  1.00  0.00    -0.411 C  
BRANCH   3   4
HETATM    4  C   UNL     1     -12.127  13.006  66.772  1.00  0.00    -0.366 C  
BRANCH   4   5
HETATM    5  C   UNL     1     -12.490  13.826  65.539  1.00  0.00    -0.548 C  
BRANCH   5   6
HETATM    6  C   UNL     1     -12.268  13.014  64.268  1.00  0.00    -0.464 C  
BRANCH   6   7
HETATM    7  C   UNL     1     -10.789  12.704  64.084  1.00  0.00    -0.431 C  
BRANCH   7   8
HETATM    8  C   UNL     1     -10.587  11.223  63.791  1.00  0.00    -0.455 C  
BRANCH   8   9
HETATM    9  C   UNL     1     -10.187  10.488  65.062  1.00  0.00    -0.365 C  
BRANCH   9  10
HETATM   10  C   UNL     1      -8.759  10.832  65.453  1.00  0.00    -0.190 C  
BRANCH  10  11
HETATM   11  C   UNL     1      -8.740  11.456  66.840  1.00  0.00    -0.165 C  
BRANCH  11  12
HETATM   12  C   UNL     1      -9.449  10.558  67.838  1.00  0.00    -0.157 C  
BRANCH  12  13
HETATM   13  C   UNL     1      -8.559  10.318  69.049  1.00  0.00    -0.162 C  
BRANCH  13  14
HETATM   14  C   UNL     1      -9.404   9.836  70.211  1.00  0.00    -0.236 C  
BRANCH  14  15
HETATM   15  C   UNL     1     -10.833   9.545  69.776  1.00  0.00    -0.264 C  
BRANCH  15  16
HETATM   16  C   UNL     1     -11.264   8.248  70.423  1.00  0.00    -0.219 C  
BRANCH  16  17
HETATM   17  O   UNL     1     -10.133   7.547  70.927  1.00  0.00    -0.192 OA 
BRANCH  17  18
HETATM   18  P   UNL     1      -9.996   5.951  70.275  1.00  0.00    -0.218 P  
HETATM   19  O   UNL     1      -8.555   6.273  69.864  1.00  0.00    -0.131 OA 
HETATM   20  O   UNL     1     -11.208   6.149  69.367  1.00  0.00    -0.391 OA 
BRANCH  18  21
HETATM   21  O   UNL     1      -9.860   4.354  69.624  1.00  0.00    -0.210 OA 
BRANCH  21  22
HETATM   22  C   UNL     1      -8.819   4.202  68.663  1.00  0.00    -0.104 C  
BRANCH  22  23
HETATM   23  C   UNL     1      -9.354   3.901  67.280  1.00  0.00    -0.191 C  
BRANCH  23  24
HETATM   24  N   UNL     1      -8.701   4.706  66.135  1.00  0.00    -0.114 N  
HETATM   25  C   UNL     1      -8.920   6.174  66.443  1.00  0.00    -0.150 C  
HETATM   26  C   UNL     1      -9.374   4.358  64.806  1.00  0.00    -0.160 C  
HETATM   27  C   UNL     1      -7.214   4.413  66.041  1.00  0.00    -0.076 C  
ENDBRANCH  23  24
ENDBRANCH  22  23
ENDBRANCH  21  22
ENDBRANCH  18  21
ENDBRANCH  17  18
ENDBRANCH  16  17
ENDBRANCH  15  16
ENDBRANCH  14  15
ENDBRANCH  13  14
ENDBRANCH  12  13
ENDBRANCH  11  12
ENDBRANCH  10  11
ENDBRANCH   9  10
ENDBRANCH   8   9
ENDBRANCH   7   8
ENDBRANCH   6   7
ENDBRANCH   5   6
ENDBRANCH   4   5
ENDBRANCH   3   4
ENDBRANCH   2   3
TORSDOF 20
ENDMDL
MODEL      198
REMARK 921   NORMALIZED FREE ENERGY PREDICTED BY IDOCK:   -3.53 KCAL/MOL
REMARK 922        TOTAL FREE ENERGY PREDICTED BY IDOCK:   -9.59 KCAL/MOL
REMARK 923 INTER-LIGAND FREE ENERGY PREDICTED BY IDOCK:   -7.35 KCAL/MOL
REMARK 924 INTRA-LIGAND FREE ENERGY PREDICTED BY IDOCK:   -2.24 KCAL/MOL
REMARK 927      BINDING AFFINITY PREDICTED BY RF-SCORE:    0.00 PKD
ROOT
HETATM    1  C   UNL     1     -10.323  10.822  68.810  1.00  0.00    -0.209 C  
HETATM    2  C   UNL     1     -10.684   9.351  68.702  1.00  0.00    -0.196 C  
ENDROOT
BRANCH   2   3
HETATM    3  C   UNL     1     -10.175   8.569  69.911  1.00  0.00    -0.204 C  
BRANCH   3   4
HETATM    4  C   UNL     1      -8.984   9.270  70.556  1.00  0.00    -0.296 C  
BRANCH   4   5
HETATM    5  C   UNL     1      -7.711   8.452  70.371  1.00  0.00    -0.078 C  
BRANCH   5   6
HETATM    6  C   UNL     1      -6.960   8.896  69.122  1.00  0.00    -0.059 C  
BRANCH   6   7
HETATM    7  C   UNL     1      -6.682   7.706  68.214  1.00  0.00    -0.062 C  
BRANCH   7   8
HETATM    8  C   UNL     1      -6.600   8.152  66.760  1.00  0.00    -0.057 C  
BRANCH   8   9
HETATM    9  C   UNL     1      -7.533   9.329  66.520  1.00  0.00    -0.093 C  
BRANCH   9  10
HETATM   10  C   UNL     1      -7.198  10.021  65.208  1.00  0.00    -0.137 C  
BRANCH  10  11
HETATM   11  C   UNL     1      -8.478  10.458  64.514  1.00  0.00    -0.172 C  
BRANCH  11  12
HETATM   12  C   UNL     1      -9.694   9.969  65.282  1.00  0.00    -0.373 C  
BRANCH  12  13
HETATM   13  C   UNL     1     -10.825  10.981  65.167  1.00  0.00    -0.183 C  
BRANCH  13  14
HETATM   14  C   UNL     1     -10.720  11.710  63.843  1.00  0.00    -0.459 C  
BRANCH  14  15
HETATM   15  C   UNL     1     -12.020  12.421  63.495  1.00  0.00    -0.627 C  
BRANCH  15  16
HETATM   16  C   UNL     1     -12.100  13.682  64.327  1.00  0.00    -0.434 C  
BRANCH  16  17
HETATM   17  O   UNL     1     -10.797  14.201  64.565  1.00  0.00    -0.394 OA 
BRANCH  17  18
HETATM   18  P   UNL     1     -10.619  14.839  66.163  1.00  0.00    -0.340 P  
HETATM   19  O   UNL     1      -9.497  13.825  66.412  1.00  0.00    -0.278 OA 
HETATM   20  O   UNL     1     -12.087  14.587  66.496  1.00  0.00    -0.396 OA 
BRANCH  18  21
HETATM   21  O   UNL     1     -10.440  15.479  67.760  1.00  0.00    -0.261 OA 
BRANCH  21  22
HETATM   22  C   UNL     1      -9.668  16.675  67.827  1.00  0.00    -0.240 C  
BRANCH  22  23
HETATM   23  C   UNL     1     -10.021  17.649  66.725  1.00  0.00    -0.320 C  
BRANCH  23  24
HETATM   24  N   UNL     1      -9.667  19.124  67.014  1.00  0.00    -0.314 N  
HETATM   25  C   UNL     1      -8.165  19.258  66.862  1.00  0.00    -0.277 C  
HETATM   26  C   UNL     1     -10.068  19.481  68.447  1.00  0.00    -0.445 C  
HETATM   27  C   UNL     1     -10.372  20.054  66.044  1.00  0.00    -0.448 C  
ENDBRANCH  23  24
ENDBRANCH  22  23
ENDBRANCH  21  22
ENDBRANCH  18  21
ENDBRANCH  17  18
ENDBRANCH  16  17
ENDBRANCH  15  16
ENDBRANCH  14  15
ENDBRANCH  13  14
ENDBRANCH  12  13
ENDBRANCH  11  12
ENDBRANCH  10  11
ENDBRANCH   9  10
ENDBRANCH   8   9
ENDBRANCH   7   8
ENDBRANCH   6   7
ENDBRANCH   5   6
ENDBRANCH   4   5
ENDBRANCH   3   4
ENDBRANCH   2   3
TORSDOF 20
ENDMDL
MODEL      199
REMARK 921   NORMALIZED FREE ENERGY PREDICTED BY IDOCK:   -3.53 KCAL/MOL
REMARK 922        TOTAL FREE ENERGY PREDICTED BY IDOCK:   -9.58 KCAL/MOL
REMARK 923 INTER-LIGAND FREE ENERGY PREDICTED BY IDOCK:   -7.47 KCAL/MOL
REMARK 924 INTRA-LIGAND FREE ENERGY PREDICTED BY IDOCK:   -2.11 KCAL/MOL
REMARK 927      BINDING AFFINITY PREDICTED BY RF-SCORE:    0.00 PKD
ROOT
HETATM    1  C   UNL     1      -7.781  17.333  66.376  1.00  0.00    -0.347 C  
HETATM    2  C   UNL     1      -7.993  15.846  66.606  1.00  0.00    -0.270 C  
ENDROOT
BRANCH   2   3
HETATM    3  C   UNL     1      -9.471  15.526  66.816  1.00  0.00    -0.257 C  
BRANCH   3   4
HETATM    4  C   UNL     1     -10.292  15.895  65.585  1.00  0.00    -0.413 C  
BRANCH   4   5
HETATM    5  C   UNL     1     -10.560  14.665  64.726  1.00  0.00    -0.379 C  
BRANCH   5   6
HETATM    6  C   UNL     1     -12.058  14.414  64.595  1.00  0.00    -0.485 C  
BRANCH   6   7
HETATM    7  C   UNL     1     -12.467  13.189  65.401  1.00  0.00    -0.535 C  
BRANCH   7   8
HETATM    8  C   UNL     1     -12.518  13.522  66.887  1.00  0.00    -0.162 C  
BRANCH   8   9
HETATM    9  C   UNL     1     -11.816  12.439  67.691  1.00  0.00    -0.363 C  
BRANCH   9  10
HETATM   10  C   UNL     1     -11.080  11.479  66.770  1.00  0.00    -0.361 C  
BRANCH  10  11
HETATM   11  C   UNL     1      -9.579  11.676  66.912  1.00  0.00    -0.199 C  
BRANCH  11  12
HETATM   12  C   UNL     1      -8.832  10.451  66.416  1.00  0.00    -0.159 C  
BRANCH  12  13
HETATM   13  C   UNL     1      -9.812   9.445  65.828  1.00  0.00    -0.345 C  
BRANCH  13  14
HETATM   14  C   UNL     1      -9.702   8.133  66.579  1.00  0.00    -0.309 C  
BRANCH  14  15
HETATM   15  C   UNL     1      -9.246   8.350  68.015  1.00  0.00    -0.143 C  
BRANCH  15  16
HETATM   16  C   UNL     1     -10.447   8.176  68.917  1.00  0.00    -0.185 C  
BRANCH  16  17
HETATM   17  O   UNL     1     -10.459   9.180  69.924  1.00  0.00    -0.206 OA 
BRANCH  17  18
HETATM   18  P   UNL     1     -10.648   8.524  71.514  1.00  0.00    -0.317 P  
HETATM   19  O   UNL     1     -12.026   9.188  71.594  1.00  0.00    -0.319 OA 
HETATM   20  O   UNL     1      -9.357   9.175  72.005  1.00  0.00    -0.337 OA 
BRANCH  18  21
HETATM   21  O   UNL     1     -10.836   7.866  73.103  1.00  0.00    -0.375 OA 
BRANCH  21  22
HETATM   22  C   UNL     1     -10.427   6.506  73.224  1.00  0.00    -0.258 C  
BRANCH  22  23
HETATM   23  C   UNL     1     -10.449   5.779  71.898  1.00  0.00    -0.221 C  
BRANCH  23  24
HETATM   24  N   UNL     1      -9.366   4.691  71.728  1.00  0.00    -0.137 N  
HETATM   25  C   UNL     1      -8.056   5.293  72.199  1.00  0.00    -0.114 C  
HETATM   26  C   UNL     1      -9.247   4.303  70.253  1.00  0.00    -0.133 C  
HETATM   27  C   UNL     1      -9.697   3.460  72.551  1.00  0.00    -0.144 C  
ENDBRANCH  23  24
ENDBRANCH  22  23
ENDBRANCH  21  22
ENDBRANCH  18  21
ENDBRANCH  17  18
ENDBRANCH  16  17
ENDBRANCH  15  16
ENDBRANCH  14  15
ENDBRANCH  13  14
ENDBRANCH  12  13
ENDBRANCH  11  12
ENDBRANCH  10  11
ENDBRANCH   9  10
ENDBRANCH   8   9
ENDBRANCH   7   8
ENDBRANCH   6   7
ENDBRANCH   5   6
ENDBRANCH   4   5
ENDBRANCH   3   4
ENDBRANCH   2   3
TORSDOF 20
ENDMDL
MODEL      200
REMARK 921   NORMALIZED FREE ENERGY PREDICTED BY IDOCK:   -3.53 KCAL/MOL
REMARK 922        TOTAL FREE ENERGY PREDICTED BY IDOCK:   -9.57 KCAL/MOL
REMARK 923 INTER-LIGAND FREE ENERGY PREDICTED BY IDOCK:   -8.32 KCAL/MOL
REMARK 924 INTRA-LIGAND FREE ENERGY PREDICTED BY IDOCK:   -1.26 KCAL/MOL
REMARK 927      BINDING AFFINITY PREDICTED BY RF-SCORE:    0.00 PKD
ROOT
HETATM    1  C   UNL     1      -8.050  15.247  69.458  1.00  0.00    -0.196 C  
HETATM    2  C   UNL     1      -9.392  15.959  69.434  1.00  0.00    -0.250 C  
ENDROOT
BRANCH   2   3
HETATM    3  C   UNL     1     -10.498  15.068  69.995  1.00  0.00    -0.139 C  
BRANCH   3   4
HETATM    4  C   UNL     1     -11.270  15.783  71.099  1.00  0.00    -0.380 C  
BRANCH   4   5
HETATM    5  C   UNL     1     -11.433  14.879  72.316  1.00  0.00    -0.159 C  
BRANCH   5   6
HETATM    6  C   UNL     1     -12.819  15.042  72.928  1.00  0.00    -0.542 C  
BRANCH   6   7
HETATM    7  C   UNL     1     -13.709  13.863  72.556  1.00  0.00    -0.665 C  
BRANCH   7   8
HETATM    8  C   UNL     1     -13.057  13.028  71.462  1.00  0.00    -0.400 C  
BRANCH   8   9
HETATM    9  C   UNL     1     -13.145  11.550  71.809  1.00  0.00    -0.503 C  
BRANCH   9  10
HETATM   10  C   UNL     1     -12.448  10.708  70.753  1.00  0.00    -0.480 C  
BRANCH  10  11
HETATM   11  C   UNL     1     -11.955  11.600  69.625  1.00  0.00    -0.390 C  
BRANCH  11  12
HETATM   12  C   UNL     1     -10.867  10.900  68.829  1.00  0.00    -0.251 C  
BRANCH  12  13
HETATM   13  C   UNL     1     -10.096  11.913  67.995  1.00  0.00    -0.199 C  
BRANCH  13  14
HETATM   14  C   UNL     1     -11.070  12.839  67.294  1.00  0.00    -0.314 C  
BRANCH  14  15
HETATM   15  C   UNL     1     -10.343  13.876  66.450  1.00  0.00    -0.289 C  
BRANCH  15  16
HETATM   16  C   UNL     1     -11.366  14.870  65.949  1.00  0.00    -0.306 C  
BRANCH  16  17
HETATM   17  O   UNL     1     -10.718  15.992  65.361  1.00  0.00    -0.380 OA 
BRANCH  17  18
HETATM   18  P   UNL     1     -10.481  17.285  66.486  1.00  0.00    -0.136 P  
HETATM   19  O   UNL     1     -10.898  18.275  65.392  1.00  0.00    -0.569 OA 
HETATM   20  O   UNL     1      -9.037  16.871  66.757  1.00  0.00    -0.224 OA 
BRANCH  18  21
HETATM   21  O   UNL     1     -10.245  18.578  67.611  1.00  0.00    -0.348 OA 
BRANCH  21  22
HETATM   22  C   UNL     1      -8.976  19.217  67.509  1.00  0.00    -0.298 C  
BRANCH  22  23
HETATM   23  C   UNL     1      -8.379  19.529  68.864  1.00  0.00    -0.265 C  
BRANCH  23  24
HETATM   24  N   UNL     1      -6.836  19.558  68.910  1.00  0.00    -0.326 N  
HETATM   25  C   UNL     1      -6.431  19.331  70.353  1.00  0.00     0.122 C  
HETATM   26  C   UNL     1      -6.329  20.926  68.447  1.00  0.00    -0.235 C  
HETATM   27  C   UNL     1      -6.244  18.474  68.028  1.00  0.00    -0.193 C  
ENDBRANCH  23  24
ENDBRANCH  22  23
ENDBRANCH  21  22
ENDBRANCH  18  21
ENDBRANCH  17  18
ENDBRANCH  16  17
ENDBRANCH  15  16
ENDBRANCH  14  15
ENDBRANCH  13  14
ENDBRANCH  12  13
ENDBRANCH  11  12
ENDBRANCH  10  11
ENDBRANCH   9  10
ENDBRANCH   8   9
ENDBRANCH   7   8
ENDBRANCH   6   7
ENDBRANCH   5   6
ENDBRANCH   4   5
ENDBRANCH   3   4
ENDBRANCH   2   3
TORSDOF 20
ENDMDL
MODEL      201
REMARK 921   NORMALIZED FREE ENERGY PREDICTED BY IDOCK:   -3.53 KCAL/MOL
REMARK 922        TOTAL FREE ENERGY PREDICTED BY IDOCK:   -9.57 KCAL/MOL
REMARK 923 INTER-LIGAND FREE ENERGY PREDICTED BY IDOCK:   -7.37 KCAL/MOL
REMARK 924 INTRA-LIGAND FREE ENERGY PREDICTED BY IDOCK:   -2.20 KCAL/MOL
REMARK 927      BINDING AFFINITY PREDICTED BY RF-SCORE:    0.00 PKD
ROOT
HETATM    1  C   UNL     1      -8.915   4.843  64.898  1.00  0.00    -0.138 C  
HETATM    2  C   UNL     1      -8.179   5.995  65.561  1.00  0.00    -0.142 C  
ENDROOT
BRANCH   2   3
HETATM    3  C   UNL     1      -9.147   6.914  66.302  1.00  0.00    -0.170 C  
BRANCH   3   4
HETATM    4  C   UNL     1      -8.394   7.934  67.150  1.00  0.00    -0.117 C  
BRANCH   4   5
HETATM    5  C   UNL     1      -6.890   7.815  66.929  1.00  0.00    -0.072 C  
BRANCH   5   6
HETATM    6  C   UNL     1      -6.318   9.126  66.402  1.00  0.00    -0.065 C  
BRANCH   6   7
HETATM    7  C   UNL     1      -5.903   8.980  64.944  1.00  0.00    -0.063 C  
BRANCH   7   8
HETATM    8  C   UNL     1      -6.584  10.039  64.087  1.00  0.00    -0.130 C  
BRANCH   8   9
HETATM    9  C   UNL     1      -7.899   9.504  63.540  1.00  0.00    -0.134 C  
BRANCH   9  10
HETATM   10  C   UNL     1      -9.078  10.153  64.247  1.00  0.00    -0.288 C  
BRANCH  10  11
HETATM   11  C   UNL     1     -10.055  10.704  63.220  1.00  0.00    -0.233 C  
BRANCH  11  12
HETATM   12  C   UNL     1     -10.413  12.144  63.546  1.00  0.00    -0.490 C  
BRANCH  12  13
HETATM   13  C   UNL     1     -11.924  12.296  63.646  1.00  0.00    -0.633 C  
BRANCH  13  14
HETATM   14  C   UNL     1     -12.256  13.527  64.465  1.00  0.00    -0.445 C  
BRANCH  14  15
HETATM   15  C   UNL     1     -11.007  14.336  64.783  1.00  0.00    -0.408 C  
BRANCH  15  16
HETATM   16  C   UNL     1     -10.900  14.459  66.286  1.00  0.00    -0.313 C  
BRANCH  16  17
HETATM   17  O   UNL     1     -11.998  13.810  66.915  1.00  0.00    -0.388 OA 
BRANCH  17  18
HETATM   18  P   UNL     1     -11.500  12.741  68.181  1.00  0.00    -0.358 P  
HETATM   19  O   UNL     1     -10.155  13.473  68.232  1.00  0.00    -0.236 OA 
HETATM   20  O   UNL     1     -11.768  11.503  67.328  1.00  0.00    -0.576 OA 
BRANCH  18  21
HETATM   21  O   UNL     1     -11.004  11.672  69.448  1.00  0.00    -0.223 OA 
BRANCH  21  22
HETATM   22  C   UNL     1     -11.973  10.685  69.793  1.00  0.00    -0.291 C  
BRANCH  22  23
HETATM   23  C   UNL     1     -11.347   9.333  70.053  1.00  0.00    -0.113 C  
BRANCH  23  24
HETATM   24  N   UNL     1     -11.829   8.624  71.338  1.00  0.00    -0.285 N  
HETATM   25  C   UNL     1     -12.984   9.438  71.888  1.00  0.00    -0.417 C  
HETATM   26  C   UNL     1     -10.697   8.588  72.366  1.00  0.00    -0.306 C  
HETATM   27  C   UNL     1     -12.288   7.208  71.040  1.00  0.00    -0.334 C  
ENDBRANCH  23  24
ENDBRANCH  22  23
ENDBRANCH  21  22
ENDBRANCH  18  21
ENDBRANCH  17  18
ENDBRANCH  16  17
ENDBRANCH  15  16
ENDBRANCH  14  15
ENDBRANCH  13  14
ENDBRANCH  12  13
ENDBRANCH  11  12
ENDBRANCH  10  11
ENDBRANCH   9  10
ENDBRANCH   8   9
ENDBRANCH   7   8
ENDBRANCH   6   7
ENDBRANCH   5   6
ENDBRANCH   4   5
ENDBRANCH   3   4
ENDBRANCH   2   3
TORSDOF 20
ENDMDL
MODEL      202
REMARK 921   NORMALIZED FREE ENERGY PREDICTED BY IDOCK:   -3.52 KCAL/MOL
REMARK 922        TOTAL FREE ENERGY PREDICTED BY IDOCK:   -9.56 KCAL/MOL
REMARK 923 INTER-LIGAND FREE ENERGY PREDICTED BY IDOCK:   -6.84 KCAL/MOL
REMARK 924 INTRA-LIGAND FREE ENERGY PREDICTED BY IDOCK:   -2.73 KCAL/MOL
REMARK 927      BINDING AFFINITY PREDICTED BY RF-SCORE:    0.00 PKD
ROOT
HETATM    1  C   UNL     1      -9.107   8.109  72.958  1.00  0.00    -0.344 C  
HETATM    2  C   UNL     1      -8.988   6.670  72.488  1.00  0.00    -0.136 C  
ENDROOT
BRANCH   2   3
HETATM    3  C   UNL     1      -9.373   6.537  71.016  1.00  0.00    -0.164 C  
BRANCH   3   4
HETATM    4  C   UNL     1     -10.815   6.064  70.867  1.00  0.00    -0.349 C  
BRANCH   4   5
HETATM    5  C   UNL     1     -11.742   7.240  70.581  1.00  0.00    -0.310 C  
BRANCH   5   6
HETATM    6  C   UNL     1     -12.947   7.216  71.515  1.00  0.00    -0.431 C  
BRANCH   6   7
HETATM    7  C   UNL     1     -13.198   8.601  72.097  1.00  0.00    -0.420 C  
BRANCH   7   8
HETATM    8  C   UNL     1     -12.112   9.571  71.651  1.00  0.00    -0.474 C  
BRANCH   8   9
HETATM    9  C   UNL     1     -12.733  10.899  71.241  1.00  0.00    -0.542 C  
BRANCH   9  10
HETATM   10  C   UNL     1     -12.691  11.067  69.731  1.00  0.00    -0.024 C  
BRANCH  10  11
HETATM   11  C   UNL     1     -11.248  11.078  69.252  1.00  0.00    -0.321 C  
BRANCH  11  12
HETATM   12  C   UNL     1     -11.060  10.100  68.105  1.00  0.00    -0.290 C  
BRANCH  12  13
HETATM   13  C   UNL     1      -9.663   9.498  68.156  1.00  0.00    -0.166 C  
BRANCH  13  14
HETATM   14  C   UNL     1      -9.040   9.778  69.509  1.00  0.00    -0.227 C  
BRANCH  14  15
HETATM   15  C   UNL     1      -7.593  10.228  69.372  1.00  0.00    -0.137 C  
BRANCH  15  16
HETATM   16  C   UNL     1      -7.532  11.283  68.290  1.00  0.00    -0.099 C  
BRANCH  16  17
HETATM   17  O   UNL     1      -6.355  12.069  68.432  1.00  0.00    -0.050 OA 
BRANCH  17  18
HETATM   18  P   UNL     1      -6.698  13.698  68.904  1.00  0.00    -0.109 P  
HETATM   19  O   UNL     1      -6.147  14.175  67.557  1.00  0.00    -0.326 OA 
HETATM   20  O   UNL     1      -5.860  13.574  70.175  1.00  0.00    -0.127 OA 
BRANCH  18  21
HETATM   21  O   UNL     1      -7.043  15.326  69.377  1.00  0.00    -0.160 OA 
BRANCH  21  22
HETATM   22  C   UNL     1      -7.078  16.253  68.296  1.00  0.00    -0.136 C  
BRANCH  22  23
HETATM   23  C   UNL     1      -8.170  17.288  68.462  1.00  0.00    -0.267 C  
BRANCH  23  24
HETATM   24  N   UNL     1      -9.113  17.447  67.249  1.00  0.00    -0.234 N  
HETATM   25  C   UNL     1      -8.842  16.280  66.320  1.00  0.00    -0.331 C  
HETATM   26  C   UNL     1      -8.807  18.758  66.523  1.00  0.00    -0.312 C  
HETATM   27  C   UNL     1     -10.567  17.437  67.685  1.00  0.00    -0.350 C  
ENDBRANCH  23  24
ENDBRANCH  22  23
ENDBRANCH  21  22
ENDBRANCH  18  21
ENDBRANCH  17  18
ENDBRANCH  16  17
ENDBRANCH  15  16
ENDBRANCH  14  15
ENDBRANCH  13  14
ENDBRANCH  12  13
ENDBRANCH  11  12
ENDBRANCH  10  11
ENDBRANCH   9  10
ENDBRANCH   8   9
ENDBRANCH   7   8
ENDBRANCH   6   7
ENDBRANCH   5   6
ENDBRANCH   4   5
ENDBRANCH   3   4
ENDBRANCH   2   3
TORSDOF 20
ENDMDL
MODEL      203
REMARK 921   NORMALIZED FREE ENERGY PREDICTED BY IDOCK:   -3.51 KCAL/MOL
REMARK 922        TOTAL FREE ENERGY PREDICTED BY IDOCK:   -9.54 KCAL/MOL
REMARK 923 INTER-LIGAND FREE ENERGY PREDICTED BY IDOCK:   -8.24 KCAL/MOL
REMARK 924 INTRA-LIGAND FREE ENERGY PREDICTED BY IDOCK:   -1.29 KCAL/MOL
REMARK 927      BINDING AFFINITY PREDICTED BY RF-SCORE:    0.00 PKD
ROOT
HETATM    1  C   UNL     1     -14.138   8.944  72.241  1.00  0.00    -0.512 C  
HETATM    2  C   UNL     1     -12.737   8.586  71.776  1.00  0.00    -0.385 C  
ENDROOT
BRANCH   2   3
HETATM    3  C   UNL     1     -12.001   9.814  71.246  1.00  0.00    -0.471 C  
BRANCH   3   4
HETATM    4  C   UNL     1     -10.534   9.499  70.973  1.00  0.00    -0.377 C  
BRANCH   4   5
HETATM    5  C   UNL     1     -10.230   8.037  71.279  1.00  0.00    -0.230 C  
BRANCH   5   6
HETATM    6  C   UNL     1      -9.377   7.421  70.176  1.00  0.00    -0.158 C  
BRANCH   6   7
HETATM    7  C   UNL     1      -9.923   7.797  68.806  1.00  0.00    -0.181 C  
BRANCH   7   8
HETATM    8  C   UNL     1      -8.790   8.203  67.873  1.00  0.00    -0.131 C  
BRANCH   8   9
HETATM    9  C   UNL     1      -9.333   9.029  66.717  1.00  0.00    -0.213 C  
BRANCH   9  10
HETATM   10  C   UNL     1      -8.688   8.607  65.406  1.00  0.00    -0.208 C  
BRANCH  10  11
HETATM   11  C   UNL     1      -8.845   9.712  64.374  1.00  0.00    -0.263 C  
BRANCH  11  12
HETATM   12  C   UNL     1     -10.062  10.565  64.689  1.00  0.00    -0.408 C  
BRANCH  12  13
HETATM   13  C   UNL     1     -10.589  11.212  63.417  1.00  0.00    -0.340 C  
BRANCH  13  14
HETATM   14  C   UNL     1     -10.668  12.714  63.607  1.00  0.00    -0.410 C  
BRANCH  14  15
HETATM   15  C   UNL     1     -12.109  13.204  63.571  1.00  0.00    -0.585 C  
BRANCH  15  16
HETATM   16  C   UNL     1     -12.285  14.219  64.677  1.00  0.00    -0.454 C  
BRANCH  16  17
HETATM   17  O   UNL     1     -11.567  13.817  65.837  1.00  0.00    -0.317 OA 
BRANCH  17  18
HETATM   18  P   UNL     1     -10.841  15.152  66.664  1.00  0.00    -0.295 P  
HETATM   19  O   UNL     1      -9.617  15.015  65.751  1.00  0.00    -0.328 OA 
HETATM   20  O   UNL     1     -10.974  14.465  68.022  1.00  0.00    -0.248 OA 
BRANCH  18  21
HETATM   21  O   UNL     1     -10.116  16.487  67.491  1.00  0.00    -0.255 OA 
BRANCH  21  22
HETATM   22  C   UNL     1      -8.692  16.507  67.433  1.00  0.00    -0.182 C  
BRANCH  22  23
HETATM   23  C   UNL     1      -8.076  17.132  68.665  1.00  0.00    -0.264 C  
BRANCH  23  24
HETATM   24  N   UNL     1      -7.133  18.325  68.394  1.00  0.00    -0.248 N  
HETATM   25  C   UNL     1      -7.964  19.586  68.524  1.00  0.00    -0.348 C  
HETATM   26  C   UNL     1      -6.571  18.229  66.974  1.00  0.00    -0.183 C  
HETATM   27  C   UNL     1      -5.988  18.352  69.390  1.00  0.00    -0.249 C  
ENDBRANCH  23  24
ENDBRANCH  22  23
ENDBRANCH  21  22
ENDBRANCH  18  21
ENDBRANCH  17  18
ENDBRANCH  16  17
ENDBRANCH  15  16
ENDBRANCH  14  15
ENDBRANCH  13  14
ENDBRANCH  12  13
ENDBRANCH  11  12
ENDBRANCH  10  11
ENDBRANCH   9  10
ENDBRANCH   8   9
ENDBRANCH   7   8
ENDBRANCH   6   7
ENDBRANCH   5   6
ENDBRANCH   4   5
ENDBRANCH   3   4
ENDBRANCH   2   3
TORSDOF 20
ENDMDL
MODEL      204
REMARK 921   NORMALIZED FREE ENERGY PREDICTED BY IDOCK:   -3.49 KCAL/MOL
REMARK 922        TOTAL FREE ENERGY PREDICTED BY IDOCK:   -9.50 KCAL/MOL
REMARK 923 INTER-LIGAND FREE ENERGY PREDICTED BY IDOCK:   -7.41 KCAL/MOL
REMARK 924 INTRA-LIGAND FREE ENERGY PREDICTED BY IDOCK:   -2.09 KCAL/MOL
REMARK 927      BINDING AFFINITY PREDICTED BY RF-SCORE:    0.00 PKD
ROOT
HETATM    1  C   UNL     1      -6.829  11.093  67.106  1.00  0.00    -0.107 C  
HETATM    2  C   UNL     1      -8.162  11.602  66.585  1.00  0.00    -0.140 C  
ENDROOT
BRANCH   2   3
HETATM    3  C   UNL     1      -8.626  10.792  65.377  1.00  0.00    -0.162 C  
BRANCH   3   4
HETATM    4  C   UNL     1     -10.029  10.234  65.598  1.00  0.00    -0.347 C  
BRANCH   4   5
HETATM    5  C   UNL     1     -10.166   9.660  67.003  1.00  0.00    -0.308 C  
BRANCH   5   6
HETATM    6  C   UNL     1     -10.495   8.172  66.948  1.00  0.00    -0.379 C  
BRANCH   6   7
HETATM    7  C   UNL     1      -9.411   7.360  67.644  1.00  0.00    -0.145 C  
BRANCH   7   8
HETATM    8  C   UNL     1      -8.272   8.266  68.093  1.00  0.00    -0.128 C  
BRANCH   8   9
HETATM    9  C   UNL     1      -7.908   7.972  69.540  1.00  0.00    -0.105 C  
BRANCH   9  10
HETATM   10  C   UNL     1      -8.718   8.844  70.486  1.00  0.00    -0.213 C  
BRANCH  10  11
HETATM   11  C   UNL     1      -9.666   7.979  71.302  1.00  0.00    -0.199 C  
BRANCH  11  12
HETATM   12  C   UNL     1     -11.070   8.041  70.728  1.00  0.00    -0.269 C  
BRANCH  12  13
HETATM   13  C   UNL     1     -11.764   9.318  71.182  1.00  0.00    -0.394 C  
BRANCH  13  14
HETATM   14  C   UNL     1     -13.061   8.967  71.881  1.00  0.00    -0.459 C  
BRANCH  14  15
HETATM   15  C   UNL     1     -13.772  10.213  72.391  1.00  0.00    -0.032 C  
BRANCH  15  16
HETATM   16  C   UNL     1     -13.156  11.414  71.709  1.00  0.00    -0.418 C  
BRANCH  16  17
HETATM   17  O   UNL     1     -13.441  12.599  72.442  1.00  0.00    -0.550 OA 
BRANCH  17  18
HETATM   18  P   UNL     1     -13.084  14.036  71.547  1.00  0.00    -0.363 P  
HETATM   19  O   UNL     1     -12.461  13.164  70.451  1.00  0.00    -0.289 OA 
HETATM   20  O   UNL     1     -12.298  14.641  72.708  1.00  0.00    -0.294 OA 
BRANCH  18  21
HETATM   21  O   UNL     1     -12.729  15.473  70.651  1.00  0.00    -0.439 OA 
BRANCH  21  22
HETATM   22  C   UNL     1     -11.487  15.434  69.953  1.00  0.00    -0.312 C  
BRANCH  22  23
HETATM   23  C   UNL     1     -11.673  15.437  68.451  1.00  0.00    -0.316 C  
BRANCH  23  24
HETATM   24  N   UNL     1     -10.777  14.445  67.678  1.00  0.00    -0.260 N  
HETATM   25  C   UNL     1      -9.731  13.939  68.653  1.00  0.00    -0.160 C  
HETATM   26  C   UNL     1     -10.086  15.165  66.519  1.00  0.00    -0.269 C  
HETATM   27  C   UNL     1     -11.590  13.282  67.140  1.00  0.00    -0.357 C  
ENDBRANCH  23  24
ENDBRANCH  22  23
ENDBRANCH  21  22
ENDBRANCH  18  21
ENDBRANCH  17  18
ENDBRANCH  16  17
ENDBRANCH  15  16
ENDBRANCH  14  15
ENDBRANCH  13  14
ENDBRANCH  12  13
ENDBRANCH  11  12
ENDBRANCH  10  11
ENDBRANCH   9  10
ENDBRANCH   8   9
ENDBRANCH   7   8
ENDBRANCH   6   7
ENDBRANCH   5   6
ENDBRANCH   4   5
ENDBRANCH   3   4
ENDBRANCH   2   3
TORSDOF 20
ENDMDL
MODEL      205
REMARK 921   NORMALIZED FREE ENERGY PREDICTED BY IDOCK:   -3.49 KCAL/MOL
REMARK 922        TOTAL FREE ENERGY PREDICTED BY IDOCK:   -9.50 KCAL/MOL
REMARK 923 INTER-LIGAND FREE ENERGY PREDICTED BY IDOCK:   -6.86 KCAL/MOL
REMARK 924 INTRA-LIGAND FREE ENERGY PREDICTED BY IDOCK:   -2.64 KCAL/MOL
REMARK 927      BINDING AFFINITY PREDICTED BY RF-SCORE:    0.00 PKD
ROOT
HETATM    1  C   UNL     1     -11.586  12.136  66.088  1.00  0.00    -0.418 C  
HETATM    2  C   UNL     1     -11.704  12.990  67.338  1.00  0.00    -0.427 C  
ENDROOT
BRANCH   2   3
HETATM    3  C   UNL     1     -11.043  12.309  68.534  1.00  0.00    -0.290 C  
BRANCH   3   4
HETATM    4  C   UNL     1     -12.062  11.520  69.349  1.00  0.00    -0.345 C  
BRANCH   4   5
HETATM    5  C   UNL     1     -12.231  12.128  70.737  1.00  0.00    -0.367 C  
BRANCH   5   6
HETATM    6  C   UNL     1     -12.969  11.167  71.661  1.00  0.00    -0.548 C  
BRANCH   6   7
HETATM    7  C   UNL     1     -13.399   9.920  70.900  1.00  0.00    -0.256 C  
BRANCH   7   8
HETATM    8  C   UNL     1     -13.482   8.724  71.840  1.00  0.00    -0.447 C  
BRANCH   8   9
HETATM    9  C   UNL     1     -12.277   7.817  71.640  1.00  0.00    -0.341 C  
BRANCH   9  10
HETATM   10  C   UNL     1     -11.410   7.793  72.889  1.00  0.00    -0.406 C  
BRANCH  10  11
HETATM   11  C   UNL     1      -9.950   7.979  72.506  1.00  0.00    -0.338 C  
BRANCH  11  12
HETATM   12  C   UNL     1      -9.801   9.123  71.519  1.00  0.00    -0.335 C  
BRANCH  12  13
HETATM   13  C   UNL     1      -8.843   8.728  70.403  1.00  0.00    -0.185 C  
BRANCH  13  14
HETATM   14  C   UNL     1      -9.378   9.226  69.076  1.00  0.00    -0.151 C  
BRANCH  14  15
HETATM   15  C   UNL     1     -10.332   8.219  68.449  1.00  0.00    -0.237 C  
BRANCH  15  16
HETATM   16  C   UNL     1     -10.432   8.528  66.972  1.00  0.00    -0.292 C  
BRANCH  16  17
HETATM   17  O   UNL     1      -9.420   9.452  66.590  1.00  0.00    -0.156 OA 
BRANCH  17  18
HETATM   18  P   UNL     1      -8.534   8.929  65.199  1.00  0.00    -0.168 P  
HETATM   19  O   UNL     1      -7.236   9.308  65.918  1.00  0.00    -0.088 OA 
HETATM   20  O   UNL     1      -9.305   9.869  64.275  1.00  0.00    -0.266 OA 
BRANCH  18  21
HETATM   21  O   UNL     1      -7.649   8.404  63.808  1.00  0.00    -0.119 OA 
BRANCH  21  22
HETATM   22  C   UNL     1      -7.517   6.989  63.699  1.00  0.00    -0.096 C  
BRANCH  22  23
HETATM   23  C   UNL     1      -8.284   6.256  64.778  1.00  0.00    -0.100 C  
BRANCH  23  24
HETATM   24  N   UNL     1      -8.398   4.729  64.578  1.00  0.00    -0.121 N  
HETATM   25  C   UNL     1      -7.253   4.095  65.343  1.00  0.00    -0.071 C  
HETATM   26  C   UNL     1      -8.269   4.389  63.093  1.00  0.00    -0.093 C  
HETATM   27  C   UNL     1      -9.724   4.209  65.104  1.00  0.00    -0.197 C  
ENDBRANCH  23  24
ENDBRANCH  22  23
ENDBRANCH  21  22
ENDBRANCH  18  21
ENDBRANCH  17  18
ENDBRANCH  16  17
ENDBRANCH  15  16
ENDBRANCH  14  15
ENDBRANCH  13  14
ENDBRANCH  12  13
ENDBRANCH  11  12
ENDBRANCH  10  11
ENDBRANCH   9  10
ENDBRANCH   8   9
ENDBRANCH   7   8
ENDBRANCH   6   7
ENDBRANCH   5   6
ENDBRANCH   4   5
ENDBRANCH   3   4
ENDBRANCH   2   3
TORSDOF 20
ENDMDL
MODEL      206
REMARK 921   NORMALIZED FREE ENERGY PREDICTED BY IDOCK:   -3.49 KCAL/MOL
REMARK 922        TOTAL FREE ENERGY PREDICTED BY IDOCK:   -9.49 KCAL/MOL
REMARK 923 INTER-LIGAND FREE ENERGY PREDICTED BY IDOCK:   -6.84 KCAL/MOL
REMARK 924 INTRA-LIGAND FREE ENERGY PREDICTED BY IDOCK:   -2.64 KCAL/MOL
REMARK 927      BINDING AFFINITY PREDICTED BY RF-SCORE:    0.00 PKD
ROOT
HETATM    1  C   UNL     1      -8.439   8.154  73.203  1.00  0.00    -0.279 C  
HETATM    2  C   UNL     1      -9.478   7.179  73.730  1.00  0.00    -0.286 C  
ENDROOT
BRANCH   2   3
HETATM    3  C   UNL     1      -9.917   6.202  72.642  1.00  0.00    -0.189 C  
BRANCH   3   4
HETATM    4  C   UNL     1     -11.437   6.079  72.597  1.00  0.00    -0.297 C  
BRANCH   4   5
HETATM    5  C   UNL     1     -11.997   6.761  71.354  1.00  0.00    -0.403 C  
BRANCH   5   6
HETATM    6  C   UNL     1     -13.279   7.517  71.685  1.00  0.00    -0.404 C  
BRANCH   6   7
HETATM    7  C   UNL     1     -13.085   9.013  71.475  1.00  0.00    -0.389 C  
BRANCH   7   8
HETATM    8  C   UNL     1     -11.608   9.377  71.562  1.00  0.00    -0.467 C  
BRANCH   8   9
HETATM    9  C   UNL     1     -11.225  10.289  70.407  1.00  0.00    -0.407 C  
BRANCH   9  10
HETATM   10  C   UNL     1     -10.686   9.478  69.239  1.00  0.00    -0.240 C  
BRANCH  10  11
HETATM   11  C   UNL     1      -9.510   8.630  69.699  1.00  0.00    -0.162 C  
BRANCH  11  12
HETATM   12  C   UNL     1      -9.265   7.490  68.727  1.00  0.00    -0.145 C  
BRANCH  12  13
HETATM   13  C   UNL     1      -7.816   7.505  68.260  1.00  0.00    -0.122 C  
BRANCH  13  14
HETATM   14  C   UNL     1      -7.122   8.738  68.802  1.00  0.00    -0.063 C  
BRANCH  14  15
HETATM   15  C   UNL     1      -6.522   9.576  67.682  1.00  0.00    -0.062 C  
BRANCH  15  16
HETATM   16  C   UNL     1      -7.577  10.552  67.212  1.00  0.00    -0.096 C  
BRANCH  16  17
HETATM   17  O   UNL     1      -6.978  11.788  66.840  1.00  0.00    -0.142 OA 
BRANCH  17  18
HETATM   18  P   UNL     1      -7.821  13.155  67.482  1.00  0.00    -0.142 P  
HETATM   19  O   UNL     1      -6.575  14.009  67.226  1.00  0.00    -0.266 OA 
HETATM   20  O   UNL     1      -8.110  12.439  68.799  1.00  0.00    -0.058 OA 
BRANCH  18  21
HETATM   21  O   UNL     1      -8.666  14.522  68.122  1.00  0.00    -0.158 OA 
BRANCH  21  22
HETATM   22  C   UNL     1      -9.627  15.084  67.233  1.00  0.00    -0.207 C  
BRANCH  22  23
HETATM   23  C   UNL     1     -10.190  14.059  66.273  1.00  0.00    -0.296 C  
BRANCH  23  24
HETATM   24  N   UNL     1     -11.594  13.526  66.633  1.00  0.00    -0.346 N  
HETATM   25  C   UNL     1     -11.528  12.013  66.557  1.00  0.00    -0.349 C  
HETATM   26  C   UNL     1     -12.620  14.042  65.622  1.00  0.00    -0.512 C  
HETATM   27  C   UNL     1     -12.000  13.958  68.030  1.00  0.00    -0.355 C  
ENDBRANCH  23  24
ENDBRANCH  22  23
ENDBRANCH  21  22
ENDBRANCH  18  21
ENDBRANCH  17  18
ENDBRANCH  16  17
ENDBRANCH  15  16
ENDBRANCH  14  15
ENDBRANCH  13  14
ENDBRANCH  12  13
ENDBRANCH  11  12
ENDBRANCH  10  11
ENDBRANCH   9  10
ENDBRANCH   8   9
ENDBRANCH   7   8
ENDBRANCH   6   7
ENDBRANCH   5   6
ENDBRANCH   4   5
ENDBRANCH   3   4
ENDBRANCH   2   3
TORSDOF 20
ENDMDL
MODEL      207
REMARK 921   NORMALIZED FREE ENERGY PREDICTED BY IDOCK:   -3.48 KCAL/MOL
REMARK 922        TOTAL FREE ENERGY PREDICTED BY IDOCK:   -9.47 KCAL/MOL
REMARK 923 INTER-LIGAND FREE ENERGY PREDICTED BY IDOCK:   -7.70 KCAL/MOL
REMARK 924 INTRA-LIGAND FREE ENERGY PREDICTED BY IDOCK:   -1.77 KCAL/MOL
REMARK 927      BINDING AFFINITY PREDICTED BY RF-SCORE:    0.00 PKD
ROOT
HETATM    1  C   UNL     1      -6.090  10.476  68.134  1.00  0.00    -0.043 C  
HETATM    2  C   UNL     1      -6.942  11.487  67.385  1.00  0.00    -0.111 C  
ENDROOT
BRANCH   2   3
HETATM    3  C   UNL     1      -6.226  12.830  67.265  1.00  0.00    -0.053 C  
BRANCH   3   4
HETATM    4  C   UNL     1      -7.110  13.970  67.759  1.00  0.00    -0.183 C  
BRANCH   4   5
HETATM    5  C   UNL     1      -8.558  13.510  67.893  1.00  0.00    -0.182 C  
BRANCH   5   6
HETATM    6  C   UNL     1      -9.510  14.697  67.807  1.00  0.00    -0.205 C  
BRANCH   6   7
HETATM    7  C   UNL     1     -10.955  14.232  67.931  1.00  0.00    -0.278 C  
BRANCH   7   8
HETATM    8  C   UNL     1     -11.727  15.138  68.882  1.00  0.00    -0.357 C  
BRANCH   8   9
HETATM    9  C   UNL     1     -10.886  15.441  70.113  1.00  0.00    -0.328 C  
BRANCH   9  10
HETATM   10  C   UNL     1     -11.774  15.663  71.327  1.00  0.00    -0.478 C  
BRANCH  10  11
HETATM   11  C   UNL     1     -13.236  15.530  70.929  1.00  0.00    -0.474 C  
BRANCH  11  12
HETATM   12  C   UNL     1     -14.027  14.848  72.031  1.00  0.00    -0.591 C  
BRANCH  12  13
HETATM   13  C   UNL     1     -13.205  13.725  72.646  1.00  0.00    -0.571 C  
BRANCH  13  14
HETATM   14  C   UNL     1     -13.605  12.403  72.022  1.00  0.00    -0.349 C  
BRANCH  14  15
HETATM   15  C   UNL     1     -12.511  11.864  71.112  1.00  0.00    -0.365 C  
BRANCH  15  16
HETATM   16  C   UNL     1     -12.690  10.366  71.004  1.00  0.00    -0.394 C  
BRANCH  16  17
HETATM   17  O   UNL     1     -11.719   9.693  71.797  1.00  0.00    -0.388 OA 
BRANCH  17  18
HETATM   18  P   UNL     1     -11.528   8.034  71.346  1.00  0.00    -0.276 P  
HETATM   19  O   UNL     1     -10.765   8.490  70.098  1.00  0.00    -0.230 OA 
HETATM   20  O   UNL     1     -13.034   7.785  71.383  1.00  0.00    -0.328 OA 
BRANCH  18  21
HETATM   21  O   UNL     1     -11.336   6.374  70.897  1.00  0.00    -0.304 OA 
BRANCH  21  22
HETATM   22  C   UNL     1     -11.072   6.171  69.512  1.00  0.00    -0.420 C  
BRANCH  22  23
HETATM   23  C   UNL     1      -9.962   5.170  69.280  1.00  0.00    -0.210 C  
BRANCH  23  24
HETATM   24  N   UNL     1      -9.293   5.243  67.890  1.00  0.00    -0.113 N  
HETATM   25  C   UNL     1     -10.104   6.217  67.058  1.00  0.00    -0.176 C  
HETATM   26  C   UNL     1      -9.319   3.864  67.228  1.00  0.00    -0.191 C  
HETATM   27  C   UNL     1      -7.858   5.725  68.000  1.00  0.00    -0.100 C  
ENDBRANCH  23  24
ENDBRANCH  22  23
ENDBRANCH  21  22
ENDBRANCH  18  21
ENDBRANCH  17  18
ENDBRANCH  16  17
ENDBRANCH  15  16
ENDBRANCH  14  15
ENDBRANCH  13  14
ENDBRANCH  12  13
ENDBRANCH  11  12
ENDBRANCH  10  11
ENDBRANCH   9  10
ENDBRANCH   8   9
ENDBRANCH   7   8
ENDBRANCH   6   7
ENDBRANCH   5   6
ENDBRANCH   4   5
ENDBRANCH   3   4
ENDBRANCH   2   3
TORSDOF 20
ENDMDL
MODEL      208
REMARK 921   NORMALIZED FREE ENERGY PREDICTED BY IDOCK:   -3.48 KCAL/MOL
REMARK 922        TOTAL FREE ENERGY PREDICTED BY IDOCK:   -9.46 KCAL/MOL
REMARK 923 INTER-LIGAND FREE ENERGY PREDICTED BY IDOCK:   -7.48 KCAL/MOL
REMARK 924 INTRA-LIGAND FREE ENERGY PREDICTED BY IDOCK:   -1.99 KCAL/MOL
REMARK 927      BINDING AFFINITY PREDICTED BY RF-SCORE:    0.00 PKD
ROOT
HETATM    1  C   UNL     1     -11.541  12.570  66.225  1.00  0.00    -0.449 C  
HETATM    2  C   UNL     1     -11.905  13.724  67.143  1.00  0.00    -0.441 C  
ENDROOT
BRANCH   2   3
HETATM    3  C   UNL     1     -11.234  13.577  68.506  1.00  0.00    -0.310 C  
BRANCH   3   4
HETATM    4  C   UNL     1     -11.826  12.408  69.286  1.00  0.00    -0.361 C  
BRANCH   4   5
HETATM    5  C   UNL     1     -12.403  12.883  70.615  1.00  0.00    -0.385 C  
BRANCH   5   6
HETATM    6  C   UNL     1     -12.839  11.697  71.468  1.00  0.00    -0.469 C  
BRANCH   6   7
HETATM    7  C   UNL     1     -12.799  10.411  70.653  1.00  0.00    -0.393 C  
BRANCH   7   8
HETATM    8  C   UNL     1     -13.171   9.217  71.524  1.00  0.00    -0.433 C  
BRANCH   8   9
HETATM    9  C   UNL     1     -12.143   8.108  71.359  1.00  0.00    -0.326 C  
BRANCH   9  10
HETATM   10  C   UNL     1     -11.412   7.856  72.668  1.00  0.00    -0.454 C  
BRANCH  10  11
HETATM   11  C   UNL     1      -9.912   7.808  72.421  1.00  0.00    -0.272 C  
BRANCH  11  12
HETATM   12  C   UNL     1      -9.474   8.993  71.578  1.00  0.00    -0.316 C  
BRANCH  12  13
HETATM   13  C   UNL     1      -8.471   8.543  70.526  1.00  0.00    -0.143 C  
BRANCH  13  14
HETATM   14  C   UNL     1      -8.031   9.736  69.702  1.00  0.00    -0.152 C  
BRANCH  14  15
HETATM   15  C   UNL     1      -9.160  10.250  68.821  1.00  0.00    -0.159 C  
BRANCH  15  16
HETATM   16  C   UNL     1      -8.556  11.143  67.760  1.00  0.00    -0.131 C  
BRANCH  16  17
HETATM   17  O   UNL     1      -7.200  11.437  68.075  1.00  0.00    -0.078 OA 
BRANCH  17  18
HETATM   18  P   UNL     1      -6.929  13.128  68.322  1.00  0.00    -0.140 P  
HETATM   19  O   UNL     1      -6.014  13.132  67.092  1.00  0.00    -0.318 OA 
HETATM   20  O   UNL     1      -6.437  12.905  69.751  1.00  0.00    -0.096 OA 
BRANCH  18  21
HETATM   21  O   UNL     1      -6.658  14.818  68.570  1.00  0.00    -0.086 OA 
BRANCH  21  22
HETATM   22  C   UNL     1      -7.640  15.661  67.971  1.00  0.00    -0.124 C  
BRANCH  22  23
HETATM   23  C   UNL     1      -7.895  16.912  68.783  1.00  0.00    -0.250 C  
BRANCH  23  24
HETATM   24  N   UNL     1      -8.525  18.084  68.000  1.00  0.00    -0.254 N  
HETATM   25  C   UNL     1      -7.897  18.085  66.620  1.00  0.00    -0.243 C  
HETATM   26  C   UNL     1      -8.211  19.406  68.703  1.00  0.00    -0.364 C  
HETATM   27  C   UNL     1     -10.029  17.916  67.885  1.00  0.00    -0.329 C  
ENDBRANCH  23  24
ENDBRANCH  22  23
ENDBRANCH  21  22
ENDBRANCH  18  21
ENDBRANCH  17  18
ENDBRANCH  16  17
ENDBRANCH  15  16
ENDBRANCH  14  15
ENDBRANCH  13  14
ENDBRANCH  12  13
ENDBRANCH  11  12
ENDBRANCH  10  11
ENDBRANCH   9  10
ENDBRANCH   8   9
ENDBRANCH   7   8
ENDBRANCH   6   7
ENDBRANCH   5   6
ENDBRANCH   4   5
ENDBRANCH   3   4
ENDBRANCH   2   3
TORSDOF 20
ENDMDL
MODEL      209
REMARK 921   NORMALIZED FREE ENERGY PREDICTED BY IDOCK:   -3.48 KCAL/MOL
REMARK 922        TOTAL FREE ENERGY PREDICTED BY IDOCK:   -9.46 KCAL/MOL
REMARK 923 INTER-LIGAND FREE ENERGY PREDICTED BY IDOCK:   -6.50 KCAL/MOL
REMARK 924 INTRA-LIGAND FREE ENERGY PREDICTED BY IDOCK:   -2.96 KCAL/MOL
REMARK 927      BINDING AFFINITY PREDICTED BY RF-SCORE:    0.00 PKD
ROOT
HETATM    1  C   UNL     1      -8.583   3.110  67.066  1.00  0.00    -0.121 C  
HETATM    2  C   UNL     1      -8.493   4.246  68.070  1.00  0.00    -0.101 C  
ENDROOT
BRANCH   2   3
HETATM    3  C   UNL     1      -9.293   3.931  69.331  1.00  0.00    -0.246 C  
BRANCH   3   4
HETATM    4  C   UNL     1      -8.537   4.364  70.583  1.00  0.00    -0.110 C  
BRANCH   4   5
HETATM    5  C   UNL     1      -7.630   5.552  70.282  1.00  0.00    -0.080 C  
BRANCH   5   6
HETATM    6  C   UNL     1      -7.596   6.517  71.461  1.00  0.00    -0.094 C  
BRANCH   6   7
HETATM    7  C   UNL     1      -8.385   5.953  72.635  1.00  0.00    -0.119 C  
BRANCH   7   8
HETATM    8  C   UNL     1      -8.804   7.071  73.581  1.00  0.00    -0.180 C  
BRANCH   8   9
HETATM    9  C   UNL     1     -10.293   7.348  73.438  1.00  0.00    -0.411 C  
BRANCH   9  10
HETATM   10  C   UNL     1     -10.995   6.175  72.772  1.00  0.00    -0.294 C  
BRANCH  10  11
HETATM   11  C   UNL     1     -12.052   6.687  71.806  1.00  0.00    -0.400 C  
BRANCH  11  12
HETATM   12  C   UNL     1     -11.437   7.649  70.805  1.00  0.00    -0.295 C  
BRANCH  12  13
HETATM   13  C   UNL     1     -11.162   6.930  69.491  1.00  0.00    -0.246 C  
BRANCH  13  14
HETATM   14  C   UNL     1     -10.194   7.746  68.660  1.00  0.00    -0.217 C  
BRANCH  14  15
HETATM   15  C   UNL     1     -10.488   7.613  67.173  1.00  0.00    -0.412 C  
BRANCH  15  16
HETATM   16  C   UNL     1      -9.737   8.708  66.448  1.00  0.00    -0.263 C  
BRANCH  16  17
HETATM   17  O   UNL     1     -10.529   9.887  66.378  1.00  0.00    -0.205 OA 
BRANCH  17  18
HETATM   18  P   UNL     1      -9.778  11.237  67.158  1.00  0.00    -0.185 P  
HETATM   19  O   UNL     1      -8.435  10.505  67.070  1.00  0.00    -0.126 OA 
HETATM   20  O   UNL     1     -10.721  11.152  68.356  1.00  0.00    -0.176 OA 
BRANCH  18  21
HETATM   21  O   UNL     1      -9.028  12.588  67.936  1.00  0.00    -0.172 OA 
BRANCH  21  22
HETATM   22  C   UNL     1      -9.087  13.800  67.189  1.00  0.00    -0.239 C  
BRANCH  22  23
HETATM   23  C   UNL     1     -10.026  13.700  66.007  1.00  0.00    -0.302 C  
BRANCH  23  24
HETATM   24  N   UNL     1     -11.247  14.644  66.058  1.00  0.00    -0.339 N  
HETATM   25  C   UNL     1     -11.052  15.682  64.970  1.00  0.00    -0.389 C  
HETATM   26  C   UNL     1     -11.309  15.338  67.420  1.00  0.00    -0.284 C  
HETATM   27  C   UNL     1     -12.537  13.880  65.820  1.00  0.00    -0.494 C  
ENDBRANCH  23  24
ENDBRANCH  22  23
ENDBRANCH  21  22
ENDBRANCH  18  21
ENDBRANCH  17  18
ENDBRANCH  16  17
ENDBRANCH  15  16
ENDBRANCH  14  15
ENDBRANCH  13  14
ENDBRANCH  12  13
ENDBRANCH  11  12
ENDBRANCH  10  11
ENDBRANCH   9  10
ENDBRANCH   8   9
ENDBRANCH   7   8
ENDBRANCH   6   7
ENDBRANCH   5   6
ENDBRANCH   4   5
ENDBRANCH   3   4
ENDBRANCH   2   3
TORSDOF 20
ENDMDL
MODEL      210
REMARK 921   NORMALIZED FREE ENERGY PREDICTED BY IDOCK:   -3.47 KCAL/MOL
REMARK 922        TOTAL FREE ENERGY PREDICTED BY IDOCK:   -9.45 KCAL/MOL
REMARK 923 INTER-LIGAND FREE ENERGY PREDICTED BY IDOCK:   -7.15 KCAL/MOL
REMARK 924 INTRA-LIGAND FREE ENERGY PREDICTED BY IDOCK:   -2.30 KCAL/MOL
REMARK 927      BINDING AFFINITY PREDICTED BY RF-SCORE:    0.00 PKD
ROOT
HETATM    1  C   UNL     1     -11.795  13.778  66.238  1.00  0.00    -0.426 C  
HETATM    2  C   UNL     1     -11.651  15.136  66.904  1.00  0.00    -0.160 C  
ENDROOT
BRANCH   2   3
HETATM    3  C   UNL     1     -11.658  15.008  68.425  1.00  0.00    -0.352 C  
BRANCH   3   4
HETATM    4  C   UNL     1     -10.721  16.026  69.066  1.00  0.00    -0.274 C  
BRANCH   4   5
HETATM    5  C   UNL     1      -9.353  15.409  69.333  1.00  0.00    -0.266 C  
BRANCH   5   6
HETATM    6  C   UNL     1      -8.358  15.814  68.252  1.00  0.00    -0.163 C  
BRANCH   6   7
HETATM    7  C   UNL     1      -8.032  14.627  67.355  1.00  0.00    -0.223 C  
BRANCH   7   8
HETATM    8  C   UNL     1      -7.916  13.352  68.180  1.00  0.00    -0.150 C  
BRANCH   8   9
HETATM    9  C   UNL     1      -7.434  12.204  67.305  1.00  0.00    -0.152 C  
BRANCH   9  10
HETATM   10  C   UNL     1      -8.476  11.098  67.250  1.00  0.00    -0.137 C  
BRANCH  10  11
HETATM   11  C   UNL     1      -8.810  10.634  68.659  1.00  0.00    -0.151 C  
BRANCH  11  12
HETATM   12  C   UNL     1     -10.229  10.094  68.719  1.00  0.00    -0.200 C  
BRANCH  12  13
HETATM   13  C   UNL     1     -11.217  11.180  68.318  1.00  0.00    -0.343 C  
BRANCH  13  14
HETATM   14  C   UNL     1     -12.034  11.592  69.526  1.00  0.00    -0.402 C  
BRANCH  14  15
HETATM   15  C   UNL     1     -11.882  10.596  70.666  1.00  0.00    -0.463 C  
BRANCH  15  16
HETATM   16  C   UNL     1     -13.130  10.665  71.517  1.00  0.00    -0.424 C  
BRANCH  16  17
HETATM   17  O   UNL     1     -13.252   9.492  72.313  1.00  0.00    -0.422 OA 
BRANCH  17  18
HETATM   18  P   UNL     1     -12.487   8.119  71.591  1.00  0.00    -0.326 P  
HETATM   19  O   UNL     1     -13.872   7.507  71.354  1.00  0.00    -0.383 OA 
HETATM   20  O   UNL     1     -11.639   7.858  72.834  1.00  0.00    -0.383 OA 
BRANCH  18  21
HETATM   21  O   UNL     1     -11.721   6.746  70.869  1.00  0.00    -0.332 OA 
BRANCH  21  22
HETATM   22  C   UNL     1     -10.363   6.561  71.260  1.00  0.00    -0.204 C  
BRANCH  22  23
HETATM   23  C   UNL     1      -9.928   5.116  71.158  1.00  0.00    -0.206 C  
BRANCH  23  24
HETATM   24  N   UNL     1      -9.571   4.442  72.501  1.00  0.00    -0.139 N  
HETATM   25  C   UNL     1     -10.853   4.354  73.307  1.00  0.00    -0.255 C  
HETATM   26  C   UNL     1      -8.553   5.298  73.256  1.00  0.00    -0.116 C  
HETATM   27  C   UNL     1      -9.001   3.053  72.279  1.00  0.00    -0.093 C  
ENDBRANCH  23  24
ENDBRANCH  22  23
ENDBRANCH  21  22
ENDBRANCH  18  21
ENDBRANCH  17  18
ENDBRANCH  16  17
ENDBRANCH  15  16
ENDBRANCH  14  15
ENDBRANCH  13  14
ENDBRANCH  12  13
ENDBRANCH  11  12
ENDBRANCH  10  11
ENDBRANCH   9  10
ENDBRANCH   8   9
ENDBRANCH   7   8
ENDBRANCH   6   7
ENDBRANCH   5   6
ENDBRANCH   4   5
ENDBRANCH   3   4
ENDBRANCH   2   3
TORSDOF 20
ENDMDL
MODEL      211
REMARK 921   NORMALIZED FREE ENERGY PREDICTED BY IDOCK:   -3.47 KCAL/MOL
REMARK 922        TOTAL FREE ENERGY PREDICTED BY IDOCK:   -9.44 KCAL/MOL
REMARK 923 INTER-LIGAND FREE ENERGY PREDICTED BY IDOCK:   -8.17 KCAL/MOL
REMARK 924 INTRA-LIGAND FREE ENERGY PREDICTED BY IDOCK:   -1.27 KCAL/MOL
REMARK 927      BINDING AFFINITY PREDICTED BY RF-SCORE:    0.00 PKD
ROOT
HETATM    1  C   UNL     1      -6.450   8.319  70.767  1.00  0.00    -0.037 C  
HETATM    2  C   UNL     1      -7.327   8.291  72.007  1.00  0.00    -0.117 C  
ENDROOT
BRANCH   2   3
HETATM    3  C   UNL     1      -8.806   8.210  71.634  1.00  0.00    -0.202 C  
BRANCH   3   4
HETATM    4  C   UNL     1      -8.995   7.524  70.286  1.00  0.00    -0.147 C  
BRANCH   4   5
HETATM    5  C   UNL     1      -9.963   6.352  70.407  1.00  0.00    -0.213 C  
BRANCH   5   6
HETATM    6  C   UNL     1     -10.088   5.904  71.858  1.00  0.00    -0.222 C  
BRANCH   6   7
HETATM    7  C   UNL     1     -11.544   5.939  72.304  1.00  0.00    -0.338 C  
BRANCH   7   8
HETATM    8  C   UNL     1     -12.366   6.820  71.372  1.00  0.00    -0.403 C  
BRANCH   8   9
HETATM    9  C   UNL     1     -12.719   8.128  72.064  1.00  0.00    -0.355 C  
BRANCH   9  10
HETATM   10  C   UNL     1     -12.430   9.311  71.155  1.00  0.00    -0.341 C  
BRANCH  10  11
HETATM   11  C   UNL     1     -13.489  10.385  71.353  1.00  0.00    -0.261 C  
BRANCH  11  12
HETATM   12  C   UNL     1     -12.840  11.713  71.703  1.00  0.00    -0.454 C  
BRANCH  12  13
HETATM   13  C   UNL     1     -13.871  12.650  72.317  1.00  0.00    -0.310 C  
BRANCH  13  14
HETATM   14  C   UNL     1     -13.717  14.033  71.717  1.00  0.00    -0.479 C  
BRANCH  14  15
HETATM   15  C   UNL     1     -13.233  15.038  72.753  1.00  0.00    -0.565 C  
BRANCH  15  16
HETATM   16  C   UNL     1     -11.869  15.531  72.324  1.00  0.00    -0.467 C  
BRANCH  16  17
HETATM   17  O   UNL     1     -11.388  14.763  71.228  1.00  0.00    -0.258 OA 
BRANCH  17  18
HETATM   18  P   UNL     1     -11.044  15.733  69.838  1.00  0.00    -0.394 P  
HETATM   19  O   UNL     1     -12.113  14.954  69.064  1.00  0.00    -0.282 OA 
HETATM   20  O   UNL     1      -9.564  15.358  69.862  1.00  0.00    -0.259 OA 
BRANCH  18  21
HETATM   21  O   UNL     1     -10.701  16.705  68.448  1.00  0.00    -0.319 OA 
BRANCH  21  22
HETATM   22  C   UNL     1      -9.407  17.302  68.458  1.00  0.00    -0.276 C  
BRANCH  22  23
HETATM   23  C   UNL     1      -9.471  18.813  68.473  1.00  0.00    -0.358 C  
BRANCH  23  24
HETATM   24  N   UNL     1      -9.212  19.494  67.111  1.00  0.00    -0.305 N  
HETATM   25  C   UNL     1      -8.104  18.715  66.429  1.00  0.00    -0.281 C  
HETATM   26  C   UNL     1      -8.758  20.938  67.331  1.00  0.00    -0.013 C  
HETATM   27  C   UNL     1     -10.461  19.481  66.249  1.00  0.00    -0.512 C  
ENDBRANCH  23  24
ENDBRANCH  22  23
ENDBRANCH  21  22
ENDBRANCH  18  21
ENDBRANCH  17  18
ENDBRANCH  16  17
ENDBRANCH  15  16
ENDBRANCH  14  15
ENDBRANCH  13  14
ENDBRANCH  12  13
ENDBRANCH  11  12
ENDBRANCH  10  11
ENDBRANCH   9  10
ENDBRANCH   8   9
ENDBRANCH   7   8
ENDBRANCH   6   7
ENDBRANCH   5   6
ENDBRANCH   4   5
ENDBRANCH   3   4
ENDBRANCH   2   3
TORSDOF 20
ENDMDL
MODEL      212
REMARK 921   NORMALIZED FREE ENERGY PREDICTED BY IDOCK:   -3.46 KCAL/MOL
REMARK 922        TOTAL FREE ENERGY PREDICTED BY IDOCK:   -9.43 KCAL/MOL
REMARK 923 INTER-LIGAND FREE ENERGY PREDICTED BY IDOCK:   -7.82 KCAL/MOL
REMARK 924 INTRA-LIGAND FREE ENERGY PREDICTED BY IDOCK:   -1.61 KCAL/MOL
REMARK 927      BINDING AFFINITY PREDICTED BY RF-SCORE:    0.00 PKD
ROOT
HETATM    1  C   UNL     1     -13.324   8.706  72.604  1.00  0.00    -0.275 C  
HETATM    2  C   UNL     1     -12.078   8.725  71.735  1.00  0.00    -0.418 C  
ENDROOT
BRANCH   2   3
HETATM    3  C   UNL     1     -11.788  10.132  71.219  1.00  0.00    -0.448 C  
BRANCH   3   4
HETATM    4  C   UNL     1     -12.939  11.081  71.537  1.00  0.00    -0.553 C  
BRANCH   4   5
HETATM    5  C   UNL     1     -12.590  12.509  71.130  1.00  0.00    -0.349 C  
BRANCH   5   6
HETATM    6  C   UNL     1     -13.581  13.498  71.731  1.00  0.00    -0.431 C  
BRANCH   6   7
HETATM    7  C   UNL     1     -12.963  14.215  72.924  1.00  0.00    -0.498 C  
BRANCH   7   8
HETATM    8  C   UNL     1     -12.062  15.350  72.455  1.00  0.00    -0.522 C  
BRANCH   8   9
HETATM    9  C   UNL     1     -12.351  15.682  70.999  1.00  0.00    -0.481 C  
BRANCH   9  10
HETATM   10  C   UNL     1     -11.072  16.060  70.271  1.00  0.00    -0.380 C  
BRANCH  10  11
HETATM   11  C   UNL     1     -11.371  16.317  68.802  1.00  0.00    -0.329 C  
BRANCH  11  12
HETATM   12  C   UNL     1     -10.316  15.668  67.923  1.00  0.00    -0.259 C  
BRANCH  12  13
HETATM   13  C   UNL     1     -10.979  14.768  66.890  1.00  0.00    -0.328 C  
BRANCH  13  14
HETATM   14  C   UNL     1     -11.864  13.757  67.592  1.00  0.00    -0.413 C  
BRANCH  14  15
HETATM   15  C   UNL     1     -11.633  12.351  67.059  1.00  0.00    -0.434 C  
BRANCH  15  16
HETATM   16  C   UNL     1     -10.552  11.705  67.897  1.00  0.00    -0.193 C  
BRANCH  16  17
HETATM   17  O   UNL     1      -9.646  10.987  67.068  1.00  0.00    -0.174 OA 
BRANCH  17  18
HETATM   18  P   UNL     1      -9.156   9.483  67.768  1.00  0.00    -0.123 P  
HETATM   19  O   UNL     1      -7.907   9.509  66.880  1.00  0.00    -0.100 OA 
HETATM   20  O   UNL     1     -10.466   8.801  67.379  1.00  0.00    -0.261 OA 
BRANCH  18  21
HETATM   21  O   UNL     1      -8.666   7.979  68.469  1.00  0.00    -0.131 OA 
BRANCH  21  22
HETATM   22  C   UNL     1      -7.777   8.112  69.575  1.00  0.00    -0.102 C  
BRANCH  22  23
HETATM   23  C   UNL     1      -8.502   8.470  70.854  1.00  0.00    -0.152 C  
BRANCH  23  24
HETATM   24  N   UNL     1      -7.846   7.943  72.149  1.00  0.00    -0.098 N  
HETATM   25  C   UNL     1      -6.504   8.636  72.280  1.00  0.00    -0.068 C  
HETATM   26  C   UNL     1      -7.632   6.432  72.044  1.00  0.00    -0.095 C  
HETATM   27  C   UNL     1      -8.709   8.249  73.360  1.00  0.00    -0.204 C  
ENDBRANCH  23  24
ENDBRANCH  22  23
ENDBRANCH  21  22
ENDBRANCH  18  21
ENDBRANCH  17  18
ENDBRANCH  16  17
ENDBRANCH  15  16
ENDBRANCH  14  15
ENDBRANCH  13  14
ENDBRANCH  12  13
ENDBRANCH  11  12
ENDBRANCH  10  11
ENDBRANCH   9  10
ENDBRANCH   8   9
ENDBRANCH   7   8
ENDBRANCH   6   7
ENDBRANCH   5   6
ENDBRANCH   4   5
ENDBRANCH   3   4
ENDBRANCH   2   3
TORSDOF 20
ENDMDL
MODEL      213
REMARK 921   NORMALIZED FREE ENERGY PREDICTED BY IDOCK:   -3.46 KCAL/MOL
REMARK 922        TOTAL FREE ENERGY PREDICTED BY IDOCK:   -9.43 KCAL/MOL
REMARK 923 INTER-LIGAND FREE ENERGY PREDICTED BY IDOCK:   -6.73 KCAL/MOL
REMARK 924 INTRA-LIGAND FREE ENERGY PREDICTED BY IDOCK:   -2.69 KCAL/MOL
REMARK 927      BINDING AFFINITY PREDICTED BY RF-SCORE:    0.00 PKD
ROOT
HETATM    1  C   UNL     1      -7.140   3.012  68.712  1.00  0.00    -0.048 C  
HETATM    2  C   UNL     1      -6.671   4.455  68.789  1.00  0.00    -0.046 C  
ENDROOT
BRANCH   2   3
HETATM    3  C   UNL     1      -7.676   5.322  69.543  1.00  0.00    -0.073 C  
BRANCH   3   4
HETATM    4  C   UNL     1      -6.970   6.255  70.521  1.00  0.00    -0.064 C  
BRANCH   4   5
HETATM    5  C   UNL     1      -7.472   7.686  70.359  1.00  0.00    -0.079 C  
BRANCH   5   6
HETATM    6  C   UNL     1      -7.652   8.352  71.718  1.00  0.00    -0.139 C  
BRANCH   6   7
HETATM    7  C   UNL     1      -8.104   7.332  72.756  1.00  0.00    -0.122 C  
BRANCH   7   8
HETATM    8  C   UNL     1      -9.143   7.944  73.686  1.00  0.00    -0.337 C  
BRANCH   8   9
HETATM    9  C   UNL     1     -10.291   6.971  73.902  1.00  0.00    -0.386 C  
BRANCH   9  10
HETATM   10  C   UNL     1     -10.228   5.835  72.893  1.00  0.00    -0.214 C  
BRANCH  10  11
HETATM   11  C   UNL     1     -11.589   5.647  72.242  1.00  0.00    -0.244 C  
BRANCH  11  12
HETATM   12  C   UNL     1     -11.966   6.875  71.432  1.00  0.00    -0.393 C  
BRANCH  12  13
HETATM   13  C   UNL     1     -11.027   7.025  70.244  1.00  0.00    -0.304 C  
BRANCH  13  14
HETATM   14  C   UNL     1     -10.987   8.477  69.810  1.00  0.00    -0.131 C  
BRANCH  14  15
HETATM   15  C   UNL     1     -11.208   9.415  70.988  1.00  0.00    -0.412 C  
BRANCH  15  16
HETATM   16  C   UNL     1     -11.565  10.778  70.439  1.00  0.00    -0.339 C  
BRANCH  16  17
HETATM   17  O   UNL     1     -10.712  11.113  69.351  1.00  0.00    -0.224 OA 
BRANCH  17  18
HETATM   18  P   UNL     1     -11.376  12.352  68.344  1.00  0.00    -0.336 P  
HETATM   19  O   UNL     1     -11.927  13.038  69.598  1.00  0.00    -0.315 OA 
HETATM   20  O   UNL     1     -12.159  11.342  67.508  1.00  0.00    -0.592 OA 
BRANCH  18  21
HETATM   21  O   UNL     1     -12.039  13.592  67.335  1.00  0.00    -0.380 OA 
BRANCH  21  22
HETATM   22  C   UNL     1     -11.066  14.324  66.594  1.00  0.00    -0.321 C  
BRANCH  22  23
HETATM   23  C   UNL     1     -11.107  15.805  66.899  1.00  0.00    -0.133 C  
BRANCH  23  24
HETATM   24  N   UNL     1      -9.736  16.454  67.187  1.00  0.00    -0.235 N  
HETATM   25  C   UNL     1      -9.757  17.835  66.562  1.00  0.00    -0.320 C  
HETATM   26  C   UNL     1      -8.624  15.621  66.546  1.00  0.00    -0.300 C  
HETATM   27  C   UNL     1      -9.488  16.564  68.680  1.00  0.00    -0.243 C  
ENDBRANCH  23  24
ENDBRANCH  22  23
ENDBRANCH  21  22
ENDBRANCH  18  21
ENDBRANCH  17  18
ENDBRANCH  16  17
ENDBRANCH  15  16
ENDBRANCH  14  15
ENDBRANCH  13  14
ENDBRANCH  12  13
ENDBRANCH  11  12
ENDBRANCH  10  11
ENDBRANCH   9  10
ENDBRANCH   8   9
ENDBRANCH   7   8
ENDBRANCH   6   7
ENDBRANCH   5   6
ENDBRANCH   4   5
ENDBRANCH   3   4
ENDBRANCH   2   3
TORSDOF 20
ENDMDL
MODEL      214
REMARK 921   NORMALIZED FREE ENERGY PREDICTED BY IDOCK:   -3.44 KCAL/MOL
REMARK 922        TOTAL FREE ENERGY PREDICTED BY IDOCK:   -9.39 KCAL/MOL
REMARK 923 INTER-LIGAND FREE ENERGY PREDICTED BY IDOCK:   -7.97 KCAL/MOL
REMARK 924 INTRA-LIGAND FREE ENERGY PREDICTED BY IDOCK:   -1.42 KCAL/MOL
REMARK 927      BINDING AFFINITY PREDICTED BY RF-SCORE:    0.00 PKD
ROOT
HETATM    1  C   UNL     1     -12.102  15.888  71.731  1.00  0.00    -0.567 C  
HETATM    2  C   UNL     1     -11.299  15.188  70.647  1.00  0.00    -0.330 C  
ENDROOT
BRANCH   2   3
HETATM    3  C   UNL     1     -11.883  15.464  69.264  1.00  0.00    -0.365 C  
BRANCH   3   4
HETATM    4  C   UNL     1     -11.039  14.815  68.172  1.00  0.00    -0.288 C  
BRANCH   4   5
HETATM    5  C   UNL     1     -11.919  14.327  67.026  1.00  0.00    -0.463 C  
BRANCH   5   6
HETATM    6  C   UNL     1     -11.595  15.079  65.741  1.00  0.00    -0.171 C  
BRANCH   6   7
HETATM    7  C   UNL     1     -12.394  14.512  64.575  1.00  0.00    -0.434 C  
BRANCH   7   8
HETATM    8  C   UNL     1     -12.684  13.033  64.798  1.00  0.00    -0.409 C  
BRANCH   8   9
HETATM    9  C   UNL     1     -12.483  12.259  63.504  1.00  0.00    -0.642 C  
BRANCH   9  10
HETATM   10  C   UNL     1     -11.093  11.645  63.457  1.00  0.00    -0.476 C  
BRANCH  10  11
HETATM   11  C   UNL     1     -10.446  11.726  64.830  1.00  0.00    -0.334 C  
BRANCH  11  12
HETATM   12  C   UNL     1     -10.344  10.344  65.452  1.00  0.00    -0.270 C  
BRANCH  12  13
HETATM   13  C   UNL     1      -8.889   9.897  65.492  1.00  0.00    -0.186 C  
BRANCH  13  14
HETATM   14  C   UNL     1      -8.514   9.520  66.911  1.00  0.00    -0.128 C  
BRANCH  14  15
HETATM   15  C   UNL     1      -8.079  10.737  67.714  1.00  0.00    -0.111 C  
BRANCH  15  16
HETATM   16  C   UNL     1      -8.748  10.668  69.068  1.00  0.00    -0.146 C  
BRANCH  16  17
HETATM   17  O   UNL     1     -10.109  10.279  68.927  1.00  0.00    -0.184 OA 
BRANCH  17  18
HETATM   18  P   UNL     1     -10.841   9.867  70.440  1.00  0.00    -0.321 P  
HETATM   19  O   UNL     1     -11.045   8.440  69.920  1.00  0.00    -0.216 OA 
HETATM   20  O   UNL     1     -11.880  10.979  70.312  1.00  0.00    -0.309 OA 
BRANCH  18  21
HETATM   21  O   UNL     1     -11.572   9.456  71.953  1.00  0.00    -0.378 OA 
BRANCH  21  22
HETATM   22  C   UNL     1     -11.700   8.055  72.178  1.00  0.00    -0.344 C  
BRANCH  22  23
HETATM   23  C   UNL     1     -10.873   7.585  73.355  1.00  0.00    -0.285 C  
BRANCH  23  24
HETATM   24  N   UNL     1      -9.479   7.028  72.996  1.00  0.00    -0.144 N  
HETATM   25  C   UNL     1      -9.653   6.151  71.771  1.00  0.00    -0.150 C  
HETATM   26  C   UNL     1      -8.943   6.185  74.154  1.00  0.00    -0.131 C  
HETATM   27  C   UNL     1      -8.504   8.152  72.694  1.00  0.00    -0.190 C  
ENDBRANCH  23  24
ENDBRANCH  22  23
ENDBRANCH  21  22
ENDBRANCH  18  21
ENDBRANCH  17  18
ENDBRANCH  16  17
ENDBRANCH  15  16
ENDBRANCH  14  15
ENDBRANCH  13  14
ENDBRANCH  12  13
ENDBRANCH  11  12
ENDBRANCH  10  11
ENDBRANCH   9  10
ENDBRANCH   8   9
ENDBRANCH   7   8
ENDBRANCH   6   7
ENDBRANCH   5   6
ENDBRANCH   4   5
ENDBRANCH   3   4
ENDBRANCH   2   3
TORSDOF 20
ENDMDL
MODEL      215
REMARK 921   NORMALIZED FREE ENERGY PREDICTED BY IDOCK:   -3.44 KCAL/MOL
REMARK 922        TOTAL FREE ENERGY PREDICTED BY IDOCK:   -9.39 KCAL/MOL
REMARK 923 INTER-LIGAND FREE ENERGY PREDICTED BY IDOCK:   -7.08 KCAL/MOL
REMARK 924 INTRA-LIGAND FREE ENERGY PREDICTED BY IDOCK:   -2.31 KCAL/MOL
REMARK 927      BINDING AFFINITY PREDICTED BY RF-SCORE:    0.00 PKD
ROOT
HETATM    1  C   UNL     1      -9.757  11.359  63.198  1.00  0.00    -0.413 C  
HETATM    2  C   UNL     1     -10.449  12.521  63.891  1.00  0.00    -0.464 C  
ENDROOT
BRANCH   2   3
HETATM    3  C   UNL     1     -11.931  12.575  63.528  1.00  0.00    -0.629 C  
BRANCH   3   4
HETATM    4  C   UNL     1     -12.798  12.682  64.777  1.00  0.00    -0.349 C  
BRANCH   4   5
HETATM    5  C   UNL     1     -12.213  13.694  65.756  1.00  0.00    -0.503 C  
BRANCH   5   6
HETATM    6  C   UNL     1     -12.134  13.104  67.159  1.00  0.00    -0.343 C  
BRANCH   6   7
HETATM    7  C   UNL     1     -11.874  14.199  68.185  1.00  0.00    -0.387 C  
BRANCH   7   8
HETATM    8  C   UNL     1     -10.708  15.075  67.745  1.00  0.00    -0.278 C  
BRANCH   8   9
HETATM    9  C   UNL     1      -9.389  14.439  68.160  1.00  0.00    -0.203 C  
BRANCH   9  10
HETATM   10  C   UNL     1      -8.588  14.020  66.938  1.00  0.00    -0.148 C  
BRANCH  10  11
HETATM   11  C   UNL     1      -7.867  12.710  67.218  1.00  0.00    -0.155 C  
BRANCH  11  12
HETATM   12  C   UNL     1      -8.816  11.536  67.056  1.00  0.00    -0.173 C  
BRANCH  12  13
HETATM   13  C   UNL     1      -8.860  10.719  68.340  1.00  0.00    -0.146 C  
BRANCH  13  14
HETATM   14  C   UNL     1     -10.302  10.517  68.762  1.00  0.00    -0.208 C  
BRANCH  14  15
HETATM   15  C   UNL     1     -10.394   9.918  70.158  1.00  0.00    -0.336 C  
BRANCH  15  16
HETATM   16  C   UNL     1     -11.768  10.228  70.710  1.00  0.00    -0.360 C  
BRANCH  16  17
HETATM   17  O   UNL     1     -12.060   9.380  71.814  1.00  0.00    -0.354 OA 
BRANCH  17  18
HETATM   18  P   UNL     1     -11.208   7.876  71.739  1.00  0.00    -0.295 P  
HETATM   19  O   UNL     1     -12.519   7.185  71.348  1.00  0.00    -0.350 OA 
HETATM   20  O   UNL     1     -10.711   8.013  73.176  1.00  0.00    -0.332 OA 
BRANCH  18  21
HETATM   21  O   UNL     1     -10.355   6.373  71.663  1.00  0.00    -0.201 OA 
BRANCH  21  22
HETATM   22  C   UNL     1      -9.217   6.303  72.519  1.00  0.00    -0.140 C  
BRANCH  22  23
HETATM   23  C   UNL     1      -7.921   6.511  71.767  1.00  0.00    -0.104 C  
BRANCH  23  24
HETATM   24  N   UNL     1      -6.722   5.689  72.288  1.00  0.00    -0.068 N  
HETATM   25  C   UNL     1      -5.468   6.478  71.964  1.00  0.00    -0.032 C  
HETATM   26  C   UNL     1      -6.672   4.337  71.574  1.00  0.00    -0.027 C  
HETATM   27  C   UNL     1      -6.823   5.467  73.786  1.00  0.00    -0.080 C  
ENDBRANCH  23  24
ENDBRANCH  22  23
ENDBRANCH  21  22
ENDBRANCH  18  21
ENDBRANCH  17  18
ENDBRANCH  16  17
ENDBRANCH  15  16
ENDBRANCH  14  15
ENDBRANCH  13  14
ENDBRANCH  12  13
ENDBRANCH  11  12
ENDBRANCH  10  11
ENDBRANCH   9  10
ENDBRANCH   8   9
ENDBRANCH   7   8
ENDBRANCH   6   7
ENDBRANCH   5   6
ENDBRANCH   4   5
ENDBRANCH   3   4
ENDBRANCH   2   3
TORSDOF 20
ENDMDL
MODEL      216
REMARK 921   NORMALIZED FREE ENERGY PREDICTED BY IDOCK:   -3.43 KCAL/MOL
REMARK 922        TOTAL FREE ENERGY PREDICTED BY IDOCK:   -9.37 KCAL/MOL
REMARK 923 INTER-LIGAND FREE ENERGY PREDICTED BY IDOCK:   -8.01 KCAL/MOL
REMARK 924 INTRA-LIGAND FREE ENERGY PREDICTED BY IDOCK:   -1.36 KCAL/MOL
REMARK 927      BINDING AFFINITY PREDICTED BY RF-SCORE:    0.00 PKD
ROOT
HETATM    1  C   UNL     1      -7.856  10.167  68.815  1.00  0.00    -0.098 C  
HETATM    2  C   UNL     1      -7.876   9.783  70.284  1.00  0.00    -0.190 C  
ENDROOT
BRANCH   2   3
HETATM    3  C   UNL     1      -7.095   8.494  70.527  1.00  0.00    -0.041 C  
BRANCH   3   4
HETATM    4  C   UNL     1      -7.701   7.331  69.748  1.00  0.00    -0.107 C  
BRANCH   4   5
HETATM    5  C   UNL     1      -8.156   6.225  70.695  1.00  0.00    -0.113 C  
BRANCH   5   6
HETATM    6  C   UNL     1      -9.514   5.678  70.272  1.00  0.00    -0.202 C  
BRANCH   6   7
HETATM    7  C   UNL     1     -10.617   6.253  71.149  1.00  0.00    -0.289 C  
BRANCH   7   8
HETATM    8  C   UNL     1     -11.030   7.632  70.652  1.00  0.00    -0.259 C  
BRANCH   8   9
HETATM    9  C   UNL     1     -12.075   8.232  71.580  1.00  0.00    -0.346 C  
BRANCH   9  10
HETATM   10  C   UNL     1     -12.807   9.376  70.896  1.00  0.00    -0.150 C  
BRANCH  10  11
HETATM   11  C   UNL     1     -13.244  10.401  71.930  1.00  0.00    -0.535 C  
BRANCH  11  12
HETATM   12  C   UNL     1     -12.704  11.776  71.577  1.00  0.00    -0.400 C  
BRANCH  12  13
HETATM   13  C   UNL     1     -13.551  12.855  72.237  1.00  0.00    -0.611 C  
BRANCH  13  14
HETATM   14  C   UNL     1     -12.937  14.214  71.970  1.00  0.00    -0.444 C  
BRANCH  14  15
HETATM   15  C   UNL     1     -12.098  14.206  70.700  1.00  0.00    -0.421 C  
BRANCH  15  16
HETATM   16  C   UNL     1     -12.305  15.527  69.994  1.00  0.00    -0.317 C  
BRANCH  16  17
HETATM   17  O   UNL     1     -11.052  16.145  69.725  1.00  0.00    -0.311 OA 
BRANCH  17  18
HETATM   18  P   UNL     1     -10.726  16.272  68.031  1.00  0.00    -0.325 P  
HETATM   19  O   UNL     1      -9.354  15.634  68.276  1.00  0.00    -0.189 OA 
HETATM   20  O   UNL     1     -10.979  17.777  68.029  1.00  0.00    -0.297 OA 
BRANCH  18  21
HETATM   21  O   UNL     1     -10.400  16.397  66.336  1.00  0.00    -0.299 OA 
BRANCH  21  22
HETATM   22  C   UNL     1     -11.107  15.455  65.534  1.00  0.00    -0.298 C  
BRANCH  22  23
HETATM   23  C   UNL     1     -10.192  14.412  64.932  1.00  0.00    -0.324 C  
BRANCH  23  24
HETATM   24  N   UNL     1     -10.732  12.965  64.971  1.00  0.00    -0.294 N  
HETATM   25  C   UNL     1     -10.053  12.269  66.134  1.00  0.00    -0.245 C  
HETATM   26  C   UNL     1     -10.378  12.245  63.669  1.00  0.00    -0.432 C  
HETATM   27  C   UNL     1     -12.237  12.951  65.165  1.00  0.00    -0.470 C  
ENDBRANCH  23  24
ENDBRANCH  22  23
ENDBRANCH  21  22
ENDBRANCH  18  21
ENDBRANCH  17  18
ENDBRANCH  16  17
ENDBRANCH  15  16
ENDBRANCH  14  15
ENDBRANCH  13  14
ENDBRANCH  12  13
ENDBRANCH  11  12
ENDBRANCH  10  11
ENDBRANCH   9  10
ENDBRANCH   8   9
ENDBRANCH   7   8
ENDBRANCH   6   7
ENDBRANCH   5   6
ENDBRANCH   4   5
ENDBRANCH   3   4
ENDBRANCH   2   3
TORSDOF 20
ENDMDL
MODEL      217
REMARK 921   NORMALIZED FREE ENERGY PREDICTED BY IDOCK:   -3.43 KCAL/MOL
REMARK 922        TOTAL FREE ENERGY PREDICTED BY IDOCK:   -9.36 KCAL/MOL
REMARK 923 INTER-LIGAND FREE ENERGY PREDICTED BY IDOCK:   -7.78 KCAL/MOL
REMARK 924 INTRA-LIGAND FREE ENERGY PREDICTED BY IDOCK:   -1.59 KCAL/MOL
REMARK 927      BINDING AFFINITY PREDICTED BY RF-SCORE:    0.00 PKD
ROOT
HETATM    1  C   UNL     1     -10.541  18.965  65.991  1.00  0.00    -0.470 C  
HETATM    2  C   UNL     1      -9.810  20.107  66.677  1.00  0.00    -0.588 C  
ENDROOT
BRANCH   2   3
HETATM    3  C   UNL     1      -9.470  19.753  68.123  1.00  0.00    -0.454 C  
BRANCH   3   4
HETATM    4  C   UNL     1      -7.964  19.606  68.312  1.00  0.00    -0.356 C  
BRANCH   4   5
HETATM    5  C   UNL     1      -7.576  18.137  68.432  1.00  0.00    -0.290 C  
BRANCH   5   6
HETATM    6  C   UNL     1      -8.811  17.268  68.639  1.00  0.00    -0.261 C  
BRANCH   6   7
HETATM    7  C   UNL     1      -8.763  16.047  67.730  1.00  0.00    -0.170 C  
BRANCH   7   8
HETATM    8  C   UNL     1      -9.420  14.852  68.408  1.00  0.00    -0.209 C  
BRANCH   8   9
HETATM    9  C   UNL     1     -10.594  15.312  69.258  1.00  0.00    -0.256 C  
BRANCH   9  10
HETATM   10  C   UNL     1     -11.628  14.205  69.390  1.00  0.00    -0.353 C  
BRANCH  10  11
HETATM   11  C   UNL     1     -11.073  12.910  68.817  1.00  0.00    -0.305 C  
BRANCH  11  12
HETATM   12  C   UNL     1     -12.010  11.753  69.113  1.00  0.00    -0.356 C  
BRANCH  12  13
HETATM   13  C   UNL     1     -11.705  11.173  70.487  1.00  0.00    -0.392 C  
BRANCH  13  14
HETATM   14  C   UNL     1     -12.976  11.128  71.311  1.00  0.00    -0.457 C  
BRANCH  14  15
HETATM   15  C   UNL     1     -13.042   9.869  72.164  1.00  0.00    -0.497 C  
BRANCH  15  16
HETATM   16  C   UNL     1     -11.892   8.973  71.764  1.00  0.00    -0.372 C  
BRANCH  16  17
HETATM   17  O   UNL     1     -12.123   7.643  72.211  1.00  0.00    -0.298 OA 
BRANCH  17  18
HETATM   18  P   UNL     1     -10.677   6.693  72.245  1.00  0.00    -0.241 P  
HETATM   19  O   UNL     1     -11.507   5.497  72.723  1.00  0.00    -0.303 OA 
HETATM   20  O   UNL     1      -9.978   7.676  73.182  1.00  0.00    -0.251 OA 
BRANCH  18  21
HETATM   21  O   UNL     1      -9.231   5.745  72.278  1.00  0.00    -0.145 OA 
BRANCH  21  22
HETATM   22  C   UNL     1      -8.365   5.960  71.167  1.00  0.00    -0.124 C  
BRANCH  22  23
HETATM   23  C   UNL     1      -9.034   6.748  70.062  1.00  0.00    -0.141 C  
BRANCH  23  24
HETATM   24  N   UNL     1      -8.211   7.933  69.511  1.00  0.00    -0.127 N  
HETATM   25  C   UNL     1      -6.806   7.420  69.265  1.00  0.00    -0.053 C  
HETATM   26  C   UNL     1      -8.169   9.060  70.544  1.00  0.00    -0.168 C  
HETATM   27  C   UNL     1      -8.807   8.455  68.216  1.00  0.00    -0.139 C  
ENDBRANCH  23  24
ENDBRANCH  22  23
ENDBRANCH  21  22
ENDBRANCH  18  21
ENDBRANCH  17  18
ENDBRANCH  16  17
ENDBRANCH  15  16
ENDBRANCH  14  15
ENDBRANCH  13  14
ENDBRANCH  12  13
ENDBRANCH  11  12
ENDBRANCH  10  11
ENDBRANCH   9  10
ENDBRANCH   8   9
ENDBRANCH   7   8
ENDBRANCH   6   7
ENDBRANCH   5   6
ENDBRANCH   4   5
ENDBRANCH   3   4
ENDBRANCH   2   3
TORSDOF 20
ENDMDL
MODEL      218
REMARK 921   NORMALIZED FREE ENERGY PREDICTED BY IDOCK:   -3.42 KCAL/MOL
REMARK 922        TOTAL FREE ENERGY PREDICTED BY IDOCK:   -9.35 KCAL/MOL
REMARK 923 INTER-LIGAND FREE ENERGY PREDICTED BY IDOCK:   -7.77 KCAL/MOL
REMARK 924 INTRA-LIGAND FREE ENERGY PREDICTED BY IDOCK:   -1.58 KCAL/MOL
REMARK 927      BINDING AFFINITY PREDICTED BY RF-SCORE:    0.00 PKD
ROOT
HETATM    1  C   UNL     1     -13.375   8.677  71.909  1.00  0.00    -0.418 C  
HETATM    2  C   UNL     1     -12.033   8.699  71.197  1.00  0.00    -0.320 C  
ENDROOT
BRANCH   2   3
HETATM    3  C   UNL     1     -11.610  10.127  70.863  1.00  0.00    -0.459 C  
BRANCH   3   4
HETATM    4  C   UNL     1     -12.747  11.110  71.119  1.00  0.00    -0.510 C  
BRANCH   4   5
HETATM    5  C   UNL     1     -12.307  12.537  70.810  1.00  0.00    -0.376 C  
BRANCH   5   6
HETATM    6  C   UNL     1     -13.312  13.542  71.360  1.00  0.00    -0.296 C  
BRANCH   6   7
HETATM    7  C   UNL     1     -12.752  14.234  72.596  1.00  0.00    -0.396 C  
BRANCH   7   8
HETATM    8  C   UNL     1     -11.857  15.399  72.195  1.00  0.00    -0.536 C  
BRANCH   8   9
HETATM    9  C   UNL     1     -12.123  15.790  70.749  1.00  0.00    -0.448 C  
BRANCH   9  10
HETATM   10  C   UNL     1     -10.839  16.238  70.070  1.00  0.00    -0.329 C  
BRANCH  10  11
HETATM   11  C   UNL     1     -11.118  16.585  68.616  1.00  0.00    -0.329 C  
BRANCH  11  12
HETATM   12  C   UNL     1     -10.122  15.892  67.702  1.00  0.00    -0.242 C  
BRANCH  12  13
HETATM   13  C   UNL     1     -10.859  15.103  66.629  1.00  0.00    -0.318 C  
BRANCH  13  14
HETATM   14  C   UNL     1     -11.977  14.303  67.266  1.00  0.00    -0.439 C  
BRANCH  14  15
HETATM   15  C   UNL     1     -11.906  12.835  66.871  1.00  0.00    -0.440 C  
BRANCH  15  16
HETATM   16  C   UNL     1     -10.603  12.273  67.394  1.00  0.00    -0.222 C  
BRANCH  16  17
HETATM   17  O   UNL     1     -10.038  11.372  66.450  1.00  0.00    -0.206 OA 
BRANCH  17  18
HETATM   18  P   UNL     1      -9.323   9.987  67.199  1.00  0.00    -0.154 P  
HETATM   19  O   UNL     1      -8.424   9.820  65.969  1.00  0.00    -0.121 OA 
HETATM   20  O   UNL     1     -10.676   9.300  67.368  1.00  0.00    -0.279 OA 
BRANCH  18  21
HETATM   21  O   UNL     1      -8.607   8.602  67.950  1.00  0.00    -0.135 OA 
BRANCH  21  22
HETATM   22  C   UNL     1      -9.326   7.389  67.743  1.00  0.00    -0.136 C  
BRANCH  22  23
HETATM   23  C   UNL     1      -8.626   6.466  66.769  1.00  0.00    -0.113 C  
BRANCH  23  24
HETATM   24  N   UNL     1      -8.884   4.960  66.991  1.00  0.00    -0.107 N  
HETATM   25  C   UNL     1      -7.531   4.276  67.012  1.00  0.00    -0.077 C  
HETATM   26  C   UNL     1      -9.720   4.401  65.839  1.00  0.00    -0.211 C  
HETATM   27  C   UNL     1      -9.607   4.719  68.304  1.00  0.00    -0.149 C  
ENDBRANCH  23  24
ENDBRANCH  22  23
ENDBRANCH  21  22
ENDBRANCH  18  21
ENDBRANCH  17  18
ENDBRANCH  16  17
ENDBRANCH  15  16
ENDBRANCH  14  15
ENDBRANCH  13  14
ENDBRANCH  12  13
ENDBRANCH  11  12
ENDBRANCH  10  11
ENDBRANCH   9  10
ENDBRANCH   8   9
ENDBRANCH   7   8
ENDBRANCH   6   7
ENDBRANCH   5   6
ENDBRANCH   4   5
ENDBRANCH   3   4
ENDBRANCH   2   3
TORSDOF 20
ENDMDL
MODEL      219
REMARK 921   NORMALIZED FREE ENERGY PREDICTED BY IDOCK:   -3.41 KCAL/MOL
REMARK 922        TOTAL FREE ENERGY PREDICTED BY IDOCK:   -9.32 KCAL/MOL
REMARK 923 INTER-LIGAND FREE ENERGY PREDICTED BY IDOCK:   -6.33 KCAL/MOL
REMARK 924 INTRA-LIGAND FREE ENERGY PREDICTED BY IDOCK:   -3.00 KCAL/MOL
REMARK 927      BINDING AFFINITY PREDICTED BY RF-SCORE:    0.00 PKD
ROOT
HETATM    1  C   UNL     1     -12.468  12.701  65.175  1.00  0.00    -0.531 C  
HETATM    2  C   UNL     1     -11.154  12.099  65.643  1.00  0.00    -0.360 C  
ENDROOT
BRANCH   2   3
HETATM    3  C   UNL     1     -10.527  11.232  64.555  1.00  0.00    -0.396 C  
BRANCH   3   4
HETATM    4  C   UNL     1      -9.760  10.061  65.161  1.00  0.00    -0.380 C  
BRANCH   4   5
HETATM    5  C   UNL     1     -10.384   9.634  66.485  1.00  0.00    -0.264 C  
BRANCH   5   6
HETATM    6  C   UNL     1      -9.817   8.295  66.941  1.00  0.00    -0.316 C  
BRANCH   6   7
HETATM    7  C   UNL     1      -8.778   7.789  65.949  1.00  0.00    -0.175 C  
BRANCH   7   8
HETATM    8  C   UNL     1      -8.849   6.272  65.831  1.00  0.00    -0.148 C  
BRANCH   8   9
HETATM    9  C   UNL     1     -10.083   5.748  66.549  1.00  0.00    -0.216 C  
BRANCH   9  10
HETATM   10  C   UNL     1      -9.727   4.560  67.429  1.00  0.00    -0.218 C  
BRANCH  10  11
HETATM   11  C   UNL     1      -9.986   4.903  68.888  1.00  0.00    -0.220 C  
BRANCH  11  12
HETATM   12  C   UNL     1      -8.708   5.371  69.560  1.00  0.00    -0.108 C  
BRANCH  12  13
HETATM   13  C   UNL     1      -7.499   4.751  68.873  1.00  0.00    -0.061 C  
BRANCH  13  14
HETATM   14  C   UNL     1      -6.448   5.816  68.637  1.00  0.00    -0.042 C  
BRANCH  14  15
HETATM   15  C   UNL     1      -6.946   7.191  69.060  1.00  0.00    -0.075 C  
BRANCH  15  16
HETATM   16  C   UNL     1      -5.971   8.222  68.537  1.00  0.00    -0.041 C  
BRANCH  16  17
HETATM   17  O   UNL     1      -6.227   9.490  69.129  1.00  0.00    -0.041 OA 
BRANCH  17  18
HETATM   18  P   UNL     1      -7.611   9.471  70.166  1.00  0.00    -0.167 P  
HETATM   19  O   UNL     1      -8.300  10.459  69.219  1.00  0.00    -0.148 OA 
HETATM   20  O   UNL     1      -6.785   9.887  71.382  1.00  0.00    -0.323 OA 
BRANCH  18  21
HETATM   21  O   UNL     1      -8.995   9.450  71.204  1.00  0.00    -0.267 OA 
BRANCH  21  22
HETATM   22  C   UNL     1     -10.241   9.551  70.519  1.00  0.00    -0.287 C  
BRANCH  22  23
HETATM   23  C   UNL     1     -11.018   8.253  70.547  1.00  0.00    -0.242 C  
BRANCH  23  24
HETATM   24  N   UNL     1     -11.993   8.098  71.734  1.00  0.00    -0.288 N  
HETATM   25  C   UNL     1     -13.049   7.095  71.313  1.00  0.00    -0.300 C  
HETATM   26  C   UNL     1     -12.658   9.441  72.037  1.00  0.00    -0.384 C  
HETATM   27  C   UNL     1     -11.269   7.600  72.972  1.00  0.00    -0.333 C  
ENDBRANCH  23  24
ENDBRANCH  22  23
ENDBRANCH  21  22
ENDBRANCH  18  21
ENDBRANCH  17  18
ENDBRANCH  16  17
ENDBRANCH  15  16
ENDBRANCH  14  15
ENDBRANCH  13  14
ENDBRANCH  12  13
ENDBRANCH  11  12
ENDBRANCH  10  11
ENDBRANCH   9  10
ENDBRANCH   8   9
ENDBRANCH   7   8
ENDBRANCH   6   7
ENDBRANCH   5   6
ENDBRANCH   4   5
ENDBRANCH   3   4
ENDBRANCH   2   3
TORSDOF 20
ENDMDL
MODEL      220
REMARK 921   NORMALIZED FREE ENERGY PREDICTED BY IDOCK:   -3.41 KCAL/MOL
REMARK 922        TOTAL FREE ENERGY PREDICTED BY IDOCK:   -9.31 KCAL/MOL
REMARK 923 INTER-LIGAND FREE ENERGY PREDICTED BY IDOCK:   -7.61 KCAL/MOL
REMARK 924 INTRA-LIGAND FREE ENERGY PREDICTED BY IDOCK:   -1.70 KCAL/MOL
REMARK 927      BINDING AFFINITY PREDICTED BY RF-SCORE:    0.00 PKD
ROOT
HETATM    1  C   UNL     1     -11.056   7.902  72.747  1.00  0.00    -0.462 C  
HETATM    2  C   UNL     1     -11.757   7.981  71.402  1.00  0.00    -0.320 C  
ENDROOT
BRANCH   2   3
HETATM    3  C   UNL     1     -11.105   9.027  70.501  1.00  0.00    -0.297 C  
BRANCH   3   4
HETATM    4  C   UNL     1     -10.842   8.464  69.108  1.00  0.00    -0.042 C  
BRANCH   4   5
HETATM    5  C   UNL     1      -9.766   7.385  69.156  1.00  0.00    -0.165 C  
BRANCH   5   6
HETATM    6  C   UNL     1      -8.376   8.010  69.183  1.00  0.00    -0.132 C  
BRANCH   6   7
HETATM    7  C   UNL     1      -7.549   7.523  68.000  1.00  0.00    -0.110 C  
BRANCH   7   8
HETATM    8  C   UNL     1      -8.433   6.794  66.997  1.00  0.00    -0.114 C  
BRANCH   8   9
HETATM    9  C   UNL     1      -8.160   7.305  65.590  1.00  0.00    -0.133 C  
BRANCH   9  10
HETATM   10  C   UNL     1      -8.273   8.820  65.539  1.00  0.00    -0.133 C  
BRANCH  10  11
HETATM   11  C   UNL     1      -9.725   9.235  65.716  1.00  0.00    -0.339 C  
BRANCH  11  12
HETATM   12  C   UNL     1     -10.019  10.494  64.919  1.00  0.00    -0.401 C  
BRANCH  12  13
HETATM   13  C   UNL     1      -9.776  11.726  65.780  1.00  0.00    -0.260 C  
BRANCH  13  14
HETATM   14  C   UNL     1     -11.010  12.015  66.610  1.00  0.00    -0.330 C  
BRANCH  14  15
HETATM   15  C   UNL     1     -11.963  12.951  65.881  1.00  0.00    -0.504 C  
BRANCH  15  16
HETATM   16  C   UNL     1     -11.662  14.365  66.325  1.00  0.00    -0.385 C  
BRANCH  16  17
HETATM   17  O   UNL     1     -12.070  14.558  67.673  1.00  0.00    -0.343 OA 
BRANCH  17  18
HETATM   18  P   UNL     1     -11.124  15.754  68.489  1.00  0.00    -0.368 P  
HETATM   19  O   UNL     1      -9.883  14.883  68.267  1.00  0.00    -0.209 OA 
HETATM   20  O   UNL     1     -12.001  15.689  69.737  1.00  0.00    -0.346 OA 
BRANCH  18  21
HETATM   21  O   UNL     1     -10.178  16.952  69.304  1.00  0.00    -0.290 OA 
BRANCH  21  22
HETATM   22  C   UNL     1     -10.095  18.198  68.617  1.00  0.00    -0.392 C  
BRANCH  22  23
HETATM   23  C   UNL     1      -8.664  18.619  68.362  1.00  0.00    -0.333 C  
BRANCH  23  24
HETATM   24  N   UNL     1      -8.432  19.390  67.044  1.00  0.00    -0.278 N  
HETATM   25  C   UNL     1      -7.612  20.618  67.387  1.00  0.00    -0.330 C  
HETATM   26  C   UNL     1      -9.776  19.823  66.454  1.00  0.00    -0.428 C  
HETATM   27  C   UNL     1      -7.688  18.534  66.036  1.00  0.00    -0.171 C  
ENDBRANCH  23  24
ENDBRANCH  22  23
ENDBRANCH  21  22
ENDBRANCH  18  21
ENDBRANCH  17  18
ENDBRANCH  16  17
ENDBRANCH  15  16
ENDBRANCH  14  15
ENDBRANCH  13  14
ENDBRANCH  12  13
ENDBRANCH  11  12
ENDBRANCH  10  11
ENDBRANCH   9  10
ENDBRANCH   8   9
ENDBRANCH   7   8
ENDBRANCH   6   7
ENDBRANCH   5   6
ENDBRANCH   4   5
ENDBRANCH   3   4
ENDBRANCH   2   3
TORSDOF 20
ENDMDL
MODEL      221
REMARK 921   NORMALIZED FREE ENERGY PREDICTED BY IDOCK:   -3.40 KCAL/MOL
REMARK 922        TOTAL FREE ENERGY PREDICTED BY IDOCK:   -9.29 KCAL/MOL
REMARK 923 INTER-LIGAND FREE ENERGY PREDICTED BY IDOCK:   -7.13 KCAL/MOL
REMARK 924 INTRA-LIGAND FREE ENERGY PREDICTED BY IDOCK:   -2.16 KCAL/MOL
REMARK 927      BINDING AFFINITY PREDICTED BY RF-SCORE:    0.00 PKD
ROOT
HETATM    1  C   UNL     1      -6.215  11.405  68.020  1.00  0.00    -0.049 C  
HETATM    2  C   UNL     1      -6.585  12.832  68.387  1.00  0.00    -0.083 C  
ENDROOT
BRANCH   2   3
HETATM    3  C   UNL     1      -5.960  13.238  69.719  1.00  0.00    -0.128 C  
BRANCH   3   4
HETATM    4  C   UNL     1      -6.609  14.505  70.265  1.00  0.00    -0.098 C  
BRANCH   4   5
HETATM    5  C   UNL     1      -7.240  15.317  69.139  1.00  0.00    -0.169 C  
BRANCH   5   6
HETATM    6  C   UNL     1      -6.245  16.326  68.578  1.00  0.00    -0.116 C  
BRANCH   6   7
HETATM    7  C   UNL     1      -6.642  16.738  67.167  1.00  0.00    -0.227 C  
BRANCH   7   8
HETATM    8  C   UNL     1      -6.599  18.254  67.023  1.00  0.00    -0.203 C  
BRANCH   8   9
HETATM    9  C   UNL     1      -6.611  18.911  68.394  1.00  0.00    -0.260 C  
BRANCH   9  10
HETATM   10  C   UNL     1      -7.604  20.062  68.429  1.00  0.00    -0.239 C  
BRANCH  10  11
HETATM   11  C   UNL     1      -8.157  20.308  67.034  1.00  0.00    -0.365 C  
BRANCH  11  12
HETATM   12  C   UNL     1      -9.652  20.568  67.092  1.00  0.00    -0.570 C  
BRANCH  12  13
HETATM   13  C   UNL     1     -10.307  19.626  68.093  1.00  0.00    -0.561 C  
BRANCH  13  14
HETATM   14  C   UNL     1     -10.672  18.328  67.402  1.00  0.00    -0.377 C  
BRANCH  14  15
HETATM   15  C   UNL     1     -10.159  17.122  68.175  1.00  0.00    -0.311 C  
BRANCH  15  16
HETATM   16  C   UNL     1     -11.348  16.426  68.798  1.00  0.00    -0.277 C  
BRANCH  16  17
HETATM   17  O   UNL     1     -11.249  16.450  70.217  1.00  0.00    -0.367 OA 
BRANCH  17  18
HETATM   18  P   UNL     1     -12.015  15.088  70.959  1.00  0.00    -0.389 P  
HETATM   19  O   UNL     1     -11.405  14.191  69.877  1.00  0.00    -0.244 OA 
HETATM   20  O   UNL     1     -13.397  15.729  70.857  1.00  0.00    -0.576 OA 
BRANCH  18  21
HETATM   21  O   UNL     1     -12.781  13.727  71.703  1.00  0.00    -0.340 OA 
BRANCH  21  22
HETATM   22  C   UNL     1     -12.676  12.518  70.956  1.00  0.00    -0.225 C  
BRANCH  22  23
HETATM   23  C   UNL     1     -12.815  11.290  71.828  1.00  0.00    -0.360 C  
BRANCH  23  24
HETATM   24  N   UNL     1     -12.512   9.948  71.126  1.00  0.00    -0.342 N  
HETATM   25  C   UNL     1     -11.571   9.176  72.030  1.00  0.00    -0.301 C  
HETATM   26  C   UNL     1     -11.828  10.209  69.782  1.00  0.00    -0.088 C  
HETATM   27  C   UNL     1     -13.784   9.152  70.900  1.00  0.00     0.140 C  
ENDBRANCH  23  24
ENDBRANCH  22  23
ENDBRANCH  21  22
ENDBRANCH  18  21
ENDBRANCH  17  18
ENDBRANCH  16  17
ENDBRANCH  15  16
ENDBRANCH  14  15
ENDBRANCH  13  14
ENDBRANCH  12  13
ENDBRANCH  11  12
ENDBRANCH  10  11
ENDBRANCH   9  10
ENDBRANCH   8   9
ENDBRANCH   7   8
ENDBRANCH   6   7
ENDBRANCH   5   6
ENDBRANCH   4   5
ENDBRANCH   3   4
ENDBRANCH   2   3
TORSDOF 20
ENDMDL
MODEL      222
REMARK 921   NORMALIZED FREE ENERGY PREDICTED BY IDOCK:   -3.40 KCAL/MOL
REMARK 922        TOTAL FREE ENERGY PREDICTED BY IDOCK:   -9.29 KCAL/MOL
REMARK 923 INTER-LIGAND FREE ENERGY PREDICTED BY IDOCK:   -6.92 KCAL/MOL
REMARK 924 INTRA-LIGAND FREE ENERGY PREDICTED BY IDOCK:   -2.37 KCAL/MOL
REMARK 927      BINDING AFFINITY PREDICTED BY RF-SCORE:    0.00 PKD
ROOT
HETATM    1  C   UNL     1     -10.401   4.522  65.594  1.00  0.00    -0.274 C  
HETATM    2  C   UNL     1     -10.530   5.201  66.947  1.00  0.00    -0.280 C  
ENDROOT
BRANCH   2   3
HETATM    3  C   UNL     1      -9.159   5.443  67.574  1.00  0.00    -0.107 C  
BRANCH   3   4
HETATM    4  C   UNL     1      -8.541   6.738  67.057  1.00  0.00    -0.114 C  
BRANCH   4   5
HETATM    5  C   UNL     1      -7.559   7.311  68.074  1.00  0.00    -0.115 C  
BRANCH   5   6
HETATM    6  C   UNL     1      -7.387   6.360  69.252  1.00  0.00    -0.092 C  
BRANCH   6   7
HETATM    7  C   UNL     1      -6.599   7.032  70.369  1.00  0.00    -0.051 C  
BRANCH   7   8
HETATM    8  C   UNL     1      -7.219   6.715  71.724  1.00  0.00    -0.085 C  
BRANCH   8   9
HETATM    9  C   UNL     1      -7.122   7.925  72.640  1.00  0.00    -0.095 C  
BRANCH   9  10
HETATM   10  C   UNL     1      -8.384   8.068  73.476  1.00  0.00    -0.292 C  
BRANCH  10  11
HETATM   11  C   UNL     1      -9.136   6.746  73.505  1.00  0.00    -0.158 C  
BRANCH  11  12
HETATM   12  C   UNL     1     -10.636   6.987  73.480  1.00  0.00    -0.405 C  
BRANCH  12  13
HETATM   13  C   UNL     1     -11.262   6.256  72.301  1.00  0.00    -0.325 C  
BRANCH  13  14
HETATM   14  C   UNL     1     -11.884   7.262  71.354  1.00  0.00    -0.338 C  
BRANCH  14  15
HETATM   15  C   UNL     1     -11.078   7.387  70.069  1.00  0.00    -0.238 C  
BRANCH  15  16
HETATM   16  C   UNL     1     -10.199   8.613  70.186  1.00  0.00    -0.192 C  
BRANCH  16  17
HETATM   17  O   UNL     1     -10.922   9.685  70.778  1.00  0.00    -0.276 OA 
BRANCH  17  18
HETATM   18  P   UNL     1     -11.579  10.772  69.603  1.00  0.00    -0.350 P  
HETATM   19  O   UNL     1     -10.155  11.056  69.112  1.00  0.00    -0.206 OA 
HETATM   20  O   UNL     1     -12.294  11.596  70.671  1.00  0.00    -0.359 OA 
BRANCH  18  21
HETATM   21  O   UNL     1     -12.236  11.858  68.427  1.00  0.00    -0.425 OA 
BRANCH  21  22
HETATM   22  C   UNL     1     -11.374  12.940  68.086  1.00  0.00    -0.289 C  
BRANCH  22  23
HETATM   23  C   UNL     1     -11.976  13.842  67.031  1.00  0.00    -0.424 C  
BRANCH  23  24
HETATM   24  N   UNL     1     -11.416  13.647  65.605  1.00  0.00    -0.305 N  
HETATM   25  C   UNL     1     -12.508  12.985  64.787  1.00  0.00    -0.427 C  
HETATM   26  C   UNL     1     -10.189  12.734  65.650  1.00  0.00    -0.279 C  
HETATM   27  C   UNL     1     -11.036  14.977  64.981  1.00  0.00    -0.423 C  
ENDBRANCH  23  24
ENDBRANCH  22  23
ENDBRANCH  21  22
ENDBRANCH  18  21
ENDBRANCH  17  18
ENDBRANCH  16  17
ENDBRANCH  15  16
ENDBRANCH  14  15
ENDBRANCH  13  14
ENDBRANCH  12  13
ENDBRANCH  11  12
ENDBRANCH  10  11
ENDBRANCH   9  10
ENDBRANCH   8   9
ENDBRANCH   7   8
ENDBRANCH   6   7
ENDBRANCH   5   6
ENDBRANCH   4   5
ENDBRANCH   3   4
ENDBRANCH   2   3
TORSDOF 20
ENDMDL
MODEL      223
REMARK 921   NORMALIZED FREE ENERGY PREDICTED BY IDOCK:   -3.40 KCAL/MOL
REMARK 922        TOTAL FREE ENERGY PREDICTED BY IDOCK:   -9.29 KCAL/MOL
REMARK 923 INTER-LIGAND FREE ENERGY PREDICTED BY IDOCK:   -6.63 KCAL/MOL
REMARK 924 INTRA-LIGAND FREE ENERGY PREDICTED BY IDOCK:   -2.65 KCAL/MOL
REMARK 927      BINDING AFFINITY PREDICTED BY RF-SCORE:    0.00 PKD
ROOT
HETATM    1  C   UNL     1      -9.277   5.008  71.041  1.00  0.00    -0.191 C  
HETATM    2  C   UNL     1      -9.321   6.461  70.600  1.00  0.00    -0.169 C  
ENDROOT
BRANCH   2   3
HETATM    3  C   UNL     1     -10.748   6.893  70.270  1.00  0.00    -0.274 C  
BRANCH   3   4
HETATM    4  C   UNL     1     -11.244   6.218  68.995  1.00  0.00    -0.415 C  
BRANCH   4   5
HETATM    5  C   UNL     1     -10.800   6.998  67.763  1.00  0.00    -0.276 C  
BRANCH   5   6
HETATM    6  C   UNL     1     -10.261   6.055  66.693  1.00  0.00    -0.246 C  
BRANCH   6   7
HETATM    7  C   UNL     1      -9.645   4.818  67.333  1.00  0.00    -0.186 C  
BRANCH   7   8
HETATM    8  C   UNL     1      -8.260   4.555  66.757  1.00  0.00    -0.102 C  
BRANCH   8   9
HETATM    9  C   UNL     1      -7.465   5.850  66.690  1.00  0.00    -0.087 C  
BRANCH   9  10
HETATM   10  C   UNL     1      -6.926   6.221  68.063  1.00  0.00    -0.080 C  
BRANCH  10  11
HETATM   11  C   UNL     1      -6.884   7.734  68.210  1.00  0.00    -0.067 C  
BRANCH  11  12
HETATM   12  C   UNL     1      -7.430   8.405  66.961  1.00  0.00    -0.088 C  
BRANCH  12  13
HETATM   13  C   UNL     1      -7.752   9.864  67.252  1.00  0.00    -0.095 C  
BRANCH  13  14
HETATM   14  C   UNL     1      -8.230  10.539  65.982  1.00  0.00    -0.150 C  
BRANCH  14  15
HETATM   15  C   UNL     1      -9.244   9.678  65.242  1.00  0.00    -0.295 C  
BRANCH  15  16
HETATM   16  C   UNL     1     -10.593  10.353  65.346  1.00  0.00    -0.009 C  
BRANCH  16  17
HETATM   17  O   UNL     1     -10.805  11.210  64.231  1.00  0.00    -0.361 OA 
BRANCH  17  18
HETATM   18  P   UNL     1     -11.766  12.592  64.629  1.00  0.00    -0.396 P  
HETATM   19  O   UNL     1     -12.902  12.011  63.780  1.00  0.00    -0.668 OA 
HETATM   20  O   UNL     1     -10.711  13.559  64.097  1.00  0.00    -0.372 OA 
BRANCH  18  21
HETATM   21  O   UNL     1     -12.728  13.974  65.029  1.00  0.00    -0.632 OA 
BRANCH  21  22
HETATM   22  C   UNL     1     -12.524  14.465  66.351  1.00  0.00    -0.167 C  
BRANCH  22  23
HETATM   23  C   UNL     1     -11.403  13.741  67.065  1.00  0.00    -0.326 C  
BRANCH  23  24
HETATM   24  N   UNL     1     -10.287  14.650  67.624  1.00  0.00    -0.233 N  
HETATM   25  C   UNL     1     -10.407  14.624  69.135  1.00  0.00    -0.216 C  
HETATM   26  C   UNL     1     -10.485  16.082  67.122  1.00  0.00    -0.308 C  
HETATM   27  C   UNL     1      -8.917  14.151  67.203  1.00  0.00    -0.225 C  
ENDBRANCH  23  24
ENDBRANCH  22  23
ENDBRANCH  21  22
ENDBRANCH  18  21
ENDBRANCH  17  18
ENDBRANCH  16  17
ENDBRANCH  15  16
ENDBRANCH  14  15
ENDBRANCH  13  14
ENDBRANCH  12  13
ENDBRANCH  11  12
ENDBRANCH  10  11
ENDBRANCH   9  10
ENDBRANCH   8   9
ENDBRANCH   7   8
ENDBRANCH   6   7
ENDBRANCH   5   6
ENDBRANCH   4   5
ENDBRANCH   3   4
ENDBRANCH   2   3
TORSDOF 20
ENDMDL
MODEL      224
REMARK 921   NORMALIZED FREE ENERGY PREDICTED BY IDOCK:   -3.40 KCAL/MOL
REMARK 922        TOTAL FREE ENERGY PREDICTED BY IDOCK:   -9.29 KCAL/MOL
REMARK 923 INTER-LIGAND FREE ENERGY PREDICTED BY IDOCK:   -6.88 KCAL/MOL
REMARK 924 INTRA-LIGAND FREE ENERGY PREDICTED BY IDOCK:   -2.41 KCAL/MOL
REMARK 927      BINDING AFFINITY PREDICTED BY RF-SCORE:    0.00 PKD
ROOT
HETATM    1  C   UNL     1     -12.044  14.098  66.152  1.00  0.00    -0.454 C  
HETATM    2  C   UNL     1     -12.105  12.605  65.883  1.00  0.00    -0.459 C  
ENDROOT
BRANCH   2   3
HETATM    3  C   UNL     1     -11.658  12.283  64.459  1.00  0.00    -0.418 C  
BRANCH   3   4
HETATM    4  C   UNL     1     -10.293  11.602  64.453  1.00  0.00    -0.362 C  
BRANCH   4   5
HETATM    5  C   UNL     1     -10.211  10.549  65.553  1.00  0.00    -0.325 C  
BRANCH   5   6
HETATM    6  C   UNL     1      -9.406   9.342  65.085  1.00  0.00    -0.288 C  
BRANCH   6   7
HETATM    7  C   UNL     1      -9.254   8.332  66.215  1.00  0.00    -0.258 C  
BRANCH   7   8
HETATM    8  C   UNL     1     -10.597   8.077  66.886  1.00  0.00    -0.324 C  
BRANCH   8   9
HETATM    9  C   UNL     1     -10.411   7.922  68.387  1.00  0.00    -0.207 C  
BRANCH   9  10
HETATM   10  C   UNL     1     -10.609   9.254  69.093  1.00  0.00    -0.228 C  
BRANCH  10  11
HETATM   11  C   UNL     1      -9.565   9.418  70.187  1.00  0.00    -0.275 C  
BRANCH  11  12
HETATM   12  C   UNL     1      -8.170   9.470  69.589  1.00  0.00    -0.143 C  
BRANCH  12  13
HETATM   13  C   UNL     1      -7.770  10.914  69.322  1.00  0.00    -0.100 C  
BRANCH  13  14
HETATM   14  C   UNL     1      -7.526  11.106  67.839  1.00  0.00    -0.094 C  
BRANCH  14  15
HETATM   15  C   UNL     1      -7.392  12.580  67.483  1.00  0.00    -0.151 C  
BRANCH  15  16
HETATM   16  C   UNL     1      -8.759  13.215  67.600  1.00  0.00    -0.192 C  
BRANCH  16  17
HETATM   17  O   UNL     1      -8.772  14.172  68.653  1.00  0.00    -0.176 OA 
BRANCH  17  18
HETATM   18  P   UNL     1      -9.132  15.769  68.094  1.00  0.00    -0.189 P  
HETATM   19  O   UNL     1      -7.645  15.965  67.782  1.00  0.00    -0.127 OA 
HETATM   20  O   UNL     1      -9.784  16.154  69.420  1.00  0.00    -0.245 OA 
BRANCH  18  21
HETATM   21  O   UNL     1      -9.494  17.366  67.534  1.00  0.00    -0.245 OA 
BRANCH  21  22
HETATM   22  C   UNL     1      -8.490  17.932  66.697  1.00  0.00    -0.258 C  
BRANCH  22  23
HETATM   23  C   UNL     1      -8.230  19.388  67.016  1.00  0.00    -0.272 C  
BRANCH  23  24
HETATM   24  N   UNL     1      -6.842  19.689  67.621  1.00  0.00    -0.233 N  
HETATM   25  C   UNL     1      -6.885  19.249  69.072  1.00  0.00    -0.337 C  
HETATM   26  C   UNL     1      -6.561  21.191  67.553  1.00  0.00    -0.363 C  
HETATM   27  C   UNL     1      -5.750  18.936  66.883  1.00  0.00    -0.151 C  
ENDBRANCH  23  24
ENDBRANCH  22  23
ENDBRANCH  21  22
ENDBRANCH  18  21
ENDBRANCH  17  18
ENDBRANCH  16  17
ENDBRANCH  15  16
ENDBRANCH  14  15
ENDBRANCH  13  14
ENDBRANCH  12  13
ENDBRANCH  11  12
ENDBRANCH  10  11
ENDBRANCH   9  10
ENDBRANCH   8   9
ENDBRANCH   7   8
ENDBRANCH   6   7
ENDBRANCH   5   6
ENDBRANCH   4   5
ENDBRANCH   3   4
ENDBRANCH   2   3
TORSDOF 20
ENDMDL
MODEL      225
REMARK 921   NORMALIZED FREE ENERGY PREDICTED BY IDOCK:   -3.37 KCAL/MOL
REMARK 922        TOTAL FREE ENERGY PREDICTED BY IDOCK:   -9.24 KCAL/MOL
REMARK 923 INTER-LIGAND FREE ENERGY PREDICTED BY IDOCK:   -7.40 KCAL/MOL
REMARK 924 INTRA-LIGAND FREE ENERGY PREDICTED BY IDOCK:   -1.84 KCAL/MOL
REMARK 927      BINDING AFFINITY PREDICTED BY RF-SCORE:    0.00 PKD
ROOT
HETATM    1  C   UNL     1     -10.980  15.366  65.015  1.00  0.00    -0.450 C  
HETATM    2  C   UNL     1     -12.190  14.696  64.386  1.00  0.00    -0.473 C  
ENDROOT
BRANCH   2   3
HETATM    3  C   UNL     1     -12.577  13.430  65.147  1.00  0.00    -0.495 C  
BRANCH   3   4
HETATM    4  C   UNL     1     -11.761  12.233  64.670  1.00  0.00    -0.420 C  
BRANCH   4   5
HETATM    5  C   UNL     1     -10.946  11.644  65.815  1.00  0.00    -0.329 C  
BRANCH   5   6
HETATM    6  C   UNL     1     -11.487  12.114  67.160  1.00  0.00    -0.413 C  
BRANCH   6   7
HETATM    7  C   UNL     1     -11.394  10.998  68.192  1.00  0.00    -0.374 C  
BRANCH   7   8
HETATM    8  C   UNL     1     -12.097  11.405  69.481  1.00  0.00    -0.370 C  
BRANCH   8   9
HETATM    9  C   UNL     1     -11.677  10.486  70.618  1.00  0.00    -0.453 C  
BRANCH   9  10
HETATM   10  C   UNL     1     -12.892   9.827  71.252  1.00  0.00    -0.472 C  
BRANCH  10  11
HETATM   11  C   UNL     1     -12.481   8.525  71.923  1.00  0.00    -0.402 C  
BRANCH  11  12
HETATM   12  C   UNL     1     -11.025   8.583  72.350  1.00  0.00    -0.390 C  
BRANCH  12  13
HETATM   13  C   UNL     1     -10.545   7.196  72.754  1.00  0.00    -0.303 C  
BRANCH  13  14
HETATM   14  C   UNL     1     -11.661   6.193  72.546  1.00  0.00    -0.294 C  
BRANCH  14  15
HETATM   15  C   UNL     1     -11.214   4.782  72.901  1.00  0.00    -0.286 C  
BRANCH  15  16
HETATM   16  C   UNL     1      -9.797   4.858  73.424  1.00  0.00    -0.145 C  
BRANCH  16  17
HETATM   17  O   UNL     1      -9.012   3.804  72.880  1.00  0.00    -0.096 OA 
BRANCH  17  18
HETATM   18  P   UNL     1      -8.497   4.127  71.260  1.00  0.00    -0.087 P  
HETATM   19  O   UNL     1      -7.948   2.699  71.180  1.00  0.00    -0.049 OA 
HETATM   20  O   UNL     1      -7.672   5.336  71.696  1.00  0.00    -0.102 OA 
BRANCH  18  21
HETATM   21  O   UNL     1      -7.984   4.450  69.640  1.00  0.00    -0.057 OA 
BRANCH  21  22
HETATM   22  C   UNL     1      -9.047   4.530  68.695  1.00  0.00    -0.120 C  
BRANCH  22  23
HETATM   23  C   UNL     1      -8.895   5.707  67.757  1.00  0.00    -0.105 C  
BRANCH  23  24
HETATM   24  N   UNL     1      -9.875   6.874  68.005  1.00  0.00    -0.136 N  
HETATM   25  C   UNL     1      -9.288   7.717  69.120  1.00  0.00    -0.151 C  
HETATM   26  C   UNL     1     -11.234   6.326  68.443  1.00  0.00    -0.172 C  
HETATM   27  C   UNL     1     -10.048   7.716  66.754  1.00  0.00    -0.255 C  
ENDBRANCH  23  24
ENDBRANCH  22  23
ENDBRANCH  21  22
ENDBRANCH  18  21
ENDBRANCH  17  18
ENDBRANCH  16  17
ENDBRANCH  15  16
ENDBRANCH  14  15
ENDBRANCH  13  14
ENDBRANCH  12  13
ENDBRANCH  11  12
ENDBRANCH  10  11
ENDBRANCH   9  10
ENDBRANCH   8   9
ENDBRANCH   7   8
ENDBRANCH   6   7
ENDBRANCH   5   6
ENDBRANCH   4   5
ENDBRANCH   3   4
ENDBRANCH   2   3
TORSDOF 20
ENDMDL
MODEL      226
REMARK 921   NORMALIZED FREE ENERGY PREDICTED BY IDOCK:   -3.37 KCAL/MOL
REMARK 922        TOTAL FREE ENERGY PREDICTED BY IDOCK:   -9.24 KCAL/MOL
REMARK 923 INTER-LIGAND FREE ENERGY PREDICTED BY IDOCK:   -7.23 KCAL/MOL
REMARK 924 INTRA-LIGAND FREE ENERGY PREDICTED BY IDOCK:   -2.01 KCAL/MOL
REMARK 927      BINDING AFFINITY PREDICTED BY RF-SCORE:    0.00 PKD
ROOT
HETATM    1  C   UNL     1      -9.782   6.548  72.800  1.00  0.00    -0.166 C  
HETATM    2  C   UNL     1      -9.962   8.035  73.053  1.00  0.00    -0.349 C  
ENDROOT
BRANCH   2   3
HETATM    3  C   UNL     1     -11.237   8.556  72.395  1.00  0.00    -0.399 C  
BRANCH   3   4
HETATM    4  C   UNL     1     -10.921   9.306  71.105  1.00  0.00    -0.409 C  
BRANCH   4   5
HETATM    5  C   UNL     1     -10.898   8.352  69.916  1.00  0.00    -0.207 C  
BRANCH   5   6
HETATM    6  C   UNL     1     -11.825   7.166  70.159  1.00  0.00    -0.110 C  
BRANCH   6   7
HETATM    7  C   UNL     1     -11.279   5.915  69.483  1.00  0.00    -0.299 C  
BRANCH   7   8
HETATM    8  C   UNL     1     -11.217   6.109  67.973  1.00  0.00    -0.149 C  
BRANCH   8   9
HETATM    9  C   UNL     1      -9.966   5.452  67.412  1.00  0.00    -0.198 C  
BRANCH   9  10
HETATM   10  C   UNL     1      -8.729   5.927  68.157  1.00  0.00    -0.111 C  
BRANCH  10  11
HETATM   11  C   UNL     1      -7.661   6.355  67.164  1.00  0.00    -0.096 C  
BRANCH  11  12
HETATM   12  C   UNL     1      -8.288   7.088  65.991  1.00  0.00    -0.134 C  
BRANCH  12  13
HETATM   13  C   UNL     1      -8.094   8.590  66.151  1.00  0.00    -0.105 C  
BRANCH  13  14
HETATM   14  C   UNL     1      -9.344   9.313  65.690  1.00  0.00    -0.308 C  
BRANCH  14  15
HETATM   15  C   UNL     1     -10.171   9.801  66.871  1.00  0.00    -0.310 C  
BRANCH  15  16
HETATM   16  C   UNL     1      -9.993  11.298  66.979  1.00  0.00    -0.198 C  
BRANCH  16  17
HETATM   17  O   UNL     1     -10.117  11.715  68.334  1.00  0.00    -0.195 OA 
BRANCH  17  18
HETATM   18  P   UNL     1     -10.830  13.284  68.483  1.00  0.00    -0.270 P  
HETATM   19  O   UNL     1     -11.701  12.973  67.261  1.00  0.00    -0.340 OA 
HETATM   20  O   UNL     1      -9.472  13.978  68.410  1.00  0.00    -0.209 OA 
BRANCH  18  21
HETATM   21  O   UNL     1     -11.543  14.852  68.634  1.00  0.00    -0.290 OA 
BRANCH  21  22
HETATM   22  C   UNL     1     -12.559  14.939  69.631  1.00  0.00    -0.059 C  
BRANCH  22  23
HETATM   23  C   UNL     1     -12.091  14.423  70.974  1.00  0.00    -0.349 C  
BRANCH  23  24
HETATM   24  N   UNL     1     -13.165  14.413  72.083  1.00  0.00    -0.354 N  
HETATM   25  C   UNL     1     -13.558  12.966  72.307  1.00  0.00    -0.515 C  
HETATM   26  C   UNL     1     -14.390  15.208  71.626  1.00  0.00    -0.585 C  
HETATM   27  C   UNL     1     -12.625  15.010  73.370  1.00  0.00    -0.518 C  
ENDBRANCH  23  24
ENDBRANCH  22  23
ENDBRANCH  21  22
ENDBRANCH  18  21
ENDBRANCH  17  18
ENDBRANCH  16  17
ENDBRANCH  15  16
ENDBRANCH  14  15
ENDBRANCH  13  14
ENDBRANCH  12  13
ENDBRANCH  11  12
ENDBRANCH  10  11
ENDBRANCH   9  10
ENDBRANCH   8   9
ENDBRANCH   7   8
ENDBRANCH   6   7
ENDBRANCH   5   6
ENDBRANCH   4   5
ENDBRANCH   3   4
ENDBRANCH   2   3
TORSDOF 20
ENDMDL
MODEL      227
REMARK 921   NORMALIZED FREE ENERGY PREDICTED BY IDOCK:   -3.37 KCAL/MOL
REMARK 922        TOTAL FREE ENERGY PREDICTED BY IDOCK:   -9.24 KCAL/MOL
REMARK 923 INTER-LIGAND FREE ENERGY PREDICTED BY IDOCK:   -6.86 KCAL/MOL
REMARK 924 INTRA-LIGAND FREE ENERGY PREDICTED BY IDOCK:   -2.37 KCAL/MOL
REMARK 927      BINDING AFFINITY PREDICTED BY RF-SCORE:    0.00 PKD
ROOT
HETATM    1  C   UNL     1     -10.981   7.210  73.168  1.00  0.00    -0.344 C  
HETATM    2  C   UNL     1      -9.863   8.209  72.928  1.00  0.00    -0.339 C  
ENDROOT
BRANCH   2   3
HETATM    3  C   UNL     1      -8.660   7.916  73.821  1.00  0.00    -0.323 C  
BRANCH   3   4
HETATM    4  C   UNL     1      -7.354   8.268  73.116  1.00  0.00    -0.151 C  
BRANCH   4   5
HETATM    5  C   UNL     1      -7.616   8.692  71.675  1.00  0.00    -0.139 C  
BRANCH   5   6
HETATM    6  C   UNL     1      -6.320   8.706  70.873  1.00  0.00    -0.044 C  
BRANCH   6   7
HETATM    7  C   UNL     1      -6.582   8.303  69.428  1.00  0.00    -0.042 C  
BRANCH   7   8
HETATM    8  C   UNL     1      -6.837   6.805  69.330  1.00  0.00    -0.061 C  
BRANCH   8   9
HETATM    9  C   UNL     1      -8.134   6.542  68.580  1.00  0.00    -0.114 C  
BRANCH   9  10
HETATM   10  C   UNL     1      -9.077   5.694  69.418  1.00  0.00    -0.134 C  
BRANCH  10  11
HETATM   11  C   UNL     1     -10.396   6.426  69.611  1.00  0.00    -0.249 C  
BRANCH  11  12
HETATM   12  C   UNL     1     -10.440   7.679  68.754  1.00  0.00    -0.208 C  
BRANCH  12  13
HETATM   13  C   UNL     1     -10.782   8.888  69.613  1.00  0.00    -0.222 C  
BRANCH  13  14
HETATM   14  C   UNL     1     -10.163  10.131  69.007  1.00  0.00    -0.221 C  
BRANCH  14  15
HETATM   15  C   UNL     1     -10.997  10.659  67.848  1.00  0.00    -0.351 C  
BRANCH  15  16
HETATM   16  C   UNL     1     -11.782  11.853  68.343  1.00  0.00    -0.326 C  
BRANCH  16  17
HETATM   17  O   UNL     1     -12.156  12.685  67.252  1.00  0.00    -0.448 OA 
BRANCH  17  18
HETATM   18  P   UNL     1     -11.786  14.352  67.531  1.00  0.00    -0.359 P  
HETATM   19  O   UNL     1     -10.365  14.093  67.018  1.00  0.00    -0.264 OA 
HETATM   20  O   UNL     1     -12.192  14.262  69.000  1.00  0.00    -0.311 OA 
BRANCH  18  21
HETATM   21  O   UNL     1     -11.416  16.019  67.810  1.00  0.00    -0.228 OA 
BRANCH  21  22
HETATM   22  C   UNL     1     -10.090  16.392  67.446  1.00  0.00    -0.262 C  
BRANCH  22  23
HETATM   23  C   UNL     1     -10.049  17.699  66.684  1.00  0.00    -0.335 C  
BRANCH  23  24
HETATM   24  N   UNL     1      -9.325  18.856  67.406  1.00  0.00    -0.287 N  
HETATM   25  C   UNL     1     -10.397  19.730  68.030  1.00  0.00    -0.434 C  
HETATM   26  C   UNL     1      -8.523  19.677  66.395  1.00  0.00    -0.356 C  
HETATM   27  C   UNL     1      -8.394  18.329  68.483  1.00  0.00    -0.310 C  
ENDBRANCH  23  24
ENDBRANCH  22  23
ENDBRANCH  21  22
ENDBRANCH  18  21
ENDBRANCH  17  18
ENDBRANCH  16  17
ENDBRANCH  15  16
ENDBRANCH  14  15
ENDBRANCH  13  14
ENDBRANCH  12  13
ENDBRANCH  11  12
ENDBRANCH  10  11
ENDBRANCH   9  10
ENDBRANCH   8   9
ENDBRANCH   7   8
ENDBRANCH   6   7
ENDBRANCH   5   6
ENDBRANCH   4   5
ENDBRANCH   3   4
ENDBRANCH   2   3
TORSDOF 20
ENDMDL
MODEL      228
REMARK 921   NORMALIZED FREE ENERGY PREDICTED BY IDOCK:   -3.37 KCAL/MOL
REMARK 922        TOTAL FREE ENERGY PREDICTED BY IDOCK:   -9.23 KCAL/MOL
REMARK 923 INTER-LIGAND FREE ENERGY PREDICTED BY IDOCK:   -7.52 KCAL/MOL
REMARK 924 INTRA-LIGAND FREE ENERGY PREDICTED BY IDOCK:   -1.70 KCAL/MOL
REMARK 927      BINDING AFFINITY PREDICTED BY RF-SCORE:    0.00 PKD
ROOT
HETATM    1  C   UNL     1      -8.959   6.032  69.000  1.00  0.00    -0.124 C  
HETATM    2  C   UNL     1     -10.464   5.957  69.187  1.00  0.00    -0.338 C  
ENDROOT
BRANCH   2   3
HETATM    3  C   UNL     1     -10.822   5.470  70.589  1.00  0.00    -0.257 C  
BRANCH   3   4
HETATM    4  C   UNL     1     -11.027   6.644  71.541  1.00  0.00    -0.287 C  
BRANCH   4   5
HETATM    5  C   UNL     1     -12.085   7.599  71.000  1.00  0.00    -0.282 C  
BRANCH   5   6
HETATM    6  C   UNL     1     -11.677   9.048  71.241  1.00  0.00    -0.382 C  
BRANCH   6   7
HETATM    7  C   UNL     1     -10.184   9.229  70.999  1.00  0.00    -0.384 C  
BRANCH   7   8
HETATM    8  C   UNL     1      -9.939   9.876  69.642  1.00  0.00    -0.255 C  
BRANCH   8   9
HETATM    9  C   UNL     1      -8.496   9.658  69.211  1.00  0.00    -0.150 C  
BRANCH   9  10
HETATM   10  C   UNL     1      -7.640  10.861  69.573  1.00  0.00    -0.057 C  
BRANCH  10  11
HETATM   11  C   UNL     1      -7.771  11.930  68.499  1.00  0.00    -0.135 C  
BRANCH  11  12
HETATM   12  C   UNL     1      -6.586  12.878  68.545  1.00  0.00    -0.087 C  
BRANCH  12  13
HETATM   13  C   UNL     1      -6.745  13.964  67.490  1.00  0.00    -0.132 C  
BRANCH  13  14
HETATM   14  C   UNL     1      -6.617  15.326  68.142  1.00  0.00    -0.133 C  
BRANCH  14  15
HETATM   15  C   UNL     1      -7.932  15.766  68.770  1.00  0.00    -0.180 C  
BRANCH  15  16
HETATM   16  C   UNL     1      -7.944  17.278  68.815  1.00  0.00    -0.250 C  
BRANCH  16  17
HETATM   17  O   UNL     1      -8.533  17.803  67.632  1.00  0.00    -0.225 OA 
BRANCH  17  18
HETATM   18  P   UNL     1      -9.768  16.774  66.992  1.00  0.00    -0.272 P  
HETATM   19  O   UNL     1      -9.147  16.941  65.601  1.00  0.00    -0.499 OA 
HETATM   20  O   UNL     1     -10.882  17.661  67.542  1.00  0.00    -0.325 OA 
BRANCH  18  21
HETATM   21  O   UNL     1     -11.002  15.743  66.353  1.00  0.00    -0.273 OA 
BRANCH  21  22
HETATM   22  C   UNL     1     -10.713  15.217  65.061  1.00  0.00    -0.430 C  
BRANCH  22  23
HETATM   23  C   UNL     1     -11.852  14.388  64.510  1.00  0.00    -0.449 C  
BRANCH  23  24
HETATM   24  N   UNL     1     -11.614  12.862  64.515  1.00  0.00    -0.332 N  
HETATM   25  C   UNL     1     -11.769  12.394  65.949  1.00  0.00    -0.419 C  
HETATM   26  C   UNL     1     -10.197  12.556  64.029  1.00  0.00    -0.364 C  
HETATM   27  C   UNL     1     -12.619  12.151  63.627  1.00  0.00    -0.504 C  
ENDBRANCH  23  24
ENDBRANCH  22  23
ENDBRANCH  21  22
ENDBRANCH  18  21
ENDBRANCH  17  18
ENDBRANCH  16  17
ENDBRANCH  15  16
ENDBRANCH  14  15
ENDBRANCH  13  14
ENDBRANCH  12  13
ENDBRANCH  11  12
ENDBRANCH  10  11
ENDBRANCH   9  10
ENDBRANCH   8   9
ENDBRANCH   7   8
ENDBRANCH   6   7
ENDBRANCH   5   6
ENDBRANCH   4   5
ENDBRANCH   3   4
ENDBRANCH   2   3
TORSDOF 20
ENDMDL
MODEL      229
REMARK 921   NORMALIZED FREE ENERGY PREDICTED BY IDOCK:   -3.36 KCAL/MOL
REMARK 922        TOTAL FREE ENERGY PREDICTED BY IDOCK:   -9.21 KCAL/MOL
REMARK 923 INTER-LIGAND FREE ENERGY PREDICTED BY IDOCK:   -6.81 KCAL/MOL
REMARK 924 INTRA-LIGAND FREE ENERGY PREDICTED BY IDOCK:   -2.40 KCAL/MOL
REMARK 927      BINDING AFFINITY PREDICTED BY RF-SCORE:    0.00 PKD
ROOT
HETATM    1  C   UNL     1     -11.730  13.986  66.393  1.00  0.00    -0.407 C  
HETATM    2  C   UNL     1     -11.745  15.340  67.082  1.00  0.00    -0.061 C  
ENDROOT
BRANCH   2   3
HETATM    3  C   UNL     1     -11.866  15.187  68.596  1.00  0.00    -0.329 C  
BRANCH   3   4
HETATM    4  C   UNL     1     -10.868  16.085  69.319  1.00  0.00    -0.300 C  
BRANCH   4   5
HETATM    5  C   UNL     1      -9.521  15.386  69.467  1.00  0.00    -0.250 C  
BRANCH   5   6
HETATM    6  C   UNL     1      -8.525  15.911  68.440  1.00  0.00    -0.176 C  
BRANCH   6   7
HETATM    7  C   UNL     1      -8.046  14.783  67.536  1.00  0.00    -0.199 C  
BRANCH   7   8
HETATM    8  C   UNL     1      -7.602  13.587  68.367  1.00  0.00    -0.133 C  
BRANCH   8   9
HETATM    9  C   UNL     1      -7.318  12.397  67.462  1.00  0.00    -0.146 C  
BRANCH   9  10
HETATM   10  C   UNL     1      -8.527  11.478  67.389  1.00  0.00    -0.147 C  
BRANCH  10  11
HETATM   11  C   UNL     1      -8.814  10.893  68.763  1.00  0.00    -0.162 C  
BRANCH  11  12
HETATM   12  C   UNL     1     -10.282  10.525  68.888  1.00  0.00    -0.223 C  
BRANCH  12  13
HETATM   13  C   UNL     1     -11.122  11.782  69.074  1.00  0.00    -0.301 C  
BRANCH  13  14
HETATM   14  C   UNL     1     -12.037  11.607  70.269  1.00  0.00    -0.443 C  
BRANCH  14  15
HETATM   15  C   UNL     1     -11.951  10.196  70.834  1.00  0.00    -0.461 C  
BRANCH  15  16
HETATM   16  C   UNL     1     -13.118   9.998  71.775  1.00  0.00    -0.457 C  
BRANCH  16  17
HETATM   17  O   UNL     1     -12.902   8.857  72.597  1.00  0.00    -0.393 OA 
BRANCH  17  18
HETATM   18  P   UNL     1     -12.106   7.573  71.753  1.00  0.00    -0.329 P  
HETATM   19  O   UNL     1     -13.477   6.951  71.466  1.00  0.00    -0.316 OA 
HETATM   20  O   UNL     1     -11.247   7.223  72.966  1.00  0.00    -0.311 OA 
BRANCH  18  21
HETATM   21  O   UNL     1     -11.310   6.290  70.909  1.00  0.00    -0.312 OA 
BRANCH  21  22
HETATM   22  C   UNL     1     -10.985   6.594  69.555  1.00  0.00    -0.313 C  
BRANCH  22  23
HETATM   23  C   UNL     1     -10.229   5.471  68.880  1.00  0.00    -0.214 C  
BRANCH  23  24
HETATM   24  N   UNL     1      -8.757   5.786  68.537  1.00  0.00    -0.111 N  
HETATM   25  C   UNL     1      -8.712   7.217  68.041  1.00  0.00    -0.127 C  
HETATM   26  C   UNL     1      -8.270   4.847  67.431  1.00  0.00    -0.106 C  
HETATM   27  C   UNL     1      -7.869   5.633  69.759  1.00  0.00    -0.087 C  
ENDBRANCH  23  24
ENDBRANCH  22  23
ENDBRANCH  21  22
ENDBRANCH  18  21
ENDBRANCH  17  18
ENDBRANCH  16  17
ENDBRANCH  15  16
ENDBRANCH  14  15
ENDBRANCH  13  14
ENDBRANCH  12  13
ENDBRANCH  11  12
ENDBRANCH  10  11
ENDBRANCH   9  10
ENDBRANCH   8   9
ENDBRANCH   7   8
ENDBRANCH   6   7
ENDBRANCH   5   6
ENDBRANCH   4   5
ENDBRANCH   3   4
ENDBRANCH   2   3
TORSDOF 20
ENDMDL
MODEL      230
REMARK 921   NORMALIZED FREE ENERGY PREDICTED BY IDOCK:   -3.36 KCAL/MOL
REMARK 922        TOTAL FREE ENERGY PREDICTED BY IDOCK:   -9.21 KCAL/MOL
REMARK 923 INTER-LIGAND FREE ENERGY PREDICTED BY IDOCK:   -7.25 KCAL/MOL
REMARK 924 INTRA-LIGAND FREE ENERGY PREDICTED BY IDOCK:   -1.96 KCAL/MOL
REMARK 927      BINDING AFFINITY PREDICTED BY RF-SCORE:    0.00 PKD
ROOT
HETATM    1  C   UNL     1      -8.049  15.091  69.080  1.00  0.00    -0.192 C  
HETATM    2  C   UNL     1      -9.224  15.362  68.157  1.00  0.00    -0.186 C  
ENDROOT
BRANCH   2   3
HETATM    3  C   UNL     1     -10.550  15.047  68.845  1.00  0.00    -0.242 C  
BRANCH   3   4
HETATM    4  C   UNL     1     -10.889  16.104  69.891  1.00  0.00    -0.355 C  
BRANCH   4   5
HETATM    5  C   UNL     1     -11.116  15.461  71.255  1.00  0.00    -0.341 C  
BRANCH   5   6
HETATM    6  C   UNL     1     -12.222  16.184  72.015  1.00  0.00    -0.524 C  
BRANCH   6   7
HETATM    7  C   UNL     1     -13.582  15.588  71.673  1.00  0.00    -0.575 C  
BRANCH   7   8
HETATM    8  C   UNL     1     -13.433  14.137  71.237  1.00  0.00    -0.341 C  
BRANCH   8   9
HETATM    9  C   UNL     1     -13.763  13.206  72.394  1.00  0.00    -0.640 C  
BRANCH   9  10
HETATM   10  C   UNL     1     -13.360  11.777  72.065  1.00  0.00    -0.417 C  
BRANCH  10  11
HETATM   11  C   UNL     1     -12.341  11.776  70.935  1.00  0.00    -0.420 C  
BRANCH  11  12
HETATM   12  C   UNL     1     -12.068  10.357  70.467  1.00  0.00    -0.423 C  
BRANCH  12  13
HETATM   13  C   UNL     1     -10.763  10.307  69.686  1.00  0.00    -0.299 C  
BRANCH  13  14
HETATM   14  C   UNL     1     -10.638  11.551  68.830  1.00  0.00    -0.241 C  
BRANCH  14  15
HETATM   15  C   UNL     1      -9.489  11.432  67.839  1.00  0.00    -0.174 C  
BRANCH  15  16
HETATM   16  C   UNL     1     -10.013  11.795  66.468  1.00  0.00    -0.204 C  
BRANCH  16  17
HETATM   17  O   UNL     1     -10.327  10.620  65.731  1.00  0.00    -0.254 OA 
BRANCH  17  18
HETATM   18  P   UNL     1      -9.317   9.281  66.155  1.00  0.00    -0.249 P  
HETATM   19  O   UNL     1      -8.817   9.235  64.708  1.00  0.00    -0.191 OA 
HETATM   20  O   UNL     1     -10.502   8.470  66.676  1.00  0.00    -0.289 OA 
BRANCH  18  21
HETATM   21  O   UNL     1      -8.307   7.943  66.581  1.00  0.00    -0.118 OA 
BRANCH  21  22
HETATM   22  C   UNL     1      -7.819   7.201  65.466  1.00  0.00    -0.115 C  
BRANCH  22  23
HETATM   23  C   UNL     1      -8.536   5.878  65.299  1.00  0.00    -0.144 C  
BRANCH  23  24
HETATM   24  N   UNL     1      -7.752   4.642  65.790  1.00  0.00    -0.093 N  
HETATM   25  C   UNL     1      -8.006   3.530  64.792  1.00  0.00    -0.089 C  
HETATM   26  C   UNL     1      -8.263   4.217  67.168  1.00  0.00    -0.100 C  
HETATM   27  C   UNL     1      -6.265   4.936  65.871  1.00  0.00    -0.031 C  
ENDBRANCH  23  24
ENDBRANCH  22  23
ENDBRANCH  21  22
ENDBRANCH  18  21
ENDBRANCH  17  18
ENDBRANCH  16  17
ENDBRANCH  15  16
ENDBRANCH  14  15
ENDBRANCH  13  14
ENDBRANCH  12  13
ENDBRANCH  11  12
ENDBRANCH  10  11
ENDBRANCH   9  10
ENDBRANCH   8   9
ENDBRANCH   7   8
ENDBRANCH   6   7
ENDBRANCH   5   6
ENDBRANCH   4   5
ENDBRANCH   3   4
ENDBRANCH   2   3
TORSDOF 20
ENDMDL
MODEL      231
REMARK 921   NORMALIZED FREE ENERGY PREDICTED BY IDOCK:   -3.36 KCAL/MOL
REMARK 922        TOTAL FREE ENERGY PREDICTED BY IDOCK:   -9.20 KCAL/MOL
REMARK 923 INTER-LIGAND FREE ENERGY PREDICTED BY IDOCK:   -8.17 KCAL/MOL
REMARK 924 INTRA-LIGAND FREE ENERGY PREDICTED BY IDOCK:   -1.03 KCAL/MOL
REMARK 927      BINDING AFFINITY PREDICTED BY RF-SCORE:    0.00 PKD
ROOT
HETATM    1  C   UNL     1      -6.235  20.439  63.857  1.00  0.00    -0.249 C  
HETATM    2  C   UNL     1      -6.635  19.659  65.098  1.00  0.00    -0.299 C  
ENDROOT
BRANCH   2   3
HETATM    3  C   UNL     1      -6.343  20.455  66.368  1.00  0.00    -0.245 C  
BRANCH   3   4
HETATM    4  C   UNL     1      -7.570  20.514  67.272  1.00  0.00    -0.386 C  
BRANCH   4   5
HETATM    5  C   UNL     1      -8.795  19.955  66.558  1.00  0.00    -0.432 C  
BRANCH   5   6
HETATM    6  C   UNL     1     -10.063  20.249  67.350  1.00  0.00    -0.534 C  
BRANCH   6   7
HETATM    7  C   UNL     1     -10.124  19.382  68.601  1.00  0.00    -0.515 C  
BRANCH   7   8
HETATM    8  C   UNL     1     -10.445  17.940  68.234  1.00  0.00    -0.362 C  
BRANCH   8   9
HETATM    9  C   UNL     1      -9.341  17.016  68.726  1.00  0.00    -0.257 C  
BRANCH   9  10
HETATM   10  C   UNL     1      -9.920  15.877  69.548  1.00  0.00    -0.274 C  
BRANCH  10  11
HETATM   11  C   UNL     1     -11.373  16.172  69.887  1.00  0.00    -0.318 C  
BRANCH  11  12
HETATM   12  C   UNL     1     -11.589  16.126  71.390  1.00  0.00    -0.495 C  
BRANCH  12  13
HETATM   13  C   UNL     1     -12.973  15.575  71.702  1.00  0.00    -0.540 C  
BRANCH  13  14
HETATM   14  C   UNL     1     -13.088  14.162  71.168  1.00  0.00    -0.398 C  
BRANCH  14  15
HETATM   15  C   UNL     1     -13.621  13.208  72.228  1.00  0.00    -0.677 C  
BRANCH  15  16
HETATM   16  C   UNL     1     -12.898  11.889  72.076  1.00  0.00    -0.143 C  
BRANCH  16  17
HETATM   17  O   UNL     1     -13.013  11.412  70.741  1.00  0.00    -0.203 OA 
BRANCH  17  18
HETATM   18  P   UNL     1     -11.737  10.325  70.312  1.00  0.00    -0.301 P  
HETATM   19  O   UNL     1     -11.931  10.722  68.845  1.00  0.00    -0.373 OA 
HETATM   20  O   UNL     1     -12.437   9.141  70.976  1.00  0.00    -0.274 OA 
BRANCH  18  21
HETATM   21  O   UNL     1     -10.461   9.239  69.884  1.00  0.00    -0.205 OA 
BRANCH  21  22
HETATM   22  C   UNL     1      -9.155   9.798  69.998  1.00  0.00    -0.223 C  
BRANCH  22  23
HETATM   23  C   UNL     1      -8.068   8.773  69.759  1.00  0.00    -0.111 C  
BRANCH  23  24
HETATM   24  N   UNL     1      -7.599   8.009  71.016  1.00  0.00    -0.080 N  
HETATM   25  C   UNL     1      -6.419   8.774  71.585  1.00  0.00    -0.075 C  
HETATM   26  C   UNL     1      -7.152   6.598  70.629  1.00  0.00    -0.069 C  
HETATM   27  C   UNL     1      -8.708   7.924  72.048  1.00  0.00    -0.137 C  
ENDBRANCH  23  24
ENDBRANCH  22  23
ENDBRANCH  21  22
ENDBRANCH  18  21
ENDBRANCH  17  18
ENDBRANCH  16  17
ENDBRANCH  15  16
ENDBRANCH  14  15
ENDBRANCH  13  14
ENDBRANCH  12  13
ENDBRANCH  11  12
ENDBRANCH  10  11
ENDBRANCH   9  10
ENDBRANCH   8   9
ENDBRANCH   7   8
ENDBRANCH   6   7
ENDBRANCH   5   6
ENDBRANCH   4   5
ENDBRANCH   3   4
ENDBRANCH   2   3
TORSDOF 20
ENDMDL
MODEL      232
REMARK 921   NORMALIZED FREE ENERGY PREDICTED BY IDOCK:   -3.34 KCAL/MOL
REMARK 922        TOTAL FREE ENERGY PREDICTED BY IDOCK:   -9.16 KCAL/MOL
REMARK 923 INTER-LIGAND FREE ENERGY PREDICTED BY IDOCK:   -7.66 KCAL/MOL
REMARK 924 INTRA-LIGAND FREE ENERGY PREDICTED BY IDOCK:   -1.50 KCAL/MOL
REMARK 927      BINDING AFFINITY PREDICTED BY RF-SCORE:    0.00 PKD
ROOT
HETATM    1  C   UNL     1     -10.877   6.110  73.138  1.00  0.00    -0.279 C  
HETATM    2  C   UNL     1     -10.766   7.625  73.112  1.00  0.00    -0.445 C  
ENDROOT
BRANCH   2   3
HETATM    3  C   UNL     1     -11.778   8.236  72.146  1.00  0.00    -0.429 C  
BRANCH   3   4
HETATM    4  C   UNL     1     -11.078   9.020  71.041  1.00  0.00    -0.356 C  
BRANCH   4   5
HETATM    5  C   UNL     1     -10.492   8.076  69.997  1.00  0.00    -0.228 C  
BRANCH   5   6
HETATM    6  C   UNL     1     -11.481   6.967  69.658  1.00  0.00    -0.204 C  
BRANCH   6   7
HETATM    7  C   UNL     1     -10.890   6.025  68.617  1.00  0.00    -0.379 C  
BRANCH   7   8
HETATM    8  C   UNL     1     -10.889   6.682  67.243  1.00  0.00    -0.456 C  
BRANCH   8   9
HETATM    9  C   UNL     1      -9.556   6.444  66.550  1.00  0.00    -0.185 C  
BRANCH   9  10
HETATM   10  C   UNL     1      -8.569   7.549  66.890  1.00  0.00    -0.124 C  
BRANCH  10  11
HETATM   11  C   UNL     1      -7.509   7.645  65.804  1.00  0.00    -0.079 C  
BRANCH  11  12
HETATM   12  C   UNL     1      -8.146   7.967  64.464  1.00  0.00    -0.132 C  
BRANCH  12  13
HETATM   13  C   UNL     1      -8.025   9.456  64.173  1.00  0.00    -0.134 C  
BRANCH  13  14
HETATM   14  C   UNL     1      -9.392  10.103  64.261  1.00  0.00    -0.349 C  
BRANCH  14  15
HETATM   15  C   UNL     1      -9.636  10.703  65.638  1.00  0.00    -0.268 C  
BRANCH  15  16
HETATM   16  C   UNL     1     -10.488  11.940  65.465  1.00  0.00    -0.268 C  
BRANCH  16  17
HETATM   17  O   UNL     1     -10.747  12.544  66.727  1.00  0.00    -0.232 OA 
BRANCH  17  18
HETATM   18  P   UNL     1     -10.883  14.265  66.623  1.00  0.00    -0.312 P  
HETATM   19  O   UNL     1     -12.408  14.116  66.614  1.00  0.00    -0.455 OA 
HETATM   20  O   UNL     1     -10.023  14.322  65.363  1.00  0.00    -0.343 OA 
BRANCH  18  21
HETATM   21  O   UNL     1     -11.018  15.987  66.521  1.00  0.00    -0.226 OA 
BRANCH  21  22
HETATM   22  C   UNL     1      -9.801  16.650  66.190  1.00  0.00    -0.318 C  
BRANCH  22  23
HETATM   23  C   UNL     1      -9.248  17.449  67.349  1.00  0.00    -0.236 C  
BRANCH  23  24
HETATM   24  N   UNL     1      -8.327  18.624  66.955  1.00  0.00    -0.263 N  
HETATM   25  C   UNL     1      -7.778  19.209  68.242  1.00  0.00    -0.315 C  
HETATM   26  C   UNL     1      -9.136  19.691  66.216  1.00  0.00    -0.376 C  
HETATM   27  C   UNL     1      -7.186  18.151  66.073  1.00  0.00    -0.270 C  
ENDBRANCH  23  24
ENDBRANCH  22  23
ENDBRANCH  21  22
ENDBRANCH  18  21
ENDBRANCH  17  18
ENDBRANCH  16  17
ENDBRANCH  15  16
ENDBRANCH  14  15
ENDBRANCH  13  14
ENDBRANCH  12  13
ENDBRANCH  11  12
ENDBRANCH  10  11
ENDBRANCH   9  10
ENDBRANCH   8   9
ENDBRANCH   7   8
ENDBRANCH   6   7
ENDBRANCH   5   6
ENDBRANCH   4   5
ENDBRANCH   3   4
ENDBRANCH   2   3
TORSDOF 20
ENDMDL
MODEL      233
REMARK 921   NORMALIZED FREE ENERGY PREDICTED BY IDOCK:   -3.33 KCAL/MOL
REMARK 922        TOTAL FREE ENERGY PREDICTED BY IDOCK:   -9.15 KCAL/MOL
REMARK 923 INTER-LIGAND FREE ENERGY PREDICTED BY IDOCK:   -6.78 KCAL/MOL
REMARK 924 INTRA-LIGAND FREE ENERGY PREDICTED BY IDOCK:   -2.37 KCAL/MOL
REMARK 927      BINDING AFFINITY PREDICTED BY RF-SCORE:    0.00 PKD
ROOT
HETATM    1  C   UNL     1      -8.331   5.963  72.587  1.00  0.00    -0.119 C  
HETATM    2  C   UNL     1      -8.091   7.368  72.062  1.00  0.00    -0.101 C  
ENDROOT
BRANCH   2   3
HETATM    3  C   UNL     1      -9.311   8.257  72.289  1.00  0.00    -0.323 C  
BRANCH   3   4
HETATM    4  C   UNL     1     -10.554   7.657  71.641  1.00  0.00    -0.233 C  
BRANCH   4   5
HETATM    5  C   UNL     1     -10.621   8.021  70.162  1.00  0.00    -0.237 C  
BRANCH   5   6
HETATM    6  C   UNL     1     -10.986   6.801  69.323  1.00  0.00    -0.303 C  
BRANCH   6   7
HETATM    7  C   UNL     1     -10.649   5.519  70.071  1.00  0.00    -0.384 C  
BRANCH   7   8
HETATM    8  C   UNL     1      -9.879   4.562  69.170  1.00  0.00    -0.222 C  
BRANCH   8   9
HETATM    9  C   UNL     1      -8.911   5.338  68.289  1.00  0.00    -0.108 C  
BRANCH   9  10
HETATM   10  C   UNL     1      -7.598   5.578  69.018  1.00  0.00    -0.087 C  
BRANCH  10  11
HETATM   11  C   UNL     1      -6.972   6.878  68.538  1.00  0.00    -0.076 C  
BRANCH  11  12
HETATM   12  C   UNL     1      -7.782   7.469  67.397  1.00  0.00    -0.117 C  
BRANCH  12  13
HETATM   13  C   UNL     1      -7.349   8.905  67.139  1.00  0.00    -0.084 C  
BRANCH  13  14
HETATM   14  C   UNL     1      -8.212   9.506  66.049  1.00  0.00    -0.115 C  
BRANCH  14  15
HETATM   15  C   UNL     1      -9.690   9.239  66.298  1.00  0.00    -0.340 C  
BRANCH  15  16
HETATM   16  C   UNL     1     -10.384  10.571  66.466  1.00  0.00    -0.233 C  
BRANCH  16  17
HETATM   17  O   UNL     1     -10.853  11.046  65.210  1.00  0.00    -0.210 OA 
BRANCH  17  18
HETATM   18  P   UNL     1     -11.059  12.764  65.185  1.00  0.00    -0.317 P  
HETATM   19  O   UNL     1     -12.565  12.558  65.378  1.00  0.00    -0.656 OA 
HETATM   20  O   UNL     1     -10.382  12.889  63.822  1.00  0.00    -0.367 OA 
BRANCH  18  21
HETATM   21  O   UNL     1     -11.264  14.481  65.161  1.00  0.00    -0.332 OA 
BRANCH  21  22
HETATM   22  C   UNL     1     -10.398  15.186  66.046  1.00  0.00    -0.311 C  
BRANCH  22  23
HETATM   23  C   UNL     1     -10.633  16.680  66.012  1.00  0.00    -0.233 C  
BRANCH  23  24
HETATM   24  N   UNL     1     -10.339  17.420  67.335  1.00  0.00    -0.334 N  
HETATM   25  C   UNL     1      -8.833  17.427  67.514  1.00  0.00    -0.224 C  
HETATM   26  C   UNL     1     -10.987  16.674  68.502  1.00  0.00    -0.339 C  
HETATM   27  C   UNL     1     -10.862  18.844  67.291  1.00  0.00    -0.372 C  
ENDBRANCH  23  24
ENDBRANCH  22  23
ENDBRANCH  21  22
ENDBRANCH  18  21
ENDBRANCH  17  18
ENDBRANCH  16  17
ENDBRANCH  15  16
ENDBRANCH  14  15
ENDBRANCH  13  14
ENDBRANCH  12  13
ENDBRANCH  11  12
ENDBRANCH  10  11
ENDBRANCH   9  10
ENDBRANCH   8   9
ENDBRANCH   7   8
ENDBRANCH   6   7
ENDBRANCH   5   6
ENDBRANCH   4   5
ENDBRANCH   3   4
ENDBRANCH   2   3
TORSDOF 20
ENDMDL
MODEL      234
REMARK 921   NORMALIZED FREE ENERGY PREDICTED BY IDOCK:   -3.33 KCAL/MOL
REMARK 922        TOTAL FREE ENERGY PREDICTED BY IDOCK:   -9.14 KCAL/MOL
REMARK 923 INTER-LIGAND FREE ENERGY PREDICTED BY IDOCK:   -7.08 KCAL/MOL
REMARK 924 INTRA-LIGAND FREE ENERGY PREDICTED BY IDOCK:   -2.06 KCAL/MOL
REMARK 927      BINDING AFFINITY PREDICTED BY RF-SCORE:    0.00 PKD
ROOT
HETATM    1  C   UNL     1      -8.092   4.956  68.593  1.00  0.00    -0.084 C  
HETATM    2  C   UNL     1      -8.654   6.035  69.502  1.00  0.00    -0.119 C  
ENDROOT
BRANCH   2   3
HETATM    3  C   UNL     1      -8.687   7.388  68.796  1.00  0.00    -0.128 C  
BRANCH   3   4
HETATM    4  C   UNL     1      -7.840   7.367  67.529  1.00  0.00    -0.112 C  
BRANCH   4   5
HETATM    5  C   UNL     1      -6.678   8.348  67.639  1.00  0.00    -0.066 C  
BRANCH   5   6
HETATM    6  C   UNL     1      -6.435   8.735  69.093  1.00  0.00    -0.043 C  
BRANCH   6   7
HETATM    7  C   UNL     1      -6.240  10.240  69.220  1.00  0.00    -0.045 C  
BRANCH   7   8
HETATM    8  C   UNL     1      -7.581  10.937  69.406  1.00  0.00    -0.097 C  
BRANCH   8   9
HETATM    9  C   UNL     1      -7.743  12.046  68.377  1.00  0.00    -0.138 C  
BRANCH   9  10
HETATM   10  C   UNL     1      -8.509  11.544  67.164  1.00  0.00    -0.158 C  
BRANCH  10  11
HETATM   11  C   UNL     1      -9.641  10.632  67.610  1.00  0.00    -0.178 C  
BRANCH  11  12
HETATM   12  C   UNL     1     -10.688  10.510  66.516  1.00  0.00    -0.191 C  
BRANCH  12  13
HETATM   13  C   UNL     1     -10.033  10.072  65.213  1.00  0.00    -0.368 C  
BRANCH  13  14
HETATM   14  C   UNL     1     -10.095  11.206  64.210  1.00  0.00    -0.382 C  
BRANCH  14  15
HETATM   15  C   UNL     1     -11.528  11.663  63.975  1.00  0.00    -0.404 C  
BRANCH  15  16
HETATM   16  C   UNL     1     -11.536  13.175  63.941  1.00  0.00    -0.433 C  
BRANCH  16  17
HETATM   17  O   UNL     1     -10.875  13.699  65.086  1.00  0.00    -0.304 OA 
BRANCH  17  18
HETATM   18  P   UNL     1     -10.813  15.428  65.083  1.00  0.00    -0.407 P  
HETATM   19  O   UNL     1     -10.857  15.405  66.614  1.00  0.00    -0.310 OA 
HETATM   20  O   UNL     1     -12.050  15.535  64.194  1.00  0.00    -0.564 OA 
BRANCH  18  21
HETATM   21  O   UNL     1     -10.749  17.157  65.079  1.00  0.00    -0.712 OA 
BRANCH  21  22
HETATM   22  C   UNL     1     -10.360  17.730  66.324  1.00  0.00    -0.358 C  
BRANCH  22  23
HETATM   23  C   UNL     1      -9.079  18.528  66.213  1.00  0.00    -0.207 C  
BRANCH  23  24
HETATM   24  N   UNL     1      -8.533  19.081  67.548  1.00  0.00    -0.279 N  
HETATM   25  C   UNL     1      -7.846  20.396  67.235  1.00  0.00    -0.334 C  
HETATM   26  C   UNL     1      -7.516  18.102  68.137  1.00  0.00    -0.258 C  
HETATM   27  C   UNL     1      -9.656  19.306  68.544  1.00  0.00    -0.403 C  
ENDBRANCH  23  24
ENDBRANCH  22  23
ENDBRANCH  21  22
ENDBRANCH  18  21
ENDBRANCH  17  18
ENDBRANCH  16  17
ENDBRANCH  15  16
ENDBRANCH  14  15
ENDBRANCH  13  14
ENDBRANCH  12  13
ENDBRANCH  11  12
ENDBRANCH  10  11
ENDBRANCH   9  10
ENDBRANCH   8   9
ENDBRANCH   7   8
ENDBRANCH   6   7
ENDBRANCH   5   6
ENDBRANCH   4   5
ENDBRANCH   3   4
ENDBRANCH   2   3
TORSDOF 20
ENDMDL
MODEL      235
REMARK 921   NORMALIZED FREE ENERGY PREDICTED BY IDOCK:   -3.33 KCAL/MOL
REMARK 922        TOTAL FREE ENERGY PREDICTED BY IDOCK:   -9.14 KCAL/MOL
REMARK 923 INTER-LIGAND FREE ENERGY PREDICTED BY IDOCK:   -6.91 KCAL/MOL
REMARK 924 INTRA-LIGAND FREE ENERGY PREDICTED BY IDOCK:   -2.23 KCAL/MOL
REMARK 927      BINDING AFFINITY PREDICTED BY RF-SCORE:    0.00 PKD
ROOT
HETATM    1  C   UNL     1      -8.962   9.795  63.019  1.00  0.00    -0.271 C  
HETATM    2  C   UNL     1      -9.310   9.871  64.495  1.00  0.00    -0.336 C  
ENDROOT
BRANCH   2   3
HETATM    3  C   UNL     1     -10.389  10.919  64.754  1.00  0.00    -0.391 C  
BRANCH   3   4
HETATM    4  C   UNL     1     -10.897  11.517  63.446  1.00  0.00    -0.423 C  
BRANCH   4   5
HETATM    5  C   UNL     1     -11.637  12.825  63.702  1.00  0.00    -0.572 C  
BRANCH   5   6
HETATM    6  C   UNL     1     -12.435  12.749  64.999  1.00  0.00    -0.572 C  
BRANCH   6   7
HETATM    7  C   UNL     1     -12.415  14.092  65.717  1.00  0.00    -0.523 C  
BRANCH   7   8
HETATM    8  C   UNL     1     -12.004  13.911  67.172  1.00  0.00    -0.455 C  
BRANCH   8   9
HETATM    9  C   UNL     1     -10.575  13.396  67.253  1.00  0.00    -0.256 C  
BRANCH   9  10
HETATM   10  C   UNL     1     -10.462  12.288  68.288  1.00  0.00    -0.236 C  
BRANCH  10  11
HETATM   11  C   UNL     1      -9.123  11.582  68.144  1.00  0.00    -0.181 C  
BRANCH  11  12
HETATM   12  C   UNL     1      -9.318  10.077  68.090  1.00  0.00    -0.137 C  
BRANCH  12  13
HETATM   13  C   UNL     1      -7.996   9.390  67.774  1.00  0.00    -0.096 C  
BRANCH  13  14
HETATM   14  C   UNL     1      -8.230   7.906  67.583  1.00  0.00    -0.124 C  
BRANCH  14  15
HETATM   15  C   UNL     1      -7.015   7.092  68.005  1.00  0.00    -0.079 C  
BRANCH  15  16
HETATM   16  C   UNL     1      -6.712   7.421  69.450  1.00  0.00    -0.041 C  
BRANCH  16  17
HETATM   17  O   UNL     1      -6.553   6.227  70.206  1.00  0.00    -0.042 OA 
BRANCH  17  18
HETATM   18  P   UNL     1      -7.848   5.973  71.325  1.00  0.00    -0.114 P  
HETATM   19  O   UNL     1      -8.523   5.063  70.294  1.00  0.00    -0.096 OA 
HETATM   20  O   UNL     1      -8.119   7.470  71.449  1.00  0.00    -0.094 OA 
BRANCH  18  21
HETATM   21  O   UNL     1      -9.142   5.719  72.445  1.00  0.00    -0.141 OA 
BRANCH  21  22
HETATM   22  C   UNL     1     -10.351   5.260  71.846  1.00  0.00    -0.215 C  
BRANCH  22  23
HETATM   23  C   UNL     1     -11.562   6.016  72.346  1.00  0.00    -0.300 C  
BRANCH  23  24
HETATM   24  N   UNL     1     -12.011   7.197  71.458  1.00  0.00    -0.306 N  
HETATM   25  C   UNL     1     -11.409   8.455  72.054  1.00  0.00    -0.342 C  
HETATM   26  C   UNL     1     -13.537   7.306  71.472  1.00  0.00    -0.356 C  
HETATM   27  C   UNL     1     -11.529   7.018  70.030  1.00  0.00    -0.215 C  
ENDBRANCH  23  24
ENDBRANCH  22  23
ENDBRANCH  21  22
ENDBRANCH  18  21
ENDBRANCH  17  18
ENDBRANCH  16  17
ENDBRANCH  15  16
ENDBRANCH  14  15
ENDBRANCH  13  14
ENDBRANCH  12  13
ENDBRANCH  11  12
ENDBRANCH  10  11
ENDBRANCH   9  10
ENDBRANCH   8   9
ENDBRANCH   7   8
ENDBRANCH   6   7
ENDBRANCH   5   6
ENDBRANCH   4   5
ENDBRANCH   3   4
ENDBRANCH   2   3
TORSDOF 20
ENDMDL
MODEL      236
REMARK 921   NORMALIZED FREE ENERGY PREDICTED BY IDOCK:   -3.32 KCAL/MOL
REMARK 922        TOTAL FREE ENERGY PREDICTED BY IDOCK:   -9.12 KCAL/MOL
REMARK 923 INTER-LIGAND FREE ENERGY PREDICTED BY IDOCK:   -7.16 KCAL/MOL
REMARK 924 INTRA-LIGAND FREE ENERGY PREDICTED BY IDOCK:   -1.96 KCAL/MOL
REMARK 927      BINDING AFFINITY PREDICTED BY RF-SCORE:    0.00 PKD
ROOT
HETATM    1  C   UNL     1     -12.363   6.967  71.156  1.00  0.00    -0.423 C  
HETATM    2  C   UNL     1     -11.092   6.158  70.964  1.00  0.00    -0.359 C  
ENDROOT
BRANCH   2   3
HETATM    3  C   UNL     1     -10.878   5.808  69.494  1.00  0.00    -0.410 C  
BRANCH   3   4
HETATM    4  C   UNL     1     -11.034   7.040  68.609  1.00  0.00    -0.144 C  
BRANCH   4   5
HETATM    5  C   UNL     1     -11.005   6.653  67.134  1.00  0.00    -0.478 C  
BRANCH   5   6
HETATM    6  C   UNL     1      -9.781   5.799  66.825  1.00  0.00    -0.172 C  
BRANCH   6   7
HETATM    7  C   UNL     1      -8.522   6.655  66.811  1.00  0.00    -0.117 C  
BRANCH   7   8
HETATM    8  C   UNL     1      -7.702   6.376  65.558  1.00  0.00    -0.096 C  
BRANCH   8   9
HETATM    9  C   UNL     1      -6.453   7.245  65.545  1.00  0.00    -0.044 C  
BRANCH   9  10
HETATM   10  C   UNL     1      -6.559   8.320  64.475  1.00  0.00    -0.065 C  
BRANCH  10  11
HETATM   11  C   UNL     1      -6.763   9.679  65.127  1.00  0.00    -0.094 C  
BRANCH  11  12
HETATM   12  C   UNL     1      -7.902  10.426  64.456  1.00  0.00    -0.066 C  
BRANCH  12  13
HETATM   13  C   UNL     1      -9.201   9.648  64.615  1.00  0.00    -0.293 C  
BRANCH  13  14
HETATM   14  C   UNL     1     -10.236  10.524  65.293  1.00  0.00    -0.352 C  
BRANCH  14  15
HETATM   15  C   UNL     1     -10.199  10.358  66.805  1.00  0.00    -0.282 C  
BRANCH  15  16
HETATM   16  C   UNL     1     -10.431  11.716  67.430  1.00  0.00    -0.210 C  
BRANCH  16  17
HETATM   17  O   UNL     1     -11.390  12.449  66.677  1.00  0.00    -0.299 OA 
BRANCH  17  18
HETATM   18  P   UNL     1     -11.211  14.160  66.861  1.00  0.00    -0.344 P  
HETATM   19  O   UNL     1     -10.422  14.190  65.548  1.00  0.00    -0.305 OA 
HETATM   20  O   UNL     1     -10.570  14.009  68.239  1.00  0.00    -0.236 OA 
BRANCH  18  21
HETATM   21  O   UNL     1     -11.033  15.871  67.046  1.00  0.00    -0.291 OA 
BRANCH  21  22
HETATM   22  C   UNL     1     -10.283  16.495  66.007  1.00  0.00    -0.356 C  
BRANCH  22  23
HETATM   23  C   UNL     1      -9.126  17.309  66.543  1.00  0.00    -0.265 C  
BRANCH  23  24
HETATM   24  N   UNL     1      -9.456  18.783  66.867  1.00  0.00    -0.300 N  
HETATM   25  C   UNL     1      -9.813  18.845  68.339  1.00  0.00    -0.381 C  
HETATM   26  C   UNL     1     -10.652  19.242  66.032  1.00  0.00    -0.461 C  
HETATM   27  C   UNL     1      -8.266  19.682  66.584  1.00  0.00    -0.317 C  
ENDBRANCH  23  24
ENDBRANCH  22  23
ENDBRANCH  21  22
ENDBRANCH  18  21
ENDBRANCH  17  18
ENDBRANCH  16  17
ENDBRANCH  15  16
ENDBRANCH  14  15
ENDBRANCH  13  14
ENDBRANCH  12  13
ENDBRANCH  11  12
ENDBRANCH  10  11
ENDBRANCH   9  10
ENDBRANCH   8   9
ENDBRANCH   7   8
ENDBRANCH   6   7
ENDBRANCH   5   6
ENDBRANCH   4   5
ENDBRANCH   3   4
ENDBRANCH   2   3
TORSDOF 20
ENDMDL
MODEL      237
REMARK 921   NORMALIZED FREE ENERGY PREDICTED BY IDOCK:   -3.32 KCAL/MOL
REMARK 922        TOTAL FREE ENERGY PREDICTED BY IDOCK:   -9.12 KCAL/MOL
REMARK 923 INTER-LIGAND FREE ENERGY PREDICTED BY IDOCK:   -6.61 KCAL/MOL
REMARK 924 INTRA-LIGAND FREE ENERGY PREDICTED BY IDOCK:   -2.51 KCAL/MOL
REMARK 927      BINDING AFFINITY PREDICTED BY RF-SCORE:    0.00 PKD
ROOT
HETATM    1  C   UNL     1      -9.243   9.399  70.324  1.00  0.00    -0.285 C  
HETATM    2  C   UNL     1      -8.157   8.946  71.285  1.00  0.00    -0.185 C  
ENDROOT
BRANCH   2   3
HETATM    3  C   UNL     1      -7.378   7.762  70.717  1.00  0.00    -0.065 C  
BRANCH   3   4
HETATM    4  C   UNL     1      -7.489   6.544  71.628  1.00  0.00    -0.089 C  
BRANCH   4   5
HETATM    5  C   UNL     1      -8.158   5.384  70.899  1.00  0.00    -0.112 C  
BRANCH   5   6
HETATM    6  C   UNL     1      -8.336   5.707  69.420  1.00  0.00    -0.107 C  
BRANCH   6   7
HETATM    7  C   UNL     1      -9.812   5.695  69.044  1.00  0.00    -0.210 C  
BRANCH   7   8
HETATM    8  C   UNL     1     -10.671   5.414  70.270  1.00  0.00    -0.286 C  
BRANCH   8   9
HETATM    9  C   UNL     1     -11.551   6.616  70.579  1.00  0.00    -0.448 C  
BRANCH   9  10
HETATM   10  C   UNL     1     -11.418   7.017  72.039  1.00  0.00    -0.308 C  
BRANCH  10  11
HETATM   11  C   UNL     1     -11.940   8.432  72.235  1.00  0.00    -0.455 C  
BRANCH  11  12
HETATM   12  C   UNL     1     -13.398   8.524  71.820  1.00  0.00    -0.396 C  
BRANCH  12  13
HETATM   13  C   UNL     1     -13.725   9.942  71.374  1.00  0.00    -0.203 C  
BRANCH  13  14
HETATM   14  C   UNL     1     -12.500  10.568  70.739  1.00  0.00    -0.472 C  
BRANCH  14  15
HETATM   15  C   UNL     1     -12.529  12.086  70.854  1.00  0.00    -0.384 C  
BRANCH  15  16
HETATM   16  C   UNL     1     -11.844  12.660  69.634  1.00  0.00    -0.311 C  
BRANCH  16  17
HETATM   17  O   UNL     1     -12.520  12.253  68.450  1.00  0.00    -0.011 OA 
BRANCH  17  18
HETATM   18  P   UNL     1     -11.765  12.856  67.015  1.00  0.00    -0.344 P  
HETATM   19  O   UNL     1     -12.895  13.883  66.887  1.00  0.00     0.048 OA 
HETATM   20  O   UNL     1     -11.783  11.480  66.351  1.00  0.00    -0.422 OA 
BRANCH  18  21
HETATM   21  O   UNL     1     -11.010  13.459  65.580  1.00  0.00    -0.280 OA 
BRANCH  21  22
HETATM   22  C   UNL     1      -9.650  13.847  65.755  1.00  0.00    -0.085 C  
BRANCH  22  23
HETATM   23  C   UNL     1      -9.308  14.102  67.207  1.00  0.00    -0.225 C  
BRANCH  23  24
HETATM   24  N   UNL     1      -9.066  15.583  67.573  1.00  0.00    -0.191 N  
HETATM   25  C   UNL     1      -7.743  15.984  66.950  1.00  0.00    -0.244 C  
HETATM   26  C   UNL     1      -8.980  15.734  69.093  1.00  0.00    -0.256 C  
HETATM   27  C   UNL     1     -10.179  16.465  67.039  1.00  0.00    -0.282 C  
ENDBRANCH  23  24
ENDBRANCH  22  23
ENDBRANCH  21  22
ENDBRANCH  18  21
ENDBRANCH  17  18
ENDBRANCH  16  17
ENDBRANCH  15  16
ENDBRANCH  14  15
ENDBRANCH  13  14
ENDBRANCH  12  13
ENDBRANCH  11  12
ENDBRANCH  10  11
ENDBRANCH   9  10
ENDBRANCH   8   9
ENDBRANCH   7   8
ENDBRANCH   6   7
ENDBRANCH   5   6
ENDBRANCH   4   5
ENDBRANCH   3   4
ENDBRANCH   2   3
TORSDOF 20
ENDMDL
MODEL      238
REMARK 921   NORMALIZED FREE ENERGY PREDICTED BY IDOCK:   -3.32 KCAL/MOL
REMARK 922        TOTAL FREE ENERGY PREDICTED BY IDOCK:   -9.11 KCAL/MOL
REMARK 923 INTER-LIGAND FREE ENERGY PREDICTED BY IDOCK:   -7.66 KCAL/MOL
REMARK 924 INTRA-LIGAND FREE ENERGY PREDICTED BY IDOCK:   -1.46 KCAL/MOL
REMARK 927      BINDING AFFINITY PREDICTED BY RF-SCORE:    0.00 PKD
ROOT
HETATM    1  C   UNL     1     -10.934   7.763  72.859  1.00  0.00    -0.467 C  
HETATM    2  C   UNL     1     -11.385   7.513  71.430  1.00  0.00    -0.284 C  
ENDROOT
BRANCH   2   3
HETATM    3  C   UNL     1     -10.663   8.440  70.455  1.00  0.00    -0.244 C  
BRANCH   3   4
HETATM    4  C   UNL     1     -10.301   7.707  69.167  1.00  0.00    -0.217 C  
BRANCH   4   5
HETATM    5  C   UNL     1      -9.477   6.460  69.469  1.00  0.00    -0.151 C  
BRANCH   5   6
HETATM    6  C   UNL     1      -7.998   6.808  69.591  1.00  0.00    -0.124 C  
BRANCH   6   7
HETATM    7  C   UNL     1      -7.211   6.204  68.436  1.00  0.00    -0.084 C  
BRANCH   7   8
HETATM    8  C   UNL     1      -8.152   5.533  67.444  1.00  0.00    -0.101 C  
BRANCH   8   9
HETATM    9  C   UNL     1      -7.752   5.889  66.020  1.00  0.00    -0.099 C  
BRANCH   9  10
HETATM   10  C   UNL     1      -7.655   7.397  65.852  1.00  0.00    -0.089 C  
BRANCH  10  11
HETATM   11  C   UNL     1      -8.239   7.805  64.508  1.00  0.00    -0.060 C  
BRANCH  11  12
HETATM   12  C   UNL     1      -7.688   9.153  64.076  1.00  0.00    -0.122 C  
BRANCH  12  13
HETATM   13  C   UNL     1      -8.377  10.270  64.846  1.00  0.00    -0.173 C  
BRANCH  13  14
HETATM   14  C   UNL     1      -9.869  10.218  64.589  1.00  0.00    -0.396 C  
BRANCH  14  15
HETATM   15  C   UNL     1     -10.261  11.096  63.409  1.00  0.00    -0.435 C  
BRANCH  15  16
HETATM   16  C   UNL     1     -10.409  12.514  63.912  1.00  0.00    -0.409 C  
BRANCH  16  17
HETATM   17  O   UNL     1     -11.763  12.777  64.261  1.00  0.00    -0.335 OA 
BRANCH  17  18
HETATM   18  P   UNL     1     -11.919  13.478  65.834  1.00  0.00    -0.454 P  
HETATM   19  O   UNL     1     -12.072  12.069  66.416  1.00  0.00    -0.610 OA 
HETATM   20  O   UNL     1     -13.092  14.353  65.398  1.00  0.00    -0.604 OA 
BRANCH  18  21
HETATM   21  O   UNL     1     -12.074  14.180  67.408  1.00  0.00    -0.402 OA 
BRANCH  21  22
HETATM   22  C   UNL     1     -10.924  14.903  67.841  1.00  0.00    -0.286 C  
BRANCH  22  23
HETATM   23  C   UNL     1     -11.196  16.385  67.979  1.00  0.00    -0.235 C  
BRANCH  23  24
HETATM   24  N   UNL     1     -10.045  17.308  67.524  1.00  0.00    -0.304 N  
HETATM   25  C   UNL     1     -10.644  18.680  67.284  1.00  0.00    -0.430 C  
HETATM   26  C   UNL     1      -9.441  16.781  66.221  1.00  0.00    -0.286 C  
HETATM   27  C   UNL     1      -8.963  17.393  68.585  1.00  0.00    -0.255 C  
ENDBRANCH  23  24
ENDBRANCH  22  23
ENDBRANCH  21  22
ENDBRANCH  18  21
ENDBRANCH  17  18
ENDBRANCH  16  17
ENDBRANCH  15  16
ENDBRANCH  14  15
ENDBRANCH  13  14
ENDBRANCH  12  13
ENDBRANCH  11  12
ENDBRANCH  10  11
ENDBRANCH   9  10
ENDBRANCH   8   9
ENDBRANCH   7   8
ENDBRANCH   6   7
ENDBRANCH   5   6
ENDBRANCH   4   5
ENDBRANCH   3   4
ENDBRANCH   2   3
TORSDOF 20
ENDMDL
MODEL      239
REMARK 921   NORMALIZED FREE ENERGY PREDICTED BY IDOCK:   -3.31 KCAL/MOL
REMARK 922        TOTAL FREE ENERGY PREDICTED BY IDOCK:   -9.10 KCAL/MOL
REMARK 923 INTER-LIGAND FREE ENERGY PREDICTED BY IDOCK:   -7.40 KCAL/MOL
REMARK 924 INTRA-LIGAND FREE ENERGY PREDICTED BY IDOCK:   -1.70 KCAL/MOL
REMARK 927      BINDING AFFINITY PREDICTED BY RF-SCORE:    0.00 PKD
ROOT
HETATM    1  C   UNL     1     -11.822  15.670  70.877  1.00  0.00    -0.428 C  
HETATM    2  C   UNL     1     -11.378  14.696  69.799  1.00  0.00    -0.315 C  
ENDROOT
BRANCH   2   3
HETATM    3  C   UNL     1     -11.884  15.127  68.425  1.00  0.00    -0.293 C  
BRANCH   3   4
HETATM    4  C   UNL     1     -11.356  14.205  67.331  1.00  0.00    -0.346 C  
BRANCH   4   5
HETATM    5  C   UNL     1     -12.388  14.035  66.223  1.00  0.00    -0.482 C  
BRANCH   5   6
HETATM    6  C   UNL     1     -11.849  14.561  64.898  1.00  0.00    -0.417 C  
BRANCH   6   7
HETATM    7  C   UNL     1     -12.348  13.705  63.741  1.00  0.00    -0.357 C  
BRANCH   7   8
HETATM    8  C   UNL     1     -12.462  12.247  64.167  1.00  0.00    -0.530 C  
BRANCH   8   9
HETATM    9  C   UNL     1     -11.395  11.413  63.474  1.00  0.00    -0.257 C  
BRANCH   9  10
HETATM   10  C   UNL     1     -10.232  11.141  64.414  1.00  0.00    -0.390 C  
BRANCH  10  11
HETATM   11  C   UNL     1     -10.724  11.123  65.853  1.00  0.00    -0.261 C  
BRANCH  11  12
HETATM   12  C   UNL     1      -9.954  10.097  66.666  1.00  0.00    -0.272 C  
BRANCH  12  13
HETATM   13  C   UNL     1      -9.096  10.796  67.710  1.00  0.00    -0.151 C  
BRANCH  13  14
HETATM   14  C   UNL     1      -9.487  10.313  69.093  1.00  0.00    -0.225 C  
BRANCH  14  15
HETATM   15  C   UNL     1     -10.817  10.907  69.534  1.00  0.00    -0.286 C  
BRANCH  15  16
HETATM   16  C   UNL     1     -11.252  10.193  70.794  1.00  0.00    -0.336 C  
BRANCH  16  17
HETATM   17  O   UNL     1     -11.979   9.015  70.469  1.00  0.00    -0.167 OA 
BRANCH  17  18
HETATM   18  P   UNL     1     -11.567   7.679  71.488  1.00  0.00    -0.298 P  
HETATM   19  O   UNL     1     -12.573   6.817  70.717  1.00  0.00    -0.311 OA 
HETATM   20  O   UNL     1     -11.906   8.459  72.756  1.00  0.00    -0.371 OA 
BRANCH  18  21
HETATM   21  O   UNL     1     -11.154   6.343  72.506  1.00  0.00    -0.242 OA 
BRANCH  21  22
HETATM   22  C   UNL     1     -10.335   5.360  71.877  1.00  0.00    -0.212 C  
BRANCH  22  23
HETATM   23  C   UNL     1      -9.062   5.950  71.311  1.00  0.00    -0.140 C  
BRANCH  23  24
HETATM   24  N   UNL     1      -7.760   5.471  71.988  1.00  0.00    -0.100 N  
HETATM   25  C   UNL     1      -6.863   4.928  70.892  1.00  0.00    -0.040 C  
HETATM   26  C   UNL     1      -8.075   4.356  72.988  1.00  0.00    -0.095 C  
HETATM   27  C   UNL     1      -7.066   6.614  72.706  1.00  0.00    -0.080 C  
ENDBRANCH  23  24
ENDBRANCH  22  23
ENDBRANCH  21  22
ENDBRANCH  18  21
ENDBRANCH  17  18
ENDBRANCH  16  17
ENDBRANCH  15  16
ENDBRANCH  14  15
ENDBRANCH  13  14
ENDBRANCH  12  13
ENDBRANCH  11  12
ENDBRANCH  10  11
ENDBRANCH   9  10
ENDBRANCH   8   9
ENDBRANCH   7   8
ENDBRANCH   6   7
ENDBRANCH   5   6
ENDBRANCH   4   5
ENDBRANCH   3   4
ENDBRANCH   2   3
TORSDOF 20
ENDMDL
MODEL      240
REMARK 921   NORMALIZED FREE ENERGY PREDICTED BY IDOCK:   -3.31 KCAL/MOL
REMARK 922        TOTAL FREE ENERGY PREDICTED BY IDOCK:   -9.09 KCAL/MOL
REMARK 923 INTER-LIGAND FREE ENERGY PREDICTED BY IDOCK:   -7.93 KCAL/MOL
REMARK 924 INTRA-LIGAND FREE ENERGY PREDICTED BY IDOCK:   -1.17 KCAL/MOL
REMARK 927      BINDING AFFINITY PREDICTED BY RF-SCORE:    0.00 PKD
ROOT
HETATM    1  C   UNL     1     -10.836  19.521  65.891  1.00  0.00    -0.426 C  
HETATM    2  C   UNL     1     -10.054  20.322  66.919  1.00  0.00    -0.565 C  
ENDROOT
BRANCH   2   3
HETATM    3  C   UNL     1     -10.094  19.649  68.289  1.00  0.00    -0.560 C  
BRANCH   3   4
HETATM    4  C   UNL     1      -8.688  19.322  68.780  1.00  0.00    -0.383 C  
BRANCH   4   5
HETATM    5  C   UNL     1      -8.411  17.827  68.670  1.00  0.00    -0.271 C  
BRANCH   5   6
HETATM    6  C   UNL     1      -9.715  17.041  68.597  1.00  0.00    -0.282 C  
BRANCH   6   7
HETATM    7  C   UNL     1      -9.540  15.796  67.737  1.00  0.00    -0.214 C  
BRANCH   7   8
HETATM    8  C   UNL     1     -10.053  14.565  68.472  1.00  0.00    -0.242 C  
BRANCH   8   9
HETATM    9  C   UNL     1     -11.358  14.886  69.185  1.00  0.00    -0.309 C  
BRANCH   9  10
HETATM   10  C   UNL     1     -12.136  13.614  69.479  1.00  0.00    -0.368 C  
BRANCH  10  11
HETATM   11  C   UNL     1     -11.337  12.403  69.023  1.00  0.00    -0.336 C  
BRANCH  11  12
HETATM   12  C   UNL     1     -12.125  11.126  69.257  1.00  0.00    -0.377 C  
BRANCH  12  13
HETATM   13  C   UNL     1     -11.728  10.505  70.589  1.00  0.00    -0.453 C  
BRANCH  13  14
HETATM   14  C   UNL     1     -12.955  10.356  71.465  1.00  0.00    -0.562 C  
BRANCH  14  15
HETATM   15  C   UNL     1     -13.027   8.971  72.091  1.00  0.00    -0.490 C  
BRANCH  15  16
HETATM   16  C   UNL     1     -11.975   8.106  71.435  1.00  0.00    -0.298 C  
BRANCH  16  17
HETATM   17  O   UNL     1     -11.891   6.846  72.090  1.00  0.00    -0.288 OA 
BRANCH  17  18
HETATM   18  P   UNL     1     -10.317   6.540  72.740  1.00  0.00    -0.227 P  
HETATM   19  O   UNL     1     -10.950   5.560  73.734  1.00  0.00    -0.263 OA 
HETATM   20  O   UNL     1     -10.080   8.019  73.033  1.00  0.00    -0.294 OA 
BRANCH  18  21
HETATM   21  O   UNL     1      -8.743   6.233  73.389  1.00  0.00    -0.125 OA 
BRANCH  21  22
HETATM   22  C   UNL     1      -7.777   5.842  72.417  1.00  0.00    -0.102 C  
BRANCH  22  23
HETATM   23  C   UNL     1      -8.409   5.485  71.089  1.00  0.00    -0.125 C  
BRANCH  23  24
HETATM   24  N   UNL     1      -8.457   3.975  70.770  1.00  0.00    -0.070 N  
HETATM   25  C   UNL     1      -8.823   3.261  72.057  1.00  0.00    -0.087 C  
HETATM   26  C   UNL     1      -7.082   3.501  70.298  1.00  0.00    -0.038 C  
HETATM   27  C   UNL     1      -9.491   3.677  69.700  1.00  0.00    -0.175 C  
ENDBRANCH  23  24
ENDBRANCH  22  23
ENDBRANCH  21  22
ENDBRANCH  18  21
ENDBRANCH  17  18
ENDBRANCH  16  17
ENDBRANCH  15  16
ENDBRANCH  14  15
ENDBRANCH  13  14
ENDBRANCH  12  13
ENDBRANCH  11  12
ENDBRANCH  10  11
ENDBRANCH   9  10
ENDBRANCH   8   9
ENDBRANCH   7   8
ENDBRANCH   6   7
ENDBRANCH   5   6
ENDBRANCH   4   5
ENDBRANCH   3   4
ENDBRANCH   2   3
TORSDOF 20
ENDMDL
MODEL      241
REMARK 921   NORMALIZED FREE ENERGY PREDICTED BY IDOCK:   -3.30 KCAL/MOL
REMARK 922        TOTAL FREE ENERGY PREDICTED BY IDOCK:   -9.07 KCAL/MOL
REMARK 923 INTER-LIGAND FREE ENERGY PREDICTED BY IDOCK:   -6.72 KCAL/MOL
REMARK 924 INTRA-LIGAND FREE ENERGY PREDICTED BY IDOCK:   -2.36 KCAL/MOL
REMARK 927      BINDING AFFINITY PREDICTED BY RF-SCORE:    0.00 PKD
ROOT
HETATM    1  C   UNL     1      -8.188  10.062  63.782  1.00  0.00    -0.161 C  
HETATM    2  C   UNL     1      -9.209   9.761  64.866  1.00  0.00    -0.314 C  
ENDROOT
BRANCH   2   3
HETATM    3  C   UNL     1     -10.332  10.795  64.867  1.00  0.00    -0.369 C  
BRANCH   3   4
HETATM    4  C   UNL     1     -10.484  11.441  63.494  1.00  0.00    -0.477 C  
BRANCH   4   5
HETATM    5  C   UNL     1     -11.481  12.594  63.546  1.00  0.00    -0.557 C  
BRANCH   5   6
HETATM    6  C   UNL     1     -12.380  12.474  64.771  1.00  0.00    -0.544 C  
BRANCH   6   7
HETATM    7  C   UNL     1     -12.696  13.851  65.338  1.00  0.00    -0.525 C  
BRANCH   7   8
HETATM    8  C   UNL     1     -12.360  13.906  66.822  1.00  0.00    -0.370 C  
BRANCH   8   9
HETATM    9  C   UNL     1     -10.964  14.478  67.022  1.00  0.00    -0.312 C  
BRANCH   9  10
HETATM   10  C   UNL     1     -10.039  13.436  67.629  1.00  0.00    -0.229 C  
BRANCH  10  11
HETATM   11  C   UNL     1      -8.688  13.476  66.932  1.00  0.00    -0.158 C  
BRANCH  11  12
HETATM   12  C   UNL     1      -7.845  12.280  67.337  1.00  0.00    -0.171 C  
BRANCH  12  13
HETATM   13  C   UNL     1      -8.542  11.500  68.443  1.00  0.00    -0.159 C  
BRANCH  13  14
HETATM   14  C   UNL     1      -7.723  10.273  68.791  1.00  0.00    -0.096 C  
BRANCH  14  15
HETATM   15  C   UNL     1      -7.981   9.820  70.221  1.00  0.00    -0.185 C  
BRANCH  15  16
HETATM   16  C   UNL     1      -9.457   9.523  70.357  1.00  0.00    -0.262 C  
BRANCH  16  17
HETATM   17  O   UNL     1      -9.661   8.424  71.237  1.00  0.00    -0.166 OA 
BRANCH  17  18
HETATM   18  P   UNL     1     -10.251   7.019  70.418  1.00  0.00    -0.200 P  
HETATM   19  O   UNL     1      -8.843   6.419  70.491  1.00  0.00    -0.142 OA 
HETATM   20  O   UNL     1     -10.768   7.843  69.241  1.00  0.00    -0.211 OA 
BRANCH  18  21
HETATM   21  O   UNL     1     -10.843   5.614  69.600  1.00  0.00    -0.337 OA 
BRANCH  21  22
HETATM   22  C   UNL     1      -9.847   4.898  68.874  1.00  0.00    -0.170 C  
BRANCH  22  23
HETATM   23  C   UNL     1      -9.758   5.342  67.430  1.00  0.00    -0.146 C  
BRANCH  23  24
HETATM   24  N   UNL     1      -8.567   4.761  66.637  1.00  0.00    -0.109 N  
HETATM   25  C   UNL     1      -7.380   4.731  67.579  1.00  0.00    -0.074 C  
HETATM   26  C   UNL     1      -8.249   5.664  65.444  1.00  0.00    -0.132 C  
HETATM   27  C   UNL     1      -8.873   3.359  66.144  1.00  0.00    -0.137 C  
ENDBRANCH  23  24
ENDBRANCH  22  23
ENDBRANCH  21  22
ENDBRANCH  18  21
ENDBRANCH  17  18
ENDBRANCH  16  17
ENDBRANCH  15  16
ENDBRANCH  14  15
ENDBRANCH  13  14
ENDBRANCH  12  13
ENDBRANCH  11  12
ENDBRANCH  10  11
ENDBRANCH   9  10
ENDBRANCH   8   9
ENDBRANCH   7   8
ENDBRANCH   6   7
ENDBRANCH   5   6
ENDBRANCH   4   5
ENDBRANCH   3   4
ENDBRANCH   2   3
TORSDOF 20
ENDMDL
MODEL      242
REMARK 921   NORMALIZED FREE ENERGY PREDICTED BY IDOCK:   -3.30 KCAL/MOL
REMARK 922        TOTAL FREE ENERGY PREDICTED BY IDOCK:   -9.07 KCAL/MOL
REMARK 923 INTER-LIGAND FREE ENERGY PREDICTED BY IDOCK:   -6.11 KCAL/MOL
REMARK 924 INTRA-LIGAND FREE ENERGY PREDICTED BY IDOCK:   -2.96 KCAL/MOL
REMARK 927      BINDING AFFINITY PREDICTED BY RF-SCORE:    0.00 PKD
ROOT
HETATM    1  C   UNL     1      -6.984   2.990  68.621  1.00  0.00    -0.048 C  
HETATM    2  C   UNL     1      -6.706   4.437  68.253  1.00  0.00    -0.047 C  
ENDROOT
BRANCH   2   3
HETATM    3  C   UNL     1      -7.758   5.369  68.849  1.00  0.00    -0.083 C  
BRANCH   3   4
HETATM    4  C   UNL     1      -7.122   6.657  69.363  1.00  0.00    -0.080 C  
BRANCH   4   5
HETATM    5  C   UNL     1      -8.131   7.800  69.351  1.00  0.00    -0.126 C  
BRANCH   5   6
HETATM    6  C   UNL     1      -8.084   8.575  70.663  1.00  0.00    -0.119 C  
BRANCH   6   7
HETATM    7  C   UNL     1      -7.595   7.680  71.794  1.00  0.00    -0.086 C  
BRANCH   7   8
HETATM    8  C   UNL     1      -8.303   8.032  73.096  1.00  0.00    -0.253 C  
BRANCH   8   9
HETATM    9  C   UNL     1      -8.799   6.767  73.780  1.00  0.00    -0.164 C  
BRANCH   9  10
HETATM   10  C   UNL     1      -8.782   5.593  72.815  1.00  0.00    -0.119 C  
BRANCH  10  11
HETATM   11  C   UNL     1     -10.126   4.882  72.843  1.00  0.00    -0.208 C  
BRANCH  11  12
HETATM   12  C   UNL     1     -11.231   5.815  72.380  1.00  0.00    -0.343 C  
BRANCH  12  13
HETATM   13  C   UNL     1     -11.050   6.147  70.905  1.00  0.00    -0.371 C  
BRANCH  13  14
HETATM   14  C   UNL     1     -11.597   7.532  70.627  1.00  0.00    -0.272 C  
BRANCH  14  15
HETATM   15  C   UNL     1     -11.899   8.280  71.918  1.00  0.00    -0.380 C  
BRANCH  15  16
HETATM   16  C   UNL     1     -12.249   9.707  71.560  1.00  0.00    -0.399 C  
BRANCH  16  17
HETATM   17  O   UNL     1     -11.276  10.248  70.675  1.00  0.00    -0.315 OA 
BRANCH  17  18
HETATM   18  P   UNL     1     -11.819  11.693  69.895  1.00  0.00    -0.306 P  
HETATM   19  O   UNL     1     -12.614  12.043  71.157  1.00  0.00    -0.367 OA 
HETATM   20  O   UNL     1     -12.392  10.915  68.712  1.00  0.00    -0.495 OA 
BRANCH  18  21
HETATM   21  O   UNL     1     -12.360  13.139  69.113  1.00  0.00    -0.164 OA 
BRANCH  21  22
HETATM   22  C   UNL     1     -11.334  13.852  68.429  1.00  0.00    -0.285 C  
BRANCH  22  23
HETATM   23  C   UNL     1      -9.996  13.150  68.506  1.00  0.00    -0.180 C  
BRANCH  23  24
HETATM   24  N   UNL     1      -9.197  13.116  67.186  1.00  0.00    -0.219 N  
HETATM   25  C   UNL     1      -7.729  13.044  67.558  1.00  0.00    -0.168 C  
HETATM   26  C   UNL     1      -9.458  14.394  66.388  1.00  0.00    -0.285 C  
HETATM   27  C   UNL     1      -9.579  11.909  66.348  1.00  0.00    -0.225 C  
ENDBRANCH  23  24
ENDBRANCH  22  23
ENDBRANCH  21  22
ENDBRANCH  18  21
ENDBRANCH  17  18
ENDBRANCH  16  17
ENDBRANCH  15  16
ENDBRANCH  14  15
ENDBRANCH  13  14
ENDBRANCH  12  13
ENDBRANCH  11  12
ENDBRANCH  10  11
ENDBRANCH   9  10
ENDBRANCH   8   9
ENDBRANCH   7   8
ENDBRANCH   6   7
ENDBRANCH   5   6
ENDBRANCH   4   5
ENDBRANCH   3   4
ENDBRANCH   2   3
TORSDOF 20
ENDMDL
MODEL      243
REMARK 921   NORMALIZED FREE ENERGY PREDICTED BY IDOCK:   -3.29 KCAL/MOL
REMARK 922        TOTAL FREE ENERGY PREDICTED BY IDOCK:   -9.06 KCAL/MOL
REMARK 923 INTER-LIGAND FREE ENERGY PREDICTED BY IDOCK:   -6.83 KCAL/MOL
REMARK 924 INTRA-LIGAND FREE ENERGY PREDICTED BY IDOCK:   -2.23 KCAL/MOL
REMARK 927      BINDING AFFINITY PREDICTED BY RF-SCORE:    0.00 PKD
ROOT
HETATM    1  C   UNL     1      -8.847   8.590  67.736  1.00  0.00    -0.137 C  
HETATM    2  C   UNL     1      -8.882   7.132  67.310  1.00  0.00    -0.120 C  
ENDROOT
BRANCH   2   3
HETATM    3  C   UNL     1     -10.293   6.708  66.909  1.00  0.00    -0.324 C  
BRANCH   3   4
HETATM    4  C   UNL     1     -10.301   5.292  66.343  1.00  0.00    -0.315 C  
BRANCH   4   5
HETATM    5  C   UNL     1      -9.100   4.501  66.851  1.00  0.00    -0.130 C  
BRANCH   5   6
HETATM    6  C   UNL     1      -9.494   3.620  68.030  1.00  0.00    -0.218 C  
BRANCH   6   7
HETATM    7  C   UNL     1      -8.651   3.958  69.253  1.00  0.00    -0.114 C  
BRANCH   7   8
HETATM    8  C   UNL     1      -9.542   4.209  70.462  1.00  0.00    -0.261 C  
BRANCH   8   9
HETATM    9  C   UNL     1     -10.563   5.292  70.144  1.00  0.00    -0.297 C  
BRANCH   9  10
HETATM   10  C   UNL     1     -10.681   6.273  71.300  1.00  0.00    -0.299 C  
BRANCH  10  11
HETATM   11  C   UNL     1      -9.441   7.150  71.361  1.00  0.00    -0.162 C  
BRANCH  11  12
HETATM   12  C   UNL     1      -9.751   8.462  72.059  1.00  0.00    -0.353 C  
BRANCH  12  13
HETATM   13  C   UNL     1      -9.825   9.591  71.041  1.00  0.00    -0.236 C  
BRANCH  13  14
HETATM   14  C   UNL     1     -11.250  10.101  70.954  1.00  0.00    -0.383 C  
BRANCH  14  15
HETATM   15  C   UNL     1     -11.672  10.326  69.509  1.00  0.00    -0.193 C  
BRANCH  15  16
HETATM   16  C   UNL     1     -12.146  11.756  69.378  1.00  0.00    -0.238 C  
BRANCH  16  17
HETATM   17  O   UNL     1     -11.071  12.657  69.614  1.00  0.00    -0.076 OA 
BRANCH  17  18
HETATM   18  P   UNL     1     -10.617  13.535  68.194  1.00  0.00    -0.256 P  
HETATM   19  O   UNL     1      -9.792  14.479  69.076  1.00  0.00    -0.208 OA 
HETATM   20  O   UNL     1     -12.072  13.784  67.805  1.00  0.00    -0.362 OA 
BRANCH  18  21
HETATM   21  O   UNL     1     -10.162  14.411  66.774  1.00  0.00    -0.263 OA 
BRANCH  21  22
HETATM   22  C   UNL     1     -11.115  15.385  66.358  1.00  0.00    -0.230 C  
BRANCH  22  23
HETATM   23  C   UNL     1     -10.472  16.538  65.617  1.00  0.00    -0.324 C  
BRANCH  23  24
HETATM   24  N   UNL     1      -9.967  17.691  66.511  1.00  0.00    -0.317 N  
HETATM   25  C   UNL     1     -10.371  18.986  65.833  1.00  0.00    -0.371 C  
HETATM   26  C   UNL     1      -8.443  17.630  66.625  1.00  0.00    -0.259 C  
HETATM   27  C   UNL     1     -10.582  17.617  67.896  1.00  0.00    -0.387 C  
ENDBRANCH  23  24
ENDBRANCH  22  23
ENDBRANCH  21  22
ENDBRANCH  18  21
ENDBRANCH  17  18
ENDBRANCH  16  17
ENDBRANCH  15  16
ENDBRANCH  14  15
ENDBRANCH  13  14
ENDBRANCH  12  13
ENDBRANCH  11  12
ENDBRANCH  10  11
ENDBRANCH   9  10
ENDBRANCH   8   9
ENDBRANCH   7   8
ENDBRANCH   6   7
ENDBRANCH   5   6
ENDBRANCH   4   5
ENDBRANCH   3   4
ENDBRANCH   2   3
TORSDOF 20
ENDMDL
MODEL      244
REMARK 921   NORMALIZED FREE ENERGY PREDICTED BY IDOCK:   -3.29 KCAL/MOL
REMARK 922        TOTAL FREE ENERGY PREDICTED BY IDOCK:   -9.06 KCAL/MOL
REMARK 923 INTER-LIGAND FREE ENERGY PREDICTED BY IDOCK:   -7.45 KCAL/MOL
REMARK 924 INTRA-LIGAND FREE ENERGY PREDICTED BY IDOCK:   -1.60 KCAL/MOL
REMARK 927      BINDING AFFINITY PREDICTED BY RF-SCORE:    0.00 PKD
ROOT
HETATM    1  C   UNL     1     -12.355  15.030  73.993  1.00  0.00    -0.646 C  
HETATM    2  C   UNL     1     -13.058  14.351  72.830  1.00  0.00    -0.612 C  
ENDROOT
BRANCH   2   3
HETATM    3  C   UNL     1     -13.810  15.366  71.972  1.00  0.00    -0.625 C  
BRANCH   3   4
HETATM    4  C   UNL     1     -13.141  15.538  70.613  1.00  0.00    -0.361 C  
BRANCH   4   5
HETATM    5  C   UNL     1     -11.669  15.145  70.682  1.00  0.00    -0.356 C  
BRANCH   5   6
HETATM    6  C   UNL     1     -11.117  14.875  69.287  1.00  0.00    -0.284 C  
BRANCH   6   7
HETATM    7  C   UNL     1     -11.947  13.812  68.581  1.00  0.00    -0.401 C  
BRANCH   7   8
HETATM    8  C   UNL     1     -11.579  13.742  67.104  1.00  0.00    -0.392 C  
BRANCH   8   9
HETATM    9  C   UNL     1     -11.421  12.293  66.671  1.00  0.00    -0.431 C  
BRANCH   9  10
HETATM   10  C   UNL     1     -11.423  11.369  67.879  1.00  0.00    -0.361 C  
BRANCH  10  11
HETATM   11  C   UNL     1     -10.919   9.992  67.476  1.00  0.00    -0.276 C  
BRANCH  11  12
HETATM   12  C   UNL     1      -9.952  10.099  66.310  1.00  0.00    -0.304 C  
BRANCH  12  13
HETATM   13  C   UNL     1      -8.530   9.835  66.785  1.00  0.00    -0.125 C  
BRANCH  13  14
HETATM   14  C   UNL     1      -7.725   9.225  65.656  1.00  0.00    -0.095 C  
BRANCH  14  15
HETATM   15  C   UNL     1      -8.496   8.113  64.959  1.00  0.00    -0.117 C  
BRANCH  15  16
HETATM   16  C   UNL     1      -8.354   6.856  65.787  1.00  0.00    -0.142 C  
BRANCH  16  17
HETATM   17  O   UNL     1      -9.591   6.530  66.408  1.00  0.00    -0.163 OA 
BRANCH  17  18
HETATM   18  P   UNL     1      -9.382   5.661  67.890  1.00  0.00    -0.112 P  
HETATM   19  O   UNL     1      -7.899   6.046  67.872  1.00  0.00    -0.102 OA 
HETATM   20  O   UNL     1      -9.937   4.373  67.287  1.00  0.00    -0.183 OA 
BRANCH  18  21
HETATM   21  O   UNL     1      -9.173   4.793  69.371  1.00  0.00    -0.098 OA 
BRANCH  21  22
HETATM   22  C   UNL     1     -10.017   5.235  70.431  1.00  0.00    -0.233 C  
BRANCH  22  23
HETATM   23  C   UNL     1     -10.346   6.708  70.327  1.00  0.00    -0.202 C  
BRANCH  23  24
HETATM   24  N   UNL     1      -9.701   7.603  71.408  1.00  0.00    -0.163 N  
HETATM   25  C   UNL     1      -8.503   6.849  71.950  1.00  0.00    -0.114 C  
HETATM   26  C   UNL     1     -10.701   7.852  72.538  1.00  0.00    -0.328 C  
HETATM   27  C   UNL     1      -9.257   8.931  70.822  1.00  0.00    -0.223 C  
ENDBRANCH  23  24
ENDBRANCH  22  23
ENDBRANCH  21  22
ENDBRANCH  18  21
ENDBRANCH  17  18
ENDBRANCH  16  17
ENDBRANCH  15  16
ENDBRANCH  14  15
ENDBRANCH  13  14
ENDBRANCH  12  13
ENDBRANCH  11  12
ENDBRANCH  10  11
ENDBRANCH   9  10
ENDBRANCH   8   9
ENDBRANCH   7   8
ENDBRANCH   6   7
ENDBRANCH   5   6
ENDBRANCH   4   5
ENDBRANCH   3   4
ENDBRANCH   2   3
TORSDOF 20
ENDMDL
MODEL      245
REMARK 921   NORMALIZED FREE ENERGY PREDICTED BY IDOCK:   -3.29 KCAL/MOL
REMARK 922        TOTAL FREE ENERGY PREDICTED BY IDOCK:   -9.06 KCAL/MOL
REMARK 923 INTER-LIGAND FREE ENERGY PREDICTED BY IDOCK:   -8.03 KCAL/MOL
REMARK 924 INTRA-LIGAND FREE ENERGY PREDICTED BY IDOCK:   -1.03 KCAL/MOL
REMARK 927      BINDING AFFINITY PREDICTED BY RF-SCORE:    0.00 PKD
ROOT
HETATM    1  C   UNL     1     -10.468  11.640  63.717  1.00  0.00    -0.454 C  
HETATM    2  C   UNL     1      -9.401  10.712  63.160  1.00  0.00    -0.335 C  
ENDROOT
BRANCH   2   3
HETATM    3  C   UNL     1      -8.259  10.526  64.156  1.00  0.00    -0.058 C  
BRANCH   3   4
HETATM    4  C   UNL     1      -8.788  10.413  65.582  1.00  0.00    -0.190 C  
BRANCH   4   5
HETATM    5  C   UNL     1      -8.884   8.952  66.008  1.00  0.00    -0.206 C  
BRANCH   5   6
HETATM    6  C   UNL     1     -10.278   8.635  66.538  1.00  0.00    -0.295 C  
BRANCH   6   7
HETATM    7  C   UNL     1     -10.190   7.746  67.771  1.00  0.00    -0.271 C  
BRANCH   7   8
HETATM    8  C   UNL     1      -8.820   7.874  68.424  1.00  0.00    -0.130 C  
BRANCH   8   9
HETATM    9  C   UNL     1      -8.866   8.905  69.541  1.00  0.00    -0.144 C  
BRANCH   9  10
HETATM   10  C   UNL     1      -9.324   8.266  70.842  1.00  0.00    -0.187 C  
BRANCH  10  11
HETATM   11  C   UNL     1     -10.840   8.143  70.852  1.00  0.00    -0.254 C  
BRANCH  11  12
HETATM   12  C   UNL     1     -11.437   9.010  71.947  1.00  0.00    -0.440 C  
BRANCH  12  13
HETATM   13  C   UNL     1     -12.906   9.282  71.655  1.00  0.00    -0.447 C  
BRANCH  13  14
HETATM   14  C   UNL     1     -13.201  10.752  71.872  1.00  0.00    -0.524 C  
BRANCH  14  15
HETATM   15  C   UNL     1     -12.394  11.627  70.924  1.00  0.00    -0.436 C  
BRANCH  15  16
HETATM   16  C   UNL     1     -13.011  13.008  70.923  1.00  0.00    -0.044 C  
BRANCH  16  17
HETATM   17  O   UNL     1     -12.050  13.980  71.316  1.00  0.00    -0.336 OA 
BRANCH  17  18
HETATM   18  P   UNL     1     -11.833  15.218  70.128  1.00  0.00    -0.381 P  
HETATM   19  O   UNL     1     -10.943  14.258  69.331  1.00  0.00    -0.248 OA 
HETATM   20  O   UNL     1     -11.307  16.209  71.163  1.00  0.00    -0.387 OA 
BRANCH  18  21
HETATM   21  O   UNL     1     -11.618  16.456  68.939  1.00  0.00    -0.290 OA 
BRANCH  21  22
HETATM   22  C   UNL     1     -10.267  16.880  68.775  1.00  0.00    -0.311 C  
BRANCH  22  23
HETATM   23  C   UNL     1     -10.168  18.330  68.352  1.00  0.00    -0.380 C  
BRANCH  23  24
HETATM   24  N   UNL     1      -9.565  18.564  66.950  1.00  0.00    -0.296 N  
HETATM   25  C   UNL     1      -9.128  17.211  66.423  1.00  0.00    -0.256 C  
HETATM   26  C   UNL     1      -8.349  19.486  67.055  1.00  0.00    -0.287 C  
HETATM   27  C   UNL     1     -10.588  19.179  66.012  1.00  0.00    -0.442 C  
ENDBRANCH  23  24
ENDBRANCH  22  23
ENDBRANCH  21  22
ENDBRANCH  18  21
ENDBRANCH  17  18
ENDBRANCH  16  17
ENDBRANCH  15  16
ENDBRANCH  14  15
ENDBRANCH  13  14
ENDBRANCH  12  13
ENDBRANCH  11  12
ENDBRANCH  10  11
ENDBRANCH   9  10
ENDBRANCH   8   9
ENDBRANCH   7   8
ENDBRANCH   6   7
ENDBRANCH   5   6
ENDBRANCH   4   5
ENDBRANCH   3   4
ENDBRANCH   2   3
TORSDOF 20
ENDMDL
MODEL      246
REMARK 921   NORMALIZED FREE ENERGY PREDICTED BY IDOCK:   -3.28 KCAL/MOL
REMARK 922        TOTAL FREE ENERGY PREDICTED BY IDOCK:   -9.04 KCAL/MOL
REMARK 923 INTER-LIGAND FREE ENERGY PREDICTED BY IDOCK:   -6.93 KCAL/MOL
REMARK 924 INTRA-LIGAND FREE ENERGY PREDICTED BY IDOCK:   -2.11 KCAL/MOL
REMARK 927      BINDING AFFINITY PREDICTED BY RF-SCORE:    0.00 PKD
ROOT
HETATM    1  C   UNL     1      -9.533  17.011  67.900  1.00  0.00    -0.245 C  
HETATM    2  C   UNL     1      -9.357  16.000  66.780  1.00  0.00    -0.260 C  
ENDROOT
BRANCH   2   3
HETATM    3  C   UNL     1     -10.398  16.206  65.683  1.00  0.00    -0.405 C  
BRANCH   3   4
HETATM    4  C   UNL     1     -10.647  14.913  64.913  1.00  0.00    -0.417 C  
BRANCH   4   5
HETATM    5  C   UNL     1     -12.115  14.796  64.515  1.00  0.00    -0.460 C  
BRANCH   5   6
HETATM    6  C   UNL     1     -12.753  13.573  65.164  1.00  0.00    -0.453 C  
BRANCH   6   7
HETATM    7  C   UNL     1     -11.812  12.378  65.093  1.00  0.00    -0.437 C  
BRANCH   7   8
HETATM    8  C   UNL     1     -11.682  11.886  63.657  1.00  0.00    -0.572 C  
BRANCH   8   9
HETATM    9  C   UNL     1     -10.222  11.888  63.233  1.00  0.00    -0.428 C  
BRANCH   9  10
HETATM   10  C   UNL     1      -9.640  10.485  63.307  1.00  0.00    -0.373 C  
BRANCH  10  11
HETATM   11  C   UNL     1      -9.304  10.141  64.750  1.00  0.00    -0.324 C  
BRANCH  11  12
HETATM   12  C   UNL     1      -7.873  10.534  65.071  1.00  0.00    -0.055 C  
BRANCH  12  13
HETATM   13  C   UNL     1      -7.791  11.099  66.482  1.00  0.00    -0.151 C  
BRANCH  13  14
HETATM   14  C   UNL     1      -8.686  12.316  66.593  1.00  0.00    -0.132 C  
BRANCH  14  15
HETATM   15  C   UNL     1      -9.297  12.433  67.982  1.00  0.00    -0.204 C  
BRANCH  15  16
HETATM   16  C   UNL     1      -9.795  11.064  68.390  1.00  0.00    -0.182 C  
BRANCH  16  17
HETATM   17  O   UNL     1      -9.228  10.683  69.637  1.00  0.00    -0.061 OA 
BRANCH  17  18
HETATM   18  P   UNL     1      -8.668   9.046  69.639  1.00  0.00    -0.163 P  
HETATM   19  O   UNL     1      -7.229   9.568  69.713  1.00  0.00    -0.065 OA 
HETATM   20  O   UNL     1      -9.396   8.728  68.335  1.00  0.00    -0.137 OA 
BRANCH  18  21
HETATM   21  O   UNL     1      -8.109   7.409  69.642  1.00  0.00    -0.123 OA 
BRANCH  21  22
HETATM   22  C   UNL     1      -8.372   6.704  70.853  1.00  0.00    -0.125 C  
BRANCH  22  23
HETATM   23  C   UNL     1      -9.628   7.193  71.540  1.00  0.00    -0.157 C  
BRANCH  23  24
HETATM   24  N   UNL     1     -10.915   6.415  71.187  1.00  0.00    -0.263 N  
HETATM   25  C   UNL     1     -10.536   5.384  70.141  1.00  0.00    -0.274 C  
HETATM   26  C   UNL     1     -11.956   7.373  70.605  1.00  0.00    -0.176 C  
HETATM   27  C   UNL     1     -11.488   5.726  72.411  1.00  0.00    -0.288 C  
ENDBRANCH  23  24
ENDBRANCH  22  23
ENDBRANCH  21  22
ENDBRANCH  18  21
ENDBRANCH  17  18
ENDBRANCH  16  17
ENDBRANCH  15  16
ENDBRANCH  14  15
ENDBRANCH  13  14
ENDBRANCH  12  13
ENDBRANCH  11  12
ENDBRANCH  10  11
ENDBRANCH   9  10
ENDBRANCH   8   9
ENDBRANCH   7   8
ENDBRANCH   6   7
ENDBRANCH   5   6
ENDBRANCH   4   5
ENDBRANCH   3   4
ENDBRANCH   2   3
TORSDOF 20
ENDMDL
MODEL      247
REMARK 921   NORMALIZED FREE ENERGY PREDICTED BY IDOCK:   -3.28 KCAL/MOL
REMARK 922        TOTAL FREE ENERGY PREDICTED BY IDOCK:   -9.04 KCAL/MOL
REMARK 923 INTER-LIGAND FREE ENERGY PREDICTED BY IDOCK:   -6.81 KCAL/MOL
REMARK 924 INTRA-LIGAND FREE ENERGY PREDICTED BY IDOCK:   -2.23 KCAL/MOL
REMARK 927      BINDING AFFINITY PREDICTED BY RF-SCORE:    0.00 PKD
ROOT
HETATM    1  C   UNL     1     -10.850  11.555  68.861  1.00  0.00    -0.263 C  
HETATM    2  C   UNL     1     -11.464  10.167  68.916  1.00  0.00    -0.125 C  
ENDROOT
BRANCH   2   3
HETATM    3  C   UNL     1     -11.665   9.710  70.359  1.00  0.00    -0.266 C  
BRANCH   3   4
HETATM    4  C   UNL     1     -10.335   9.640  71.102  1.00  0.00    -0.236 C  
BRANCH   4   5
HETATM    5  C   UNL     1      -9.996   8.199  71.467  1.00  0.00    -0.237 C  
BRANCH   5   6
HETATM    6  C   UNL     1      -8.766   7.724  70.703  1.00  0.00    -0.139 C  
BRANCH   6   7
HETATM    7  C   UNL     1      -9.175   6.855  69.521  1.00  0.00    -0.148 C  
BRANCH   7   8
HETATM    8  C   UNL     1      -8.241   7.087  68.341  1.00  0.00    -0.124 C  
BRANCH   8   9
HETATM    9  C   UNL     1      -8.406   8.504  67.813  1.00  0.00    -0.130 C  
BRANCH   9  10
HETATM   10  C   UNL     1      -7.579   8.707  66.554  1.00  0.00    -0.088 C  
BRANCH  10  11
HETATM   11  C   UNL     1      -8.201   9.800  65.699  1.00  0.00    -0.130 C  
BRANCH  11  12
HETATM   12  C   UNL     1      -9.716   9.751  65.793  1.00  0.00    -0.340 C  
BRANCH  12  13
HETATM   13  C   UNL     1     -10.309  11.088  65.368  1.00  0.00    -0.330 C  
BRANCH  13  14
HETATM   14  C   UNL     1     -10.429  11.131  63.859  1.00  0.00    -0.445 C  
BRANCH  14  15
HETATM   15  C   UNL     1     -11.693  11.858  63.423  1.00  0.00    -0.500 C  
BRANCH  15  16
HETATM   16  C   UNL     1     -12.382  12.382  64.662  1.00  0.00    -0.441 C  
BRANCH  16  17
HETATM   17  O   UNL     1     -12.765  13.740  64.479  1.00  0.00    -0.643 OA 
BRANCH  17  18
HETATM   18  P   UNL     1     -11.863  14.824  65.481  1.00  0.00    -0.095 P  
HETATM   19  O   UNL     1     -10.667  14.657  64.537  1.00  0.00    -0.334 OA 
HETATM   20  O   UNL     1     -12.094  13.970  66.725  1.00  0.00    -0.428 OA 
BRANCH  18  21
HETATM   21  O   UNL     1     -10.962  15.910  66.482  1.00  0.00    -0.252 OA 
BRANCH  21  22
HETATM   22  C   UNL     1      -9.551  15.851  66.286  1.00  0.00    -0.316 C  
BRANCH  22  23
HETATM   23  C   UNL     1      -8.794  16.659  67.317  1.00  0.00    -0.192 C  
BRANCH  23  24
HETATM   24  N   UNL     1      -8.362  15.875  68.576  1.00  0.00    -0.173 N  
HETATM   25  C   UNL     1      -7.060  16.486  69.054  1.00  0.00    -0.213 C  
HETATM   26  C   UNL     1      -8.135  14.405  68.219  1.00  0.00    -0.139 C  
HETATM   27  C   UNL     1      -9.413  15.975  69.667  1.00  0.00    -0.082 C  
ENDBRANCH  23  24
ENDBRANCH  22  23
ENDBRANCH  21  22
ENDBRANCH  18  21
ENDBRANCH  17  18
ENDBRANCH  16  17
ENDBRANCH  15  16
ENDBRANCH  14  15
ENDBRANCH  13  14
ENDBRANCH  12  13
ENDBRANCH  11  12
ENDBRANCH  10  11
ENDBRANCH   9  10
ENDBRANCH   8   9
ENDBRANCH   7   8
ENDBRANCH   6   7
ENDBRANCH   5   6
ENDBRANCH   4   5
ENDBRANCH   3   4
ENDBRANCH   2   3
TORSDOF 20
ENDMDL
MODEL      248
REMARK 921   NORMALIZED FREE ENERGY PREDICTED BY IDOCK:   -3.27 KCAL/MOL
REMARK 922        TOTAL FREE ENERGY PREDICTED BY IDOCK:   -9.02 KCAL/MOL
REMARK 923 INTER-LIGAND FREE ENERGY PREDICTED BY IDOCK:   -6.89 KCAL/MOL
REMARK 924 INTRA-LIGAND FREE ENERGY PREDICTED BY IDOCK:   -2.13 KCAL/MOL
REMARK 927      BINDING AFFINITY PREDICTED BY RF-SCORE:    0.00 PKD
ROOT
HETATM    1  C   UNL     1     -10.539   7.897  72.652  1.00  0.00    -0.394 C  
HETATM    2  C   UNL     1      -9.519   8.511  71.708  1.00  0.00    -0.328 C  
ENDROOT
BRANCH   2   3
HETATM    3  C   UNL     1      -8.094   8.213  72.167  1.00  0.00    -0.182 C  
BRANCH   3   4
HETATM    4  C   UNL     1      -7.078   9.011  71.357  1.00  0.00    -0.069 C  
BRANCH   4   5
HETATM    5  C   UNL     1      -7.779   9.874  70.313  1.00  0.00    -0.160 C  
BRANCH   5   6
HETATM    6  C   UNL     1      -6.777  10.414  69.300  1.00  0.00    -0.067 C  
BRANCH   6   7
HETATM    7  C   UNL     1      -7.216  10.074  67.882  1.00  0.00    -0.087 C  
BRANCH   7   8
HETATM    8  C   UNL     1      -6.347   8.963  67.307  1.00  0.00    -0.060 C  
BRANCH   8   9
HETATM    9  C   UNL     1      -7.027   8.339  66.097  1.00  0.00    -0.062 C  
BRANCH   9  10
HETATM   10  C   UNL     1      -6.953   6.822  66.163  1.00  0.00    -0.061 C  
BRANCH  10  11
HETATM   11  C   UNL     1      -8.284   6.261  66.636  1.00  0.00    -0.111 C  
BRANCH  11  12
HETATM   12  C   UNL     1      -9.401   7.260  66.390  1.00  0.00    -0.199 C  
BRANCH  12  13
HETATM   13  C   UNL     1     -10.462   7.136  67.474  1.00  0.00    -0.331 C  
BRANCH  13  14
HETATM   14  C   UNL     1     -10.458   8.385  68.332  1.00  0.00    -0.208 C  
BRANCH  14  15
HETATM   15  C   UNL     1     -10.735   9.630  67.502  1.00  0.00    -0.321 C  
BRANCH  15  16
HETATM   16  C   UNL     1     -11.289  10.693  68.424  1.00  0.00    -0.283 C  
BRANCH  16  17
HETATM   17  O   UNL     1     -12.238  11.499  67.736  1.00  0.00    -0.560 OA 
BRANCH  17  18
HETATM   18  P   UNL     1     -11.509  12.856  66.948  1.00  0.00    -0.379 P  
HETATM   19  O   UNL     1     -11.812  13.703  68.189  1.00  0.00    -0.342 OA 
HETATM   20  O   UNL     1     -12.442  12.740  65.745  1.00  0.00    -0.579 OA 
BRANCH  18  21
HETATM   21  O   UNL     1     -10.778  14.212  66.161  1.00  0.00    -0.290 OA 
BRANCH  21  22
HETATM   22  C   UNL     1     -10.902  15.439  66.876  1.00  0.00    -0.313 C  
BRANCH  22  23
HETATM   23  C   UNL     1     -10.005  16.522  66.316  1.00  0.00    -0.329 C  
BRANCH  23  24
HETATM   24  N   UNL     1      -9.492  17.547  67.351  1.00  0.00    -0.252 N  
HETATM   25  C   UNL     1      -8.301  18.248  66.728  1.00  0.00    -0.255 C  
HETATM   26  C   UNL     1      -9.048  16.822  68.623  1.00  0.00    -0.254 C  
HETATM   27  C   UNL     1     -10.568  18.560  67.695  1.00  0.00    -0.414 C  
ENDBRANCH  23  24
ENDBRANCH  22  23
ENDBRANCH  21  22
ENDBRANCH  18  21
ENDBRANCH  17  18
ENDBRANCH  16  17
ENDBRANCH  15  16
ENDBRANCH  14  15
ENDBRANCH  13  14
ENDBRANCH  12  13
ENDBRANCH  11  12
ENDBRANCH  10  11
ENDBRANCH   9  10
ENDBRANCH   8   9
ENDBRANCH   7   8
ENDBRANCH   6   7
ENDBRANCH   5   6
ENDBRANCH   4   5
ENDBRANCH   3   4
ENDBRANCH   2   3
TORSDOF 20
ENDMDL
MODEL      249
REMARK 921   NORMALIZED FREE ENERGY PREDICTED BY IDOCK:   -3.27 KCAL/MOL
REMARK 922        TOTAL FREE ENERGY PREDICTED BY IDOCK:   -9.02 KCAL/MOL
REMARK 923 INTER-LIGAND FREE ENERGY PREDICTED BY IDOCK:   -7.02 KCAL/MOL
REMARK 924 INTRA-LIGAND FREE ENERGY PREDICTED BY IDOCK:   -2.00 KCAL/MOL
REMARK 927      BINDING AFFINITY PREDICTED BY RF-SCORE:    0.00 PKD
ROOT
HETATM    1  C   UNL     1      -6.686  10.330  67.703  1.00  0.00    -0.074 C  
HETATM    2  C   UNL     1      -6.999  11.816  67.740  1.00  0.00    -0.094 C  
ENDROOT
BRANCH   2   3
HETATM    3  C   UNL     1      -6.349  12.486  68.948  1.00  0.00    -0.086 C  
BRANCH   3   4
HETATM    4  C   UNL     1      -6.929  13.877  69.182  1.00  0.00    -0.093 C  
BRANCH   4   5
HETATM    5  C   UNL     1      -7.044  14.642  67.868  1.00  0.00    -0.170 C  
BRANCH   5   6
HETATM    6  C   UNL     1      -5.911  15.652  67.732  1.00  0.00    -0.163 C  
BRANCH   6   7
HETATM    7  C   UNL     1      -6.346  16.829  66.870  1.00  0.00    -0.229 C  
BRANCH   7   8
HETATM    8  C   UNL     1      -6.071  18.145  67.586  1.00  0.00    -0.169 C  
BRANCH   8   9
HETATM    9  C   UNL     1      -6.898  18.232  68.859  1.00  0.00    -0.270 C  
BRANCH   9  10
HETATM   10  C   UNL     1      -7.718  19.512  68.881  1.00  0.00    -0.369 C  
BRANCH  10  11
HETATM   11  C   UNL     1      -7.956  19.996  67.459  1.00  0.00    -0.342 C  
BRANCH  11  12
HETATM   12  C   UNL     1      -9.444  20.086  67.169  1.00  0.00    -0.514 C  
BRANCH  12  13
HETATM   13  C   UNL     1     -10.223  19.249  68.174  1.00  0.00    -0.515 C  
BRANCH  13  14
HETATM   14  C   UNL     1     -10.906  18.102  67.456  1.00  0.00    -0.264 C  
BRANCH  14  15
HETATM   15  C   UNL     1     -10.008  16.876  67.388  1.00  0.00    -0.269 C  
BRANCH  15  16
HETATM   16  C   UNL     1     -10.848  15.707  66.925  1.00  0.00    -0.282 C  
BRANCH  16  17
HETATM   17  O   UNL     1     -11.776  15.333  67.936  1.00  0.00    -0.328 OA 
BRANCH  17  18
HETATM   18  P   UNL     1     -11.902  13.618  68.121  1.00  0.00    -0.315 P  
HETATM   19  O   UNL     1     -11.334  13.757  69.537  1.00  0.00    -0.260 OA 
HETATM   20  O   UNL     1     -11.050  13.358  66.881  1.00  0.00    -0.283 OA 
BRANCH  18  21
HETATM   21  O   UNL     1     -12.030  11.902  68.305  1.00  0.00    -0.456 OA 
BRANCH  21  22
HETATM   22  C   UNL     1     -10.928  11.304  68.983  1.00  0.00    -0.236 C  
BRANCH  22  23
HETATM   23  C   UNL     1     -11.371  10.432  70.138  1.00  0.00    -0.323 C  
BRANCH  23  24
HETATM   24  N   UNL     1     -10.722   9.032  70.188  1.00  0.00    -0.227 N  
HETATM   25  C   UNL     1     -11.738   8.094  70.810  1.00  0.00    -0.201 C  
HETATM   26  C   UNL     1      -9.466   9.073  71.061  1.00  0.00    -0.274 C  
HETATM   27  C   UNL     1     -10.355   8.551  68.796  1.00  0.00    -0.213 C  
ENDBRANCH  23  24
ENDBRANCH  22  23
ENDBRANCH  21  22
ENDBRANCH  18  21
ENDBRANCH  17  18
ENDBRANCH  16  17
ENDBRANCH  15  16
ENDBRANCH  14  15
ENDBRANCH  13  14
ENDBRANCH  12  13
ENDBRANCH  11  12
ENDBRANCH  10  11
ENDBRANCH   9  10
ENDBRANCH   8   9
ENDBRANCH   7   8
ENDBRANCH   6   7
ENDBRANCH   5   6
ENDBRANCH   4   5
ENDBRANCH   3   4
ENDBRANCH   2   3
TORSDOF 20
ENDMDL
MODEL      250
REMARK 921   NORMALIZED FREE ENERGY PREDICTED BY IDOCK:   -3.27 KCAL/MOL
REMARK 922        TOTAL FREE ENERGY PREDICTED BY IDOCK:   -9.02 KCAL/MOL
REMARK 923 INTER-LIGAND FREE ENERGY PREDICTED BY IDOCK:   -6.85 KCAL/MOL
REMARK 924 INTRA-LIGAND FREE ENERGY PREDICTED BY IDOCK:   -2.16 KCAL/MOL
REMARK 927      BINDING AFFINITY PREDICTED BY RF-SCORE:    0.00 PKD
ROOT
HETATM    1  C   UNL     1      -8.728   5.784  65.377  1.00  0.00    -0.122 C  
HETATM    2  C   UNL     1      -7.650   6.853  65.331  1.00  0.00    -0.093 C  
ENDROOT
BRANCH   2   3
HETATM    3  C   UNL     1      -8.002   8.030  66.239  1.00  0.00    -0.105 C  
BRANCH   3   4
HETATM    4  C   UNL     1      -6.930   9.112  66.175  1.00  0.00    -0.086 C  
BRANCH   4   5
HETATM    5  C   UNL     1      -5.919   8.806  65.076  1.00  0.00    -0.059 C  
BRANCH   5   6
HETATM    6  C   UNL     1      -5.908   9.913  64.028  1.00  0.00    -0.118 C  
BRANCH   6   7
HETATM    7  C   UNL     1      -6.813   9.549  62.858  1.00  0.00    -0.100 C  
BRANCH   7   8
HETATM    8  C   UNL     1      -7.929  10.574  62.709  1.00  0.00    -0.147 C  
BRANCH   8   9
HETATM    9  C   UNL     1      -9.258   9.967  63.132  1.00  0.00    -0.313 C  
BRANCH   9  10
HETATM   10  C   UNL     1      -9.962  10.866  64.136  1.00  0.00    -0.403 C  
BRANCH  10  11
HETATM   11  C   UNL     1     -11.141  11.558  63.470  1.00  0.00    -0.434 C  
BRANCH  11  12
HETATM   12  C   UNL     1     -11.327  12.955  64.037  1.00  0.00    -0.466 C  
BRANCH  12  13
HETATM   13  C   UNL     1     -12.599  13.016  64.870  1.00  0.00    -0.490 C  
BRANCH  13  14
HETATM   14  C   UNL     1     -12.334  13.793  66.143  1.00  0.00    -0.496 C  
BRANCH  14  15
HETATM   15  C   UNL     1     -10.848  13.831  66.472  1.00  0.00    -0.287 C  
BRANCH  15  16
HETATM   16  C   UNL     1     -10.676  13.391  67.909  1.00  0.00    -0.247 C  
BRANCH  16  17
HETATM   17  O   UNL     1     -11.924  12.983  68.454  1.00  0.00    -0.336 OA 
BRANCH  17  18
HETATM   18  P   UNL     1     -11.785  11.574  69.448  1.00  0.00    -0.379 P  
HETATM   19  O   UNL     1     -12.248  12.408  70.647  1.00  0.00    -0.368 OA 
HETATM   20  O   UNL     1     -10.322  11.369  69.064  1.00  0.00    -0.201 OA 
BRANCH  18  21
HETATM   21  O   UNL     1     -11.647  10.164  70.441  1.00  0.00    -0.273 OA 
BRANCH  21  22
HETATM   22  C   UNL     1     -10.362   9.550  70.407  1.00  0.00    -0.276 C  
BRANCH  22  23
HETATM   23  C   UNL     1     -10.445   8.040  70.464  1.00  0.00    -0.214 C  
BRANCH  23  24
HETATM   24  N   UNL     1     -10.105   7.415  71.835  1.00  0.00    -0.178 N  
HETATM   25  C   UNL     1      -9.290   8.440  72.599  1.00  0.00    -0.264 C  
HETATM   26  C   UNL     1      -9.271   6.148  71.635  1.00  0.00    -0.145 C  
HETATM   27  C   UNL     1     -11.366   7.075  72.607  1.00  0.00    -0.252 C  
ENDBRANCH  23  24
ENDBRANCH  22  23
ENDBRANCH  21  22
ENDBRANCH  18  21
ENDBRANCH  17  18
ENDBRANCH  16  17
ENDBRANCH  15  16
ENDBRANCH  14  15
ENDBRANCH  13  14
ENDBRANCH  12  13
ENDBRANCH  11  12
ENDBRANCH  10  11
ENDBRANCH   9  10
ENDBRANCH   8   9
ENDBRANCH   7   8
ENDBRANCH   6   7
ENDBRANCH   5   6
ENDBRANCH   4   5
ENDBRANCH   3   4
ENDBRANCH   2   3
TORSDOF 20
ENDMDL
MODEL      251
REMARK 921   NORMALIZED FREE ENERGY PREDICTED BY IDOCK:   -3.27 KCAL/MOL
REMARK 922        TOTAL FREE ENERGY PREDICTED BY IDOCK:   -9.01 KCAL/MOL
REMARK 923 INTER-LIGAND FREE ENERGY PREDICTED BY IDOCK:   -7.41 KCAL/MOL
REMARK 924 INTRA-LIGAND FREE ENERGY PREDICTED BY IDOCK:   -1.60 KCAL/MOL
REMARK 927      BINDING AFFINITY PREDICTED BY RF-SCORE:    0.00 PKD
ROOT
HETATM    1  C   UNL     1     -10.776   5.468  72.864  1.00  0.00    -0.290 C  
HETATM    2  C   UNL     1     -10.346   4.235  72.087  1.00  0.00    -0.193 C  
ENDROOT
BRANCH   2   3
HETATM    3  C   UNL     1      -9.977   4.592  70.649  1.00  0.00    -0.273 C  
BRANCH   3   4
HETATM    4  C   UNL     1     -10.412   6.013  70.307  1.00  0.00    -0.305 C  
BRANCH   4   5
HETATM    5  C   UNL     1     -10.965   6.082  68.888  1.00  0.00    -0.395 C  
BRANCH   5   6
HETATM    6  C   UNL     1      -9.858   5.854  67.866  1.00  0.00    -0.139 C  
BRANCH   6   7
HETATM    7  C   UNL     1      -8.778   6.918  68.003  1.00  0.00    -0.125 C  
BRANCH   7   8
HETATM    8  C   UNL     1      -8.268   7.339  66.631  1.00  0.00    -0.118 C  
BRANCH   8   9
HETATM    9  C   UNL     1      -8.346   8.851  66.485  1.00  0.00    -0.115 C  
BRANCH   9  10
HETATM   10  C   UNL     1      -9.767   9.287  66.168  1.00  0.00    -0.349 C  
BRANCH  10  11
HETATM   11  C   UNL     1     -10.250  10.274  67.219  1.00  0.00    -0.267 C  
BRANCH  11  12
HETATM   12  C   UNL     1     -11.254   9.613  68.149  1.00  0.00     0.000 C  
BRANCH  12  13
HETATM   13  C   UNL     1     -10.974  10.015  69.590  1.00  0.00    -0.301 C  
BRANCH  13  14
HETATM   14  C   UNL     1     -11.681  11.320  69.898  1.00  0.00    -0.430 C  
BRANCH  14  15
HETATM   15  C   UNL     1     -12.785  11.125  70.926  1.00  0.00    -0.438 C  
BRANCH  15  16
HETATM   16  C   UNL     1     -12.745  12.296  71.882  1.00  0.00    -0.091 C  
BRANCH  16  17
HETATM   17  O   UNL     1     -13.495  13.386  71.361  1.00  0.00    -0.253 OA 
BRANCH  17  18
HETATM   18  P   UNL     1     -12.507  14.760  71.001  1.00  0.00    -0.397 P  
HETATM   19  O   UNL     1     -13.531  15.648  71.715  1.00  0.00    -0.476 OA 
HETATM   20  O   UNL     1     -12.531  14.465  69.503  1.00  0.00    -0.273 OA 
BRANCH  18  21
HETATM   21  O   UNL     1     -11.518  16.133  70.641  1.00  0.00    -0.379 OA 
BRANCH  21  22
HETATM   22  C   UNL     1     -11.281  16.334  69.250  1.00  0.00    -0.312 C  
BRANCH  22  23
HETATM   23  C   UNL     1      -9.858  16.762  68.967  1.00  0.00    -0.260 C  
BRANCH  23  24
HETATM   24  N   UNL     1      -9.662  17.563  67.661  1.00  0.00    -0.269 N  
HETATM   25  C   UNL     1      -8.171  17.777  67.491  1.00  0.00    -0.225 C  
HETATM   26  C   UNL     1     -10.361  18.919  67.775  1.00  0.00    -0.421 C  
HETATM   27  C   UNL     1     -10.217  16.806  66.469  1.00  0.00    -0.316 C  
ENDBRANCH  23  24
ENDBRANCH  22  23
ENDBRANCH  21  22
ENDBRANCH  18  21
ENDBRANCH  17  18
ENDBRANCH  16  17
ENDBRANCH  15  16
ENDBRANCH  14  15
ENDBRANCH  13  14
ENDBRANCH  12  13
ENDBRANCH  11  12
ENDBRANCH  10  11
ENDBRANCH   9  10
ENDBRANCH   8   9
ENDBRANCH   7   8
ENDBRANCH   6   7
ENDBRANCH   5   6
ENDBRANCH   4   5
ENDBRANCH   3   4
ENDBRANCH   2   3
TORSDOF 20
ENDMDL
MODEL      252
REMARK 921   NORMALIZED FREE ENERGY PREDICTED BY IDOCK:   -3.27 KCAL/MOL
REMARK 922        TOTAL FREE ENERGY PREDICTED BY IDOCK:   -9.00 KCAL/MOL
REMARK 923 INTER-LIGAND FREE ENERGY PREDICTED BY IDOCK:   -7.44 KCAL/MOL
REMARK 924 INTRA-LIGAND FREE ENERGY PREDICTED BY IDOCK:   -1.56 KCAL/MOL
REMARK 927      BINDING AFFINITY PREDICTED BY RF-SCORE:    0.00 PKD
ROOT
HETATM    1  C   UNL     1      -8.228  10.390  68.215  1.00  0.00    -0.114 C  
HETATM    2  C   UNL     1      -8.294   9.756  69.595  1.00  0.00    -0.180 C  
ENDROOT
BRANCH   2   3
HETATM    3  C   UNL     1      -7.889   8.285  69.545  1.00  0.00    -0.103 C  
BRANCH   3   4
HETATM    4  C   UNL     1      -8.920   7.458  68.784  1.00  0.00    -0.129 C  
BRANCH   4   5
HETATM    5  C   UNL     1      -9.421   6.299  69.640  1.00  0.00    -0.157 C  
BRANCH   5   6
HETATM    6  C   UNL     1     -10.907   6.453  69.940  1.00  0.00    -0.370 C  
BRANCH   6   7
HETATM    7  C   UNL     1     -11.118   7.372  71.136  1.00  0.00    -0.271 C  
BRANCH   7   8
HETATM    8  C   UNL     1     -11.881   8.622  70.718  1.00  0.00    -0.197 C  
BRANCH   8   9
HETATM    9  C   UNL     1     -12.258   9.440  71.945  1.00  0.00    -0.440 C  
BRANCH   9  10
HETATM   10  C   UNL     1     -13.455  10.329  71.650  1.00  0.00    -0.360 C  
BRANCH  10  11
HETATM   11  C   UNL     1     -13.081  11.787  71.865  1.00  0.00    -0.482 C  
BRANCH  11  12
HETATM   12  C   UNL     1     -12.382  12.343  70.636  1.00  0.00    -0.367 C  
BRANCH  12  13
HETATM   13  C   UNL     1     -12.208  13.849  70.772  1.00  0.00    -0.441 C  
BRANCH  13  14
HETATM   14  C   UNL     1     -11.992  14.459  69.402  1.00  0.00    -0.370 C  
BRANCH  14  15
HETATM   15  C   UNL     1     -11.717  13.390  68.354  1.00  0.00    -0.390 C  
BRANCH  15  16
HETATM   16  C   UNL     1     -12.370  13.825  67.061  1.00  0.00    -0.247 C  
BRANCH  16  17
HETATM   17  O   UNL     1     -11.475  13.644  65.970  1.00  0.00    -0.312 OA 
BRANCH  17  18
HETATM   18  P   UNL     1     -10.057  14.627  66.105  1.00  0.00    -0.333 P  
HETATM   19  O   UNL     1     -10.537  15.436  64.896  1.00  0.00    -0.416 OA 
HETATM   20  O   UNL     1      -9.132  13.416  66.010  1.00  0.00     0.017 OA 
BRANCH  18  21
HETATM   21  O   UNL     1      -8.640  15.609  66.242  1.00  0.00    -0.304 OA 
BRANCH  21  22
HETATM   22  C   UNL     1      -8.899  17.010  66.253  1.00  0.00    -0.254 C  
BRANCH  22  23
HETATM   23  C   UNL     1      -7.636  17.827  66.414  1.00  0.00    -0.278 C  
BRANCH  23  24
HETATM   24  N   UNL     1      -7.402  18.402  67.828  1.00  0.00    -0.222 N  
HETATM   25  C   UNL     1      -8.680  18.180  68.614  1.00  0.00    -0.265 C  
HETATM   26  C   UNL     1      -7.114  19.902  67.737  1.00  0.00    -0.274 C  
HETATM   27  C   UNL     1      -6.243  17.704  68.516  1.00  0.00    -0.182 C  
ENDBRANCH  23  24
ENDBRANCH  22  23
ENDBRANCH  21  22
ENDBRANCH  18  21
ENDBRANCH  17  18
ENDBRANCH  16  17
ENDBRANCH  15  16
ENDBRANCH  14  15
ENDBRANCH  13  14
ENDBRANCH  12  13
ENDBRANCH  11  12
ENDBRANCH  10  11
ENDBRANCH   9  10
ENDBRANCH   8   9
ENDBRANCH   7   8
ENDBRANCH   6   7
ENDBRANCH   5   6
ENDBRANCH   4   5
ENDBRANCH   3   4
ENDBRANCH   2   3
TORSDOF 20
ENDMDL
MODEL      253
REMARK 921   NORMALIZED FREE ENERGY PREDICTED BY IDOCK:   -3.25 KCAL/MOL
REMARK 922        TOTAL FREE ENERGY PREDICTED BY IDOCK:   -8.98 KCAL/MOL
REMARK 923 INTER-LIGAND FREE ENERGY PREDICTED BY IDOCK:   -7.72 KCAL/MOL
REMARK 924 INTRA-LIGAND FREE ENERGY PREDICTED BY IDOCK:   -1.26 KCAL/MOL
REMARK 927      BINDING AFFINITY PREDICTED BY RF-SCORE:    0.00 PKD
ROOT
HETATM    1  C   UNL     1      -8.068  18.669  68.311  1.00  0.00    -0.339 C  
HETATM    2  C   UNL     1      -9.466  19.251  68.191  1.00  0.00    -0.410 C  
ENDROOT
BRANCH   2   3
HETATM    3  C   UNL     1     -10.390  18.311  67.422  1.00  0.00    -0.409 C  
BRANCH   3   4
HETATM    4  C   UNL     1     -10.780  17.108  68.274  1.00  0.00    -0.363 C  
BRANCH   4   5
HETATM    5  C   UNL     1     -10.639  15.814  67.479  1.00  0.00    -0.309 C  
BRANCH   5   6
HETATM    6  C   UNL     1     -11.785  14.860  67.793  1.00  0.00    -0.340 C  
BRANCH   6   7
HETATM    7  C   UNL     1     -11.754  13.662  66.854  1.00  0.00    -0.423 C  
BRANCH   7   8
HETATM    8  C   UNL     1     -12.702  13.880  65.681  1.00  0.00    -0.534 C  
BRANCH   8   9
HETATM    9  C   UNL     1     -11.936  14.418  64.482  1.00  0.00    -0.487 C  
BRANCH   9  10
HETATM   10  C   UNL     1     -12.020  13.450  63.313  1.00  0.00    -0.289 C  
BRANCH  10  11
HETATM   11  C   UNL     1     -12.511  12.096  63.799  1.00  0.00    -0.620 C  
BRANCH  11  12
HETATM   12  C   UNL     1     -11.346  11.245  64.273  1.00  0.00    -0.120 C  
BRANCH  12  13
HETATM   13  C   UNL     1     -10.234  11.258  63.233  1.00  0.00    -0.417 C  
BRANCH  13  14
HETATM   14  C   UNL     1      -8.943  10.779  63.867  1.00  0.00    -0.166 C  
BRANCH  14  15
HETATM   15  C   UNL     1      -8.990   9.288  64.165  1.00  0.00    -0.125 C  
BRANCH  15  16
HETATM   16  C   UNL     1      -8.751   9.099  65.646  1.00  0.00    -0.174 C  
BRANCH  16  17
HETATM   17  O   UNL     1      -8.794  10.352  66.317  1.00  0.00    -0.146 OA 
BRANCH  17  18
HETATM   18  P   UNL     1      -9.759  10.305  67.752  1.00  0.00    -0.163 P  
HETATM   19  O   UNL     1      -8.474  10.181  68.578  1.00  0.00    -0.113 OA 
HETATM   20  O   UNL     1     -10.566   9.112  67.246  1.00  0.00    -0.271 OA 
BRANCH  18  21
HETATM   21  O   UNL     1     -10.725  10.258  69.187  1.00  0.00    -0.201 OA 
BRANCH  21  22
HETATM   22  C   UNL     1     -10.119   9.568  70.277  1.00  0.00    -0.262 C  
BRANCH  22  23
HETATM   23  C   UNL     1     -10.896   8.332  70.676  1.00  0.00    -0.236 C  
BRANCH  23  24
HETATM   24  N   UNL     1     -10.042   7.065  70.900  1.00  0.00    -0.193 N  
HETATM   25  C   UNL     1     -10.108   6.742  72.380  1.00  0.00    -0.170 C  
HETATM   26  C   UNL     1      -8.591   7.341  70.503  1.00  0.00    -0.143 C  
HETATM   27  C   UNL     1     -10.576   5.898  70.091  1.00  0.00    -0.292 C  
ENDBRANCH  23  24
ENDBRANCH  22  23
ENDBRANCH  21  22
ENDBRANCH  18  21
ENDBRANCH  17  18
ENDBRANCH  16  17
ENDBRANCH  15  16
ENDBRANCH  14  15
ENDBRANCH  13  14
ENDBRANCH  12  13
ENDBRANCH  11  12
ENDBRANCH  10  11
ENDBRANCH   9  10
ENDBRANCH   8   9
ENDBRANCH   7   8
ENDBRANCH   6   7
ENDBRANCH   5   6
ENDBRANCH   4   5
ENDBRANCH   3   4
ENDBRANCH   2   3
TORSDOF 20
ENDMDL
MODEL      254
REMARK 921   NORMALIZED FREE ENERGY PREDICTED BY IDOCK:   -3.25 KCAL/MOL
REMARK 922        TOTAL FREE ENERGY PREDICTED BY IDOCK:   -8.96 KCAL/MOL
REMARK 923 INTER-LIGAND FREE ENERGY PREDICTED BY IDOCK:   -6.90 KCAL/MOL
REMARK 924 INTRA-LIGAND FREE ENERGY PREDICTED BY IDOCK:   -2.06 KCAL/MOL
REMARK 927      BINDING AFFINITY PREDICTED BY RF-SCORE:    0.00 PKD
ROOT
HETATM    1  C   UNL     1      -6.797  11.001  68.384  1.00  0.00    -0.065 C  
HETATM    2  C   UNL     1      -6.605  12.506  68.307  1.00  0.00    -0.073 C  
ENDROOT
BRANCH   2   3
HETATM    3  C   UNL     1      -5.513  12.972  69.267  1.00  0.00    -0.076 C  
BRANCH   3   4
HETATM    4  C   UNL     1      -5.683  14.447  69.617  1.00  0.00    -0.099 C  
BRANCH   4   5
HETATM    5  C   UNL     1      -6.235  15.224  68.427  1.00  0.00    -0.106 C  
BRANCH   5   6
HETATM    6  C   UNL     1      -5.564  16.588  68.316  1.00  0.00    -0.118 C  
BRANCH   6   7
HETATM    7  C   UNL     1      -5.996  17.292  67.036  1.00  0.00    -0.199 C  
BRANCH   7   8
HETATM    8  C   UNL     1      -6.402  18.730  67.331  1.00  0.00    -0.191 C  
BRANCH   8   9
HETATM    9  C   UNL     1      -6.924  18.846  68.755  1.00  0.00    -0.332 C  
BRANCH   9  10
HETATM   10  C   UNL     1      -8.188  19.691  68.796  1.00  0.00    -0.290 C  
BRANCH  10  11
HETATM   11  C   UNL     1      -8.409  20.355  67.446  1.00  0.00    -0.380 C  
BRANCH  11  12
HETATM   12  C   UNL     1      -9.892  20.435  67.128  1.00  0.00    -0.601 C  
BRANCH  12  13
HETATM   13  C   UNL     1     -10.550  19.083  67.365  1.00  0.00    -0.559 C  
BRANCH  13  14
HETATM   14  C   UNL     1     -10.401  18.223  66.126  1.00  0.00    -0.414 C  
BRANCH  14  15
HETATM   15  C   UNL     1      -9.656  16.932  66.431  1.00  0.00    -0.305 C  
BRANCH  15  16
HETATM   16  C   UNL     1     -10.489  15.779  65.916  1.00  0.00    -0.352 C  
BRANCH  16  17
HETATM   17  O   UNL     1     -10.811  14.889  66.978  1.00  0.00    -0.301 OA 
BRANCH  17  18
HETATM   18  P   UNL     1     -11.093  13.274  66.427  1.00  0.00    -0.309 P  
HETATM   19  O   UNL     1     -10.110  13.524  65.278  1.00  0.00    -0.303 OA 
HETATM   20  O   UNL     1     -12.599  13.503  66.326  1.00  0.00    -0.359 OA 
BRANCH  18  21
HETATM   21  O   UNL     1     -11.375  11.658  65.877  1.00  0.00    -0.298 OA 
BRANCH  21  22
HETATM   22  C   UNL     1     -10.743  11.343  64.639  1.00  0.00    -0.314 C  
BRANCH  22  23
HETATM   23  C   UNL     1      -9.871  10.110  64.736  1.00  0.00    -0.312 C  
BRANCH  23  24
HETATM   24  N   UNL     1      -8.747  10.017  63.681  1.00  0.00    -0.197 N  
HETATM   25  C   UNL     1      -7.439  10.274  64.403  1.00  0.00    -0.084 C  
HETATM   26  C   UNL     1      -8.954  11.087  62.607  1.00  0.00    -0.323 C  
HETATM   27  C   UNL     1      -8.721   8.646  63.031  1.00  0.00     0.057 C  
ENDBRANCH  23  24
ENDBRANCH  22  23
ENDBRANCH  21  22
ENDBRANCH  18  21
ENDBRANCH  17  18
ENDBRANCH  16  17
ENDBRANCH  15  16
ENDBRANCH  14  15
ENDBRANCH  13  14
ENDBRANCH  12  13
ENDBRANCH  11  12
ENDBRANCH  10  11
ENDBRANCH   9  10
ENDBRANCH   8   9
ENDBRANCH   7   8
ENDBRANCH   6   7
ENDBRANCH   5   6
ENDBRANCH   4   5
ENDBRANCH   3   4
ENDBRANCH   2   3
TORSDOF 20
ENDMDL
MODEL      255
REMARK 921   NORMALIZED FREE ENERGY PREDICTED BY IDOCK:   -3.24 KCAL/MOL
REMARK 922        TOTAL FREE ENERGY PREDICTED BY IDOCK:   -8.95 KCAL/MOL
REMARK 923 INTER-LIGAND FREE ENERGY PREDICTED BY IDOCK:   -7.13 KCAL/MOL
REMARK 924 INTRA-LIGAND FREE ENERGY PREDICTED BY IDOCK:   -1.82 KCAL/MOL
REMARK 927      BINDING AFFINITY PREDICTED BY RF-SCORE:    0.00 PKD
ROOT
HETATM    1  C   UNL     1     -11.276   6.557  69.756  1.00  0.00    -0.456 C  
HETATM    2  C   UNL     1     -10.542   5.704  70.777  1.00  0.00    -0.335 C  
ENDROOT
BRANCH   2   3
HETATM    3  C   UNL     1     -11.263   5.714  72.123  1.00  0.00    -0.288 C  
BRANCH   3   4
HETATM    4  C   UNL     1     -10.286   5.965  73.267  1.00  0.00    -0.234 C  
BRANCH   4   5
HETATM    5  C   UNL     1     -10.221   7.451  73.604  1.00  0.00    -0.380 C  
BRANCH   5   6
HETATM    6  C   UNL     1      -8.782   7.882  73.863  1.00  0.00    -0.332 C  
BRANCH   6   7
HETATM    7  C   UNL     1      -7.883   7.465  72.707  1.00  0.00    -0.108 C  
BRANCH   7   8
HETATM    8  C   UNL     1      -6.752   8.468  72.522  1.00  0.00    -0.084 C  
BRANCH   8   9
HETATM    9  C   UNL     1      -7.014   9.333  71.299  1.00  0.00    -0.026 C  
BRANCH   9  10
HETATM   10  C   UNL     1      -8.085   8.707  70.419  1.00  0.00    -0.107 C  
BRANCH  10  11
HETATM   11  C   UNL     1      -7.543   8.506  69.012  1.00  0.00    -0.094 C  
BRANCH  11  12
HETATM   12  C   UNL     1      -7.990   9.637  68.103  1.00  0.00    -0.100 C  
BRANCH  12  13
HETATM   13  C   UNL     1      -9.285   9.260  67.398  1.00  0.00    -0.145 C  
BRANCH  13  14
HETATM   14  C   UNL     1      -8.973   8.391  66.196  1.00  0.00    -0.218 C  
BRANCH  14  15
HETATM   15  C   UNL     1      -9.151   9.158  64.894  1.00  0.00    -0.190 C  
BRANCH  15  16
HETATM   16  C   UNL     1     -10.280  10.146  65.084  1.00  0.00    -0.162 C  
BRANCH  16  17
HETATM   17  O   UNL     1     -10.464  10.921  63.905  1.00  0.00    -0.363 OA 
BRANCH  17  18
HETATM   18  P   UNL     1     -11.418  12.336  64.183  1.00  0.00    -0.454 P  
HETATM   19  O   UNL     1     -12.527  11.724  63.321  1.00  0.00    -0.543 OA 
HETATM   20  O   UNL     1     -10.326  13.257  63.643  1.00  0.00    -0.132 OA 
BRANCH  18  21
HETATM   21  O   UNL     1     -12.372  13.752  64.463  1.00  0.00    -0.508 OA 
BRANCH  21  22
HETATM   22  C   UNL     1     -11.940  14.539  65.569  1.00  0.00    -0.312 C  
BRANCH  22  23
HETATM   23  C   UNL     1     -12.084  13.808  66.886  1.00  0.00    -0.413 C  
BRANCH  23  24
HETATM   24  N   UNL     1     -11.228  14.366  68.043  1.00  0.00    -0.268 N  
HETATM   25  C   UNL     1     -10.841  15.783  67.666  1.00  0.00    -0.310 C  
HETATM   26  C   UNL     1      -9.964  13.520  68.208  1.00  0.00    -0.237 C  
HETATM   27  C   UNL     1     -12.008  14.371  69.345  1.00  0.00    -0.328 C  
ENDBRANCH  23  24
ENDBRANCH  22  23
ENDBRANCH  21  22
ENDBRANCH  18  21
ENDBRANCH  17  18
ENDBRANCH  16  17
ENDBRANCH  15  16
ENDBRANCH  14  15
ENDBRANCH  13  14
ENDBRANCH  12  13
ENDBRANCH  11  12
ENDBRANCH  10  11
ENDBRANCH   9  10
ENDBRANCH   8   9
ENDBRANCH   7   8
ENDBRANCH   6   7
ENDBRANCH   5   6
ENDBRANCH   4   5
ENDBRANCH   3   4
ENDBRANCH   2   3
TORSDOF 20
ENDMDL
MODEL      256
REMARK 921   NORMALIZED FREE ENERGY PREDICTED BY IDOCK:   -3.22 KCAL/MOL
REMARK 922        TOTAL FREE ENERGY PREDICTED BY IDOCK:   -8.90 KCAL/MOL
REMARK 923 INTER-LIGAND FREE ENERGY PREDICTED BY IDOCK:   -7.11 KCAL/MOL
REMARK 924 INTRA-LIGAND FREE ENERGY PREDICTED BY IDOCK:   -1.79 KCAL/MOL
REMARK 927      BINDING AFFINITY PREDICTED BY RF-SCORE:    0.00 PKD
ROOT
HETATM    1  C   UNL     1      -8.431   8.662  69.595  1.00  0.00    -0.129 C  
HETATM    2  C   UNL     1      -7.576   8.308  70.800  1.00  0.00    -0.073 C  
ENDROOT
BRANCH   2   3
HETATM    3  C   UNL     1      -6.694   7.096  70.513  1.00  0.00    -0.052 C  
BRANCH   3   4
HETATM    4  C   UNL     1      -6.699   6.123  71.688  1.00  0.00    -0.059 C  
BRANCH   4   5
HETATM    5  C   UNL     1      -7.677   4.980  71.438  1.00  0.00    -0.100 C  
BRANCH   5   6
HETATM    6  C   UNL     1      -7.756   4.653  69.951  1.00  0.00    -0.058 C  
BRANCH   6   7
HETATM    7  C   UNL     1      -9.196   4.736  69.463  1.00  0.00    -0.177 C  
BRANCH   7   8
HETATM    8  C   UNL     1     -10.159   4.744  70.642  1.00  0.00    -0.288 C  
BRANCH   8   9
HETATM    9  C   UNL     1     -10.820   6.108  70.770  1.00  0.00    -0.350 C  
BRANCH   9  10
HETATM   10  C   UNL     1     -11.095   6.436  72.228  1.00  0.00    -0.302 C  
BRANCH  10  11
HETATM   11  C   UNL     1     -11.859   7.748  72.326  1.00  0.00    -0.378 C  
BRANCH  11  12
HETATM   12  C   UNL     1     -13.184   7.648  71.591  1.00  0.00    -0.395 C  
BRANCH  12  13
HETATM   13  C   UNL     1     -13.742   9.040  71.330  1.00  0.00    -0.323 C  
BRANCH  13  14
HETATM   14  C   UNL     1     -12.672  10.075  71.612  1.00  0.00    -0.535 C  
BRANCH  14  15
HETATM   15  C   UNL     1     -13.283  11.419  71.984  1.00  0.00    -0.432 C  
BRANCH  15  16
HETATM   16  C   UNL     1     -12.783  12.449  70.997  1.00  0.00    -0.223 C  
BRANCH  16  17
HETATM   17  O   UNL     1     -13.292  13.736  71.324  1.00  0.00    -0.295 OA 
BRANCH  17  18
HETATM   18  P   UNL     1     -12.207  15.010  70.886  1.00  0.00    -0.406 P  
HETATM   19  O   UNL     1     -11.796  15.128  72.357  1.00  0.00    -0.382 OA 
HETATM   20  O   UNL     1     -13.326  15.828  70.244  1.00  0.00    -0.214 OA 
BRANCH  18  21
HETATM   21  O   UNL     1     -11.122  16.284  70.447  1.00  0.00    -0.359 OA 
BRANCH  21  22
HETATM   22  C   UNL     1     -11.149  16.624  69.063  1.00  0.00    -0.234 C  
BRANCH  22  23
HETATM   23  C   UNL     1      -9.784  16.521  68.419  1.00  0.00    -0.236 C  
BRANCH  23  24
HETATM   24  N   UNL     1      -9.268  17.822  67.765  1.00  0.00    -0.253 N  
HETATM   25  C   UNL     1      -9.636  17.756  66.296  1.00  0.00    -0.243 C  
HETATM   26  C   UNL     1      -7.747  17.905  67.907  1.00  0.00    -0.224 C  
HETATM   27  C   UNL     1      -9.904  19.042  68.405  1.00  0.00    -0.392 C  
ENDBRANCH  23  24
ENDBRANCH  22  23
ENDBRANCH  21  22
ENDBRANCH  18  21
ENDBRANCH  17  18
ENDBRANCH  16  17
ENDBRANCH  15  16
ENDBRANCH  14  15
ENDBRANCH  13  14
ENDBRANCH  12  13
ENDBRANCH  11  12
ENDBRANCH  10  11
ENDBRANCH   9  10
ENDBRANCH   8   9
ENDBRANCH   7   8
ENDBRANCH   6   7
ENDBRANCH   5   6
ENDBRANCH   4   5
ENDBRANCH   3   4
ENDBRANCH   2   3
TORSDOF 20
ENDMDL
MODEL      257
REMARK 921   NORMALIZED FREE ENERGY PREDICTED BY IDOCK:   -3.21 KCAL/MOL
REMARK 922        TOTAL FREE ENERGY PREDICTED BY IDOCK:   -8.89 KCAL/MOL
REMARK 923 INTER-LIGAND FREE ENERGY PREDICTED BY IDOCK:   -6.66 KCAL/MOL
REMARK 924 INTRA-LIGAND FREE ENERGY PREDICTED BY IDOCK:   -2.24 KCAL/MOL
REMARK 927      BINDING AFFINITY PREDICTED BY RF-SCORE:    0.00 PKD
ROOT
HETATM    1  C   UNL     1     -10.098   9.908  65.924  1.00  0.00    -0.316 C  
HETATM    2  C   UNL     1     -10.491   8.895  66.986  1.00  0.00    -0.326 C  
ENDROOT
BRANCH   2   3
HETATM    3  C   UNL     1      -9.754   7.573  66.785  1.00  0.00    -0.283 C  
BRANCH   3   4
HETATM    4  C   UNL     1     -10.716   6.392  66.859  1.00  0.00    -0.408 C  
BRANCH   4   5
HETATM    5  C   UNL     1     -10.118   5.259  67.685  1.00  0.00    -0.216 C  
BRANCH   5   6
HETATM    6  C   UNL     1     -10.079   5.632  69.163  1.00  0.00    -0.274 C  
BRANCH   6   7
HETATM    7  C   UNL     1     -11.412   6.226  69.599  1.00  0.00    -0.425 C  
BRANCH   7   8
HETATM    8  C   UNL     1     -11.499   6.283  71.118  1.00  0.00    -0.362 C  
BRANCH   8   9
HETATM    9  C   UNL     1     -12.023   7.640  71.562  1.00  0.00    -0.331 C  
BRANCH   9  10
HETATM   10  C   UNL     1     -11.166   8.759  70.992  1.00  0.00    -0.329 C  
BRANCH  10  11
HETATM   11  C   UNL     1      -9.842   8.826  71.737  1.00  0.00    -0.391 C  
BRANCH  11  12
HETATM   12  C   UNL     1      -8.684   8.576  70.787  1.00  0.00    -0.183 C  
BRANCH  12  13
HETATM   13  C   UNL     1      -8.510   9.765  69.852  1.00  0.00    -0.217 C  
BRANCH  13  14
HETATM   14  C   UNL     1      -7.346   9.507  68.917  1.00  0.00    -0.073 C  
BRANCH  14  15
HETATM   15  C   UNL     1      -7.147  10.661  67.945  1.00  0.00    -0.086 C  
BRANCH  15  16
HETATM   16  C   UNL     1      -7.376  11.951  68.699  1.00  0.00    -0.115 C  
BRANCH  16  17
HETATM   17  O   UNL     1      -6.207  12.761  68.661  1.00  0.00    -0.063 OA 
BRANCH  17  18
HETATM   18  P   UNL     1      -6.568  14.439  68.449  1.00  0.00    -0.134 P  
HETATM   19  O   UNL     1      -8.058  14.084  68.404  1.00  0.00    -0.138 OA 
HETATM   20  O   UNL     1      -5.677  14.540  67.213  1.00  0.00    -0.291 OA 
BRANCH  18  21
HETATM   21  O   UNL     1      -6.929  16.118  68.238  1.00  0.00    -0.119 OA 
BRANCH  21  22
HETATM   22  C   UNL     1      -7.328  16.468  66.915  1.00  0.00    -0.225 C  
BRANCH  22  23
HETATM   23  C   UNL     1      -6.727  17.780  66.462  1.00  0.00    -0.224 C  
BRANCH  23  24
HETATM   24  N   UNL     1      -7.553  19.036  66.815  1.00  0.00    -0.226 N  
HETATM   25  C   UNL     1      -7.252  20.077  65.754  1.00  0.00    -0.309 C  
HETATM   26  C   UNL     1      -7.130  19.568  68.185  1.00  0.00    -0.284 C  
HETATM   27  C   UNL     1      -9.039  18.725  66.829  1.00  0.00    -0.312 C  
ENDBRANCH  23  24
ENDBRANCH  22  23
ENDBRANCH  21  22
ENDBRANCH  18  21
ENDBRANCH  17  18
ENDBRANCH  16  17
ENDBRANCH  15  16
ENDBRANCH  14  15
ENDBRANCH  13  14
ENDBRANCH  12  13
ENDBRANCH  11  12
ENDBRANCH  10  11
ENDBRANCH   9  10
ENDBRANCH   8   9
ENDBRANCH   7   8
ENDBRANCH   6   7
ENDBRANCH   5   6
ENDBRANCH   4   5
ENDBRANCH   3   4
ENDBRANCH   2   3
TORSDOF 20
ENDMDL
MODEL      258
REMARK 921   NORMALIZED FREE ENERGY PREDICTED BY IDOCK:   -3.21 KCAL/MOL
REMARK 922        TOTAL FREE ENERGY PREDICTED BY IDOCK:   -8.89 KCAL/MOL
REMARK 923 INTER-LIGAND FREE ENERGY PREDICTED BY IDOCK:   -6.25 KCAL/MOL
REMARK 924 INTRA-LIGAND FREE ENERGY PREDICTED BY IDOCK:   -2.64 KCAL/MOL
REMARK 927      BINDING AFFINITY PREDICTED BY RF-SCORE:    0.00 PKD
ROOT
HETATM    1  C   UNL     1      -7.095   2.452  68.882  1.00  0.00    -0.044 C  
HETATM    2  C   UNL     1      -6.533   3.850  69.074  1.00  0.00    -0.036 C  
ENDROOT
BRANCH   2   3
HETATM    3  C   UNL     1      -7.634   4.839  69.450  1.00  0.00    -0.056 C  
BRANCH   3   4
HETATM    4  C   UNL     1      -7.114   5.896  70.419  1.00  0.00    -0.070 C  
BRANCH   4   5
HETATM    5  C   UNL     1      -7.505   7.294  69.953  1.00  0.00    -0.086 C  
BRANCH   5   6
HETATM    6  C   UNL     1      -7.908   8.164  71.138  1.00  0.00    -0.096 C  
BRANCH   6   7
HETATM    7  C   UNL     1      -8.101   7.311  72.385  1.00  0.00    -0.111 C  
BRANCH   7   8
HETATM    8  C   UNL     1      -9.086   7.976  73.338  1.00  0.00    -0.340 C  
BRANCH   8   9
HETATM    9  C   UNL     1      -9.878   6.920  74.094  1.00  0.00    -0.346 C  
BRANCH   9  10
HETATM   10  C   UNL     1      -9.933   5.623  73.303  1.00  0.00    -0.191 C  
BRANCH  10  11
HETATM   11  C   UNL     1     -11.351   5.381  72.808  1.00  0.00    -0.358 C  
BRANCH  11  12
HETATM   12  C   UNL     1     -11.645   6.243  71.593  1.00  0.00    -0.353 C  
BRANCH  12  13
HETATM   13  C   UNL     1     -10.909   5.700  70.376  1.00  0.00    -0.326 C  
BRANCH  13  14
HETATM   14  C   UNL     1     -10.883   6.754  69.288  1.00  0.00    -0.303 C  
BRANCH  14  15
HETATM   15  C   UNL     1     -10.913   6.124  67.903  1.00  0.00    -0.399 C  
BRANCH  15  16
HETATM   16  C   UNL     1     -10.266   7.091  66.936  1.00  0.00    -0.248 C  
BRANCH  16  17
HETATM   17  O   UNL     1     -10.838   8.386  67.074  1.00  0.00    -0.224 OA 
BRANCH  17  18
HETATM   18  P   UNL     1      -9.737   9.647  66.639  1.00  0.00    -0.243 P  
HETATM   19  O   UNL     1      -9.107   8.703  65.609  1.00  0.00    -0.198 OA 
HETATM   20  O   UNL     1      -9.241   9.797  68.075  1.00  0.00    -0.125 OA 
BRANCH  18  21
HETATM   21  O   UNL     1      -8.637  10.909  66.204  1.00  0.00    -0.160 OA 
BRANCH  21  22
HETATM   22  C   UNL     1      -9.203  12.216  66.241  1.00  0.00    -0.183 C  
BRANCH  22  23
HETATM   23  C   UNL     1     -10.677  12.213  65.899  1.00  0.00    -0.266 C  
BRANCH  23  24
HETATM   24  N   UNL     1     -11.033  12.817  64.523  1.00  0.00    -0.321 N  
HETATM   25  C   UNL     1     -10.735  14.301  64.598  1.00  0.00    -0.365 C  
HETATM   26  C   UNL     1     -12.521  12.610  64.235  1.00  0.00    -0.411 C  
HETATM   27  C   UNL     1     -10.209  12.178  63.419  1.00  0.00    -0.388 C  
ENDBRANCH  23  24
ENDBRANCH  22  23
ENDBRANCH  21  22
ENDBRANCH  18  21
ENDBRANCH  17  18
ENDBRANCH  16  17
ENDBRANCH  15  16
ENDBRANCH  14  15
ENDBRANCH  13  14
ENDBRANCH  12  13
ENDBRANCH  11  12
ENDBRANCH  10  11
ENDBRANCH   9  10
ENDBRANCH   8   9
ENDBRANCH   7   8
ENDBRANCH   6   7
ENDBRANCH   5   6
ENDBRANCH   4   5
ENDBRANCH   3   4
ENDBRANCH   2   3
TORSDOF 20
ENDMDL
MODEL      259
REMARK 921   NORMALIZED FREE ENERGY PREDICTED BY IDOCK:   -3.20 KCAL/MOL
REMARK 922        TOTAL FREE ENERGY PREDICTED BY IDOCK:   -8.87 KCAL/MOL
REMARK 923 INTER-LIGAND FREE ENERGY PREDICTED BY IDOCK:   -6.64 KCAL/MOL
REMARK 924 INTRA-LIGAND FREE ENERGY PREDICTED BY IDOCK:   -2.23 KCAL/MOL
REMARK 927      BINDING AFFINITY PREDICTED BY RF-SCORE:    0.00 PKD
ROOT
HETATM    1  C   UNL     1      -7.512   9.222  70.799  1.00  0.00    -0.144 C  
HETATM    2  C   UNL     1      -8.192   9.870  69.605  1.00  0.00    -0.178 C  
ENDROOT
BRANCH   2   3
HETATM    3  C   UNL     1      -7.642  11.272  69.353  1.00  0.00     0.044 C  
BRANCH   3   4
HETATM    4  C   UNL     1      -6.559  11.252  68.279  1.00  0.00    -0.058 C  
BRANCH   4   5
HETATM    5  C   UNL     1      -6.566   9.924  67.530  1.00  0.00    -0.069 C  
BRANCH   5   6
HETATM    6  C   UNL     1      -6.467  10.152  66.027  1.00  0.00    -0.100 C  
BRANCH   6   7
HETATM    7  C   UNL     1      -7.844  10.424  65.436  1.00  0.00    -0.143 C  
BRANCH   7   8
HETATM    8  C   UNL     1      -7.972   9.777  64.063  1.00  0.00    -0.147 C  
BRANCH   8   9
HETATM    9  C   UNL     1      -9.410   9.866  63.575  1.00  0.00    -0.231 C  
BRANCH   9  10
HETATM   10  C   UNL     1      -9.679  11.223  62.944  1.00  0.00    -0.351 C  
BRANCH  10  11
HETATM   11  C   UNL     1     -10.996  11.781  63.462  1.00  0.00    -0.499 C  
BRANCH  11  12
HETATM   12  C   UNL     1     -10.778  13.127  64.129  1.00  0.00    -0.399 C  
BRANCH  12  13
HETATM   13  C   UNL     1     -10.444  12.932  65.601  1.00  0.00    -0.292 C  
BRANCH  13  14
HETATM   14  C   UNL     1     -11.432  11.964  66.220  1.00  0.00    -0.367 C  
BRANCH  14  15
HETATM   15  C   UNL     1     -10.933  11.440  67.559  1.00  0.00    -0.312 C  
BRANCH  15  16
HETATM   16  C   UNL     1     -11.777  12.062  68.649  1.00  0.00    -0.326 C  
BRANCH  16  17
HETATM   17  O   UNL     1     -10.961  12.813  69.539  1.00  0.00    -0.064 OA 
BRANCH  17  18
HETATM   18  P   UNL     1     -11.126  14.520  69.310  1.00  0.00    -0.264 P  
HETATM   19  O   UNL     1     -12.486  14.271  68.648  1.00  0.00    -0.136 OA 
HETATM   20  O   UNL     1      -9.808  14.609  68.545  1.00  0.00    -0.216 OA 
BRANCH  18  21
HETATM   21  O   UNL     1     -11.291  16.227  69.082  1.00  0.00    -0.325 OA 
BRANCH  21  22
HETATM   22  C   UNL     1     -10.555  16.743  67.976  1.00  0.00    -0.347 C  
BRANCH  22  23
HETATM   23  C   UNL     1      -9.718  17.945  68.355  1.00  0.00    -0.340 C  
BRANCH  23  24
HETATM   24  N   UNL     1      -9.521  18.986  67.231  1.00  0.00    -0.304 N  
HETATM   25  C   UNL     1      -9.901  20.337  67.805  1.00  0.00    -0.393 C  
HETATM   26  C   UNL     1     -10.439  18.657  66.052  1.00  0.00    -0.414 C  
HETATM   27  C   UNL     1      -8.079  19.011  66.758  1.00  0.00    -0.269 C  
ENDBRANCH  23  24
ENDBRANCH  22  23
ENDBRANCH  21  22
ENDBRANCH  18  21
ENDBRANCH  17  18
ENDBRANCH  16  17
ENDBRANCH  15  16
ENDBRANCH  14  15
ENDBRANCH  13  14
ENDBRANCH  12  13
ENDBRANCH  11  12
ENDBRANCH  10  11
ENDBRANCH   9  10
ENDBRANCH   8   9
ENDBRANCH   7   8
ENDBRANCH   6   7
ENDBRANCH   5   6
ENDBRANCH   4   5
ENDBRANCH   3   4
ENDBRANCH   2   3
TORSDOF 20
ENDMDL
MODEL      260
REMARK 921   NORMALIZED FREE ENERGY PREDICTED BY IDOCK:   -3.20 KCAL/MOL
REMARK 922        TOTAL FREE ENERGY PREDICTED BY IDOCK:   -8.86 KCAL/MOL
REMARK 923 INTER-LIGAND FREE ENERGY PREDICTED BY IDOCK:   -7.43 KCAL/MOL
REMARK 924 INTRA-LIGAND FREE ENERGY PREDICTED BY IDOCK:   -1.43 KCAL/MOL
REMARK 927      BINDING AFFINITY PREDICTED BY RF-SCORE:    0.00 PKD
ROOT
HETATM    1  C   UNL     1     -14.040   9.078  72.296  1.00  0.00    -0.485 C  
HETATM    2  C   UNL     1     -12.782   8.336  71.877  1.00  0.00    -0.373 C  
ENDROOT
BRANCH   2   3
HETATM    3  C   UNL     1     -11.639   9.307  71.590  1.00  0.00    -0.463 C  
BRANCH   3   4
HETATM    4  C   UNL     1     -10.314   8.567  71.442  1.00  0.00    -0.307 C  
BRANCH   4   5
HETATM    5  C   UNL     1     -10.505   7.070  71.661  1.00  0.00    -0.219 C  
BRANCH   5   6
HETATM    6  C   UNL     1      -9.694   6.269  70.649  1.00  0.00    -0.199 C  
BRANCH   6   7
HETATM    7  C   UNL     1     -10.043   6.695  69.229  1.00  0.00    -0.187 C  
BRANCH   7   8
HETATM    8  C   UNL     1      -8.778   7.010  68.441  1.00  0.00    -0.125 C  
BRANCH   8   9
HETATM    9  C   UNL     1      -9.032   8.161  67.480  1.00  0.00    -0.143 C  
BRANCH   9  10
HETATM   10  C   UNL     1      -8.430   7.864  66.116  1.00  0.00    -0.139 C  
BRANCH  10  11
HETATM   11  C   UNL     1      -8.650   9.047  65.186  1.00  0.00    -0.204 C  
BRANCH  11  12
HETATM   12  C   UNL     1      -9.862   9.849  65.624  1.00  0.00    -0.368 C  
BRANCH  12  13
HETATM   13  C   UNL     1     -10.403  10.659  64.454  1.00  0.00    -0.347 C  
BRANCH  13  14
HETATM   14  C   UNL     1     -10.777  12.049  64.930  1.00  0.00    -0.346 C  
BRANCH  14  15
HETATM   15  C   UNL     1     -11.522  12.000  66.256  1.00  0.00    -0.408 C  
BRANCH  15  16
HETATM   16  C   UNL     1     -10.795  12.895  67.234  1.00  0.00    -0.255 C  
BRANCH  16  17
HETATM   17  O   UNL     1      -9.409  12.951  66.917  1.00  0.00    -0.226 OA 
BRANCH  17  18
HETATM   18  P   UNL     1      -8.704  14.485  67.294  1.00  0.00    -0.224 P  
HETATM   19  O   UNL     1      -9.256  15.032  65.973  1.00  0.00    -0.293 OA 
HETATM   20  O   UNL     1      -7.312  13.878  67.451  1.00  0.00    -0.174 OA 
BRANCH  18  21
HETATM   21  O   UNL     1      -7.999  16.019  67.672  1.00  0.00    -0.135 OA 
BRANCH  21  22
HETATM   22  C   UNL     1      -8.458  17.091  66.852  1.00  0.00    -0.216 C  
BRANCH  22  23
HETATM   23  C   UNL     1      -8.548  18.397  67.611  1.00  0.00    -0.259 C  
BRANCH  23  24
HETATM   24  N   UNL     1      -9.981  18.928  67.834  1.00  0.00    -0.335 N  
HETATM   25  C   UNL     1     -10.870  17.722  68.068  1.00  0.00    -0.207 C  
HETATM   26  C   UNL     1     -10.456  19.676  66.587  1.00  0.00    -0.497 C  
HETATM   27  C   UNL     1     -10.038  19.856  69.033  1.00  0.00    -0.297 C  
ENDBRANCH  23  24
ENDBRANCH  22  23
ENDBRANCH  21  22
ENDBRANCH  18  21
ENDBRANCH  17  18
ENDBRANCH  16  17
ENDBRANCH  15  16
ENDBRANCH  14  15
ENDBRANCH  13  14
ENDBRANCH  12  13
ENDBRANCH  11  12
ENDBRANCH  10  11
ENDBRANCH   9  10
ENDBRANCH   8   9
ENDBRANCH   7   8
ENDBRANCH   6   7
ENDBRANCH   5   6
ENDBRANCH   4   5
ENDBRANCH   3   4
ENDBRANCH   2   3
TORSDOF 20
ENDMDL
MODEL      261
REMARK 921   NORMALIZED FREE ENERGY PREDICTED BY IDOCK:   -3.20 KCAL/MOL
REMARK 922        TOTAL FREE ENERGY PREDICTED BY IDOCK:   -8.86 KCAL/MOL
REMARK 923 INTER-LIGAND FREE ENERGY PREDICTED BY IDOCK:   -7.22 KCAL/MOL
REMARK 924 INTRA-LIGAND FREE ENERGY PREDICTED BY IDOCK:   -1.63 KCAL/MOL
REMARK 927      BINDING AFFINITY PREDICTED BY RF-SCORE:    0.00 PKD
ROOT
HETATM    1  C   UNL     1      -9.465  19.477  68.728  1.00  0.00    -0.447 C  
HETATM    2  C   UNL     1     -10.063  19.336  67.339  1.00  0.00    -0.486 C  
ENDROOT
BRANCH   2   3
HETATM    3  C   UNL     1     -10.720  17.969  67.158  1.00  0.00    -0.276 C  
BRANCH   3   4
HETATM    4  C   UNL     1      -9.748  16.973  66.534  1.00  0.00    -0.296 C  
BRANCH   4   5
HETATM    5  C   UNL     1     -10.504  15.860  65.816  1.00  0.00    -0.386 C  
BRANCH   5   6
HETATM    6  C   UNL     1     -10.742  14.680  66.750  1.00  0.00    -0.301 C  
BRANCH   6   7
HETATM    7  C   UNL     1     -12.134  14.102  66.535  1.00  0.00    -0.481 C  
BRANCH   7   8
HETATM    8  C   UNL     1     -12.044  12.678  66.003  1.00  0.00    -0.429 C  
BRANCH   8   9
HETATM    9  C   UNL     1     -12.762  12.571  64.667  1.00  0.00    -0.434 C  
BRANCH   9  10
HETATM   10  C   UNL     1     -11.762  12.468  63.526  1.00  0.00    -0.595 C  
BRANCH  10  11
HETATM   11  C   UNL     1     -10.381  12.152  64.079  1.00  0.00    -0.412 C  
BRANCH  11  12
HETATM   12  C   UNL     1      -9.716  11.062  63.256  1.00  0.00    -0.396 C  
BRANCH  12  13
HETATM   13  C   UNL     1      -9.000  10.080  64.172  1.00  0.00    -0.268 C  
BRANCH  13  14
HETATM   14  C   UNL     1      -8.775  10.722  65.526  1.00  0.00    -0.196 C  
BRANCH  14  15
HETATM   15  C   UNL     1      -8.660   9.677  66.626  1.00  0.00    -0.137 C  
BRANCH  15  16
HETATM   16  C   UNL     1      -8.182   8.387  65.997  1.00  0.00    -0.112 C  
BRANCH  16  17
HETATM   17  O   UNL     1      -8.987   7.297  66.429  1.00  0.00    -0.148 OA 
BRANCH  17  18
HETATM   18  P   UNL     1      -9.297   7.336  68.131  1.00  0.00    -0.129 P  
HETATM   19  O   UNL     1      -8.320   6.170  68.307  1.00  0.00    -0.113 OA 
HETATM   20  O   UNL     1     -10.801   7.167  67.925  1.00  0.00    -0.205 OA 
BRANCH  18  21
HETATM   21  O   UNL     1      -9.607   7.377  69.833  1.00  0.00    -0.164 OA 
BRANCH  21  22
HETATM   22  C   UNL     1      -8.635   8.095  70.587  1.00  0.00    -0.130 C  
BRANCH  22  23
HETATM   23  C   UNL     1      -8.961   8.125  72.064  1.00  0.00    -0.176 C  
BRANCH  23  24
HETATM   24  N   UNL     1      -8.038   7.265  72.956  1.00  0.00    -0.103 N  
HETATM   25  C   UNL     1      -8.796   5.992  73.280  1.00  0.00    -0.130 C  
HETATM   26  C   UNL     1      -7.724   8.015  74.252  1.00  0.00    -0.214 C  
HETATM   27  C   UNL     1      -6.744   6.930  72.238  1.00  0.00    -0.058 C  
ENDBRANCH  23  24
ENDBRANCH  22  23
ENDBRANCH  21  22
ENDBRANCH  18  21
ENDBRANCH  17  18
ENDBRANCH  16  17
ENDBRANCH  15  16
ENDBRANCH  14  15
ENDBRANCH  13  14
ENDBRANCH  12  13
ENDBRANCH  11  12
ENDBRANCH  10  11
ENDBRANCH   9  10
ENDBRANCH   8   9
ENDBRANCH   7   8
ENDBRANCH   6   7
ENDBRANCH   5   6
ENDBRANCH   4   5
ENDBRANCH   3   4
ENDBRANCH   2   3
TORSDOF 20
ENDMDL
MODEL      262
REMARK 921   NORMALIZED FREE ENERGY PREDICTED BY IDOCK:   -3.18 KCAL/MOL
REMARK 922        TOTAL FREE ENERGY PREDICTED BY IDOCK:   -8.83 KCAL/MOL
REMARK 923 INTER-LIGAND FREE ENERGY PREDICTED BY IDOCK:   -6.16 KCAL/MOL
REMARK 924 INTRA-LIGAND FREE ENERGY PREDICTED BY IDOCK:   -2.66 KCAL/MOL
REMARK 927      BINDING AFFINITY PREDICTED BY RF-SCORE:    0.00 PKD
ROOT
HETATM    1  C   UNL     1     -11.662  12.553  66.652  1.00  0.00    -0.453 C  
HETATM    2  C   UNL     1     -11.868  13.064  68.067  1.00  0.00    -0.391 C  
ENDROOT
BRANCH   2   3
HETATM    3  C   UNL     1     -11.199  12.146  69.087  1.00  0.00    -0.303 C  
BRANCH   3   4
HETATM    4  C   UNL     1     -12.128  11.007  69.493  1.00  0.00    -0.400 C  
BRANCH   4   5
HETATM    5  C   UNL     1     -12.538  11.140  70.956  1.00  0.00    -0.503 C  
BRANCH   5   6
HETATM    6  C   UNL     1     -12.330   9.824  71.696  1.00  0.00    -0.495 C  
BRANCH   6   7
HETATM    7  C   UNL     1     -12.147   8.680  70.708  1.00  0.00    -0.087 C  
BRANCH   7   8
HETATM    8  C   UNL     1     -12.588   7.362  71.331  1.00  0.00    -0.405 C  
BRANCH   8   9
HETATM    9  C   UNL     1     -11.447   6.357  71.295  1.00  0.00    -0.371 C  
BRANCH   9  10
HETATM   10  C   UNL     1     -11.069   5.923  72.702  1.00  0.00    -0.322 C  
BRANCH  10  11
HETATM   11  C   UNL     1      -9.635   6.331  73.000  1.00  0.00    -0.156 C  
BRANCH  11  12
HETATM   12  C   UNL     1      -9.556   7.816  73.308  1.00  0.00    -0.346 C  
BRANCH  12  13
HETATM   13  C   UNL     1      -8.297   8.410  72.694  1.00  0.00    -0.206 C  
BRANCH  13  14
HETATM   14  C   UNL     1      -8.551   8.739  71.237  1.00  0.00    -0.258 C  
BRANCH  14  15
HETATM   15  C   UNL     1      -7.518   8.085  70.330  1.00  0.00    -0.075 C  
BRANCH  15  16
HETATM   16  C   UNL     1      -8.215   7.662  69.057  1.00  0.00    -0.127 C  
BRANCH  16  17
HETATM   17  O   UNL     1      -9.267   8.566  68.745  1.00  0.00    -0.143 OA 
BRANCH  17  18
HETATM   18  P   UNL     1      -9.306   8.986  67.067  1.00  0.00    -0.169 P  
HETATM   19  O   UNL     1      -8.591  10.298  67.408  1.00  0.00    -0.125 OA 
HETATM   20  O   UNL     1     -10.823   8.834  66.998  1.00  0.00    -0.193 OA 
BRANCH  18  21
HETATM   21  O   UNL     1      -9.344   9.405  65.389  1.00  0.00    -0.232 OA 
BRANCH  21  22
HETATM   22  C   UNL     1      -8.385   8.714  64.592  1.00  0.00    -0.155 C  
BRANCH  22  23
HETATM   23  C   UNL     1      -7.824   7.497  65.295  1.00  0.00    -0.120 C  
BRANCH  23  24
HETATM   24  N   UNL     1      -6.292   7.333  65.200  1.00  0.00    -0.037 N  
HETATM   25  C   UNL     1      -5.709   8.717  64.993  1.00  0.00    -0.051 C  
HETATM   26  C   UNL     1      -5.938   6.447  64.005  1.00  0.00    -0.023 C  
HETATM   27  C   UNL     1      -5.730   6.719  66.470  1.00  0.00    -0.018 C  
ENDBRANCH  23  24
ENDBRANCH  22  23
ENDBRANCH  21  22
ENDBRANCH  18  21
ENDBRANCH  17  18
ENDBRANCH  16  17
ENDBRANCH  15  16
ENDBRANCH  14  15
ENDBRANCH  13  14
ENDBRANCH  12  13
ENDBRANCH  11  12
ENDBRANCH  10  11
ENDBRANCH   9  10
ENDBRANCH   8   9
ENDBRANCH   7   8
ENDBRANCH   6   7
ENDBRANCH   5   6
ENDBRANCH   4   5
ENDBRANCH   3   4
ENDBRANCH   2   3
TORSDOF 20
ENDMDL
MODEL      263
REMARK 921   NORMALIZED FREE ENERGY PREDICTED BY IDOCK:   -3.17 KCAL/MOL
REMARK 922        TOTAL FREE ENERGY PREDICTED BY IDOCK:   -8.80 KCAL/MOL
REMARK 923 INTER-LIGAND FREE ENERGY PREDICTED BY IDOCK:   -7.31 KCAL/MOL
REMARK 924 INTRA-LIGAND FREE ENERGY PREDICTED BY IDOCK:   -1.49 KCAL/MOL
REMARK 927      BINDING AFFINITY PREDICTED BY RF-SCORE:    0.00 PKD
ROOT
HETATM    1  C   UNL     1      -8.129  15.408  68.965  1.00  0.00    -0.213 C  
HETATM    2  C   UNL     1      -9.365  15.677  68.123  1.00  0.00    -0.194 C  
ENDROOT
BRANCH   2   3
HETATM    3  C   UNL     1     -10.626  15.172  68.820  1.00  0.00    -0.236 C  
BRANCH   3   4
HETATM    4  C   UNL     1     -11.121  16.177  69.855  1.00  0.00    -0.357 C  
BRANCH   4   5
HETATM    5  C   UNL     1     -11.074  15.578  71.256  1.00  0.00    -0.343 C  
BRANCH   5   6
HETATM    6  C   UNL     1     -12.292  16.004  72.066  1.00  0.00    -0.540 C  
BRANCH   6   7
HETATM    7  C   UNL     1     -13.575  15.555  71.379  1.00  0.00    -0.561 C  
BRANCH   7   8
HETATM    8  C   UNL     1     -13.557  14.049  71.149  1.00  0.00    -0.205 C  
BRANCH   8   9
HETATM    9  C   UNL     1     -13.475  13.318  72.480  1.00  0.00    -0.620 C  
BRANCH   9  10
HETATM   10  C   UNL     1     -13.868  11.858  72.315  1.00  0.00     0.198 C  
BRANCH  10  11
HETATM   11  C   UNL     1     -12.920  11.175  71.342  1.00  0.00    -0.506 C  
BRANCH  11  12
HETATM   12  C   UNL     1     -13.118   9.670  71.375  1.00  0.00    -0.471 C  
BRANCH  12  13
HETATM   13  C   UNL     1     -11.783   8.964  71.185  1.00  0.00    -0.356 C  
BRANCH  13  14
HETATM   14  C   UNL     1     -10.793   9.916  70.545  1.00  0.00    -0.391 C  
BRANCH  14  15
HETATM   15  C   UNL     1      -9.568   9.178  70.024  1.00  0.00    -0.218 C  
BRANCH  15  16
HETATM   16  C   UNL     1      -9.565   9.284  68.516  1.00  0.00    -0.147 C  
BRANCH  16  17
HETATM   17  O   UNL     1     -10.106   8.102  67.936  1.00  0.00    -0.177 OA 
BRANCH  17  18
HETATM   18  P   UNL     1      -9.701   6.679  68.832  1.00  0.00    -0.138 P  
HETATM   19  O   UNL     1      -8.586   6.394  67.821  1.00  0.00    -0.117 OA 
HETATM   20  O   UNL     1     -11.120   6.126  68.717  1.00  0.00    -0.344 OA 
BRANCH  18  21
HETATM   21  O   UNL     1      -9.296   5.256  69.729  1.00  0.00    -0.123 OA 
BRANCH  21  22
HETATM   22  C   UNL     1     -10.139   5.014  70.852  1.00  0.00    -0.232 C  
BRANCH  22  23
HETATM   23  C   UNL     1      -9.868   5.973  71.991  1.00  0.00    -0.156 C  
BRANCH  23  24
HETATM   24  N   UNL     1      -9.983   5.361  73.404  1.00  0.00    -0.167 N  
HETATM   25  C   UNL     1     -11.346   4.704  73.493  1.00  0.00    -0.268 C  
HETATM   26  C   UNL     1      -9.881   6.467  74.457  1.00  0.00    -0.337 C  
HETATM   27  C   UNL     1      -8.894   4.332  73.643  1.00  0.00    -0.093 C  
ENDBRANCH  23  24
ENDBRANCH  22  23
ENDBRANCH  21  22
ENDBRANCH  18  21
ENDBRANCH  17  18
ENDBRANCH  16  17
ENDBRANCH  15  16
ENDBRANCH  14  15
ENDBRANCH  13  14
ENDBRANCH  12  13
ENDBRANCH  11  12
ENDBRANCH  10  11
ENDBRANCH   9  10
ENDBRANCH   8   9
ENDBRANCH   7   8
ENDBRANCH   6   7
ENDBRANCH   5   6
ENDBRANCH   4   5
ENDBRANCH   3   4
ENDBRANCH   2   3
TORSDOF 20
ENDMDL
MODEL      264
REMARK 921   NORMALIZED FREE ENERGY PREDICTED BY IDOCK:   -3.17 KCAL/MOL
REMARK 922        TOTAL FREE ENERGY PREDICTED BY IDOCK:   -8.79 KCAL/MOL
REMARK 923 INTER-LIGAND FREE ENERGY PREDICTED BY IDOCK:   -6.99 KCAL/MOL
REMARK 924 INTRA-LIGAND FREE ENERGY PREDICTED BY IDOCK:   -1.80 KCAL/MOL
REMARK 927      BINDING AFFINITY PREDICTED BY RF-SCORE:    0.00 PKD
ROOT
HETATM    1  C   UNL     1      -9.893   6.393  74.384  1.00  0.00    -0.338 C  
HETATM    2  C   UNL     1      -8.930   7.443  73.857  1.00  0.00    -0.281 C  
ENDROOT
BRANCH   2   3
HETATM    3  C   UNL     1      -9.509   8.161  72.640  1.00  0.00    -0.346 C  
BRANCH   3   4
HETATM    4  C   UNL     1      -8.587   8.024  71.433  1.00  0.00    -0.156 C  
BRANCH   4   5
HETATM    5  C   UNL     1      -9.068   6.910  70.509  1.00  0.00    -0.156 C  
BRANCH   5   6
HETATM    6  C   UNL     1     -10.581   6.747  70.604  1.00  0.00    -0.257 C  
BRANCH   6   7
HETATM    7  C   UNL     1     -11.159   6.342  69.254  1.00  0.00    -0.437 C  
BRANCH   7   8
HETATM    8  C   UNL     1     -10.556   7.188  68.141  1.00  0.00    -0.241 C  
BRANCH   8   9
HETATM    9  C   UNL     1     -10.210   6.312  66.946  1.00  0.00    -0.268 C  
BRANCH   9  10
HETATM   10  C   UNL     1      -8.704   6.132  66.831  1.00  0.00    -0.109 C  
BRANCH  10  11
HETATM   11  C   UNL     1      -8.250   6.473  65.421  1.00  0.00    -0.135 C  
BRANCH  11  12
HETATM   12  C   UNL     1      -8.102   7.975  65.258  1.00  0.00    -0.138 C  
BRANCH  12  13
HETATM   13  C   UNL     1      -6.737   8.423  65.760  1.00  0.00    -0.053 C  
BRANCH  13  14
HETATM   14  C   UNL     1      -6.834   9.835  66.300  1.00  0.00    -0.092 C  
BRANCH  14  15
HETATM   15  C   UNL     1      -7.490   9.862  67.673  1.00  0.00    -0.090 C  
BRANCH  15  16
HETATM   16  C   UNL     1      -8.570  10.920  67.654  1.00  0.00    -0.124 C  
BRANCH  16  17
HETATM   17  O   UNL     1      -8.859  11.309  66.317  1.00  0.00    -0.183 OA 
BRANCH  17  18
HETATM   18  P   UNL     1     -10.498  11.824  66.116  1.00  0.00    -0.265 P  
HETATM   19  O   UNL     1     -10.863  11.070  67.398  1.00  0.00    -0.239 OA 
HETATM   20  O   UNL     1     -10.584  11.219  64.716  1.00  0.00    -0.303 OA 
BRANCH  18  21
HETATM   21  O   UNL     1     -12.137  12.341  65.914  1.00  0.00    -0.609 OA 
BRANCH  21  22
HETATM   22  C   UNL     1     -12.291  13.749  65.759  1.00  0.00    -0.486 C  
BRANCH  22  23
HETATM   23  C   UNL     1     -11.662  14.524  66.896  1.00  0.00    -0.382 C  
BRANCH  23  24
HETATM   24  N   UNL     1     -10.583  15.545  66.476  1.00  0.00    -0.304 N  
HETATM   25  C   UNL     1     -10.876  15.936  65.041  1.00  0.00    -0.426 C  
HETATM   26  C   UNL     1      -9.199  14.898  66.555  1.00  0.00    -0.285 C  
HETATM   27  C   UNL     1     -10.619  16.774  67.366  1.00  0.00    -0.291 C  
ENDBRANCH  23  24
ENDBRANCH  22  23
ENDBRANCH  21  22
ENDBRANCH  18  21
ENDBRANCH  17  18
ENDBRANCH  16  17
ENDBRANCH  15  16
ENDBRANCH  14  15
ENDBRANCH  13  14
ENDBRANCH  12  13
ENDBRANCH  11  12
ENDBRANCH  10  11
ENDBRANCH   9  10
ENDBRANCH   8   9
ENDBRANCH   7   8
ENDBRANCH   6   7
ENDBRANCH   5   6
ENDBRANCH   4   5
ENDBRANCH   3   4
ENDBRANCH   2   3
TORSDOF 20
ENDMDL
MODEL      265
REMARK 921   NORMALIZED FREE ENERGY PREDICTED BY IDOCK:   -3.16 KCAL/MOL
REMARK 922        TOTAL FREE ENERGY PREDICTED BY IDOCK:   -8.78 KCAL/MOL
REMARK 923 INTER-LIGAND FREE ENERGY PREDICTED BY IDOCK:   -7.07 KCAL/MOL
REMARK 924 INTRA-LIGAND FREE ENERGY PREDICTED BY IDOCK:   -1.71 KCAL/MOL
REMARK 927      BINDING AFFINITY PREDICTED BY RF-SCORE:    0.00 PKD
ROOT
HETATM    1  C   UNL     1     -12.088  12.677  63.563  1.00  0.00    -0.648 C  
HETATM    2  C   UNL     1     -11.144  11.535  63.899  1.00  0.00    -0.458 C  
ENDROOT
BRANCH   2   3
HETATM    3  C   UNL     1     -10.552  11.703  65.296  1.00  0.00    -0.333 C  
BRANCH   3   4
HETATM    4  C   UNL     1     -10.990  13.023  65.922  1.00  0.00    -0.292 C  
BRANCH   4   5
HETATM    5  C   UNL     1     -11.942  12.779  67.087  1.00  0.00    -0.351 C  
BRANCH   5   6
HETATM    6  C   UNL     1     -11.207  12.142  68.260  1.00  0.00    -0.319 C  
BRANCH   6   7
HETATM    7  C   UNL     1     -12.123  11.178  69.003  1.00  0.00    -0.315 C  
BRANCH   7   8
HETATM    8  C   UNL     1     -11.694  11.051  70.459  1.00  0.00    -0.416 C  
BRANCH   8   9
HETATM    9  C   UNL     1     -10.717   9.896  70.619  1.00  0.00    -0.372 C  
BRANCH   9  10
HETATM   10  C   UNL     1     -11.249   8.877  71.614  1.00  0.00    -0.415 C  
BRANCH  10  11
HETATM   11  C   UNL     1     -11.642   7.601  70.887  1.00  0.00    -0.299 C  
BRANCH  11  12
HETATM   12  C   UNL     1     -12.057   6.529  71.879  1.00  0.00    -0.388 C  
BRANCH  12  13
HETATM   13  C   UNL     1     -10.890   6.185  72.794  1.00  0.00    -0.282 C  
BRANCH  13  14
HETATM   14  C   UNL     1     -11.162   4.864  73.485  1.00  0.00    -0.375 C  
BRANCH  14  15
HETATM   15  C   UNL     1      -9.960   3.934  73.398  1.00  0.00    -0.181 C  
BRANCH  15  16
HETATM   16  C   UNL     1      -9.081   4.411  72.264  1.00  0.00    -0.121 C  
BRANCH  16  17
HETATM   17  O   UNL     1      -8.981   3.407  71.260  1.00  0.00    -0.085 OA 
BRANCH  17  18
HETATM   18  P   UNL     1      -8.797   4.072  69.674  1.00  0.00    -0.109 P  
HETATM   19  O   UNL     1     -10.269   4.497  69.711  1.00  0.00    -0.201 OA 
HETATM   20  O   UNL     1      -8.306   2.743  69.105  1.00  0.00    -0.057 OA 
BRANCH  18  21
HETATM   21  O   UNL     1      -8.611   4.737  68.088  1.00  0.00    -0.101 OA 
BRANCH  21  22
HETATM   22  C   UNL     1      -9.343   5.941  67.870  1.00  0.00    -0.107 C  
BRANCH  22  23
HETATM   23  C   UNL     1      -8.454   7.165  67.896  1.00  0.00    -0.121 C  
BRANCH  23  24
HETATM   24  N   UNL     1      -8.989   8.380  67.107  1.00  0.00    -0.135 N  
HETATM   25  C   UNL     1      -8.431   8.277  65.702  1.00  0.00    -0.158 C  
HETATM   26  C   UNL     1      -8.499   9.676  67.756  1.00  0.00    -0.125 C  
HETATM   27  C   UNL     1     -10.506   8.377  67.064  1.00  0.00    -0.305 C  
ENDBRANCH  23  24
ENDBRANCH  22  23
ENDBRANCH  21  22
ENDBRANCH  18  21
ENDBRANCH  17  18
ENDBRANCH  16  17
ENDBRANCH  15  16
ENDBRANCH  14  15
ENDBRANCH  13  14
ENDBRANCH  12  13
ENDBRANCH  11  12
ENDBRANCH  10  11
ENDBRANCH   9  10
ENDBRANCH   8   9
ENDBRANCH   7   8
ENDBRANCH   6   7
ENDBRANCH   5   6
ENDBRANCH   4   5
ENDBRANCH   3   4
ENDBRANCH   2   3
TORSDOF 20
ENDMDL
MODEL      266
REMARK 921   NORMALIZED FREE ENERGY PREDICTED BY IDOCK:   -3.16 KCAL/MOL
REMARK 922        TOTAL FREE ENERGY PREDICTED BY IDOCK:   -8.78 KCAL/MOL
REMARK 923 INTER-LIGAND FREE ENERGY PREDICTED BY IDOCK:   -6.57 KCAL/MOL
REMARK 924 INTRA-LIGAND FREE ENERGY PREDICTED BY IDOCK:   -2.20 KCAL/MOL
REMARK 927      BINDING AFFINITY PREDICTED BY RF-SCORE:    0.00 PKD
ROOT
HETATM    1  C   UNL     1      -9.914   9.595  65.824  1.00  0.00    -0.342 C  
HETATM    2  C   UNL     1     -10.446   8.589  66.831  1.00  0.00    -0.345 C  
ENDROOT
BRANCH   2   3
HETATM    3  C   UNL     1      -9.753   7.238  66.678  1.00  0.00    -0.249 C  
BRANCH   3   4
HETATM    4  C   UNL     1     -10.730   6.091  66.915  1.00  0.00    -0.407 C  
BRANCH   4   5
HETATM    5  C   UNL     1     -10.226   5.172  68.023  1.00  0.00    -0.178 C  
BRANCH   5   6
HETATM    6  C   UNL     1      -9.970   5.960  69.302  1.00  0.00    -0.224 C  
BRANCH   6   7
HETATM    7  C   UNL     1     -11.286   6.397  69.932  1.00  0.00    -0.485 C  
BRANCH   7   8
HETATM    8  C   UNL     1     -11.055   6.908  71.348  1.00  0.00    -0.284 C  
BRANCH   8   9
HETATM    9  C   UNL     1     -11.718   8.264  71.531  1.00  0.00    -0.337 C  
BRANCH   9  10
HETATM   10  C   UNL     1     -11.053   9.309  70.650  1.00  0.00    -0.335 C  
BRANCH  10  11
HETATM   11  C   UNL     1      -9.716   9.715  71.250  1.00  0.00     0.193 C  
BRANCH  11  12
HETATM   12  C   UNL     1      -8.602   9.540  70.233  1.00  0.00    -0.258 C  
BRANCH  12  13
HETATM   13  C   UNL     1      -8.467  10.797  69.385  1.00  0.00     0.000 C  
BRANCH  13  14
HETATM   14  C   UNL     1      -7.112  10.807  68.707  1.00  0.00    -0.079 C  
BRANCH  14  15
HETATM   15  C   UNL     1      -7.025  11.904  67.655  1.00  0.00    -0.112 C  
BRANCH  15  16
HETATM   16  C   UNL     1      -7.329  13.223  68.328  1.00  0.00    -0.113 C  
BRANCH  16  17
HETATM   17  O   UNL     1      -7.668  14.207  67.359  1.00  0.00    -0.180 OA 
BRANCH  17  18
HETATM   18  P   UNL     1      -9.262  14.840  67.586  1.00  0.00    -0.203 P  
HETATM   19  O   UNL     1      -9.416  13.936  68.813  1.00  0.00    -0.158 OA 
HETATM   20  O   UNL     1      -9.690  14.444  66.175  1.00  0.00    -0.297 OA 
BRANCH  18  21
HETATM   21  O   UNL     1     -10.856  15.474  67.813  1.00  0.00    -0.292 OA 
BRANCH  21  22
HETATM   22  C   UNL     1     -11.169  15.796  69.165  1.00  0.00    -0.322 C  
BRANCH  22  23
HETATM   23  C   UNL     1     -12.582  15.402  69.536  1.00  0.00     0.029 C  
BRANCH  23  24
HETATM   24  N   UNL     1     -12.764  14.899  70.985  1.00  0.00    -0.323 N  
HETATM   25  C   UNL     1     -14.164  15.287  71.417  1.00  0.00    -0.485 C  
HETATM   26  C   UNL     1     -11.742  15.577  71.901  1.00  0.00    -0.446 C  
HETATM   27  C   UNL     1     -12.594  13.393  71.065  1.00  0.00    -0.343 C  
ENDBRANCH  23  24
ENDBRANCH  22  23
ENDBRANCH  21  22
ENDBRANCH  18  21
ENDBRANCH  17  18
ENDBRANCH  16  17
ENDBRANCH  15  16
ENDBRANCH  14  15
ENDBRANCH  13  14
ENDBRANCH  12  13
ENDBRANCH  11  12
ENDBRANCH  10  11
ENDBRANCH   9  10
ENDBRANCH   8   9
ENDBRANCH   7   8
ENDBRANCH   6   7
ENDBRANCH   5   6
ENDBRANCH   4   5
ENDBRANCH   3   4
ENDBRANCH   2   3
TORSDOF 20
ENDMDL
MODEL      267
REMARK 921   NORMALIZED FREE ENERGY PREDICTED BY IDOCK:   -3.15 KCAL/MOL
REMARK 922        TOTAL FREE ENERGY PREDICTED BY IDOCK:   -8.75 KCAL/MOL
REMARK 923 INTER-LIGAND FREE ENERGY PREDICTED BY IDOCK:   -6.49 KCAL/MOL
REMARK 924 INTRA-LIGAND FREE ENERGY PREDICTED BY IDOCK:   -2.26 KCAL/MOL
REMARK 927      BINDING AFFINITY PREDICTED BY RF-SCORE:    0.00 PKD
ROOT
HETATM    1  C   UNL     1      -9.564   3.988  66.045  1.00  0.00    -0.200 C  
HETATM    2  C   UNL     1      -9.577   3.580  67.509  1.00  0.00    -0.177 C  
ENDROOT
BRANCH   2   3
HETATM    3  C   UNL     1      -8.168   3.590  68.096  1.00  0.00    -0.091 C  
BRANCH   3   4
HETATM    4  C   UNL     1      -7.522   4.964  67.948  1.00  0.00    -0.078 C  
BRANCH   4   5
HETATM    5  C   UNL     1      -6.790   5.357  69.226  1.00  0.00    -0.054 C  
BRANCH   5   6
HETATM    6  C   UNL     1      -7.446   4.715  70.443  1.00  0.00    -0.050 C  
BRANCH   6   7
HETATM    7  C   UNL     1      -6.972   5.390  71.723  1.00  0.00    -0.071 C  
BRANCH   7   8
HETATM    8  C   UNL     1      -8.134   6.085  72.420  1.00  0.00    -0.109 C  
BRANCH   8   9
HETATM    9  C   UNL     1      -7.836   7.568  72.582  1.00  0.00    -0.113 C  
BRANCH   9  10
HETATM   10  C   UNL     1      -9.125   8.364  72.710  1.00  0.00    -0.299 C  
BRANCH  10  11
HETATM   11  C   UNL     1     -10.193   7.512  73.378  1.00  0.00    -0.399 C  
BRANCH  11  12
HETATM   12  C   UNL     1     -11.516   7.645  72.644  1.00  0.00    -0.403 C  
BRANCH  12  13
HETATM   13  C   UNL     1     -11.784   6.394  71.820  1.00  0.00    -0.376 C  
BRANCH  13  14
HETATM   14  C   UNL     1     -11.908   6.769  70.357  1.00  0.00    -0.395 C  
BRANCH  14  15
HETATM   15  C   UNL     1     -10.681   6.337  69.567  1.00  0.00    -0.365 C  
BRANCH  15  16
HETATM   16  C   UNL     1      -9.881   7.576  69.232  1.00  0.00    -0.170 C  
BRANCH  16  17
HETATM   17  O   UNL     1     -10.709   8.731  69.291  1.00  0.00    -0.221 OA 
BRANCH  17  18
HETATM   18  P   UNL     1     -10.589   9.708  67.869  1.00  0.00    -0.216 P  
HETATM   19  O   UNL     1     -10.675   8.434  67.021  1.00  0.00    -0.289 OA 
HETATM   20  O   UNL     1      -9.277  10.336  68.334  1.00  0.00    -0.129 OA 
BRANCH  18  21
HETATM   21  O   UNL     1     -10.469  10.686  66.446  1.00  0.00    -0.242 OA 
BRANCH  21  22
HETATM   22  C   UNL     1      -9.750  11.902  66.633  1.00  0.00    -0.205 C  
BRANCH  22  23
HETATM   23  C   UNL     1     -10.667  13.101  66.735  1.00  0.00    -0.267 C  
BRANCH  23  24
HETATM   24  N   UNL     1     -11.002  13.787  65.393  1.00  0.00    -0.300 N  
HETATM   25  C   UNL     1     -10.331  15.146  65.409  1.00  0.00    -0.388 C  
HETATM   26  C   UNL     1     -12.516  13.968  65.266  1.00  0.00    -0.475 C  
HETATM   27  C   UNL     1     -10.490  12.970  64.221  1.00  0.00    -0.402 C  
ENDBRANCH  23  24
ENDBRANCH  22  23
ENDBRANCH  21  22
ENDBRANCH  18  21
ENDBRANCH  17  18
ENDBRANCH  16  17
ENDBRANCH  15  16
ENDBRANCH  14  15
ENDBRANCH  13  14
ENDBRANCH  12  13
ENDBRANCH  11  12
ENDBRANCH  10  11
ENDBRANCH   9  10
ENDBRANCH   8   9
ENDBRANCH   7   8
ENDBRANCH   6   7
ENDBRANCH   5   6
ENDBRANCH   4   5
ENDBRANCH   3   4
ENDBRANCH   2   3
TORSDOF 20
ENDMDL
MODEL      268
REMARK 921   NORMALIZED FREE ENERGY PREDICTED BY IDOCK:   -3.15 KCAL/MOL
REMARK 922        TOTAL FREE ENERGY PREDICTED BY IDOCK:   -8.75 KCAL/MOL
REMARK 923 INTER-LIGAND FREE ENERGY PREDICTED BY IDOCK:   -6.39 KCAL/MOL
REMARK 924 INTRA-LIGAND FREE ENERGY PREDICTED BY IDOCK:   -2.36 KCAL/MOL
REMARK 927      BINDING AFFINITY PREDICTED BY RF-SCORE:    0.00 PKD
ROOT
HETATM    1  C   UNL     1     -11.749  12.644  66.631  1.00  0.00    -0.464 C  
HETATM    2  C   UNL     1     -11.888  13.120  68.066  1.00  0.00    -0.398 C  
ENDROOT
BRANCH   2   3
HETATM    3  C   UNL     1     -11.151  12.192  69.029  1.00  0.00    -0.290 C  
BRANCH   3   4
HETATM    4  C   UNL     1     -12.021  11.000  69.415  1.00  0.00    -0.408 C  
BRANCH   4   5
HETATM    5  C   UNL     1     -12.473  11.109  70.867  1.00  0.00    -0.509 C  
BRANCH   5   6
HETATM    6  C   UNL     1     -12.081   9.862  71.650  1.00  0.00    -0.457 C  
BRANCH   6   7
HETATM    7  C   UNL     1     -11.872   8.684  70.707  1.00  0.00    -0.197 C  
BRANCH   7   8
HETATM    8  C   UNL     1     -12.547   7.435  71.258  1.00  0.00    -0.376 C  
BRANCH   8   9
HETATM    9  C   UNL     1     -11.594   6.251  71.188  1.00  0.00    -0.339 C  
BRANCH   9  10
HETATM   10  C   UNL     1     -11.616   5.468  72.491  1.00  0.00    -0.272 C  
BRANCH  10  11
HETATM   11  C   UNL     1     -10.277   5.606  73.199  1.00  0.00    -0.212 C  
BRANCH  11  12
HETATM   12  C   UNL     1     -10.276   6.829  74.100  1.00  0.00    -0.370 C  
BRANCH  12  13
HETATM   13  C   UNL     1      -8.923   7.524  74.035  1.00  0.00    -0.292 C  
BRANCH  13  14
HETATM   14  C   UNL     1      -8.869   8.414  72.810  1.00  0.00    -0.276 C  
BRANCH  14  15
HETATM   15  C   UNL     1      -7.736   8.009  71.877  1.00  0.00    -0.114 C  
BRANCH  15  16
HETATM   16  C   UNL     1      -8.318   7.808  70.496  1.00  0.00    -0.125 C  
BRANCH  16  17
HETATM   17  O   UNL     1      -8.483   9.060  69.841  1.00  0.00    -0.119 OA 
BRANCH  17  18
HETATM   18  P   UNL     1      -7.989   9.013  68.184  1.00  0.00    -0.101 P  
HETATM   19  O   UNL     1      -6.556   9.318  68.632  1.00  0.00    -0.053 OA 
HETATM   20  O   UNL     1      -9.004  10.081  67.784  1.00  0.00    -0.131 OA 
BRANCH  18  21
HETATM   21  O   UNL     1      -7.496   8.964  66.526  1.00  0.00    -0.087 OA 
BRANCH  21  22
HETATM   22  C   UNL     1      -7.466   7.655  65.964  1.00  0.00    -0.082 C  
BRANCH  22  23
HETATM   23  C   UNL     1      -8.849   7.054  65.836  1.00  0.00    -0.103 C  
BRANCH  23  24
HETATM   24  N   UNL     1      -8.970   5.585  66.297  1.00  0.00    -0.136 N  
HETATM   25  C   UNL     1      -7.777   5.300  67.187  1.00  0.00    -0.096 C  
HETATM   26  C   UNL     1      -8.935   4.656  65.083  1.00  0.00    -0.150 C  
HETATM   27  C   UNL     1     -10.258   5.362  67.069  1.00  0.00    -0.233 C  
ENDBRANCH  23  24
ENDBRANCH  22  23
ENDBRANCH  21  22
ENDBRANCH  18  21
ENDBRANCH  17  18
ENDBRANCH  16  17
ENDBRANCH  15  16
ENDBRANCH  14  15
ENDBRANCH  13  14
ENDBRANCH  12  13
ENDBRANCH  11  12
ENDBRANCH  10  11
ENDBRANCH   9  10
ENDBRANCH   8   9
ENDBRANCH   7   8
ENDBRANCH   6   7
ENDBRANCH   5   6
ENDBRANCH   4   5
ENDBRANCH   3   4
ENDBRANCH   2   3
TORSDOF 20
ENDMDL
MODEL      269
REMARK 921   NORMALIZED FREE ENERGY PREDICTED BY IDOCK:   -3.14 KCAL/MOL
REMARK 922        TOTAL FREE ENERGY PREDICTED BY IDOCK:   -8.73 KCAL/MOL
REMARK 923 INTER-LIGAND FREE ENERGY PREDICTED BY IDOCK:   -6.50 KCAL/MOL
REMARK 924 INTRA-LIGAND FREE ENERGY PREDICTED BY IDOCK:   -2.23 KCAL/MOL
REMARK 927      BINDING AFFINITY PREDICTED BY RF-SCORE:    0.00 PKD
ROOT
HETATM    1  C   UNL     1     -11.359   6.262  68.876  1.00  0.00    -0.269 C  
HETATM    2  C   UNL     1     -11.334   6.231  70.395  1.00  0.00    -0.440 C  
ENDROOT
BRANCH   2   3
HETATM    3  C   UNL     1     -12.077   7.428  70.983  1.00  0.00    -0.330 C  
BRANCH   3   4
HETATM    4  C   UNL     1     -11.488   7.830  72.331  1.00  0.00    -0.418 C  
BRANCH   4   5
HETATM    5  C   UNL     1     -10.306   8.774  72.145  1.00  0.00    -0.378 C  
BRANCH   5   6
HETATM    6  C   UNL     1      -9.077   8.252  72.879  1.00  0.00    -0.332 C  
BRANCH   6   7
HETATM    7  C   UNL     1      -8.155   7.513  71.918  1.00  0.00    -0.103 C  
BRANCH   7   8
HETATM    8  C   UNL     1      -6.906   8.337  71.638  1.00  0.00    -0.069 C  
BRANCH   8   9
HETATM    9  C   UNL     1      -6.905   8.811  70.193  1.00  0.00    -0.040 C  
BRANCH   9  10
HETATM   10  C   UNL     1      -8.047   8.173  69.418  1.00  0.00    -0.116 C  
BRANCH  10  11
HETATM   11  C   UNL     1      -8.450   9.072  68.259  1.00  0.00    -0.129 C  
BRANCH  11  12
HETATM   12  C   UNL     1      -8.748  10.477  68.754  1.00  0.00    -0.154 C  
BRANCH  12  13
HETATM   13  C   UNL     1     -10.186  10.563  69.246  1.00  0.00    -0.245 C  
BRANCH  13  14
HETATM   14  C   UNL     1     -11.132  10.273  68.098  1.00  0.00    -0.324 C  
BRANCH  14  15
HETATM   15  C   UNL     1     -11.213  11.448  67.134  1.00  0.00    -0.363 C  
BRANCH  15  16
HETATM   16  C   UNL     1     -11.667  12.661  67.914  1.00  0.00    -0.358 C  
BRANCH  16  17
HETATM   17  O   UNL     1     -11.923  13.748  67.034  1.00  0.00    -0.387 OA 
BRANCH  17  18
HETATM   18  P   UNL     1     -10.901  15.109  67.346  1.00  0.00    -0.310 P  
HETATM   19  O   UNL     1      -9.834  14.149  67.881  1.00  0.00    -0.215 OA 
HETATM   20  O   UNL     1     -11.958  15.784  68.217  1.00  0.00    -0.220 OA 
BRANCH  18  21
HETATM   21  O   UNL     1      -9.880  16.471  67.656  1.00  0.00    -0.240 OA 
BRANCH  21  22
HETATM   22  C   UNL     1      -8.514  16.136  67.886  1.00  0.00    -0.163 C  
BRANCH  22  23
HETATM   23  C   UNL     1      -7.969  16.777  69.143  1.00  0.00    -0.126 C  
BRANCH  23  24
HETATM   24  N   UNL     1      -6.482  17.189  69.078  1.00  0.00    -0.196 N  
HETATM   25  C   UNL     1      -6.422  18.680  69.345  1.00  0.00    -0.250 C  
HETATM   26  C   UNL     1      -5.924  16.898  67.684  1.00  0.00    -0.139 C  
HETATM   27  C   UNL     1      -5.664  16.443  70.117  1.00  0.00    -0.187 C  
ENDBRANCH  23  24
ENDBRANCH  22  23
ENDBRANCH  21  22
ENDBRANCH  18  21
ENDBRANCH  17  18
ENDBRANCH  16  17
ENDBRANCH  15  16
ENDBRANCH  14  15
ENDBRANCH  13  14
ENDBRANCH  12  13
ENDBRANCH  11  12
ENDBRANCH  10  11
ENDBRANCH   9  10
ENDBRANCH   8   9
ENDBRANCH   7   8
ENDBRANCH   6   7
ENDBRANCH   5   6
ENDBRANCH   4   5
ENDBRANCH   3   4
ENDBRANCH   2   3
TORSDOF 20
ENDMDL
MODEL      270
REMARK 921   NORMALIZED FREE ENERGY PREDICTED BY IDOCK:   -3.13 KCAL/MOL
REMARK 922        TOTAL FREE ENERGY PREDICTED BY IDOCK:   -8.72 KCAL/MOL
REMARK 923 INTER-LIGAND FREE ENERGY PREDICTED BY IDOCK:   -7.23 KCAL/MOL
REMARK 924 INTRA-LIGAND FREE ENERGY PREDICTED BY IDOCK:   -1.49 KCAL/MOL
REMARK 927      BINDING AFFINITY PREDICTED BY RF-SCORE:    0.00 PKD
ROOT
HETATM    1  C   UNL     1     -13.337  15.216  71.101  1.00  0.00    -0.535 C  
HETATM    2  C   UNL     1     -11.959  15.857  71.138  1.00  0.00    -0.472 C  
ENDROOT
BRANCH   2   3
HETATM    3  C   UNL     1     -11.457  16.166  69.730  1.00  0.00    -0.282 C  
BRANCH   3   4
HETATM    4  C   UNL     1     -10.932  14.908  69.047  1.00  0.00    -0.251 C  
BRANCH   4   5
HETATM    5  C   UNL     1     -11.537  14.757  67.655  1.00  0.00    -0.374 C  
BRANCH   5   6
HETATM    6  C   UNL     1     -11.883  13.300  67.372  1.00  0.00    -0.413 C  
BRANCH   6   7
HETATM    7  C   UNL     1     -12.098  12.540  68.674  1.00  0.00    -0.139 C  
BRANCH   7   8
HETATM    8  C   UNL     1     -11.475  11.153  68.589  1.00  0.00    -0.363 C  
BRANCH   8   9
HETATM    9  C   UNL     1     -11.372  10.540  69.978  1.00  0.00    -0.392 C  
BRANCH   9  10
HETATM   10  C   UNL     1     -12.297  11.254  70.949  1.00  0.00    -0.490 C  
BRANCH  10  11
HETATM   11  C   UNL     1     -13.372  10.296  71.437  1.00  0.00    -0.395 C  
BRANCH  11  12
HETATM   12  C   UNL     1     -12.743   9.089  72.111  1.00  0.00    -0.470 C  
BRANCH  12  13
HETATM   13  C   UNL     1     -13.329   7.806  71.537  1.00  0.00    -0.365 C  
BRANCH  13  14
HETATM   14  C   UNL     1     -12.255   6.738  71.487  1.00  0.00    -0.413 C  
BRANCH  14  15
HETATM   15  C   UNL     1     -10.926   7.260  72.013  1.00  0.00    -0.271 C  
BRANCH  15  16
HETATM   16  C   UNL     1      -9.818   6.551  71.267  1.00  0.00    -0.181 C  
BRANCH  16  17
HETATM   17  O   UNL     1     -10.362   5.663  70.299  1.00  0.00    -0.223 OA 
BRANCH  17  18
HETATM   18  P   UNL     1      -9.400   5.576  68.863  1.00  0.00    -0.137 P  
HETATM   19  O   UNL     1      -8.990   4.153  69.259  1.00  0.00    -0.092 OA 
HETATM   20  O   UNL     1      -8.611   6.828  69.239  1.00  0.00    -0.128 OA 
BRANCH  18  21
HETATM   21  O   UNL     1      -8.439   5.488  67.428  1.00  0.00    -0.110 OA 
BRANCH  21  22
HETATM   22  C   UNL     1      -8.963   6.229  66.328  1.00  0.00    -0.155 C  
BRANCH  22  23
HETATM   23  C   UNL     1      -8.509   5.675  64.995  1.00  0.00    -0.135 C  
BRANCH  23  24
HETATM   24  N   UNL     1      -8.980   4.237  64.687  1.00  0.00    -0.140 N  
HETATM   25  C   UNL     1     -10.224   3.991  65.519  1.00  0.00    -0.088 C  
HETATM   26  C   UNL     1      -7.893   3.238  65.088  1.00  0.00    -0.082 C  
HETATM   27  C   UNL     1      -9.301   4.072  63.213  1.00  0.00    -0.131 C  
ENDBRANCH  23  24
ENDBRANCH  22  23
ENDBRANCH  21  22
ENDBRANCH  18  21
ENDBRANCH  17  18
ENDBRANCH  16  17
ENDBRANCH  15  16
ENDBRANCH  14  15
ENDBRANCH  13  14
ENDBRANCH  12  13
ENDBRANCH  11  12
ENDBRANCH  10  11
ENDBRANCH   9  10
ENDBRANCH   8   9
ENDBRANCH   7   8
ENDBRANCH   6   7
ENDBRANCH   5   6
ENDBRANCH   4   5
ENDBRANCH   3   4
ENDBRANCH   2   3
TORSDOF 20
ENDMDL
MODEL      271
REMARK 921   NORMALIZED FREE ENERGY PREDICTED BY IDOCK:   -3.13 KCAL/MOL
REMARK 922        TOTAL FREE ENERGY PREDICTED BY IDOCK:   -8.71 KCAL/MOL
REMARK 923 INTER-LIGAND FREE ENERGY PREDICTED BY IDOCK:   -6.02 KCAL/MOL
REMARK 924 INTRA-LIGAND FREE ENERGY PREDICTED BY IDOCK:   -2.69 KCAL/MOL
REMARK 927      BINDING AFFINITY PREDICTED BY RF-SCORE:    0.00 PKD
ROOT
HETATM    1  C   UNL     1      -7.758  14.203  68.463  1.00  0.00    -0.138 C  
HETATM    2  C   UNL     1      -6.914  13.042  67.964  1.00  0.00    -0.112 C  
ENDROOT
BRANCH   2   3
HETATM    3  C   UNL     1      -7.756  11.780  67.797  1.00  0.00    -0.133 C  
BRANCH   3   4
HETATM    4  C   UNL     1      -7.526  10.810  68.951  1.00  0.00    -0.116 C  
BRANCH   4   5
HETATM    5  C   UNL     1      -8.839  10.173  69.392  1.00  0.00    -0.197 C  
BRANCH   5   6
HETATM    6  C   UNL     1     -10.027  10.998  68.910  1.00  0.00    -0.201 C  
BRANCH   6   7
HETATM    7  C   UNL     1     -11.315  10.193  69.017  1.00  0.00    -0.188 C  
BRANCH   7   8
HETATM    8  C   UNL     1     -12.334  10.930  69.876  1.00  0.00    -0.354 C  
BRANCH   8   9
HETATM    9  C   UNL     1     -12.219  10.482  71.325  1.00  0.00    -0.472 C  
BRANCH   9  10
HETATM   10  C   UNL     1     -13.317   9.489  71.669  1.00  0.00    -0.485 C  
BRANCH  10  11
HETATM   11  C   UNL     1     -12.709   8.124  71.949  1.00  0.00    -0.361 C  
BRANCH  11  12
HETATM   12  C   UNL     1     -11.231   8.256  72.273  1.00  0.00    -0.443 C  
BRANCH  12  13
HETATM   13  C   UNL     1     -10.410   7.389  71.329  1.00  0.00    -0.203 C  
BRANCH  13  14
HETATM   14  C   UNL     1     -11.314   6.378  70.655  1.00  0.00    -0.419 C  
BRANCH  14  15
HETATM   15  C   UNL     1     -11.196   6.450  69.139  1.00  0.00    -0.421 C  
BRANCH  15  16
HETATM   16  C   UNL     1      -9.813   5.973  68.755  1.00  0.00    -0.139 C  
BRANCH  16  17
HETATM   17  O   UNL     1      -9.874   4.660  68.213  1.00  0.00    -0.150 OA 
BRANCH  17  18
HETATM   18  P   UNL     1      -9.323   4.591  66.575  1.00  0.00    -0.184 P  
HETATM   19  O   UNL     1     -10.778   4.718  66.110  1.00  0.00    -0.308 OA 
HETATM   20  O   UNL     1      -8.612   3.259  66.803  1.00  0.00    -0.105 OA 
BRANCH  18  21
HETATM   21  O   UNL     1      -8.771   4.524  64.937  1.00  0.00    -0.128 OA 
BRANCH  21  22
HETATM   22  C   UNL     1      -8.210   5.744  64.459  1.00  0.00    -0.122 C  
BRANCH  22  23
HETATM   23  C   UNL     1      -7.821   6.677  65.584  1.00  0.00    -0.105 C  
BRANCH  23  24
HETATM   24  N   UNL     1      -7.976   8.181  65.271  1.00  0.00    -0.118 N  
HETATM   25  C   UNL     1      -8.138   8.308  63.769  1.00  0.00    -0.126 C  
HETATM   26  C   UNL     1      -6.721   8.935  65.714  1.00  0.00    -0.068 C  
HETATM   27  C   UNL     1      -9.190   8.762  65.974  1.00  0.00    -0.222 C  
ENDBRANCH  23  24
ENDBRANCH  22  23
ENDBRANCH  21  22
ENDBRANCH  18  21
ENDBRANCH  17  18
ENDBRANCH  16  17
ENDBRANCH  15  16
ENDBRANCH  14  15
ENDBRANCH  13  14
ENDBRANCH  12  13
ENDBRANCH  11  12
ENDBRANCH  10  11
ENDBRANCH   9  10
ENDBRANCH   8   9
ENDBRANCH   7   8
ENDBRANCH   6   7
ENDBRANCH   5   6
ENDBRANCH   4   5
ENDBRANCH   3   4
ENDBRANCH   2   3
TORSDOF 20
ENDMDL
MODEL      272
REMARK 921   NORMALIZED FREE ENERGY PREDICTED BY IDOCK:   -3.13 KCAL/MOL
REMARK 922        TOTAL FREE ENERGY PREDICTED BY IDOCK:   -8.71 KCAL/MOL
REMARK 923 INTER-LIGAND FREE ENERGY PREDICTED BY IDOCK:   -6.97 KCAL/MOL
REMARK 924 INTRA-LIGAND FREE ENERGY PREDICTED BY IDOCK:   -1.74 KCAL/MOL
REMARK 927      BINDING AFFINITY PREDICTED BY RF-SCORE:    0.00 PKD
ROOT
HETATM    1  C   UNL     1     -10.549  11.859  63.880  1.00  0.00    -0.444 C  
HETATM    2  C   UNL     1      -9.898  10.665  63.205  1.00  0.00    -0.364 C  
ENDROOT
BRANCH   2   3
HETATM    3  C   UNL     1      -8.612  10.259  63.923  1.00  0.00    -0.191 C  
BRANCH   3   4
HETATM    4  C   UNL     1      -8.798  10.286  65.436  1.00  0.00    -0.192 C  
BRANCH   4   5
HETATM    5  C   UNL     1      -8.898   8.870  65.993  1.00  0.00    -0.206 C  
BRANCH   5   6
HETATM    6  C   UNL     1     -10.108   8.734  66.910  1.00  0.00    -0.348 C  
BRANCH   6   7
HETATM    7  C   UNL     1     -10.047   7.424  67.683  1.00  0.00    -0.240 C  
BRANCH   7   8
HETATM    8  C   UNL     1      -9.054   7.529  68.833  1.00  0.00    -0.140 C  
BRANCH   8   9
HETATM    9  C   UNL     1      -9.691   8.248  70.012  1.00  0.00    -0.176 C  
BRANCH   9  10
HETATM   10  C   UNL     1     -10.461   7.270  70.884  1.00  0.00    -0.225 C  
BRANCH  10  11
HETATM   11  C   UNL     1     -11.913   7.709  70.993  1.00  0.00    -0.296 C  
BRANCH  11  12
HETATM   12  C   UNL     1     -12.011   9.059  71.681  1.00  0.00    -0.426 C  
BRANCH  12  13
HETATM   13  C   UNL     1     -13.084   9.908  71.013  1.00  0.00    -0.406 C  
BRANCH  13  14
HETATM   14  C   UNL     1     -12.519  11.277  70.691  1.00  0.00    -0.439 C  
BRANCH  14  15
HETATM   15  C   UNL     1     -11.813  11.283  69.342  1.00  0.00    -0.424 C  
BRANCH  15  16
HETATM   16  C   UNL     1     -11.494  12.718  68.988  1.00  0.00    -0.309 C  
BRANCH  16  17
HETATM   17  O   UNL     1     -10.365  12.776  68.125  1.00  0.00    -0.225 OA 
BRANCH  17  18
HETATM   18  P   UNL     1     -10.041  14.380  67.563  1.00  0.00    -0.233 P  
HETATM   19  O   UNL     1      -9.141  13.785  66.474  1.00  0.00    -0.223 OA 
HETATM   20  O   UNL     1      -9.540  14.828  68.934  1.00  0.00    -0.216 OA 
BRANCH  18  21
HETATM   21  O   UNL     1      -9.718  15.983  67.000  1.00  0.00    -0.223 OA 
BRANCH  21  22
HETATM   22  C   UNL     1      -8.478  16.122  66.312  1.00  0.00    -0.322 C  
BRANCH  22  23
HETATM   23  C   UNL     1      -8.258  17.530  65.803  1.00  0.00     0.212 C  
BRANCH  23  24
HETATM   24  N   UNL     1      -7.197  18.347  66.572  1.00  0.00    -0.217 N  
HETATM   25  C   UNL     1      -5.861  18.076  65.906  1.00  0.00    -0.213 C  
HETATM   26  C   UNL     1      -7.143  17.886  68.029  1.00  0.00    -0.215 C  
HETATM   27  C   UNL     1      -7.510  19.831  66.521  1.00  0.00    -0.267 C  
ENDBRANCH  23  24
ENDBRANCH  22  23
ENDBRANCH  21  22
ENDBRANCH  18  21
ENDBRANCH  17  18
ENDBRANCH  16  17
ENDBRANCH  15  16
ENDBRANCH  14  15
ENDBRANCH  13  14
ENDBRANCH  12  13
ENDBRANCH  11  12
ENDBRANCH  10  11
ENDBRANCH   9  10
ENDBRANCH   8   9
ENDBRANCH   7   8
ENDBRANCH   6   7
ENDBRANCH   5   6
ENDBRANCH   4   5
ENDBRANCH   3   4
ENDBRANCH   2   3
TORSDOF 20
ENDMDL
MODEL      273
REMARK 921   NORMALIZED FREE ENERGY PREDICTED BY IDOCK:   -3.12 KCAL/MOL
REMARK 922        TOTAL FREE ENERGY PREDICTED BY IDOCK:   -8.70 KCAL/MOL
REMARK 923 INTER-LIGAND FREE ENERGY PREDICTED BY IDOCK:   -6.21 KCAL/MOL
REMARK 924 INTRA-LIGAND FREE ENERGY PREDICTED BY IDOCK:   -2.48 KCAL/MOL
REMARK 927      BINDING AFFINITY PREDICTED BY RF-SCORE:    0.00 PKD
ROOT
HETATM    1  C   UNL     1     -11.495   9.989  70.942  1.00  0.00    -0.452 C  
HETATM    2  C   UNL     1     -12.063   8.631  71.315  1.00  0.00    -0.333 C  
ENDROOT
BRANCH   2   3
HETATM    3  C   UNL     1     -11.041   7.522  71.078  1.00  0.00    -0.274 C  
BRANCH   3   4
HETATM    4  C   UNL     1     -11.579   6.479  70.104  1.00  0.00    -0.466 C  
BRANCH   4   5
HETATM    5  C   UNL     1     -10.560   5.366  69.887  1.00  0.00    -0.351 C  
BRANCH   5   6
HETATM    6  C   UNL     1     -10.157   5.282  68.419  1.00  0.00    -0.224 C  
BRANCH   6   7
HETATM    7  C   UNL     1     -10.996   6.237  67.580  1.00  0.00    -0.438 C  
BRANCH   7   8
HETATM    8  C   UNL     1     -10.100   7.221  66.839  1.00  0.00    -0.317 C  
BRANCH   8   9
HETATM    9  C   UNL     1      -8.637   6.878  67.075  1.00  0.00    -0.121 C  
BRANCH   9  10
HETATM   10  C   UNL     1      -7.862   8.109  67.516  1.00  0.00    -0.110 C  
BRANCH  10  11
HETATM   11  C   UNL     1      -8.436   8.641  68.819  1.00  0.00    -0.129 C  
BRANCH  11  12
HETATM   12  C   UNL     1      -8.421  10.160  68.825  1.00  0.00    -0.131 C  
BRANCH  12  13
HETATM   13  C   UNL     1      -9.100  10.694  67.572  1.00  0.00    -0.144 C  
BRANCH  13  14
HETATM   14  C   UNL     1      -8.334  11.895  67.054  1.00  0.00    -0.178 C  
BRANCH  14  15
HETATM   15  C   UNL     1      -6.840  11.753  67.307  1.00  0.00    -0.134 C  
BRANCH  15  16
HETATM   16  C   UNL     1      -6.405  12.901  68.190  1.00  0.00    -0.096 C  
BRANCH  16  17
HETATM   17  O   UNL     1      -6.161  14.063  67.407  1.00  0.00    -0.345 OA 
BRANCH  17  18
HETATM   18  P   UNL     1      -7.041  15.441  67.972  1.00  0.00    -0.155 P  
HETATM   19  O   UNL     1      -7.241  14.728  69.313  1.00  0.00    -0.147 OA 
HETATM   20  O   UNL     1      -8.029  15.365  66.809  1.00  0.00    -0.223 OA 
BRANCH  18  21
HETATM   21  O   UNL     1      -7.921  16.819  68.536  1.00  0.00    -0.212 OA 
BRANCH  21  22
HETATM   22  C   UNL     1      -9.303  16.812  68.190  1.00  0.00    -0.234 C  
BRANCH  22  23
HETATM   23  C   UNL     1     -10.187  16.446  69.362  1.00  0.00    -0.273 C  
BRANCH  23  24
HETATM   24  N   UNL     1     -11.220  15.333  69.082  1.00  0.00    -0.260 N  
HETATM   25  C   UNL     1     -10.508  14.008  69.278  1.00  0.00    -0.017 C  
HETATM   26  C   UNL     1     -11.716  15.436  67.639  1.00  0.00    -0.111 C  
HETATM   27  C   UNL     1     -12.400  15.433  70.032  1.00  0.00    -0.336 C  
ENDBRANCH  23  24
ENDBRANCH  22  23
ENDBRANCH  21  22
ENDBRANCH  18  21
ENDBRANCH  17  18
ENDBRANCH  16  17
ENDBRANCH  15  16
ENDBRANCH  14  15
ENDBRANCH  13  14
ENDBRANCH  12  13
ENDBRANCH  11  12
ENDBRANCH  10  11
ENDBRANCH   9  10
ENDBRANCH   8   9
ENDBRANCH   7   8
ENDBRANCH   6   7
ENDBRANCH   5   6
ENDBRANCH   4   5
ENDBRANCH   3   4
ENDBRANCH   2   3
TORSDOF 20
ENDMDL
MODEL      274
REMARK 921   NORMALIZED FREE ENERGY PREDICTED BY IDOCK:   -3.12 KCAL/MOL
REMARK 922        TOTAL FREE ENERGY PREDICTED BY IDOCK:   -8.69 KCAL/MOL
REMARK 923 INTER-LIGAND FREE ENERGY PREDICTED BY IDOCK:   -6.41 KCAL/MOL
REMARK 924 INTRA-LIGAND FREE ENERGY PREDICTED BY IDOCK:   -2.28 KCAL/MOL
REMARK 927      BINDING AFFINITY PREDICTED BY RF-SCORE:    0.00 PKD
ROOT
HETATM    1  C   UNL     1      -5.998  12.038  70.043  1.00  0.00    -0.159 C  
HETATM    2  C   UNL     1      -5.569  10.869  69.173  1.00  0.00    -0.040 C  
ENDROOT
BRANCH   2   3
HETATM    3  C   UNL     1      -6.521   9.687  69.330  1.00  0.00    -0.044 C  
BRANCH   3   4
HETATM    4  C   UNL     1      -7.960  10.160  69.507  1.00  0.00    -0.170 C  
BRANCH   4   5
HETATM    5  C   UNL     1      -8.806   9.081  70.172  1.00  0.00    -0.196 C  
BRANCH   5   6
HETATM    6  C   UNL     1     -10.289   9.416  70.065  1.00  0.00    -0.265 C  
BRANCH   6   7
HETATM    7  C   UNL     1     -11.124   8.142  70.045  1.00  0.00    -0.146 C  
BRANCH   7   8
HETATM    8  C   UNL     1     -10.281   6.960  69.584  1.00  0.00    -0.206 C  
BRANCH   8   9
HETATM    9  C   UNL     1     -10.989   6.220  68.459  1.00  0.00    -0.421 C  
BRANCH   9  10
HETATM   10  C   UNL     1     -10.820   6.957  67.141  1.00  0.00    -0.447 C  
BRANCH  10  11
HETATM   11  C   UNL     1      -9.403   6.768  66.622  1.00  0.00    -0.197 C  
BRANCH  11  12
HETATM   12  C   UNL     1      -8.640   8.079  66.668  1.00  0.00    -0.141 C  
BRANCH  12  13
HETATM   13  C   UNL     1      -9.212   9.053  65.648  1.00  0.00    -0.288 C  
BRANCH  13  14
HETATM   14  C   UNL     1      -9.549  10.363  66.331  1.00  0.00    -0.225 C  
BRANCH  14  15
HETATM   15  C   UNL     1     -10.903  10.893  65.883  1.00  0.00    -0.132 C  
BRANCH  15  16
HETATM   16  C   UNL     1     -11.251  12.081  66.751  1.00  0.00    -0.322 C  
BRANCH  16  17
HETATM   17  O   UNL     1     -10.091  12.862  67.009  1.00  0.00    -0.239 OA 
BRANCH  17  18
HETATM   18  P   UNL     1     -10.413  14.561  66.972  1.00  0.00    -0.274 P  
HETATM   19  O   UNL     1     -10.567  14.536  68.496  1.00  0.00    -0.238 OA 
HETATM   20  O   UNL     1     -11.572  14.385  65.994  1.00  0.00    -0.350 OA 
BRANCH  18  21
HETATM   21  O   UNL     1     -10.734  16.261  66.934  1.00  0.00    -0.300 OA 
BRANCH  21  22
HETATM   22  C   UNL     1      -9.708  17.036  66.319  1.00  0.00    -0.283 C  
BRANCH  22  23
HETATM   23  C   UNL     1      -9.551  18.396  66.964  1.00  0.00    -0.298 C  
BRANCH  23  24
HETATM   24  N   UNL     1      -8.118  18.971  66.941  1.00  0.00    -0.258 N  
HETATM   25  C   UNL     1      -7.200  17.857  66.477  1.00  0.00    -0.238 C  
HETATM   26  C   UNL     1      -7.713  19.411  68.349  1.00  0.00    -0.328 C  
HETATM   27  C   UNL     1      -8.020  20.152  65.993  1.00  0.00    -0.204 C  
ENDBRANCH  23  24
ENDBRANCH  22  23
ENDBRANCH  21  22
ENDBRANCH  18  21
ENDBRANCH  17  18
ENDBRANCH  16  17
ENDBRANCH  15  16
ENDBRANCH  14  15
ENDBRANCH  13  14
ENDBRANCH  12  13
ENDBRANCH  11  12
ENDBRANCH  10  11
ENDBRANCH   9  10
ENDBRANCH   8   9
ENDBRANCH   7   8
ENDBRANCH   6   7
ENDBRANCH   5   6
ENDBRANCH   4   5
ENDBRANCH   3   4
ENDBRANCH   2   3
TORSDOF 20
ENDMDL
MODEL      275
REMARK 921   NORMALIZED FREE ENERGY PREDICTED BY IDOCK:   -3.10 KCAL/MOL
REMARK 922        TOTAL FREE ENERGY PREDICTED BY IDOCK:   -8.66 KCAL/MOL
REMARK 923 INTER-LIGAND FREE ENERGY PREDICTED BY IDOCK:   -6.71 KCAL/MOL
REMARK 924 INTRA-LIGAND FREE ENERGY PREDICTED BY IDOCK:   -1.95 KCAL/MOL
REMARK 927      BINDING AFFINITY PREDICTED BY RF-SCORE:    0.00 PKD
ROOT
HETATM    1  C   UNL     1     -12.715  15.633  71.412  1.00  0.00    -0.535 C  
HETATM    2  C   UNL     1     -11.273  16.008  71.117  1.00  0.00    -0.313 C  
ENDROOT
BRANCH   2   3
HETATM    3  C   UNL     1     -11.069  16.284  69.629  1.00  0.00    -0.333 C  
BRANCH   3   4
HETATM    4  C   UNL     1     -10.667  15.015  68.886  1.00  0.00    -0.240 C  
BRANCH   4   5
HETATM    5  C   UNL     1     -11.031  15.116  67.409  1.00  0.00    -0.314 C  
BRANCH   5   6
HETATM    6  C   UNL     1     -11.336  13.739  66.832  1.00  0.00    -0.345 C  
BRANCH   6   7
HETATM    7  C   UNL     1     -12.120  12.902  67.835  1.00  0.00    -0.209 C  
BRANCH   7   8
HETATM    8  C   UNL     1     -11.441  11.556  68.051  1.00  0.00    -0.381 C  
BRANCH   8   9
HETATM    9  C   UNL     1     -11.314  11.266  69.539  1.00  0.00    -0.362 C  
BRANCH   9  10
HETATM   10  C   UNL     1     -12.180  12.220  70.347  1.00  0.00    -0.371 C  
BRANCH  10  11
HETATM   11  C   UNL     1     -13.101  11.430  71.263  1.00  0.00    -0.297 C  
BRANCH  11  12
HETATM   12  C   UNL     1     -12.455  10.114  71.662  1.00  0.00    -0.506 C  
BRANCH  12  13
HETATM   13  C   UNL     1     -13.402   8.958  71.369  1.00  0.00    -0.309 C  
BRANCH  13  14
HETATM   14  C   UNL     1     -12.686   7.645  71.611  1.00  0.00    -0.368 C  
BRANCH  14  15
HETATM   15  C   UNL     1     -11.595   7.791  72.662  1.00  0.00    -0.398 C  
BRANCH  15  16
HETATM   16  C   UNL     1     -10.812   6.498  72.706  1.00  0.00    -0.249 C  
BRANCH  16  17
HETATM   17  O   UNL     1     -10.988   5.772  71.495  1.00  0.00    -0.262 OA 
BRANCH  17  18
HETATM   18  P   UNL     1      -9.486   5.391  70.725  1.00  0.00    -0.182 P  
HETATM   19  O   UNL     1     -10.080   4.045  70.296  1.00  0.00    -0.120 OA 
HETATM   20  O   UNL     1      -8.698   5.604  72.016  1.00  0.00    -0.133 OA 
BRANCH  18  21
HETATM   21  O   UNL     1      -7.984   5.011  69.955  1.00  0.00    -0.072 OA 
BRANCH  21  22
HETATM   22  C   UNL     1      -7.581   5.953  68.965  1.00  0.00    -0.090 C  
BRANCH  22  23
HETATM   23  C   UNL     1      -7.964   7.371  69.331  1.00  0.00    -0.124 C  
BRANCH  23  24
HETATM   24  N   UNL     1      -6.778   8.318  69.613  1.00  0.00    -0.037 N  
HETATM   25  C   UNL     1      -6.836   8.676  71.085  1.00  0.00    -0.071 C  
HETATM   26  C   UNL     1      -6.918   9.589  68.773  1.00  0.00    -0.067 C  
HETATM   27  C   UNL     1      -5.455   7.645  69.295  1.00  0.00    -0.019 C  
ENDBRANCH  23  24
ENDBRANCH  22  23
ENDBRANCH  21  22
ENDBRANCH  18  21
ENDBRANCH  17  18
ENDBRANCH  16  17
ENDBRANCH  15  16
ENDBRANCH  14  15
ENDBRANCH  13  14
ENDBRANCH  12  13
ENDBRANCH  11  12
ENDBRANCH  10  11
ENDBRANCH   9  10
ENDBRANCH   8   9
ENDBRANCH   7   8
ENDBRANCH   6   7
ENDBRANCH   5   6
ENDBRANCH   4   5
ENDBRANCH   3   4
ENDBRANCH   2   3
TORSDOF 20
ENDMDL
MODEL      276
REMARK 921   NORMALIZED FREE ENERGY PREDICTED BY IDOCK:   -3.10 KCAL/MOL
REMARK 922        TOTAL FREE ENERGY PREDICTED BY IDOCK:   -8.64 KCAL/MOL
REMARK 923 INTER-LIGAND FREE ENERGY PREDICTED BY IDOCK:   -6.29 KCAL/MOL
REMARK 924 INTRA-LIGAND FREE ENERGY PREDICTED BY IDOCK:   -2.34 KCAL/MOL
REMARK 927      BINDING AFFINITY PREDICTED BY RF-SCORE:    0.00 PKD
ROOT
HETATM    1  C   UNL     1     -10.475   6.750  73.521  1.00  0.00    -0.356 C  
HETATM    2  C   UNL     1      -9.688   7.981  73.105  1.00  0.00    -0.341 C  
ENDROOT
BRANCH   2   3
HETATM    3  C   UNL     1     -10.286   8.620  71.854  1.00  0.00    -0.405 C  
BRANCH   3   4
HETATM    4  C   UNL     1      -9.193   9.160  70.938  1.00  0.00    -0.326 C  
BRANCH   4   5
HETATM    5  C   UNL     1      -9.019   8.263  69.718  1.00  0.00    -0.146 C  
BRANCH   5   6
HETATM    6  C   UNL     1     -10.330   7.570  69.366  1.00  0.00    -0.213 C  
BRANCH   6   7
HETATM    7  C   UNL     1     -10.676   7.796  67.901  1.00  0.00    -0.165 C  
BRANCH   7   8
HETATM    8  C   UNL     1      -9.905   8.988  67.348  1.00  0.00    -0.244 C  
BRANCH   8   9
HETATM    9  C   UNL     1      -9.625   8.789  65.867  1.00  0.00    -0.255 C  
BRANCH   9  10
HETATM   10  C   UNL     1      -8.284   8.103  65.662  1.00  0.00    -0.133 C  
BRANCH  10  11
HETATM   11  C   UNL     1      -7.503   8.813  64.568  1.00  0.00    -0.106 C  
BRANCH  11  12
HETATM   12  C   UNL     1      -7.163  10.231  64.992  1.00  0.00    -0.111 C  
BRANCH  12  13
HETATM   13  C   UNL     1      -5.906  10.232  65.851  1.00  0.00    -0.088 C  
BRANCH  13  14
HETATM   14  C   UNL     1      -5.960  11.393  66.825  1.00  0.00    -0.143 C  
BRANCH  14  15
HETATM   15  C   UNL     1      -6.973  11.143  67.932  1.00  0.00    -0.069 C  
BRANCH  15  16
HETATM   16  C   UNL     1      -7.599  12.469  68.301  1.00  0.00    -0.129 C  
BRANCH  16  17
HETATM   17  O   UNL     1      -7.210  13.475  67.373  1.00  0.00    -0.166 OA 
BRANCH  17  18
HETATM   18  P   UNL     1      -8.222  14.876  67.449  1.00  0.00    -0.219 P  
HETATM   19  O   UNL     1      -6.966  15.740  67.603  1.00  0.00    -0.136 OA 
HETATM   20  O   UNL     1      -9.021  14.314  68.622  1.00  0.00    -0.189 OA 
BRANCH  18  21
HETATM   21  O   UNL     1      -9.234  16.276  67.523  1.00  0.00    -0.203 OA 
BRANCH  21  22
HETATM   22  C   UNL     1     -10.495  16.121  66.877  1.00  0.00    -0.300 C  
BRANCH  22  23
HETATM   23  C   UNL     1     -10.375  15.410  65.547  1.00  0.00    -0.387 C  
BRANCH  23  24
HETATM   24  N   UNL     1     -11.337  14.217  65.352  1.00  0.00    -0.319 N  
HETATM   25  C   UNL     1     -11.990  13.950  66.693  1.00  0.00    -0.442 C  
HETATM   26  C   UNL     1     -10.548  12.982  64.914  1.00  0.00    -0.337 C  
HETATM   27  C   UNL     1     -12.396  14.536  64.313  1.00  0.00    -0.369 C  
ENDBRANCH  23  24
ENDBRANCH  22  23
ENDBRANCH  21  22
ENDBRANCH  18  21
ENDBRANCH  17  18
ENDBRANCH  16  17
ENDBRANCH  15  16
ENDBRANCH  14  15
ENDBRANCH  13  14
ENDBRANCH  12  13
ENDBRANCH  11  12
ENDBRANCH  10  11
ENDBRANCH   9  10
ENDBRANCH   8   9
ENDBRANCH   7   8
ENDBRANCH   6   7
ENDBRANCH   5   6
ENDBRANCH   4   5
ENDBRANCH   3   4
ENDBRANCH   2   3
TORSDOF 20
ENDMDL
MODEL      277
REMARK 921   NORMALIZED FREE ENERGY PREDICTED BY IDOCK:   -3.09 KCAL/MOL
REMARK 922        TOTAL FREE ENERGY PREDICTED BY IDOCK:   -8.63 KCAL/MOL
REMARK 923 INTER-LIGAND FREE ENERGY PREDICTED BY IDOCK:   -6.19 KCAL/MOL
REMARK 924 INTRA-LIGAND FREE ENERGY PREDICTED BY IDOCK:   -2.45 KCAL/MOL
REMARK 927      BINDING AFFINITY PREDICTED BY RF-SCORE:    0.00 PKD
ROOT
HETATM    1  C   UNL     1     -12.648  12.762  64.825  1.00  0.00    -0.518 C  
HETATM    2  C   UNL     1     -11.457  12.052  65.445  1.00  0.00    -0.361 C  
ENDROOT
BRANCH   2   3
HETATM    3  C   UNL     1     -10.620  11.349  64.380  1.00  0.00    -0.403 C  
BRANCH   3   4
HETATM    4  C   UNL     1      -9.686  10.319  65.008  1.00  0.00    -0.370 C  
BRANCH   4   5
HETATM    5  C   UNL     1     -10.232   9.842  66.349  1.00  0.00    -0.292 C  
BRANCH   5   6
HETATM    6  C   UNL     1      -9.826   8.397  66.614  1.00  0.00    -0.343 C  
BRANCH   6   7
HETATM    7  C   UNL     1      -8.496   8.085  65.940  1.00  0.00    -0.154 C  
BRANCH   7   8
HETATM    8  C   UNL     1      -8.398   6.599  65.620  1.00  0.00    -0.144 C  
BRANCH   8   9
HETATM    9  C   UNL     1      -9.604   5.861  66.181  1.00  0.00    -0.107 C  
BRANCH   9  10
HETATM   10  C   UNL     1      -9.163   4.743  67.113  1.00  0.00    -0.136 C  
BRANCH  10  11
HETATM   11  C   UNL     1      -9.918   4.842  68.429  1.00  0.00    -0.156 C  
BRANCH  11  12
HETATM   12  C   UNL     1      -9.296   5.901  69.322  1.00  0.00    -0.147 C  
BRANCH  12  13
HETATM   13  C   UNL     1      -7.780   5.758  69.324  1.00  0.00    -0.089 C  
BRANCH  13  14
HETATM   14  C   UNL     1      -7.150   7.046  69.813  1.00  0.00    -0.067 C  
BRANCH  14  15
HETATM   15  C   UNL     1      -8.185   8.154  69.950  1.00  0.00    -0.118 C  
BRANCH  15  16
HETATM   16  C   UNL     1      -7.996   8.806  71.301  1.00  0.00    -0.139 C  
BRANCH  16  17
HETATM   17  O   UNL     1      -9.235   9.312  71.783  1.00  0.00    -0.306 OA 
BRANCH  17  18
HETATM   18  P   UNL     1     -10.291   8.061  72.340  1.00  0.00    -0.337 P  
HETATM   19  O   UNL     1     -11.476   9.012  72.143  1.00  0.00    -0.355 OA 
HETATM   20  O   UNL     1      -9.526   7.911  73.653  1.00  0.00    -0.286 OA 
BRANCH  18  21
HETATM   21  O   UNL     1     -11.347   6.808  72.896  1.00  0.00    -0.235 OA 
BRANCH  21  22
HETATM   22  C   UNL     1     -10.958   5.496  72.498  1.00  0.00    -0.263 C  
BRANCH  22  23
HETATM   23  C   UNL     1     -10.987   4.515  73.649  1.00  0.00    -0.304 C  
BRANCH  23  24
HETATM   24  N   UNL     1     -10.400   3.121  73.337  1.00  0.00    -0.136 N  
HETATM   25  C   UNL     1     -11.466   2.102  73.690  1.00  0.00    -0.204 C  
HETATM   26  C   UNL     1      -9.158   2.877  74.195  1.00  0.00    -0.078 C  
HETATM   27  C   UNL     1     -10.034   3.000  71.869  1.00  0.00    -0.140 C  
ENDBRANCH  23  24
ENDBRANCH  22  23
ENDBRANCH  21  22
ENDBRANCH  18  21
ENDBRANCH  17  18
ENDBRANCH  16  17
ENDBRANCH  15  16
ENDBRANCH  14  15
ENDBRANCH  13  14
ENDBRANCH  12  13
ENDBRANCH  11  12
ENDBRANCH  10  11
ENDBRANCH   9  10
ENDBRANCH   8   9
ENDBRANCH   7   8
ENDBRANCH   6   7
ENDBRANCH   5   6
ENDBRANCH   4   5
ENDBRANCH   3   4
ENDBRANCH   2   3
TORSDOF 20
ENDMDL
MODEL      278
REMARK 921   NORMALIZED FREE ENERGY PREDICTED BY IDOCK:   -3.07 KCAL/MOL
REMARK 922        TOTAL FREE ENERGY PREDICTED BY IDOCK:   -8.58 KCAL/MOL
REMARK 923 INTER-LIGAND FREE ENERGY PREDICTED BY IDOCK:   -6.81 KCAL/MOL
REMARK 924 INTRA-LIGAND FREE ENERGY PREDICTED BY IDOCK:   -1.77 KCAL/MOL
REMARK 927      BINDING AFFINITY PREDICTED BY RF-SCORE:    0.00 PKD
ROOT
HETATM    1  C   UNL     1      -9.225  12.139  67.744  1.00  0.00    -0.189 C  
HETATM    2  C   UNL     1      -9.858  10.774  67.532  1.00  0.00    -0.197 C  
ENDROOT
BRANCH   2   3
HETATM    3  C   UNL     1      -8.928   9.657  68.001  1.00  0.00    -0.122 C  
BRANCH   3   4
HETATM    4  C   UNL     1      -9.553   8.287  67.760  1.00  0.00    -0.178 C  
BRANCH   4   5
HETATM    5  C   UNL     1      -8.881   7.586  66.584  1.00  0.00    -0.162 C  
BRANCH   5   6
HETATM    6  C   UNL     1      -7.793   8.467  65.982  1.00  0.00    -0.098 C  
BRANCH   6   7
HETATM    7  C   UNL     1      -7.637   8.181  64.494  1.00  0.00    -0.113 C  
BRANCH   7   8
HETATM    8  C   UNL     1      -8.071   9.387  63.672  1.00  0.00    -0.154 C  
BRANCH   8   9
HETATM    9  C   UNL     1      -9.284  10.047  64.310  1.00  0.00    -0.318 C  
BRANCH   9  10
HETATM   10  C   UNL     1      -9.654  11.321  63.568  1.00  0.00    -0.324 C  
BRANCH  10  11
HETATM   11  C   UNL     1     -11.161  11.524  63.610  1.00  0.00    -0.469 C  
BRANCH  11  12
HETATM   12  C   UNL     1     -11.558  12.312  64.846  1.00  0.00    -0.395 C  
BRANCH  12  13
HETATM   13  C   UNL     1     -12.152  13.654  64.440  1.00  0.00    -0.470 C  
BRANCH  13  14
HETATM   14  C   UNL     1     -11.791  14.701  65.474  1.00  0.00    -0.292 C  
BRANCH  14  15
HETATM   15  C   UNL     1     -12.147  14.239  66.880  1.00  0.00    -0.440 C  
BRANCH  15  16
HETATM   16  C   UNL     1     -11.623  15.268  67.857  1.00  0.00    -0.289 C  
BRANCH  16  17
HETATM   17  O   UNL     1     -10.800  16.214  67.184  1.00  0.00    -0.302 OA 
BRANCH  17  18
HETATM   18  P   UNL     1      -9.341  16.557  68.047  1.00  0.00    -0.225 P  
HETATM   19  O   UNL     1      -9.879  17.960  68.344  1.00  0.00    -0.316 OA 
HETATM   20  O   UNL     1      -8.471  16.214  66.840  1.00  0.00    -0.188 OA 
BRANCH  18  21
HETATM   21  O   UNL     1      -7.881  16.898  68.911  1.00  0.00    -0.244 OA 
BRANCH  21  22
HETATM   22  C   UNL     1      -6.833  17.424  68.102  1.00  0.00    -0.184 C  
BRANCH  22  23
HETATM   23  C   UNL     1      -6.815  18.937  68.097  1.00  0.00    -0.241 C  
BRANCH  23  24
HETATM   24  N   UNL     1      -6.599  19.585  66.712  1.00  0.00    -0.193 N  
HETATM   25  C   UNL     1      -7.953  20.074  66.235  1.00  0.00    -0.295 C  
HETATM   26  C   UNL     1      -6.058  18.544  65.730  1.00  0.00    -0.224 C  
HETATM   27  C   UNL     1      -5.630  20.750  66.801  1.00  0.00    -0.193 C  
ENDBRANCH  23  24
ENDBRANCH  22  23
ENDBRANCH  21  22
ENDBRANCH  18  21
ENDBRANCH  17  18
ENDBRANCH  16  17
ENDBRANCH  15  16
ENDBRANCH  14  15
ENDBRANCH  13  14
ENDBRANCH  12  13
ENDBRANCH  11  12
ENDBRANCH  10  11
ENDBRANCH   9  10
ENDBRANCH   8   9
ENDBRANCH   7   8
ENDBRANCH   6   7
ENDBRANCH   5   6
ENDBRANCH   4   5
ENDBRANCH   3   4
ENDBRANCH   2   3
TORSDOF 20
ENDMDL
MODEL      279
REMARK 921   NORMALIZED FREE ENERGY PREDICTED BY IDOCK:   -3.07 KCAL/MOL
REMARK 922        TOTAL FREE ENERGY PREDICTED BY IDOCK:   -8.57 KCAL/MOL
REMARK 923 INTER-LIGAND FREE ENERGY PREDICTED BY IDOCK:   -6.58 KCAL/MOL
REMARK 924 INTRA-LIGAND FREE ENERGY PREDICTED BY IDOCK:   -1.99 KCAL/MOL
REMARK 927      BINDING AFFINITY PREDICTED BY RF-SCORE:    0.00 PKD
ROOT
HETATM    1  C   UNL     1     -10.268  14.901  65.514  1.00  0.00    -0.401 C  
HETATM    2  C   UNL     1     -11.153  13.960  64.714  1.00  0.00    -0.386 C  
ENDROOT
BRANCH   2   3
HETATM    3  C   UNL     1     -12.259  13.370  65.585  1.00  0.00    -0.510 C  
BRANCH   3   4
HETATM    4  C   UNL     1     -11.832  13.310  67.047  1.00  0.00    -0.442 C  
BRANCH   4   5
HETATM    5  C   UNL     1     -11.361  11.907  67.415  1.00  0.00    -0.389 C  
BRANCH   5   6
HETATM    6  C   UNL     1     -10.841  11.871  68.847  1.00  0.00    -0.261 C  
BRANCH   6   7
HETATM    7  C   UNL     1     -11.966  11.527  69.815  1.00  0.00    -0.415 C  
BRANCH   7   8
HETATM    8  C   UNL     1     -11.700  10.186  70.486  1.00  0.00    -0.407 C  
BRANCH   8   9
HETATM    9  C   UNL     1     -10.257   9.763  70.257  1.00  0.00    -0.346 C  
BRANCH   9  10
HETATM   10  C   UNL     1     -10.068   8.293  70.595  1.00  0.00    -0.212 C  
BRANCH  10  11
HETATM   11  C   UNL     1     -10.611   7.430  69.466  1.00  0.00    -0.244 C  
BRANCH  11  12
HETATM   12  C   UNL     1     -11.424   6.275  70.023  1.00  0.00    -0.460 C  
BRANCH  12  13
HETATM   13  C   UNL     1     -11.937   6.621  71.414  1.00  0.00    -0.405 C  
BRANCH  13  14
HETATM   14  C   UNL     1     -11.490   5.558  72.397  1.00  0.00    -0.266 C  
BRANCH  14  15
HETATM   15  C   UNL     1     -10.652   6.157  73.519  1.00  0.00    -0.283 C  
BRANCH  15  16
HETATM   16  C   UNL     1      -9.256   5.584  73.416  1.00  0.00    -0.131 C  
BRANCH  16  17
HETATM   17  O   UNL     1      -9.168   4.690  72.313  1.00  0.00    -0.124 OA 
BRANCH  17  18
HETATM   18  P   UNL     1      -7.766   4.973  71.340  1.00  0.00    -0.105 P  
HETATM   19  O   UNL     1      -7.202   3.628  71.812  1.00  0.00    -0.043 OA 
HETATM   20  O   UNL     1      -7.480   6.307  72.026  1.00  0.00    -0.091 OA 
BRANCH  18  21
HETATM   21  O   UNL     1      -6.364   5.255  70.366  1.00  0.00    -0.025 OA 
BRANCH  21  22
HETATM   22  C   UNL     1      -6.538   4.942  68.987  1.00  0.00    -0.045 C  
BRANCH  22  23
HETATM   23  C   UNL     1      -7.557   5.838  68.319  1.00  0.00    -0.085 C  
BRANCH  23  24
HETATM   24  N   UNL     1      -8.220   5.249  67.054  1.00  0.00    -0.108 N  
HETATM   25  C   UNL     1      -7.194   4.349  66.394  1.00  0.00    -0.076 C  
HETATM   26  C   UNL     1      -8.601   6.377  66.095  1.00  0.00    -0.144 C  
HETATM   27  C   UNL     1      -9.458   4.448  67.412  1.00  0.00    -0.171 C  
ENDBRANCH  23  24
ENDBRANCH  22  23
ENDBRANCH  21  22
ENDBRANCH  18  21
ENDBRANCH  17  18
ENDBRANCH  16  17
ENDBRANCH  15  16
ENDBRANCH  14  15
ENDBRANCH  13  14
ENDBRANCH  12  13
ENDBRANCH  11  12
ENDBRANCH  10  11
ENDBRANCH   9  10
ENDBRANCH   8   9
ENDBRANCH   7   8
ENDBRANCH   6   7
ENDBRANCH   5   6
ENDBRANCH   4   5
ENDBRANCH   3   4
ENDBRANCH   2   3
TORSDOF 20
ENDMDL
MODEL      280
REMARK 921   NORMALIZED FREE ENERGY PREDICTED BY IDOCK:   -3.06 KCAL/MOL
REMARK 922        TOTAL FREE ENERGY PREDICTED BY IDOCK:   -8.56 KCAL/MOL
REMARK 923 INTER-LIGAND FREE ENERGY PREDICTED BY IDOCK:   -6.24 KCAL/MOL
REMARK 924 INTRA-LIGAND FREE ENERGY PREDICTED BY IDOCK:   -2.32 KCAL/MOL
REMARK 927      BINDING AFFINITY PREDICTED BY RF-SCORE:    0.00 PKD
ROOT
HETATM    1  C   UNL     1     -11.666  15.693  69.040  1.00  0.00    -0.408 C  
HETATM    2  C   UNL     1     -10.851  16.076  67.816  1.00  0.00    -0.324 C  
ENDROOT
BRANCH   2   3
HETATM    3  C   UNL     1     -10.707  14.896  66.859  1.00  0.00    -0.308 C  
BRANCH   3   4
HETATM    4  C   UNL     1      -9.309  14.291  66.940  1.00  0.00    -0.268 C  
BRANCH   4   5
HETATM    5  C   UNL     1      -9.367  12.870  67.490  1.00  0.00    -0.190 C  
BRANCH   5   6
HETATM    6  C   UNL     1     -10.341  12.019  66.684  1.00  0.00    -0.237 C  
BRANCH   6   7
HETATM    7  C   UNL     1      -9.699  11.563  65.380  1.00  0.00    -0.262 C  
BRANCH   7   8
HETATM    8  C   UNL     1     -10.030  10.102  65.106  1.00  0.00    -0.379 C  
BRANCH   8   9
HETATM    9  C   UNL     1     -10.038   9.314  66.407  1.00  0.00    -0.337 C  
BRANCH   9  10
HETATM   10  C   UNL     1      -9.307   7.992  66.239  1.00  0.00    -0.246 C  
BRANCH  10  11
HETATM   11  C   UNL     1      -8.164   8.157  65.250  1.00  0.00    -0.150 C  
BRANCH  11  12
HETATM   12  C   UNL     1      -6.840   8.287  65.984  1.00  0.00    -0.064 C  
BRANCH  12  13
HETATM   13  C   UNL     1      -6.539   9.754  66.260  1.00  0.00    -0.073 C  
BRANCH  13  14
HETATM   14  C   UNL     1      -6.025   9.907  67.677  1.00  0.00    -0.050 C  
BRANCH  14  15
HETATM   15  C   UNL     1      -7.150  10.250  68.643  1.00  0.00    -0.075 C  
BRANCH  15  16
HETATM   16  C   UNL     1      -7.026   9.342  69.846  1.00  0.00    -0.071 C  
BRANCH  16  17
HETATM   17  O   UNL     1      -8.002   9.681  70.823  1.00  0.00    -0.288 OA 
BRANCH  17  18
HETATM   18  P   UNL     1      -8.566   8.302  71.703  1.00  0.00    -0.186 P  
HETATM   19  O   UNL     1      -7.548   8.623  72.803  1.00  0.00    -0.338 OA 
HETATM   20  O   UNL     1      -8.289   7.362  70.532  1.00  0.00    -0.128 OA 
BRANCH  18  21
HETATM   21  O   UNL     1      -9.130   6.924  72.583  1.00  0.00    -0.135 OA 
BRANCH  21  22
HETATM   22  C   UNL     1     -10.539   6.719  72.508  1.00  0.00    -0.221 C  
BRANCH  22  23
HETATM   23  C   UNL     1     -11.318   7.994  72.745  1.00  0.00    -0.374 C  
BRANCH  23  24
HETATM   24  N   UNL     1     -12.404   8.304  71.692  1.00  0.00    -0.303 N  
HETATM   25  C   UNL     1     -12.562   7.061  70.838  1.00  0.00    -0.221 C  
HETATM   26  C   UNL     1     -11.956   9.473  70.813  1.00  0.00    -0.252 C  
HETATM   27  C   UNL     1     -13.725   8.647  72.357  1.00  0.00    -0.356 C  
ENDBRANCH  23  24
ENDBRANCH  22  23
ENDBRANCH  21  22
ENDBRANCH  18  21
ENDBRANCH  17  18
ENDBRANCH  16  17
ENDBRANCH  15  16
ENDBRANCH  14  15
ENDBRANCH  13  14
ENDBRANCH  12  13
ENDBRANCH  11  12
ENDBRANCH  10  11
ENDBRANCH   9  10
ENDBRANCH   8   9
ENDBRANCH   7   8
ENDBRANCH   6   7
ENDBRANCH   5   6
ENDBRANCH   4   5
ENDBRANCH   3   4
ENDBRANCH   2   3
TORSDOF 20
ENDMDL
MODEL      281
REMARK 921   NORMALIZED FREE ENERGY PREDICTED BY IDOCK:   -3.05 KCAL/MOL
REMARK 922        TOTAL FREE ENERGY PREDICTED BY IDOCK:   -8.53 KCAL/MOL
REMARK 923 INTER-LIGAND FREE ENERGY PREDICTED BY IDOCK:   -5.73 KCAL/MOL
REMARK 924 INTRA-LIGAND FREE ENERGY PREDICTED BY IDOCK:   -2.80 KCAL/MOL
REMARK 927      BINDING AFFINITY PREDICTED BY RF-SCORE:    0.00 PKD
ROOT
HETATM    1  C   UNL     1      -6.428   3.180  68.623  1.00  0.00    -0.030 C  
HETATM    2  C   UNL     1      -6.074   4.618  68.963  1.00  0.00    -0.030 C  
ENDROOT
BRANCH   2   3
HETATM    3  C   UNL     1      -7.292   5.376  69.487  1.00  0.00    -0.065 C  
BRANCH   3   4
HETATM    4  C   UNL     1      -6.907   6.306  70.632  1.00  0.00    -0.062 C  
BRANCH   4   5
HETATM    5  C   UNL     1      -7.411   7.721  70.371  1.00  0.00    -0.078 C  
BRANCH   5   6
HETATM    6  C   UNL     1      -7.939   8.352  71.654  1.00  0.00    -0.169 C  
BRANCH   6   7
HETATM    7  C   UNL     1      -7.782   7.390  72.825  1.00  0.00    -0.106 C  
BRANCH   7   8
HETATM    8  C   UNL     1      -8.704   7.790  73.970  1.00  0.00    -0.316 C  
BRANCH   8   9
HETATM    9  C   UNL     1      -9.504   6.586  74.442  1.00  0.00    -0.270 C  
BRANCH   9  10
HETATM   10  C   UNL     1      -9.530   5.505  73.373  1.00  0.00    -0.139 C  
BRANCH  10  11
HETATM   11  C   UNL     1     -10.956   5.291  72.891  1.00  0.00    -0.343 C  
BRANCH  11  12
HETATM   12  C   UNL     1     -11.334   6.344  71.864  1.00  0.00    -0.339 C  
BRANCH  12  13
HETATM   13  C   UNL     1     -10.793   5.956  70.495  1.00  0.00    -0.366 C  
BRANCH  13  14
HETATM   14  C   UNL     1     -11.032   7.089  69.517  1.00  0.00    -0.251 C  
BRANCH  14  15
HETATM   15  C   UNL     1     -10.703   6.671  68.091  1.00  0.00    -0.320 C  
BRANCH  15  16
HETATM   16  C   UNL     1      -9.907   7.785  67.450  1.00  0.00    -0.175 C  
BRANCH  16  17
HETATM   17  O   UNL     1     -10.657   8.994  67.450  1.00  0.00    -0.275 OA 
BRANCH  17  18
HETATM   18  P   UNL     1      -9.651  10.399  67.524  1.00  0.00    -0.161 P  
HETATM   19  O   UNL     1      -8.645   9.692  66.610  1.00  0.00    -0.129 OA 
HETATM   20  O   UNL     1      -9.596  10.358  69.049  1.00  0.00    -0.184 OA 
BRANCH  18  21
HETATM   21  O   UNL     1      -8.646  11.806  67.597  1.00  0.00    -0.142 OA 
BRANCH  21  22
HETATM   22  C   UNL     1      -9.277  12.999  67.140  1.00  0.00    -0.226 C  
BRANCH  22  23
HETATM   23  C   UNL     1      -9.804  13.843  68.279  1.00  0.00    -0.231 C  
BRANCH  23  24
HETATM   24  N   UNL     1     -11.258  14.334  68.114  1.00  0.00    -0.263 N  
HETATM   25  C   UNL     1     -12.063  13.729  69.248  1.00  0.00    -0.329 C  
HETATM   26  C   UNL     1     -11.820  13.851  66.776  1.00  0.00    -0.424 C  
HETATM   27  C   UNL     1     -11.333  15.849  68.177  1.00  0.00    -0.311 C  
ENDBRANCH  23  24
ENDBRANCH  22  23
ENDBRANCH  21  22
ENDBRANCH  18  21
ENDBRANCH  17  18
ENDBRANCH  16  17
ENDBRANCH  15  16
ENDBRANCH  14  15
ENDBRANCH  13  14
ENDBRANCH  12  13
ENDBRANCH  11  12
ENDBRANCH  10  11
ENDBRANCH   9  10
ENDBRANCH   8   9
ENDBRANCH   7   8
ENDBRANCH   6   7
ENDBRANCH   5   6
ENDBRANCH   4   5
ENDBRANCH   3   4
ENDBRANCH   2   3
TORSDOF 20
ENDMDL
MODEL      282
REMARK 921   NORMALIZED FREE ENERGY PREDICTED BY IDOCK:   -3.04 KCAL/MOL
REMARK 922        TOTAL FREE ENERGY PREDICTED BY IDOCK:   -8.52 KCAL/MOL
REMARK 923 INTER-LIGAND FREE ENERGY PREDICTED BY IDOCK:   -5.99 KCAL/MOL
REMARK 924 INTRA-LIGAND FREE ENERGY PREDICTED BY IDOCK:   -2.53 KCAL/MOL
REMARK 927      BINDING AFFINITY PREDICTED BY RF-SCORE:    0.00 PKD
ROOT
HETATM    1  C   UNL     1      -9.988   3.619  64.621  1.00  0.00    -0.180 C  
HETATM    2  C   UNL     1     -10.249   4.575  65.773  1.00  0.00    -0.289 C  
ENDROOT
BRANCH   2   3
HETATM    3  C   UNL     1      -9.174   5.657  65.844  1.00  0.00    -0.145 C  
BRANCH   3   4
HETATM    4  C   UNL     1      -9.325   6.497  67.108  1.00  0.00    -0.138 C  
BRANCH   4   5
HETATM    5  C   UNL     1      -7.995   7.136  67.494  1.00  0.00    -0.113 C  
BRANCH   5   6
HETATM    6  C   UNL     1      -7.344   6.373  68.641  1.00  0.00    -0.087 C  
BRANCH   6   7
HETATM    7  C   UNL     1      -6.118   5.615  68.150  1.00  0.00    -0.018 C  
BRANCH   7   8
HETATM    8  C   UNL     1      -6.492   4.191  67.761  1.00  0.00    -0.038 C  
BRANCH   8   9
HETATM    9  C   UNL     1      -6.918   3.406  68.992  1.00  0.00    -0.045 C  
BRANCH   9  10
HETATM   10  C   UNL     1      -8.140   2.554  68.689  1.00  0.00    -0.066 C  
BRANCH  10  11
HETATM   11  C   UNL     1      -9.404   3.317  69.054  1.00  0.00    -0.234 C  
BRANCH  11  12
HETATM   12  C   UNL     1      -9.559   3.400  70.563  1.00  0.00    -0.231 C  
BRANCH  12  13
HETATM   13  C   UNL     1      -9.370   4.837  71.029  1.00  0.00    -0.208 C  
BRANCH  13  14
HETATM   14  C   UNL     1     -10.713   5.427  71.408  1.00  0.00    -0.258 C  
BRANCH  14  15
HETATM   15  C   UNL     1     -11.196   6.426  70.366  1.00  0.00    -0.435 C  
BRANCH  15  16
HETATM   16  C   UNL     1     -10.571   7.767  70.681  1.00  0.00    -0.222 C  
BRANCH  16  17
HETATM   17  O   UNL     1     -11.505   8.814  70.450  1.00  0.00    -0.240 OA 
BRANCH  17  18
HETATM   18  P   UNL     1     -10.813  10.142  69.583  1.00  0.00    -0.293 P  
HETATM   19  O   UNL     1     -11.973  11.022  70.062  1.00  0.00    -0.290 OA 
HETATM   20  O   UNL     1     -10.816   9.367  68.267  1.00  0.00    -0.197 OA 
BRANCH  18  21
HETATM   21  O   UNL     1     -10.120  11.469  68.717  1.00  0.00    -0.213 OA 
BRANCH  21  22
HETATM   22  C   UNL     1     -11.067  12.442  68.283  1.00  0.00    -0.243 C  
BRANCH  22  23
HETATM   23  C   UNL     1     -11.266  12.421  66.784  1.00  0.00    -0.310 C  
BRANCH  23  24
HETATM   24  N   UNL     1     -11.474  13.805  66.131  1.00  0.00    -0.328 N  
HETATM   25  C   UNL     1     -10.347  14.001  65.136  1.00  0.00    -0.400 C  
HETATM   26  C   UNL     1     -11.407  14.898  67.199  1.00  0.00    -0.343 C  
HETATM   27  C   UNL     1     -12.813  13.876  65.418  1.00  0.00    -0.427 C  
ENDBRANCH  23  24
ENDBRANCH  22  23
ENDBRANCH  21  22
ENDBRANCH  18  21
ENDBRANCH  17  18
ENDBRANCH  16  17
ENDBRANCH  15  16
ENDBRANCH  14  15
ENDBRANCH  13  14
ENDBRANCH  12  13
ENDBRANCH  11  12
ENDBRANCH  10  11
ENDBRANCH   9  10
ENDBRANCH   8   9
ENDBRANCH   7   8
ENDBRANCH   6   7
ENDBRANCH   5   6
ENDBRANCH   4   5
ENDBRANCH   3   4
ENDBRANCH   2   3
TORSDOF 20
ENDMDL
MODEL      283
REMARK 921   NORMALIZED FREE ENERGY PREDICTED BY IDOCK:   -3.04 KCAL/MOL
REMARK 922        TOTAL FREE ENERGY PREDICTED BY IDOCK:   -8.51 KCAL/MOL
REMARK 923 INTER-LIGAND FREE ENERGY PREDICTED BY IDOCK:   -7.61 KCAL/MOL
REMARK 924 INTRA-LIGAND FREE ENERGY PREDICTED BY IDOCK:   -0.90 KCAL/MOL
REMARK 927      BINDING AFFINITY PREDICTED BY RF-SCORE:    0.00 PKD
ROOT
HETATM    1  C   UNL     1      -5.323  14.534  71.456  1.00  0.00    -0.152 C  
HETATM    2  C   UNL     1      -5.440  15.723  70.517  1.00  0.00    -0.141 C  
ENDROOT
BRANCH   2   3
HETATM    3  C   UNL     1      -6.554  15.509  69.495  1.00  0.00    -0.172 C  
BRANCH   3   4
HETATM    4  C   UNL     1      -6.751  14.026  69.200  1.00  0.00    -0.112 C  
BRANCH   4   5
HETATM    5  C   UNL     1      -6.318  13.697  67.776  1.00  0.00    -0.172 C  
BRANCH   5   6
HETATM    6  C   UNL     1      -5.351  12.518  67.765  1.00  0.00    -0.104 C  
BRANCH   6   7
HETATM    7  C   UNL     1      -5.911  11.377  66.926  1.00  0.00    -0.121 C  
BRANCH   7   8
HETATM    8  C   UNL     1      -7.422  11.508  66.788  1.00  0.00    -0.118 C  
BRANCH   8   9
HETATM    9  C   UNL     1      -8.078  10.140  66.896  1.00  0.00    -0.121 C  
BRANCH   9  10
HETATM   10  C   UNL     1      -9.559  10.228  66.565  1.00  0.00    -0.228 C  
BRANCH  10  11
HETATM   11  C   UNL     1      -9.773   9.972  65.082  1.00  0.00    -0.380 C  
BRANCH  11  12
HETATM   12  C   UNL     1      -9.416  11.207  64.272  1.00  0.00    -0.242 C  
BRANCH  12  13
HETATM   13  C   UNL     1     -10.673  11.817  63.669  1.00  0.00    -0.503 C  
BRANCH  13  14
HETATM   14  C   UNL     1     -11.744  11.927  64.735  1.00  0.00    -0.282 C  
BRANCH  14  15
HETATM   15  C   UNL     1     -12.820  12.929  64.342  1.00  0.00    -0.235 C  
BRANCH  15  16
HETATM   16  C   UNL     1     -12.162  14.281  64.182  1.00  0.00    -0.378 C  
BRANCH  16  17
HETATM   17  O   UNL     1     -11.120  14.441  65.136  1.00  0.00    -0.325 OA 
BRANCH  17  18
HETATM   18  P   UNL     1     -10.674  16.097  65.361  1.00  0.00    -0.204 P  
HETATM   19  O   UNL     1     -11.434  16.447  64.078  1.00  0.00    -1.048 OA 
HETATM   20  O   UNL     1      -9.186  15.757  65.407  1.00  0.00    -0.243 OA 
BRANCH  18  21
HETATM   21  O   UNL     1     -10.228  17.753  65.588  1.00  0.00    -0.590 OA 
BRANCH  21  22
HETATM   22  C   UNL     1     -10.494  18.257  66.894  1.00  0.00    -0.373 C  
BRANCH  22  23
HETATM   23  C   UNL     1      -9.305  18.110  67.819  1.00  0.00    -0.267 C  
BRANCH  23  24
HETATM   24  N   UNL     1      -8.284  19.268  67.762  1.00  0.00    -0.281 N  
HETATM   25  C   UNL     1      -9.057  20.524  67.411  1.00  0.00    -0.327 C  
HETATM   26  C   UNL     1      -7.245  18.989  66.675  1.00  0.00    -0.215 C  
HETATM   27  C   UNL     1      -7.586  19.444  69.098  1.00  0.00    -0.281 C  
ENDBRANCH  23  24
ENDBRANCH  22  23
ENDBRANCH  21  22
ENDBRANCH  18  21
ENDBRANCH  17  18
ENDBRANCH  16  17
ENDBRANCH  15  16
ENDBRANCH  14  15
ENDBRANCH  13  14
ENDBRANCH  12  13
ENDBRANCH  11  12
ENDBRANCH  10  11
ENDBRANCH   9  10
ENDBRANCH   8   9
ENDBRANCH   7   8
ENDBRANCH   6   7
ENDBRANCH   5   6
ENDBRANCH   4   5
ENDBRANCH   3   4
ENDBRANCH   2   3
TORSDOF 20
ENDMDL
MODEL      284
REMARK 921   NORMALIZED FREE ENERGY PREDICTED BY IDOCK:   -3.03 KCAL/MOL
REMARK 922        TOTAL FREE ENERGY PREDICTED BY IDOCK:   -8.50 KCAL/MOL
REMARK 923 INTER-LIGAND FREE ENERGY PREDICTED BY IDOCK:   -7.18 KCAL/MOL
REMARK 924 INTRA-LIGAND FREE ENERGY PREDICTED BY IDOCK:   -1.32 KCAL/MOL
REMARK 927      BINDING AFFINITY PREDICTED BY RF-SCORE:    0.00 PKD
ROOT
HETATM    1  C   UNL     1     -12.014  15.419  71.508  1.00  0.00    -0.443 C  
HETATM    2  C   UNL     1     -11.328  14.642  70.397  1.00  0.00    -0.232 C  
ENDROOT
BRANCH   2   3
HETATM    3  C   UNL     1     -11.721  15.183  69.024  1.00  0.00    -0.358 C  
BRANCH   3   4
HETATM    4  C   UNL     1     -11.141  14.320  67.908  1.00  0.00    -0.293 C  
BRANCH   4   5
HETATM    5  C   UNL     1     -12.144  14.161  66.772  1.00  0.00    -0.474 C  
BRANCH   5   6
HETATM    6  C   UNL     1     -11.634  14.835  65.503  1.00  0.00    -0.301 C  
BRANCH   6   7
HETATM    7  C   UNL     1     -12.339  14.270  64.278  1.00  0.00    -0.407 C  
BRANCH   7   8
HETATM    8  C   UNL     1     -12.582  12.775  64.445  1.00  0.00    -0.431 C  
BRANCH   8   9
HETATM    9  C   UNL     1     -12.037  12.019  63.243  1.00  0.00    -0.509 C  
BRANCH   9  10
HETATM   10  C   UNL     1     -10.580  11.644  63.460  1.00  0.00    -0.496 C  
BRANCH  10  11
HETATM   11  C   UNL     1     -10.287  11.555  64.950  1.00  0.00    -0.340 C  
BRANCH  11  12
HETATM   12  C   UNL     1     -10.002  10.119  65.352  1.00  0.00    -0.377 C  
BRANCH  12  13
HETATM   13  C   UNL     1      -8.534   9.961  65.719  1.00  0.00    -0.142 C  
BRANCH  13  14
HETATM   14  C   UNL     1      -8.417   9.557  67.175  1.00  0.00    -0.131 C  
BRANCH  14  15
HETATM   15  C   UNL     1      -8.666  10.739  68.101  1.00  0.00    -0.130 C  
BRANCH  15  16
HETATM   16  C   UNL     1      -8.988  10.196  69.476  1.00  0.00    -0.188 C  
BRANCH  16  17
HETATM   17  O   UNL     1     -10.100   9.312  69.409  1.00  0.00    -0.183 OA 
BRANCH  17  18
HETATM   18  P   UNL     1      -9.876   7.890  70.369  1.00  0.00    -0.184 P  
HETATM   19  O   UNL     1     -11.384   7.631  70.288  1.00  0.00    -0.262 OA 
HETATM   20  O   UNL     1      -9.204   8.677  71.492  1.00  0.00    -0.200 OA 
BRANCH  18  21
HETATM   21  O   UNL     1      -9.650   6.468  71.328  1.00  0.00    -0.166 OA 
BRANCH  21  22
HETATM   22  C   UNL     1     -10.507   5.384  70.977  1.00  0.00    -0.232 C  
BRANCH  22  23
HETATM   23  C   UNL     1      -9.733   4.142  70.593  1.00  0.00    -0.203 C  
BRANCH  23  24
HETATM   24  N   UNL     1      -9.165   4.141  69.157  1.00  0.00    -0.133 N  
HETATM   25  C   UNL     1      -9.265   2.719  68.641  1.00  0.00    -0.178 C  
HETATM   26  C   UNL     1      -7.698   4.574  69.179  1.00  0.00    -0.059 C  
HETATM   27  C   UNL     1      -9.955   5.075  68.258  1.00  0.00    -0.129 C  
ENDBRANCH  23  24
ENDBRANCH  22  23
ENDBRANCH  21  22
ENDBRANCH  18  21
ENDBRANCH  17  18
ENDBRANCH  16  17
ENDBRANCH  15  16
ENDBRANCH  14  15
ENDBRANCH  13  14
ENDBRANCH  12  13
ENDBRANCH  11  12
ENDBRANCH  10  11
ENDBRANCH   9  10
ENDBRANCH   8   9
ENDBRANCH   7   8
ENDBRANCH   6   7
ENDBRANCH   5   6
ENDBRANCH   4   5
ENDBRANCH   3   4
ENDBRANCH   2   3
TORSDOF 20
ENDMDL
MODEL      285
REMARK 921   NORMALIZED FREE ENERGY PREDICTED BY IDOCK:   -3.01 KCAL/MOL
REMARK 922        TOTAL FREE ENERGY PREDICTED BY IDOCK:   -8.45 KCAL/MOL
REMARK 923 INTER-LIGAND FREE ENERGY PREDICTED BY IDOCK:   -6.81 KCAL/MOL
REMARK 924 INTRA-LIGAND FREE ENERGY PREDICTED BY IDOCK:   -1.64 KCAL/MOL
REMARK 927      BINDING AFFINITY PREDICTED BY RF-SCORE:    0.00 PKD
ROOT
HETATM    1  C   UNL     1      -9.342  12.353  68.788  1.00  0.00     0.109 C  
HETATM    2  C   UNL     1      -9.568  10.854  68.679  1.00  0.00    -0.192 C  
ENDROOT
BRANCH   2   3
HETATM    3  C   UNL     1      -8.413  10.076  69.305  1.00  0.00    -0.165 C  
BRANCH   3   4
HETATM    4  C   UNL     1      -7.097  10.832  69.154  1.00  0.00    -0.101 C  
BRANCH   4   5
HETATM    5  C   UNL     1      -6.002   9.910  68.630  1.00  0.00    -0.038 C  
BRANCH   5   6
HETATM    6  C   UNL     1      -6.420   9.271  67.311  1.00  0.00    -0.060 C  
BRANCH   6   7
HETATM    7  C   UNL     1      -6.644   7.776  67.489  1.00  0.00    -0.063 C  
BRANCH   7   8
HETATM    8  C   UNL     1      -7.376   7.199  66.284  1.00  0.00    -0.076 C  
BRANCH   8   9
HETATM    9  C   UNL     1      -8.472   8.152  65.832  1.00  0.00    -0.153 C  
BRANCH   9  10
HETATM   10  C   UNL     1      -8.117   8.782  64.495  1.00  0.00    -0.156 C  
BRANCH  10  11
HETATM   11  C   UNL     1      -9.001   9.994  64.245  1.00  0.00    -0.269 C  
BRANCH  11  12
HETATM   12  C   UNL     1     -10.088  10.086  65.302  1.00  0.00    -0.299 C  
BRANCH  12  13
HETATM   13  C   UNL     1     -10.914  11.348  65.092  1.00  0.00    -0.259 C  
BRANCH  13  14
HETATM   14  C   UNL     1     -10.970  11.677  63.614  1.00  0.00    -0.507 C  
BRANCH  14  15
HETATM   15  C   UNL     1     -11.798  12.926  63.354  1.00  0.00    -0.576 C  
BRANCH  15  16
HETATM   16  C   UNL     1     -11.709  13.810  64.577  1.00  0.00    -0.407 C  
BRANCH  16  17
HETATM   17  O   UNL     1     -10.389  14.322  64.722  1.00  0.00    -0.433 OA 
BRANCH  17  18
HETATM   18  P   UNL     1     -10.348  15.812  65.599  1.00  0.00    -0.401 P  
HETATM   19  O   UNL     1     -11.019  15.104  66.780  1.00  0.00    -0.318 OA 
HETATM   20  O   UNL     1     -11.111  16.552  64.502  1.00  0.00    -0.821 OA 
BRANCH  18  21
HETATM   21  O   UNL     1     -10.306  17.303  66.476  1.00  0.00    -0.321 OA 
BRANCH  21  22
HETATM   22  C   UNL     1      -9.485  17.273  67.640  1.00  0.00    -0.246 C  
BRANCH  22  23
HETATM   23  C   UNL     1      -8.051  16.911  67.323  1.00  0.00    -0.184 C  
BRANCH  23  24
HETATM   24  N   UNL     1      -6.984  17.707  68.107  1.00  0.00    -0.203 N  
HETATM   25  C   UNL     1      -7.587  19.060  68.427  1.00  0.00    -0.308 C  
HETATM   26  C   UNL     1      -5.737  17.896  67.241  1.00  0.00    -0.137 C  
HETATM   27  C   UNL     1      -6.606  16.991  69.391  1.00  0.00    -0.225 C  
ENDBRANCH  23  24
ENDBRANCH  22  23
ENDBRANCH  21  22
ENDBRANCH  18  21
ENDBRANCH  17  18
ENDBRANCH  16  17
ENDBRANCH  15  16
ENDBRANCH  14  15
ENDBRANCH  13  14
ENDBRANCH  12  13
ENDBRANCH  11  12
ENDBRANCH  10  11
ENDBRANCH   9  10
ENDBRANCH   8   9
ENDBRANCH   7   8
ENDBRANCH   6   7
ENDBRANCH   5   6
ENDBRANCH   4   5
ENDBRANCH   3   4
ENDBRANCH   2   3
TORSDOF 20
ENDMDL
MODEL      286
REMARK 921   NORMALIZED FREE ENERGY PREDICTED BY IDOCK:   -3.00 KCAL/MOL
REMARK 922        TOTAL FREE ENERGY PREDICTED BY IDOCK:   -8.43 KCAL/MOL
REMARK 923 INTER-LIGAND FREE ENERGY PREDICTED BY IDOCK:   -6.23 KCAL/MOL
REMARK 924 INTRA-LIGAND FREE ENERGY PREDICTED BY IDOCK:   -2.20 KCAL/MOL
REMARK 927      BINDING AFFINITY PREDICTED BY RF-SCORE:    0.00 PKD
ROOT
HETATM    1  C   UNL     1     -10.921   6.228  67.275  1.00  0.00    -0.455 C  
HETATM    2  C   UNL     1     -10.470   5.731  68.638  1.00  0.00    -0.298 C  
ENDROOT
BRANCH   2   3
HETATM    3  C   UNL     1      -8.956   5.537  68.681  1.00  0.00    -0.118 C  
BRANCH   3   4
HETATM    4  C   UNL     1      -8.590   4.232  69.380  1.00  0.00    -0.109 C  
BRANCH   4   5
HETATM    5  C   UNL     1      -9.576   3.128  69.013  1.00  0.00    -0.084 C  
BRANCH   5   6
HETATM    6  C   UNL     1      -9.876   2.250  70.222  1.00  0.00     0.146 C  
BRANCH   6   7
HETATM    7  C   UNL     1      -8.894   2.539  71.349  1.00  0.00    -0.126 C  
BRANCH   7   8
HETATM    8  C   UNL     1      -9.632   2.688  72.673  1.00  0.00    -0.171 C  
BRANCH   8   9
HETATM    9  C   UNL     1     -10.455   3.967  72.673  1.00  0.00    -0.204 C  
BRANCH   9  10
HETATM   10  C   UNL     1      -9.730   5.071  73.426  1.00  0.00    -0.158 C  
BRANCH  10  11
HETATM   11  C   UNL     1      -9.497   6.257  72.503  1.00  0.00    -0.143 C  
BRANCH  11  12
HETATM   12  C   UNL     1     -10.729   7.143  72.453  1.00  0.00    -0.273 C  
BRANCH  12  13
HETATM   13  C   UNL     1     -10.321   8.608  72.500  1.00  0.00    -0.229 C  
BRANCH  13  14
HETATM   14  C   UNL     1      -9.878   9.056  71.122  1.00  0.00    -0.371 C  
BRANCH  14  15
HETATM   15  C   UNL     1     -11.030   9.018  70.128  1.00  0.00    -0.256 C  
BRANCH  15  16
HETATM   16  C   UNL     1     -10.500   9.459  68.782  1.00  0.00    -0.212 C  
BRANCH  16  17
HETATM   17  O   UNL     1     -11.456  10.278  68.119  1.00  0.00    -0.270 OA 
BRANCH  17  18
HETATM   18  P   UNL     1     -11.230  11.961  68.450  1.00  0.00    -0.314 P  
HETATM   19  O   UNL     1     -11.986  12.288  67.159  1.00  0.00    -0.564 OA 
HETATM   20  O   UNL     1      -9.713  11.806  68.536  1.00  0.00    -0.200 OA 
BRANCH  18  21
HETATM   21  O   UNL     1     -11.004  13.644  68.783  1.00  0.00    -0.251 OA 
BRANCH  21  22
HETATM   22  C   UNL     1     -10.870  14.456  67.620  1.00  0.00    -0.273 C  
BRANCH  22  23
HETATM   23  C   UNL     1      -9.425  14.780  67.309  1.00  0.00    -0.214 C  
BRANCH  23  24
HETATM   24  N   UNL     1      -9.034  16.264  67.477  1.00  0.00    -0.187 N  
HETATM   25  C   UNL     1      -8.245  16.372  68.767  1.00  0.00    -0.234 C  
HETATM   26  C   UNL     1     -10.296  17.124  67.578  1.00  0.00    -0.341 C  
HETATM   27  C   UNL     1      -8.189  16.741  66.310  1.00  0.00    -0.324 C  
ENDBRANCH  23  24
ENDBRANCH  22  23
ENDBRANCH  21  22
ENDBRANCH  18  21
ENDBRANCH  17  18
ENDBRANCH  16  17
ENDBRANCH  15  16
ENDBRANCH  14  15
ENDBRANCH  13  14
ENDBRANCH  12  13
ENDBRANCH  11  12
ENDBRANCH  10  11
ENDBRANCH   9  10
ENDBRANCH   8   9
ENDBRANCH   7   8
ENDBRANCH   6   7
ENDBRANCH   5   6
ENDBRANCH   4   5
ENDBRANCH   3   4
ENDBRANCH   2   3
TORSDOF 20
ENDMDL
MODEL      287
REMARK 921   NORMALIZED FREE ENERGY PREDICTED BY IDOCK:   -3.00 KCAL/MOL
REMARK 922        TOTAL FREE ENERGY PREDICTED BY IDOCK:   -8.43 KCAL/MOL
REMARK 923 INTER-LIGAND FREE ENERGY PREDICTED BY IDOCK:   -6.64 KCAL/MOL
REMARK 924 INTRA-LIGAND FREE ENERGY PREDICTED BY IDOCK:   -1.79 KCAL/MOL
REMARK 927      BINDING AFFINITY PREDICTED BY RF-SCORE:    0.00 PKD
ROOT
HETATM    1  C   UNL     1     -10.499   7.024  73.305  1.00  0.00    -0.365 C  
HETATM    2  C   UNL     1     -11.407   7.376  72.139  1.00  0.00    -0.311 C  
ENDROOT
BRANCH   2   3
HETATM    3  C   UNL     1     -11.995   8.776  72.302  1.00  0.00    -0.415 C  
BRANCH   3   4
HETATM    4  C   UNL     1     -12.028   9.516  70.969  1.00  0.00    -0.407 C  
BRANCH   4   5
HETATM    5  C   UNL     1     -10.626   9.632  70.381  1.00  0.00    -0.354 C  
BRANCH   5   6
HETATM    6  C   UNL     1     -10.518   8.840  69.083  1.00  0.00    -0.230 C  
BRANCH   6   7
HETATM    7  C   UNL     1      -9.058   8.587  68.733  1.00  0.00    -0.143 C  
BRANCH   7   8
HETATM    8  C   UNL     1      -8.775   7.091  68.673  1.00  0.00    -0.123 C  
BRANCH   8   9
HETATM    9  C   UNL     1      -9.389   6.492  67.417  1.00  0.00    -0.125 C  
BRANCH   9  10
HETATM   10  C   UNL     1      -9.235   7.441  66.239  1.00  0.00    -0.182 C  
BRANCH  10  11
HETATM   11  C   UNL     1      -8.450   6.761  65.129  1.00  0.00    -0.035 C  
BRANCH  11  12
HETATM   12  C   UNL     1      -7.772   7.795  64.247  1.00  0.00    -0.124 C  
BRANCH  12  13
HETATM   13  C   UNL     1      -7.558   9.086  65.026  1.00  0.00    -0.103 C  
BRANCH  13  14
HETATM   14  C   UNL     1      -7.821  10.273  64.121  1.00  0.00    -0.111 C  
BRANCH  14  15
HETATM   15  C   UNL     1      -9.219  10.217  63.523  1.00  0.00    -0.322 C  
BRANCH  15  16
HETATM   16  C   UNL     1     -10.062  11.269  64.209  1.00  0.00    -0.313 C  
BRANCH  16  17
HETATM   17  O   UNL     1     -10.570  10.771  65.441  1.00  0.00    -0.242 OA 
BRANCH  17  18
HETATM   18  P   UNL     1     -10.555  11.963  66.695  1.00  0.00    -0.259 P  
HETATM   19  O   UNL     1      -9.137  11.515  67.065  1.00  0.00    -0.167 OA 
HETATM   20  O   UNL     1     -11.822  11.399  67.333  1.00  0.00    -0.609 OA 
BRANCH  18  21
HETATM   21  O   UNL     1     -10.541  13.156  67.948  1.00  0.00    -0.225 OA 
BRANCH  21  22
HETATM   22  C   UNL     1      -9.575  14.187  67.761  1.00  0.00    -0.219 C  
BRANCH  22  23
HETATM   23  C   UNL     1      -9.987  15.485  68.422  1.00  0.00    -0.214 C  
BRANCH  23  24
HETATM   24  N   UNL     1      -9.624  16.764  67.638  1.00  0.00    -0.241 N  
HETATM   25  C   UNL     1      -8.481  17.430  68.378  1.00  0.00    -0.263 C  
HETATM   26  C   UNL     1     -10.827  17.709  67.602  1.00  0.00    -0.221 C  
HETATM   27  C   UNL     1      -9.199  16.431  66.219  1.00  0.00    -0.315 C  
ENDBRANCH  23  24
ENDBRANCH  22  23
ENDBRANCH  21  22
ENDBRANCH  18  21
ENDBRANCH  17  18
ENDBRANCH  16  17
ENDBRANCH  15  16
ENDBRANCH  14  15
ENDBRANCH  13  14
ENDBRANCH  12  13
ENDBRANCH  11  12
ENDBRANCH  10  11
ENDBRANCH   9  10
ENDBRANCH   8   9
ENDBRANCH   7   8
ENDBRANCH   6   7
ENDBRANCH   5   6
ENDBRANCH   4   5
ENDBRANCH   3   4
ENDBRANCH   2   3
TORSDOF 20
ENDMDL
MODEL      288
REMARK 921   NORMALIZED FREE ENERGY PREDICTED BY IDOCK:   -2.99 KCAL/MOL
REMARK 922        TOTAL FREE ENERGY PREDICTED BY IDOCK:   -8.42 KCAL/MOL
REMARK 923 INTER-LIGAND FREE ENERGY PREDICTED BY IDOCK:   -5.98 KCAL/MOL
REMARK 924 INTRA-LIGAND FREE ENERGY PREDICTED BY IDOCK:   -2.43 KCAL/MOL
REMARK 927      BINDING AFFINITY PREDICTED BY RF-SCORE:    0.00 PKD
ROOT
HETATM    1  C   UNL     1      -8.581   2.901  68.412  1.00  0.00    -0.117 C  
HETATM    2  C   UNL     1      -9.498   3.909  69.083  1.00  0.00    -0.246 C  
ENDROOT
BRANCH   2   3
HETATM    3  C   UNL     1      -9.264   5.315  68.537  1.00  0.00    -0.138 C  
BRANCH   3   4
HETATM    4  C   UNL     1      -8.517   5.270  67.208  1.00  0.00    -0.106 C  
BRANCH   4   5
HETATM    5  C   UNL     1      -7.341   6.241  67.217  1.00  0.00    -0.083 C  
BRANCH   5   6
HETATM    6  C   UNL     1      -6.556   6.126  68.518  1.00  0.00    -0.059 C  
BRANCH   6   7
HETATM    7  C   UNL     1      -6.313   7.504  69.118  1.00  0.00    -0.035 C  
BRANCH   7   8
HETATM    8  C   UNL     1      -7.584   8.032  69.772  1.00  0.00    -0.092 C  
BRANCH   8   9
HETATM    9  C   UNL     1      -7.676   9.540  69.596  1.00  0.00    -0.112 C  
BRANCH   9  10
HETATM   10  C   UNL     1      -8.406   9.886  68.308  1.00  0.00    -0.110 C  
BRANCH  10  11
HETATM   11  C   UNL     1      -9.578   8.938  68.109  1.00  0.00    -0.161 C  
BRANCH  11  12
HETATM   12  C   UNL     1     -10.258   9.204  66.778  1.00  0.00    -0.331 C  
BRANCH  12  13
HETATM   13  C   UNL     1      -9.267   9.011  65.638  1.00  0.00    -0.288 C  
BRANCH  13  14
HETATM   14  C   UNL     1      -9.099  10.317  64.887  1.00  0.00    -0.250 C  
BRANCH  14  15
HETATM   15  C   UNL     1     -10.408  10.769  64.257  1.00  0.00    -0.401 C  
BRANCH  15  16
HETATM   16  C   UNL     1     -10.619  12.224  64.611  1.00  0.00    -0.303 C  
BRANCH  16  17
HETATM   17  O   UNL     1      -9.973  12.533  65.840  1.00  0.00    -0.253 OA 
BRANCH  17  18
HETATM   18  P   UNL     1     -11.000  13.399  66.930  1.00  0.00    -0.294 P  
HETATM   19  O   UNL     1     -10.441  12.558  68.082  1.00  0.00    -0.215 OA 
HETATM   20  O   UNL     1     -12.254  13.036  66.138  1.00  0.00    -0.422 OA 
BRANCH  18  21
HETATM   21  O   UNL     1     -12.027  14.267  68.019  1.00  0.00    -0.347 OA 
BRANCH  21  22
HETATM   22  C   UNL     1     -11.721  15.655  68.130  1.00  0.00    -0.199 C  
BRANCH  22  23
HETATM   23  C   UNL     1     -10.690  16.098  67.116  1.00  0.00    -0.262 C  
BRANCH  23  24
HETATM   24  N   UNL     1      -9.718  17.193  67.605  1.00  0.00    -0.258 N  
HETATM   25  C   UNL     1      -8.627  17.319  66.559  1.00  0.00    -0.264 C  
HETATM   26  C   UNL     1      -9.097  16.777  68.940  1.00  0.00    -0.230 C  
HETATM   27  C   UNL     1     -10.433  18.522  67.771  1.00  0.00    -0.408 C  
ENDBRANCH  23  24
ENDBRANCH  22  23
ENDBRANCH  21  22
ENDBRANCH  18  21
ENDBRANCH  17  18
ENDBRANCH  16  17
ENDBRANCH  15  16
ENDBRANCH  14  15
ENDBRANCH  13  14
ENDBRANCH  12  13
ENDBRANCH  11  12
ENDBRANCH  10  11
ENDBRANCH   9  10
ENDBRANCH   8   9
ENDBRANCH   7   8
ENDBRANCH   6   7
ENDBRANCH   5   6
ENDBRANCH   4   5
ENDBRANCH   3   4
ENDBRANCH   2   3
TORSDOF 20
ENDMDL
MODEL      289
REMARK 921   NORMALIZED FREE ENERGY PREDICTED BY IDOCK:   -2.99 KCAL/MOL
REMARK 922        TOTAL FREE ENERGY PREDICTED BY IDOCK:   -8.40 KCAL/MOL
REMARK 923 INTER-LIGAND FREE ENERGY PREDICTED BY IDOCK:   -6.93 KCAL/MOL
REMARK 924 INTRA-LIGAND FREE ENERGY PREDICTED BY IDOCK:   -1.48 KCAL/MOL
REMARK 927      BINDING AFFINITY PREDICTED BY RF-SCORE:    0.00 PKD
ROOT
HETATM    1  C   UNL     1     -10.487  20.014  66.317  1.00  0.00    -0.536 C  
HETATM    2  C   UNL     1      -9.912  20.123  67.719  1.00  0.00    -0.549 C  
ENDROOT
BRANCH   2   3
HETATM    3  C   UNL     1      -9.594  18.744  68.292  1.00  0.00    -0.395 C  
BRANCH   3   4
HETATM    4  C   UNL     1      -8.122  18.638  68.678  1.00  0.00    -0.352 C  
BRANCH   4   5
HETATM    5  C   UNL     1      -7.632  17.200  68.546  1.00  0.00    -0.245 C  
BRANCH   5   6
HETATM    6  C   UNL     1      -8.807  16.229  68.528  1.00  0.00    -0.219 C  
BRANCH   6   7
HETATM    7  C   UNL     1      -8.836  15.451  67.219  1.00  0.00    -0.212 C  
BRANCH   7   8
HETATM    8  C   UNL     1     -10.061  14.548  67.163  1.00  0.00    -0.252 C  
BRANCH   8   9
HETATM    9  C   UNL     1     -11.258  15.322  66.631  1.00  0.00    -0.232 C  
BRANCH   9  10
HETATM   10  C   UNL     1     -11.572  14.908  65.202  1.00  0.00    -0.330 C  
BRANCH  10  11
HETATM   11  C   UNL     1     -10.639  13.786  64.773  1.00  0.00    -0.444 C  
BRANCH  11  12
HETATM   12  C   UNL     1     -11.431  12.638  64.171  1.00  0.00    -0.447 C  
BRANCH  12  13
HETATM   13  C   UNL     1     -11.235  11.377  65.001  1.00  0.00    -0.159 C  
BRANCH  13  14
HETATM   14  C   UNL     1      -9.791  11.287  65.453  1.00  0.00    -0.281 C  
BRANCH  14  15
HETATM   15  C   UNL     1      -9.461   9.900  65.984  1.00  0.00    -0.258 C  
BRANCH  15  16
HETATM   16  C   UNL     1     -10.432   9.582  67.099  1.00  0.00    -0.253 C  
BRANCH  16  17
HETATM   17  O   UNL     1     -10.068   8.367  67.742  1.00  0.00    -0.183 OA 
BRANCH  17  18
HETATM   18  P   UNL     1     -10.510   8.342  69.414  1.00  0.00    -0.162 P  
HETATM   19  O   UNL     1     -11.008   6.904  69.231  1.00  0.00    -0.244 OA 
HETATM   20  O   UNL     1     -11.395   9.577  69.264  1.00  0.00    -0.073 OA 
BRANCH  18  21
HETATM   21  O   UNL     1     -10.952   8.317  71.086  1.00  0.00    -0.234 OA 
BRANCH  21  22
HETATM   22  C   UNL     1      -9.977   8.886  71.956  1.00  0.00    -0.268 C  
BRANCH  22  23
HETATM   23  C   UNL     1      -8.563   8.587  71.508  1.00  0.00    -0.181 C  
BRANCH  23  24
HETATM   24  N   UNL     1      -7.769   7.639  72.434  1.00  0.00    -0.093 N  
HETATM   25  C   UNL     1      -6.577   8.420  72.951  1.00  0.00    -0.092 C  
HETATM   26  C   UNL     1      -7.278   6.429  71.638  1.00  0.00    -0.086 C  
HETATM   27  C   UNL     1      -8.625   7.169  73.595  1.00  0.00    -0.146 C  
ENDBRANCH  23  24
ENDBRANCH  22  23
ENDBRANCH  21  22
ENDBRANCH  18  21
ENDBRANCH  17  18
ENDBRANCH  16  17
ENDBRANCH  15  16
ENDBRANCH  14  15
ENDBRANCH  13  14
ENDBRANCH  12  13
ENDBRANCH  11  12
ENDBRANCH  10  11
ENDBRANCH   9  10
ENDBRANCH   8   9
ENDBRANCH   7   8
ENDBRANCH   6   7
ENDBRANCH   5   6
ENDBRANCH   4   5
ENDBRANCH   3   4
ENDBRANCH   2   3
TORSDOF 20
ENDMDL
MODEL      290
REMARK 921   NORMALIZED FREE ENERGY PREDICTED BY IDOCK:   -2.98 KCAL/MOL
REMARK 922        TOTAL FREE ENERGY PREDICTED BY IDOCK:   -8.38 KCAL/MOL
REMARK 923 INTER-LIGAND FREE ENERGY PREDICTED BY IDOCK:   -6.85 KCAL/MOL
REMARK 924 INTRA-LIGAND FREE ENERGY PREDICTED BY IDOCK:   -1.54 KCAL/MOL
REMARK 927      BINDING AFFINITY PREDICTED BY RF-SCORE:    0.00 PKD
ROOT
HETATM    1  C   UNL     1     -11.590   9.912  71.189  1.00  0.00    -0.468 C  
HETATM    2  C   UNL     1     -12.182   8.524  71.362  1.00  0.00    -0.343 C  
ENDROOT
BRANCH   2   3
HETATM    3  C   UNL     1     -11.177   7.444  70.968  1.00  0.00    -0.285 C  
BRANCH   3   4
HETATM    4  C   UNL     1     -11.750   6.529  69.891  1.00  0.00    -0.349 C  
BRANCH   4   5
HETATM    5  C   UNL     1     -10.715   5.499  69.451  1.00  0.00    -0.312 C  
BRANCH   5   6
HETATM    6  C   UNL     1     -10.346   5.697  67.986  1.00  0.00    -0.258 C  
BRANCH   6   7
HETATM    7  C   UNL     1     -11.149   6.842  67.383  1.00  0.00    -0.366 C  
BRANCH   7   8
HETATM    8  C   UNL     1     -10.225   7.829  66.682  1.00  0.00    -0.288 C  
BRANCH   8   9
HETATM    9  C   UNL     1      -8.788   7.335  66.742  1.00  0.00    -0.143 C  
BRANCH   9  10
HETATM   10  C   UNL     1      -7.888   8.378  67.385  1.00  0.00    -0.099 C  
BRANCH  10  11
HETATM   11  C   UNL     1      -8.295   8.588  68.835  1.00  0.00    -0.118 C  
BRANCH  11  12
HETATM   12  C   UNL     1      -8.255  10.063  69.192  1.00  0.00    -0.137 C  
BRANCH  12  13
HETATM   13  C   UNL     1      -9.479  10.770  68.628  1.00  0.00    -0.188 C  
BRANCH  13  14
HETATM   14  C   UNL     1      -9.053  12.053  67.944  1.00  0.00    -0.183 C  
BRANCH  14  15
HETATM   15  C   UNL     1      -7.653  11.933  67.358  1.00  0.00    -0.151 C  
BRANCH  15  16
HETATM   16  C   UNL     1      -6.702  12.682  68.264  1.00  0.00    -0.081 C  
BRANCH  16  17
HETATM   17  O   UNL     1      -6.117  13.777  67.570  1.00  0.00    -0.306 OA 
BRANCH  17  18
HETATM   18  P   UNL     1      -6.779  15.300  68.055  1.00  0.00    -0.175 P  
HETATM   19  O   UNL     1      -6.958  14.739  69.470  1.00  0.00    -0.155 OA 
HETATM   20  O   UNL     1      -7.856  15.249  66.975  1.00  0.00    -0.210 OA 
BRANCH  18  21
HETATM   21  O   UNL     1      -7.440  16.823  68.541  1.00  0.00    -0.191 OA 
BRANCH  21  22
HETATM   22  C   UNL     1      -8.704  17.125  67.956  1.00  0.00    -0.221 C  
BRANCH  22  23
HETATM   23  C   UNL     1      -8.599  18.169  66.867  1.00  0.00    -0.258 C  
BRANCH  23  24
HETATM   24  N   UNL     1      -9.302  19.509  67.173  1.00  0.00    -0.315 N  
HETATM   25  C   UNL     1      -8.232  20.584  67.164  1.00  0.00    -0.290 C  
HETATM   26  C   UNL     1      -9.953  19.449  68.555  1.00  0.00    -0.434 C  
HETATM   27  C   UNL     1     -10.358  19.822  66.128  1.00  0.00    -0.524 C  
ENDBRANCH  23  24
ENDBRANCH  22  23
ENDBRANCH  21  22
ENDBRANCH  18  21
ENDBRANCH  17  18
ENDBRANCH  16  17
ENDBRANCH  15  16
ENDBRANCH  14  15
ENDBRANCH  13  14
ENDBRANCH  12  13
ENDBRANCH  11  12
ENDBRANCH  10  11
ENDBRANCH   9  10
ENDBRANCH   8   9
ENDBRANCH   7   8
ENDBRANCH   6   7
ENDBRANCH   5   6
ENDBRANCH   4   5
ENDBRANCH   3   4
ENDBRANCH   2   3
TORSDOF 20
ENDMDL
MODEL      291
REMARK 921   NORMALIZED FREE ENERGY PREDICTED BY IDOCK:   -2.96 KCAL/MOL
REMARK 922        TOTAL FREE ENERGY PREDICTED BY IDOCK:   -8.34 KCAL/MOL
REMARK 923 INTER-LIGAND FREE ENERGY PREDICTED BY IDOCK:   -6.83 KCAL/MOL
REMARK 924 INTRA-LIGAND FREE ENERGY PREDICTED BY IDOCK:   -1.51 KCAL/MOL
REMARK 927      BINDING AFFINITY PREDICTED BY RF-SCORE:    0.00 PKD
ROOT
HETATM    1  C   UNL     1      -5.747  20.784  64.314  1.00  0.00    -0.291 C  
HETATM    2  C   UNL     1      -5.773  19.265  64.328  1.00  0.00    -0.318 C  
ENDROOT
BRANCH   2   3
HETATM    3  C   UNL     1      -5.370  18.719  65.695  1.00  0.00    -0.195 C  
BRANCH   3   4
HETATM    4  C   UNL     1      -6.328  17.625  66.153  1.00  0.00    -0.274 C  
BRANCH   4   5
HETATM    5  C   UNL     1      -7.759  17.952  65.740  1.00  0.00    -0.013 C  
BRANCH   5   6
HETATM    6  C   UNL     1      -8.410  18.890  66.750  1.00  0.00    -0.289 C  
BRANCH   6   7
HETATM    7  C   UNL     1      -7.939  18.566  68.161  1.00  0.00    -0.308 C  
BRANCH   7   8
HETATM    8  C   UNL     1      -8.968  17.704  68.882  1.00  0.00    -0.132 C  
BRANCH   8   9
HETATM    9  C   UNL     1      -8.480  16.265  68.964  1.00  0.00    -0.244 C  
BRANCH   9  10
HETATM   10  C   UNL     1      -9.640  15.296  68.798  1.00  0.00    -0.214 C  
BRANCH  10  11
HETATM   11  C   UNL     1     -10.920  15.928  69.322  1.00  0.00    -0.293 C  
BRANCH  11  12
HETATM   12  C   UNL     1     -11.107  15.608  70.795  1.00  0.00    -0.382 C  
BRANCH  12  13
HETATM   13  C   UNL     1     -12.438  14.901  71.009  1.00  0.00    -0.396 C  
BRANCH  13  14
HETATM   14  C   UNL     1     -12.477  13.632  70.181  1.00  0.00    -0.305 C  
BRANCH  14  15
HETATM   15  C   UNL     1     -12.532  12.393  71.063  1.00  0.00    -0.353 C  
BRANCH  15  16
HETATM   16  C   UNL     1     -11.974  11.231  70.272  1.00  0.00    -0.379 C  
BRANCH  16  17
HETATM   17  O   UNL     1     -12.405  11.303  68.918  1.00  0.00    -0.485 OA 
BRANCH  17  18
HETATM   18  P   UNL     1     -11.089  11.213  67.798  1.00  0.00    -0.303 P  
HETATM   19  O   UNL     1     -11.940  11.979  66.780  1.00  0.00    -0.616 OA 
HETATM   20  O   UNL     1     -11.031   9.690  67.889  1.00  0.00    -0.243 OA 
BRANCH  18  21
HETATM   21  O   UNL     1      -9.773  11.124  66.679  1.00  0.00    -0.189 OA 
BRANCH  21  22
HETATM   22  C   UNL     1      -8.545  11.648  67.179  1.00  0.00    -0.164 C  
BRANCH  22  23
HETATM   23  C   UNL     1      -7.340  10.965  66.570  1.00  0.00    -0.142 C  
BRANCH  23  24
HETATM   24  N   UNL     1      -7.010   9.574  67.154  1.00  0.00    -0.084 N  
HETATM   25  C   UNL     1      -5.504   9.410  67.086  1.00  0.00    -0.040 C  
HETATM   26  C   UNL     1      -7.680   8.486  66.313  1.00  0.00    -0.094 C  
HETATM   27  C   UNL     1      -7.479   9.462  68.594  1.00  0.00    -0.079 C  
ENDBRANCH  23  24
ENDBRANCH  22  23
ENDBRANCH  21  22
ENDBRANCH  18  21
ENDBRANCH  17  18
ENDBRANCH  16  17
ENDBRANCH  15  16
ENDBRANCH  14  15
ENDBRANCH  13  14
ENDBRANCH  12  13
ENDBRANCH  11  12
ENDBRANCH  10  11
ENDBRANCH   9  10
ENDBRANCH   8   9
ENDBRANCH   7   8
ENDBRANCH   6   7
ENDBRANCH   5   6
ENDBRANCH   4   5
ENDBRANCH   3   4
ENDBRANCH   2   3
TORSDOF 20
ENDMDL
MODEL      292
REMARK 921   NORMALIZED FREE ENERGY PREDICTED BY IDOCK:   -2.94 KCAL/MOL
REMARK 922        TOTAL FREE ENERGY PREDICTED BY IDOCK:   -8.31 KCAL/MOL
REMARK 923 INTER-LIGAND FREE ENERGY PREDICTED BY IDOCK:   -6.39 KCAL/MOL
REMARK 924 INTRA-LIGAND FREE ENERGY PREDICTED BY IDOCK:   -1.92 KCAL/MOL
REMARK 927      BINDING AFFINITY PREDICTED BY RF-SCORE:    0.00 PKD
ROOT
HETATM    1  C   UNL     1      -6.438  15.921  68.162  1.00  0.00    -0.135 C  
HETATM    2  C   UNL     1      -6.586  14.536  67.556  1.00  0.00    -0.106 C  
ENDROOT
BRANCH   2   3
HETATM    3  C   UNL     1      -8.024  14.035  67.670  1.00  0.00    -0.186 C  
BRANCH   3   4
HETATM    4  C   UNL     1      -8.998  15.010  67.017  1.00  0.00    -0.255 C  
BRANCH   4   5
HETATM    5  C   UNL     1     -10.010  14.265  66.154  1.00  0.00    -0.330 C  
BRANCH   5   6
HETATM    6  C   UNL     1     -11.430  14.713  66.480  1.00  0.00    -0.354 C  
BRANCH   6   7
HETATM    7  C   UNL     1     -12.132  13.674  67.344  1.00  0.00    -0.375 C  
BRANCH   7   8
HETATM    8  C   UNL     1     -11.904  13.967  68.821  1.00  0.00    -0.396 C  
BRANCH   8   9
HETATM    9  C   UNL     1     -11.900  12.671  69.617  1.00  0.00    -0.379 C  
BRANCH   9  10
HETATM   10  C   UNL     1     -11.470  11.505  68.742  1.00  0.00    -0.349 C  
BRANCH  10  11
HETATM   11  C   UNL     1      -9.955  11.381  68.754  1.00  0.00    -0.188 C  
BRANCH  11  12
HETATM   12  C   UNL     1      -9.515  10.151  67.978  1.00  0.00    -0.156 C  
BRANCH  12  13
HETATM   13  C   UNL     1     -10.728   9.443  67.392  1.00  0.00    -0.280 C  
BRANCH  13  14
HETATM   14  C   UNL     1     -10.591   7.948  67.601  1.00  0.00    -0.276 C  
BRANCH  14  15
HETATM   15  C   UNL     1      -9.942   7.631  68.940  1.00  0.00    -0.178 C  
BRANCH  15  16
HETATM   16  C   UNL     1     -11.016   7.681  70.003  1.00  0.00    -0.228 C  
BRANCH  16  17
HETATM   17  O   UNL     1     -10.653   8.595  71.030  1.00  0.00    -0.203 OA 
BRANCH  17  18
HETATM   18  P   UNL     1     -10.222   7.800  72.505  1.00  0.00    -0.316 P  
HETATM   19  O   UNL     1     -11.654   8.012  73.006  1.00  0.00    -0.346 OA 
HETATM   20  O   UNL     1      -9.073   8.772  72.767  1.00  0.00    -0.338 OA 
BRANCH  18  21
HETATM   21  O   UNL     1      -9.790   7.004  73.979  1.00  0.00    -0.275 OA 
BRANCH  21  22
HETATM   22  C   UNL     1      -8.659   6.145  73.869  1.00  0.00    -0.119 C  
BRANCH  22  23
HETATM   23  C   UNL     1      -8.879   4.815  74.557  1.00  0.00    -0.111 C  
BRANCH  23  24
HETATM   24  N   UNL     1      -9.365   3.674  73.637  1.00  0.00    -0.100 N  
HETATM   25  C   UNL     1      -9.015   4.070  72.216  1.00  0.00    -0.110 C  
HETATM   26  C   UNL     1     -10.882   3.517  73.763  1.00  0.00    -0.232 C  
HETATM   27  C   UNL     1      -8.689   2.362  73.991  1.00  0.00    -0.070 C  
ENDBRANCH  23  24
ENDBRANCH  22  23
ENDBRANCH  21  22
ENDBRANCH  18  21
ENDBRANCH  17  18
ENDBRANCH  16  17
ENDBRANCH  15  16
ENDBRANCH  14  15
ENDBRANCH  13  14
ENDBRANCH  12  13
ENDBRANCH  11  12
ENDBRANCH  10  11
ENDBRANCH   9  10
ENDBRANCH   8   9
ENDBRANCH   7   8
ENDBRANCH   6   7
ENDBRANCH   5   6
ENDBRANCH   4   5
ENDBRANCH   3   4
ENDBRANCH   2   3
TORSDOF 20
ENDMDL
MODEL      293
REMARK 921   NORMALIZED FREE ENERGY PREDICTED BY IDOCK:   -2.94 KCAL/MOL
REMARK 922        TOTAL FREE ENERGY PREDICTED BY IDOCK:   -8.31 KCAL/MOL
REMARK 923 INTER-LIGAND FREE ENERGY PREDICTED BY IDOCK:   -7.30 KCAL/MOL
REMARK 924 INTRA-LIGAND FREE ENERGY PREDICTED BY IDOCK:   -1.00 KCAL/MOL
REMARK 927      BINDING AFFINITY PREDICTED BY RF-SCORE:    0.00 PKD
ROOT
HETATM    1  C   UNL     1      -8.063  18.674  68.312  1.00  0.00    -0.339 C  
HETATM    2  C   UNL     1      -9.459  19.263  68.200  1.00  0.00    -0.410 C  
ENDROOT
BRANCH   2   3
HETATM    3  C   UNL     1     -10.393  18.325  67.439  1.00  0.00    -0.409 C  
BRANCH   3   4
HETATM    4  C   UNL     1     -10.785  17.127  68.296  1.00  0.00    -0.363 C  
BRANCH   4   5
HETATM    5  C   UNL     1     -10.641  15.829  67.509  1.00  0.00    -0.309 C  
BRANCH   5   6
HETATM    6  C   UNL     1     -11.787  14.876  67.827  1.00  0.00    -0.277 C  
BRANCH   6   7
HETATM    7  C   UNL     1     -11.750  13.669  66.899  1.00  0.00    -0.423 C  
BRANCH   7   8
HETATM    8  C   UNL     1     -12.692  13.874  65.720  1.00  0.00    -0.503 C  
BRANCH   8   9
HETATM    9  C   UNL     1     -11.922  14.406  64.521  1.00  0.00    -0.487 C  
BRANCH   9  10
HETATM   10  C   UNL     1     -11.976  13.418  63.367  1.00  0.00    -0.406 C  
BRANCH  10  11
HETATM   11  C   UNL     1     -12.449  12.063  63.870  1.00  0.00    -0.543 C  
BRANCH  11  12
HETATM   12  C   UNL     1     -11.276  11.247  64.384  1.00  0.00    -0.196 C  
BRANCH  12  13
HETATM   13  C   UNL     1     -10.149  11.252  63.361  1.00  0.00    -0.445 C  
BRANCH  13  14
HETATM   14  C   UNL     1      -8.855  10.833  64.030  1.00  0.00    -0.120 C  
BRANCH  14  15
HETATM   15  C   UNL     1      -8.875   9.358  64.405  1.00  0.00    -0.225 C  
BRANCH  15  16
HETATM   16  C   UNL     1      -8.651   9.251  65.896  1.00  0.00    -0.148 C  
BRANCH  16  17
HETATM   17  O   UNL     1      -9.894   9.281  66.587  1.00  0.00    -0.204 OA 
BRANCH  17  18
HETATM   18  P   UNL     1     -10.014   8.044  67.791  1.00  0.00    -0.202 P  
HETATM   19  O   UNL     1      -8.488   7.905  67.759  1.00  0.00    -0.124 OA 
HETATM   20  O   UNL     1     -10.965   7.213  66.933  1.00  0.00    -0.363 OA 
BRANCH  18  21
HETATM   21  O   UNL     1     -10.135   6.808  68.995  1.00  0.00    -0.155 OA 
BRANCH  21  22
HETATM   22  C   UNL     1      -9.064   5.868  68.977  1.00  0.00    -0.121 C  
BRANCH  22  23
HETATM   23  C   UNL     1      -9.454   4.565  68.314  1.00  0.00    -0.149 C  
BRANCH  23  24
HETATM   24  N   UNL     1      -8.430   4.015  67.297  1.00  0.00    -0.099 N  
HETATM   25  C   UNL     1      -8.703   4.707  65.975  1.00  0.00    -0.116 C  
HETATM   26  C   UNL     1      -8.623   2.507  67.131  1.00  0.00    -0.109 C  
HETATM   27  C   UNL     1      -7.009   4.299  67.746  1.00  0.00    -0.059 C  
ENDBRANCH  23  24
ENDBRANCH  22  23
ENDBRANCH  21  22
ENDBRANCH  18  21
ENDBRANCH  17  18
ENDBRANCH  16  17
ENDBRANCH  15  16
ENDBRANCH  14  15
ENDBRANCH  13  14
ENDBRANCH  12  13
ENDBRANCH  11  12
ENDBRANCH  10  11
ENDBRANCH   9  10
ENDBRANCH   8   9
ENDBRANCH   7   8
ENDBRANCH   6   7
ENDBRANCH   5   6
ENDBRANCH   4   5
ENDBRANCH   3   4
ENDBRANCH   2   3
TORSDOF 20
ENDMDL
MODEL      294
REMARK 921   NORMALIZED FREE ENERGY PREDICTED BY IDOCK:   -2.94 KCAL/MOL
REMARK 922        TOTAL FREE ENERGY PREDICTED BY IDOCK:   -8.30 KCAL/MOL
REMARK 923 INTER-LIGAND FREE ENERGY PREDICTED BY IDOCK:   -6.88 KCAL/MOL
REMARK 924 INTRA-LIGAND FREE ENERGY PREDICTED BY IDOCK:   -1.41 KCAL/MOL
REMARK 927      BINDING AFFINITY PREDICTED BY RF-SCORE:    0.00 PKD
ROOT
HETATM    1  C   UNL     1      -9.498   9.514  65.538  1.00  0.00    -0.334 C  
HETATM    2  C   UNL     1      -9.453   8.366  66.531  1.00  0.00    -0.284 C  
ENDROOT
BRANCH   2   3
HETATM    3  C   UNL     1      -8.025   7.863  66.729  1.00  0.00    -0.107 C  
BRANCH   3   4
HETATM    4  C   UNL     1      -7.579   7.002  65.552  1.00  0.00    -0.091 C  
BRANCH   4   5
HETATM    5  C   UNL     1      -6.634   5.900  66.017  1.00  0.00    -0.047 C  
BRANCH   5   6
HETATM    6  C   UNL     1      -7.028   5.400  67.402  1.00  0.00    -0.065 C  
BRANCH   6   7
HETATM    7  C   UNL     1      -8.340   4.628  67.337  1.00  0.00    -0.104 C  
BRANCH   7   8
HETATM    8  C   UNL     1      -8.461   3.682  68.524  1.00  0.00    -0.106 C  
BRANCH   8   9
HETATM    9  C   UNL     1      -9.584   4.136  69.443  1.00  0.00    -0.265 C  
BRANCH   9  10
HETATM   10  C   UNL     1      -9.696   5.652  69.446  1.00  0.00    -0.208 C  
BRANCH  10  11
HETATM   11  C   UNL     1     -11.157   6.062  69.340  1.00  0.00    -0.445 C  
BRANCH  11  12
HETATM   12  C   UNL     1     -11.594   6.802  70.592  1.00  0.00    -0.422 C  
BRANCH  12  13
HETATM   13  C   UNL     1     -10.936   8.174  70.643  1.00  0.00    -0.255 C  
BRANCH  13  14
HETATM   14  C   UNL     1     -12.005   9.245  70.730  1.00  0.00    -0.269 C  
BRANCH  14  15
HETATM   15  C   UNL     1     -11.430  10.628  70.460  1.00  0.00    -0.407 C  
BRANCH  15  16
HETATM   16  C   UNL     1     -10.939  10.658  69.030  1.00  0.00    -0.248 C  
BRANCH  16  17
HETATM   17  O   UNL     1     -11.932  11.217  68.178  1.00  0.00    -0.610 OA 
BRANCH  17  18
HETATM   18  P   UNL     1     -11.483  12.772  67.568  1.00  0.00    -0.371 P  
HETATM   19  O   UNL     1     -10.011  12.389  67.754  1.00  0.00    -0.196 OA 
HETATM   20  O   UNL     1     -12.316  13.497  68.622  1.00  0.00    -0.232 OA 
BRANCH  18  21
HETATM   21  O   UNL     1     -11.035  14.327  66.956  1.00  0.00    -0.293 OA 
BRANCH  21  22
HETATM   22  C   UNL     1      -9.860  14.322  66.150  1.00  0.00    -0.316 C  
BRANCH  22  23
HETATM   23  C   UNL     1      -9.443  15.715  65.733  1.00  0.00    -0.303 C  
BRANCH  23  24
HETATM   24  N   UNL     1      -8.587  16.480  66.766  1.00  0.00    -0.207 N  
HETATM   25  C   UNL     1      -7.559  15.503  67.301  1.00  0.00    -0.218 C  
HETATM   26  C   UNL     1      -9.472  16.968  67.914  1.00  0.00    -0.245 C  
HETATM   27  C   UNL     1      -7.890  17.666  66.124  1.00  0.00    -0.234 C  
ENDBRANCH  23  24
ENDBRANCH  22  23
ENDBRANCH  21  22
ENDBRANCH  18  21
ENDBRANCH  17  18
ENDBRANCH  16  17
ENDBRANCH  15  16
ENDBRANCH  14  15
ENDBRANCH  13  14
ENDBRANCH  12  13
ENDBRANCH  11  12
ENDBRANCH  10  11
ENDBRANCH   9  10
ENDBRANCH   8   9
ENDBRANCH   7   8
ENDBRANCH   6   7
ENDBRANCH   5   6
ENDBRANCH   4   5
ENDBRANCH   3   4
ENDBRANCH   2   3
TORSDOF 20
ENDMDL
MODEL      295
REMARK 921   NORMALIZED FREE ENERGY PREDICTED BY IDOCK:   -2.93 KCAL/MOL
REMARK 922        TOTAL FREE ENERGY PREDICTED BY IDOCK:   -8.28 KCAL/MOL
REMARK 923 INTER-LIGAND FREE ENERGY PREDICTED BY IDOCK:   -7.19 KCAL/MOL
REMARK 924 INTRA-LIGAND FREE ENERGY PREDICTED BY IDOCK:   -1.08 KCAL/MOL
REMARK 927      BINDING AFFINITY PREDICTED BY RF-SCORE:    0.00 PKD
ROOT
HETATM    1  C   UNL     1     -10.915   6.941  68.580  1.00  0.00    -0.198 C  
HETATM    2  C   UNL     1     -11.068   6.276  69.937  1.00  0.00    -0.469 C  
ENDROOT
BRANCH   2   3
HETATM    3  C   UNL     1     -11.961   7.103  70.858  1.00  0.00    -0.375 C  
BRANCH   3   4
HETATM    4  C   UNL     1     -11.346   7.230  72.249  1.00  0.00    -0.310 C  
BRANCH   4   5
HETATM    5  C   UNL     1     -10.473   8.476  72.341  1.00  0.00    -0.367 C  
BRANCH   5   6
HETATM    6  C   UNL     1      -9.103   8.133  72.915  1.00  0.00    -0.337 C  
BRANCH   6   7
HETATM    7  C   UNL     1      -8.437   7.041  72.090  1.00  0.00    -0.116 C  
BRANCH   7   8
HETATM    8  C   UNL     1      -6.946   7.317  71.946  1.00  0.00    -0.059 C  
BRANCH   8   9
HETATM    9  C   UNL     1      -6.622   7.712  70.513  1.00  0.00    -0.038 C  
BRANCH   9  10
HETATM   10  C   UNL     1      -7.756   7.320  69.579  1.00  0.00    -0.113 C  
BRANCH  10  11
HETATM   11  C   UNL     1      -7.293   7.419  68.134  1.00  0.00    -0.100 C  
BRANCH  11  12
HETATM   12  C   UNL     1      -7.414   8.848  67.634  1.00  0.00    -0.092 C  
BRANCH  12  13
HETATM   13  C   UNL     1      -8.835   9.355  67.841  1.00  0.00    -0.124 C  
BRANCH  13  14
HETATM   14  C   UNL     1      -9.598   9.269  66.535  1.00  0.00    -0.285 C  
BRANCH  14  15
HETATM   15  C   UNL     1      -9.976  10.650  66.019  1.00  0.00    -0.295 C  
BRANCH  15  16
HETATM   16  C   UNL     1     -10.855  11.312  67.057  1.00  0.00    -0.280 C  
BRANCH  16  17
HETATM   17  O   UNL     1     -11.156  12.647  66.671  1.00  0.00    -0.255 OA 
BRANCH  17  18
HETATM   18  P   UNL     1     -10.872  13.786  67.942  1.00  0.00    -0.256 P  
HETATM   19  O   UNL     1     -10.936  12.633  68.950  1.00  0.00    -0.241 OA 
HETATM   20  O   UNL     1     -12.075  14.635  67.537  1.00  0.00    -0.340 OA 
BRANCH  18  21
HETATM   21  O   UNL     1     -10.586  14.925  69.212  1.00  0.00    -0.233 OA 
BRANCH  21  22
HETATM   22  C   UNL     1     -11.737  15.226  69.997  1.00  0.00    -0.315 C  
BRANCH  22  23
HETATM   23  C   UNL     1     -11.930  14.246  71.134  1.00  0.00    -0.282 C  
BRANCH  23  24
HETATM   24  N   UNL     1     -13.212  14.454  71.969  1.00  0.00    -0.343 N  
HETATM   25  C   UNL     1     -12.829  15.302  73.166  1.00  0.00    -0.494 C  
HETATM   26  C   UNL     1     -13.742  13.103  72.450  1.00  0.00    -0.540 C  
HETATM   27  C   UNL     1     -14.283  15.158  71.156  1.00  0.00    -0.336 C  
ENDBRANCH  23  24
ENDBRANCH  22  23
ENDBRANCH  21  22
ENDBRANCH  18  21
ENDBRANCH  17  18
ENDBRANCH  16  17
ENDBRANCH  15  16
ENDBRANCH  14  15
ENDBRANCH  13  14
ENDBRANCH  12  13
ENDBRANCH  11  12
ENDBRANCH  10  11
ENDBRANCH   9  10
ENDBRANCH   8   9
ENDBRANCH   7   8
ENDBRANCH   6   7
ENDBRANCH   5   6
ENDBRANCH   4   5
ENDBRANCH   3   4
ENDBRANCH   2   3
TORSDOF 20
ENDMDL
MODEL      296
REMARK 921   NORMALIZED FREE ENERGY PREDICTED BY IDOCK:   -2.93 KCAL/MOL
REMARK 922        TOTAL FREE ENERGY PREDICTED BY IDOCK:   -8.27 KCAL/MOL
REMARK 923 INTER-LIGAND FREE ENERGY PREDICTED BY IDOCK:   -5.54 KCAL/MOL
REMARK 924 INTRA-LIGAND FREE ENERGY PREDICTED BY IDOCK:   -2.73 KCAL/MOL
REMARK 927      BINDING AFFINITY PREDICTED BY RF-SCORE:    0.00 PKD
ROOT
HETATM    1  C   UNL     1      -6.976  13.572  67.607  1.00  0.00    -0.176 C  
HETATM    2  C   UNL     1      -6.670  12.094  67.778  1.00  0.00    -0.103 C  
ENDROOT
BRANCH   2   3
HETATM    3  C   UNL     1      -7.910  11.242  67.519  1.00  0.00    -0.123 C  
BRANCH   3   4
HETATM    4  C   UNL     1      -7.735   9.834  68.081  1.00  0.00    -0.082 C  
BRANCH   4   5
HETATM    5  C   UNL     1      -8.718   9.581  69.219  1.00  0.00    -0.151 C  
BRANCH   5   6
HETATM    6  C   UNL     1      -9.785  10.668  69.261  1.00  0.00    -0.181 C  
BRANCH   6   7
HETATM    7  C   UNL     1     -11.090  10.158  68.664  1.00  0.00    -0.254 C  
BRANCH   7   8
HETATM    8  C   UNL     1     -12.282  10.803  69.359  1.00  0.00    -0.242 C  
BRANCH   8   9
HETATM    9  C   UNL     1     -11.958  11.063  70.822  1.00  0.00    -0.436 C  
BRANCH   9  10
HETATM   10  C   UNL     1     -13.019  10.453  71.723  1.00  0.00    -0.580 C  
BRANCH  10  11
HETATM   11  C   UNL     1     -12.802   8.952  71.834  1.00  0.00    -0.437 C  
BRANCH  11  12
HETATM   12  C   UNL     1     -11.392   8.653  72.312  1.00  0.00    -0.411 C  
BRANCH  12  13
HETATM   13  C   UNL     1     -10.821   7.470  71.543  1.00  0.00    -0.253 C  
BRANCH  13  14
HETATM   14  C   UNL     1     -11.904   6.858  70.678  1.00  0.00    -0.418 C  
BRANCH  14  15
HETATM   15  C   UNL     1     -11.359   6.433  69.322  1.00  0.00    -0.405 C  
BRANCH  15  16
HETATM   16  C   UNL     1      -9.972   5.869  69.531  1.00  0.00    -0.185 C  
BRANCH  16  17
HETATM   17  O   UNL     1      -9.998   4.449  69.457  1.00  0.00    -0.211 OA 
BRANCH  17  18
HETATM   18  P   UNL     1      -8.629   3.803  68.621  1.00  0.00    -0.108 P  
HETATM   19  O   UNL     1      -9.553   2.773  67.962  1.00  0.00    -0.198 OA 
HETATM   20  O   UNL     1      -7.868   3.559  69.922  1.00  0.00    -0.047 OA 
BRANCH  18  21
HETATM   21  O   UNL     1      -7.259   3.158  67.783  1.00  0.00    -0.053 OA 
BRANCH  21  22
HETATM   22  C   UNL     1      -6.476   4.136  67.103  1.00  0.00    -0.042 C  
BRANCH  22  23
HETATM   23  C   UNL     1      -7.258   5.400  66.818  1.00  0.00    -0.078 C  
BRANCH  23  24
HETATM   24  N   UNL     1      -7.524   5.683  65.324  1.00  0.00    -0.072 N  
HETATM   25  C   UNL     1      -8.149   7.061  65.237  1.00  0.00    -0.134 C  
HETATM   26  C   UNL     1      -8.500   4.645  64.765  1.00  0.00    -0.137 C  
HETATM   27  C   UNL     1      -6.234   5.647  64.524  1.00  0.00    -0.025 C  
ENDBRANCH  23  24
ENDBRANCH  22  23
ENDBRANCH  21  22
ENDBRANCH  18  21
ENDBRANCH  17  18
ENDBRANCH  16  17
ENDBRANCH  15  16
ENDBRANCH  14  15
ENDBRANCH  13  14
ENDBRANCH  12  13
ENDBRANCH  11  12
ENDBRANCH  10  11
ENDBRANCH   9  10
ENDBRANCH   8   9
ENDBRANCH   7   8
ENDBRANCH   6   7
ENDBRANCH   5   6
ENDBRANCH   4   5
ENDBRANCH   3   4
ENDBRANCH   2   3
TORSDOF 20
ENDMDL
MODEL      297
REMARK 921   NORMALIZED FREE ENERGY PREDICTED BY IDOCK:   -2.92 KCAL/MOL
REMARK 922        TOTAL FREE ENERGY PREDICTED BY IDOCK:   -8.26 KCAL/MOL
REMARK 923 INTER-LIGAND FREE ENERGY PREDICTED BY IDOCK:   -7.07 KCAL/MOL
REMARK 924 INTRA-LIGAND FREE ENERGY PREDICTED BY IDOCK:   -1.19 KCAL/MOL
REMARK 927      BINDING AFFINITY PREDICTED BY RF-SCORE:    0.00 PKD
ROOT
HETATM    1  C   UNL     1      -6.277   5.478  67.437  1.00  0.00    -0.031 C  
HETATM    2  C   UNL     1      -7.732   5.084  67.630  1.00  0.00    -0.087 C  
ENDROOT
BRANCH   2   3
HETATM    3  C   UNL     1      -8.138   5.176  69.098  1.00  0.00    -0.084 C  
BRANCH   3   4
HETATM    4  C   UNL     1      -9.646   5.350  69.241  1.00  0.00    -0.198 C  
BRANCH   4   5
HETATM    5  C   UNL     1     -10.142   4.719  70.537  1.00  0.00    -0.291 C  
BRANCH   5   6
HETATM    6  C   UNL     1     -11.024   5.694  71.309  1.00  0.00    -0.251 C  
BRANCH   6   7
HETATM    7  C   UNL     1     -10.896   7.099  70.734  1.00  0.00    -0.267 C  
BRANCH   7   8
HETATM    8  C   UNL     1     -10.808   8.127  71.854  1.00  0.00    -0.333 C  
BRANCH   8   9
HETATM    9  C   UNL     1     -10.687   9.527  71.272  1.00  0.00    -0.386 C  
BRANCH   9  10
HETATM   10  C   UNL     1     -12.062  10.102  70.969  1.00  0.00    -0.476 C  
BRANCH  10  11
HETATM   11  C   UNL     1     -11.975  11.049  69.783  1.00  0.00    -0.428 C  
BRANCH  11  12
HETATM   12  C   UNL     1     -10.650  10.877  69.061  1.00  0.00    -0.248 C  
BRANCH  12  13
HETATM   13  C   UNL     1     -10.878  10.819  67.557  1.00  0.00    -0.342 C  
BRANCH  13  14
HETATM   14  C   UNL     1     -11.877  11.886  67.155  1.00  0.00    -0.216 C  
BRANCH  14  15
HETATM   15  C   UNL     1     -11.465  12.574  65.861  1.00  0.00    -0.417 C  
BRANCH  15  16
HETATM   16  C   UNL     1     -10.732  13.847  66.221  1.00  0.00    -0.285 C  
BRANCH  16  17
HETATM   17  O   UNL     1     -11.033  14.230  67.557  1.00  0.00    -0.278 OA 
BRANCH  17  18
HETATM   18  P   UNL     1     -10.000  15.492  68.134  1.00  0.00    -0.220 P  
HETATM   19  O   UNL     1     -10.458  15.176  69.562  1.00  0.00    -0.244 OA 
HETATM   20  O   UNL     1     -10.663  16.533  67.235  1.00  0.00    -0.313 OA 
BRANCH  18  21
HETATM   21  O   UNL     1      -8.966  16.754  68.710  1.00  0.00    -0.248 OA 
BRANCH  21  22
HETATM   22  C   UNL     1      -7.681  16.783  68.094  1.00  0.00    -0.180 C  
BRANCH  22  23
HETATM   23  C   UNL     1      -7.641  17.703  66.893  1.00  0.00    -0.214 C  
BRANCH  23  24
HETATM   24  N   UNL     1      -7.341  19.184  67.212  1.00  0.00    -0.222 N  
HETATM   25  C   UNL     1      -6.276  19.640  66.234  1.00  0.00    -0.173 C  
HETATM   26  C   UNL     1      -6.808  19.310  68.640  1.00  0.00    -0.301 C  
HETATM   27  C   UNL     1      -8.586  20.038  67.058  1.00  0.00    -0.334 C  
ENDBRANCH  23  24
ENDBRANCH  22  23
ENDBRANCH  21  22
ENDBRANCH  18  21
ENDBRANCH  17  18
ENDBRANCH  16  17
ENDBRANCH  15  16
ENDBRANCH  14  15
ENDBRANCH  13  14
ENDBRANCH  12  13
ENDBRANCH  11  12
ENDBRANCH  10  11
ENDBRANCH   9  10
ENDBRANCH   8   9
ENDBRANCH   7   8
ENDBRANCH   6   7
ENDBRANCH   5   6
ENDBRANCH   4   5
ENDBRANCH   3   4
ENDBRANCH   2   3
TORSDOF 20
ENDMDL
MODEL      298
REMARK 921   NORMALIZED FREE ENERGY PREDICTED BY IDOCK:   -2.92 KCAL/MOL
REMARK 922        TOTAL FREE ENERGY PREDICTED BY IDOCK:   -8.26 KCAL/MOL
REMARK 923 INTER-LIGAND FREE ENERGY PREDICTED BY IDOCK:   -7.12 KCAL/MOL
REMARK 924 INTRA-LIGAND FREE ENERGY PREDICTED BY IDOCK:   -1.13 KCAL/MOL
REMARK 927      BINDING AFFINITY PREDICTED BY RF-SCORE:    0.00 PKD
ROOT
HETATM    1  C   UNL     1      -7.023  19.113  68.577  1.00  0.00    -0.318 C  
HETATM    2  C   UNL     1      -8.444  19.430  69.010  1.00  0.00    -0.248 C  
ENDROOT
BRANCH   2   3
HETATM    3  C   UNL     1      -9.453  18.997  67.949  1.00  0.00    -0.360 C  
BRANCH   3   4
HETATM    4  C   UNL     1     -10.404  17.938  68.496  1.00  0.00    -0.365 C  
BRANCH   4   5
HETATM    5  C   UNL     1     -10.564  16.792  67.503  1.00  0.00    -0.309 C  
BRANCH   5   6
HETATM    6  C   UNL     1     -11.641  15.820  67.970  1.00  0.00    -0.213 C  
BRANCH   6   7
HETATM    7  C   UNL     1     -11.451  14.458  67.315  1.00  0.00    -0.377 C  
BRANCH   7   8
HETATM    8  C   UNL     1     -11.683  14.553  65.813  1.00  0.00    -0.344 C  
BRANCH   8   9
HETATM    9  C   UNL     1     -10.374  14.349  65.067  1.00  0.00    -0.449 C  
BRANCH   9  10
HETATM   10  C   UNL     1     -10.469  13.153  64.132  1.00  0.00    -0.348 C  
BRANCH  10  11
HETATM   11  C   UNL     1     -11.446  12.134  64.697  1.00  0.00    -0.388 C  
BRANCH  11  12
HETATM   12  C   UNL     1     -10.725  11.154  65.607  1.00  0.00    -0.250 C  
BRANCH  12  13
HETATM   13  C   UNL     1      -9.396  10.746  64.987  1.00  0.00    -0.261 C  
BRANCH  13  14
HETATM   14  C   UNL     1      -8.624   9.885  65.966  1.00  0.00    -0.147 C  
BRANCH  14  15
HETATM   15  C   UNL     1      -9.386   8.614  66.311  1.00  0.00    -0.282 C  
BRANCH  15  16
HETATM   16  C   UNL     1      -9.059   8.246  67.741  1.00  0.00    -0.132 C  
BRANCH  16  17
HETATM   17  O   UNL     1      -8.935   9.417  68.537  1.00  0.00    -0.128 OA 
BRANCH  17  18
HETATM   18  P   UNL     1      -9.957   9.383  69.932  1.00  0.00    -0.246 P  
HETATM   19  O   UNL     1     -10.259   7.910  69.640  1.00  0.00    -0.197 OA 
HETATM   20  O   UNL     1     -10.804  10.546  69.419  1.00  0.00    -0.216 OA 
BRANCH  18  21
HETATM   21  O   UNL     1     -10.979   9.349  71.328  1.00  0.00    -0.317 OA 
BRANCH  21  22
HETATM   22  C   UNL     1     -11.189   8.047  71.867  1.00  0.00    -0.280 C  
BRANCH  22  23
HETATM   23  C   UNL     1     -10.690   7.927  73.290  1.00  0.00    -0.150 C  
BRANCH  23  24
HETATM   24  N   UNL     1      -9.696   6.772  73.542  1.00  0.00    -0.183 N  
HETATM   25  C   UNL     1      -8.563   7.335  74.377  1.00  0.00    -0.206 C  
HETATM   26  C   UNL     1      -9.143   6.264  72.209  1.00  0.00    -0.140 C  
HETATM   27  C   UNL     1     -10.366   5.628  74.281  1.00  0.00    -0.272 C  
ENDBRANCH  23  24
ENDBRANCH  22  23
ENDBRANCH  21  22
ENDBRANCH  18  21
ENDBRANCH  17  18
ENDBRANCH  16  17
ENDBRANCH  15  16
ENDBRANCH  14  15
ENDBRANCH  13  14
ENDBRANCH  12  13
ENDBRANCH  11  12
ENDBRANCH  10  11
ENDBRANCH   9  10
ENDBRANCH   8   9
ENDBRANCH   7   8
ENDBRANCH   6   7
ENDBRANCH   5   6
ENDBRANCH   4   5
ENDBRANCH   3   4
ENDBRANCH   2   3
TORSDOF 20
ENDMDL
MODEL      299
REMARK 921   NORMALIZED FREE ENERGY PREDICTED BY IDOCK:   -2.90 KCAL/MOL
REMARK 922        TOTAL FREE ENERGY PREDICTED BY IDOCK:   -8.21 KCAL/MOL
REMARK 923 INTER-LIGAND FREE ENERGY PREDICTED BY IDOCK:   -5.99 KCAL/MOL
REMARK 924 INTRA-LIGAND FREE ENERGY PREDICTED BY IDOCK:   -2.22 KCAL/MOL
REMARK 927      BINDING AFFINITY PREDICTED BY RF-SCORE:    0.00 PKD
ROOT
HETATM    1  C   UNL     1      -7.445   8.930  70.895  1.00  0.00    -0.110 C  
HETATM    2  C   UNL     1      -7.494   9.998  69.816  1.00  0.00    -0.152 C  
ENDROOT
BRANCH   2   3
HETATM    3  C   UNL     1      -6.224  10.844  69.820  1.00  0.00    -0.103 C  
BRANCH   3   4
HETATM    4  C   UNL     1      -5.419  10.632  68.542  1.00  0.00    -0.040 C  
BRANCH   4   5
HETATM    5  C   UNL     1      -5.967   9.451  67.749  1.00  0.00    -0.052 C  
BRANCH   5   6
HETATM    6  C   UNL     1      -5.422   9.458  66.325  1.00  0.00    -0.048 C  
BRANCH   6   7
HETATM    7  C   UNL     1      -6.540   9.193  65.325  1.00  0.00    -0.069 C  
BRANCH   7   8
HETATM    8  C   UNL     1      -5.962   8.889  63.949  1.00  0.00    -0.072 C  
BRANCH   8   9
HETATM    9  C   UNL     1      -7.084   8.619  62.958  1.00  0.00    -0.090 C  
BRANCH   9  10
HETATM   10  C   UNL     1      -7.729   9.920  62.510  1.00  0.00    -0.132 C  
BRANCH  10  11
HETATM   11  C   UNL     1      -9.191   9.942  62.931  1.00  0.00    -0.287 C  
BRANCH  11  12
HETATM   12  C   UNL     1      -9.557  11.298  63.509  1.00  0.00    -0.324 C  
BRANCH  12  13
HETATM   13  C   UNL     1      -9.665  11.206  65.025  1.00  0.00    -0.298 C  
BRANCH  13  14
HETATM   14  C   UNL     1      -9.990   9.781  65.424  1.00  0.00    -0.302 C  
BRANCH  14  15
HETATM   15  C   UNL     1      -9.712   9.540  66.901  1.00  0.00    -0.237 C  
BRANCH  15  16
HETATM   16  C   UNL     1     -10.979   9.842  67.670  1.00  0.00    -0.200 C  
BRANCH  16  17
HETATM   17  O   UNL     1     -10.682  10.610  68.830  1.00  0.00    -0.188 OA 
BRANCH  17  18
HETATM   18  P   UNL     1     -11.317  12.217  68.742  1.00  0.00    -0.337 P  
HETATM   19  O   UNL     1     -12.239  11.760  67.606  1.00  0.00    -0.534 OA 
HETATM   20  O   UNL     1      -9.932  12.822  68.528  1.00  0.00    -0.222 OA 
BRANCH  18  21
HETATM   21  O   UNL     1     -11.953  13.824  68.656  1.00  0.00    -0.351 OA 
BRANCH  21  22
HETATM   22  C   UNL     1     -11.192  14.792  69.373  1.00  0.00    -0.284 C  
BRANCH  22  23
HETATM   23  C   UNL     1     -11.449  16.201  68.884  1.00  0.00    -0.331 C  
BRANCH  23  24
HETATM   24  N   UNL     1     -10.331  16.802  68.004  1.00  0.00    -0.302 N  
HETATM   25  C   UNL     1     -10.424  16.130  66.648  1.00  0.00    -0.300 C  
HETATM   26  C   UNL     1      -8.965  16.508  68.626  1.00  0.00    -0.236 C  
HETATM   27  C   UNL     1     -10.506  18.303  67.852  1.00  0.00    -0.388 C  
ENDBRANCH  23  24
ENDBRANCH  22  23
ENDBRANCH  21  22
ENDBRANCH  18  21
ENDBRANCH  17  18
ENDBRANCH  16  17
ENDBRANCH  15  16
ENDBRANCH  14  15
ENDBRANCH  13  14
ENDBRANCH  12  13
ENDBRANCH  11  12
ENDBRANCH  10  11
ENDBRANCH   9  10
ENDBRANCH   8   9
ENDBRANCH   7   8
ENDBRANCH   6   7
ENDBRANCH   5   6
ENDBRANCH   4   5
ENDBRANCH   3   4
ENDBRANCH   2   3
TORSDOF 20
ENDMDL
MODEL      300
REMARK 921   NORMALIZED FREE ENERGY PREDICTED BY IDOCK:   -2.89 KCAL/MOL
REMARK 922        TOTAL FREE ENERGY PREDICTED BY IDOCK:   -8.18 KCAL/MOL
REMARK 923 INTER-LIGAND FREE ENERGY PREDICTED BY IDOCK:   -5.92 KCAL/MOL
REMARK 924 INTRA-LIGAND FREE ENERGY PREDICTED BY IDOCK:   -2.27 KCAL/MOL
REMARK 927      BINDING AFFINITY PREDICTED BY RF-SCORE:    0.00 PKD
ROOT
HETATM    1  C   UNL     1     -10.516   6.703  73.575  1.00  0.00    -0.335 C  
HETATM    2  C   UNL     1      -9.794   7.971  73.155  1.00  0.00    -0.332 C  
ENDROOT
BRANCH   2   3
HETATM    3  C   UNL     1     -10.417   8.568  71.896  1.00  0.00    -0.387 C  
BRANCH   3   4
HETATM    4  C   UNL     1      -9.349   9.172  70.989  1.00  0.00    -0.333 C  
BRANCH   4   5
HETATM    5  C   UNL     1      -9.051   8.247  69.815  1.00  0.00    -0.147 C  
BRANCH   5   6
HETATM    6  C   UNL     1     -10.255   7.366  69.503  1.00  0.00    -0.204 C  
BRANCH   6   7
HETATM    7  C   UNL     1     -10.664   7.518  68.044  1.00  0.00    -0.170 C  
BRANCH   7   8
HETATM    8  C   UNL     1     -10.194   8.859  67.496  1.00  0.00    -0.309 C  
BRANCH   8   9
HETATM    9  C   UNL     1      -9.797   8.717  66.034  1.00  0.00    -0.183 C  
BRANCH   9  10
HETATM   10  C   UNL     1      -8.340   8.300  65.912  1.00  0.00    -0.132 C  
BRANCH  10  11
HETATM   11  C   UNL     1      -7.618   9.229  64.949  1.00  0.00    -0.108 C  
BRANCH  11  12
HETATM   12  C   UNL     1      -7.666  10.661  65.452  1.00  0.00    -0.051 C  
BRANCH  12  13
HETATM   13  C   UNL     1      -6.624  10.866  66.542  1.00  0.00    -0.127 C  
BRANCH  13  14
HETATM   14  C   UNL     1      -7.061  11.996  67.453  1.00  0.00    -0.136 C  
BRANCH  14  15
HETATM   15  C   UNL     1      -8.241  11.585  68.323  1.00  0.00    -0.152 C  
BRANCH  15  16
HETATM   16  C   UNL     1      -9.010  12.834  68.689  1.00  0.00     0.051 C  
BRANCH  16  17
HETATM   17  O   UNL     1      -8.610  13.921  67.863  1.00  0.00    -0.159 OA 
BRANCH  17  18
HETATM   18  P   UNL     1      -9.489  15.372  68.203  1.00  0.00    -0.207 P  
HETATM   19  O   UNL     1      -9.157  15.870  66.792  1.00  0.00    -0.214 OA 
HETATM   20  O   UNL     1      -8.641  15.672  69.436  1.00  0.00    -0.250 OA 
BRANCH  18  21
HETATM   21  O   UNL     1     -10.369  16.821  68.543  1.00  0.00    -0.277 OA 
BRANCH  21  22
HETATM   22  C   UNL     1     -11.285  16.708  69.629  1.00  0.00    -0.045 C  
BRANCH  22  23
HETATM   23  C   UNL     1     -12.144  15.466  69.528  1.00  0.00    -0.305 C  
BRANCH  23  24
HETATM   24  N   UNL     1     -12.378  14.721  70.860  1.00  0.00    -0.295 N  
HETATM   25  C   UNL     1     -11.304  15.186  71.823  1.00  0.00    -0.317 C  
HETATM   26  C   UNL     1     -12.247  13.212  70.640  1.00  0.00    -0.321 C  
HETATM   27  C   UNL     1     -13.752  15.033  71.425  1.00  0.00    -0.473 C  
ENDBRANCH  23  24
ENDBRANCH  22  23
ENDBRANCH  21  22
ENDBRANCH  18  21
ENDBRANCH  17  18
ENDBRANCH  16  17
ENDBRANCH  15  16
ENDBRANCH  14  15
ENDBRANCH  13  14
ENDBRANCH  12  13
ENDBRANCH  11  12
ENDBRANCH  10  11
ENDBRANCH   9  10
ENDBRANCH   8   9
ENDBRANCH   7   8
ENDBRANCH   6   7
ENDBRANCH   5   6
ENDBRANCH   4   5
ENDBRANCH   3   4
ENDBRANCH   2   3
TORSDOF 20
ENDMDL
MODEL      301
REMARK 921   NORMALIZED FREE ENERGY PREDICTED BY IDOCK:   -2.88 KCAL/MOL
REMARK 922        TOTAL FREE ENERGY PREDICTED BY IDOCK:   -8.16 KCAL/MOL
REMARK 923 INTER-LIGAND FREE ENERGY PREDICTED BY IDOCK:   -7.54 KCAL/MOL
REMARK 924 INTRA-LIGAND FREE ENERGY PREDICTED BY IDOCK:   -0.62 KCAL/MOL
REMARK 927      BINDING AFFINITY PREDICTED BY RF-SCORE:    0.00 PKD
ROOT
HETATM    1  C   UNL     1      -8.891   4.978  65.936  1.00  0.00    -0.134 C  
HETATM    2  C   UNL     1      -9.853   4.277  66.880  1.00  0.00    -0.224 C  
ENDROOT
BRANCH   2   3
HETATM    3  C   UNL     1      -9.558   4.637  68.334  1.00  0.00    -0.212 C  
BRANCH   3   4
HETATM    4  C   UNL     1     -10.576   5.639  68.869  1.00  0.00    -0.303 C  
BRANCH   4   5
HETATM    5  C   UNL     1     -10.613   5.610  70.393  1.00  0.00    -0.364 C  
BRANCH   5   6
HETATM    6  C   UNL     1     -10.919   6.994  70.952  1.00  0.00    -0.282 C  
BRANCH   6   7
HETATM    7  C   UNL     1     -10.891   8.036  69.842  1.00  0.00    -0.217 C  
BRANCH   7   8
HETATM    8  C   UNL     1      -9.616   8.865  69.921  1.00  0.00    -0.185 C  
BRANCH   8   9
HETATM    9  C   UNL     1      -9.868  10.267  69.389  1.00  0.00    -0.247 C  
BRANCH   9  10
HETATM   10  C   UNL     1     -11.043  10.911  70.109  1.00  0.00    -0.238 C  
BRANCH  10  11
HETATM   11  C   UNL     1     -11.605  12.045  69.267  1.00  0.00    -0.380 C  
BRANCH  11  12
HETATM   12  C   UNL     1     -10.586  12.498  68.236  1.00  0.00    -0.245 C  
BRANCH  12  13
HETATM   13  C   UNL     1     -11.182  12.408  66.838  1.00  0.00    -0.359 C  
BRANCH  13  14
HETATM   14  C   UNL     1     -12.448  13.239  66.773  1.00  0.00    -0.086 C  
BRANCH  14  15
HETATM   15  C   UNL     1     -12.498  14.076  65.503  1.00  0.00    -0.533 C  
BRANCH  15  16
HETATM   16  C   UNL     1     -11.180  14.805  65.371  1.00  0.00    -0.347 C  
BRANCH  16  17
HETATM   17  O   UNL     1     -10.929  15.588  66.532  1.00  0.00    -0.312 OA 
BRANCH  17  18
HETATM   18  P   UNL     1      -9.885  16.930  66.215  1.00  0.00    -0.275 P  
HETATM   19  O   UNL     1     -10.869  17.405  65.140  1.00  0.00    -0.642 OA 
HETATM   20  O   UNL     1      -8.692  16.019  65.938  1.00  0.00    -0.298 OA 
BRANCH  18  21
HETATM   21  O   UNL     1      -8.841  18.273  65.899  1.00  0.00    -0.501 OA 
BRANCH  21  22
HETATM   22  C   UNL     1      -7.462  17.930  65.797  1.00  0.00    -0.070 C  
BRANCH  22  23
HETATM   23  C   UNL     1      -6.647  18.479  66.948  1.00  0.00    -0.185 C  
BRANCH  23  24
HETATM   24  N   UNL     1      -6.495  20.016  66.969  1.00  0.00    -0.191 N  
HETATM   25  C   UNL     1      -5.502  20.348  68.065  1.00  0.00    -0.209 C  
HETATM   26  C   UNL     1      -7.842  20.666  67.287  1.00  0.00    -0.291 C  
HETATM   27  C   UNL     1      -5.986  20.531  65.635  1.00  0.00    -0.215 C  
ENDBRANCH  23  24
ENDBRANCH  22  23
ENDBRANCH  21  22
ENDBRANCH  18  21
ENDBRANCH  17  18
ENDBRANCH  16  17
ENDBRANCH  15  16
ENDBRANCH  14  15
ENDBRANCH  13  14
ENDBRANCH  12  13
ENDBRANCH  11  12
ENDBRANCH  10  11
ENDBRANCH   9  10
ENDBRANCH   8   9
ENDBRANCH   7   8
ENDBRANCH   6   7
ENDBRANCH   5   6
ENDBRANCH   4   5
ENDBRANCH   3   4
ENDBRANCH   2   3
TORSDOF 20
ENDMDL
MODEL      302
REMARK 921   NORMALIZED FREE ENERGY PREDICTED BY IDOCK:   -2.86 KCAL/MOL
REMARK 922        TOTAL FREE ENERGY PREDICTED BY IDOCK:   -8.12 KCAL/MOL
REMARK 923 INTER-LIGAND FREE ENERGY PREDICTED BY IDOCK:   -7.96 KCAL/MOL
REMARK 924 INTRA-LIGAND FREE ENERGY PREDICTED BY IDOCK:   -0.16 KCAL/MOL
REMARK 927      BINDING AFFINITY PREDICTED BY RF-SCORE:    0.00 PKD
ROOT
HETATM    1  C   UNL     1     -10.773  11.300  63.738  1.00  0.00    -0.448 C  
HETATM    2  C   UNL     1      -9.730  10.200  63.833  1.00  0.00    -0.236 C  
ENDROOT
BRANCH   2   3
HETATM    3  C   UNL     1      -9.169  10.094  65.249  1.00  0.00    -0.257 C  
BRANCH   3   4
HETATM    4  C   UNL     1     -10.185   9.464  66.196  1.00  0.00    -0.264 C  
BRANCH   4   5
HETATM    5  C   UNL     1      -9.528   8.387  67.053  1.00  0.00    -0.225 C  
BRANCH   5   6
HETATM    6  C   UNL     1     -10.581   7.580  67.804  1.00  0.00    -0.274 C  
BRANCH   6   7
HETATM    7  C   UNL     1      -9.933   6.420  68.548  1.00  0.00    -0.155 C  
BRANCH   7   8
HETATM    8  C   UNL     1      -9.004   6.939  69.638  1.00  0.00    -0.144 C  
BRANCH   8   9
HETATM    9  C   UNL     1      -9.788   7.774  70.639  1.00  0.00    -0.182 C  
BRANCH   9  10
HETATM   10  C   UNL     1     -10.828   6.923  71.350  1.00  0.00    -0.256 C  
BRANCH  10  11
HETATM   11  C   UNL     1     -12.166   7.644  71.359  1.00  0.00    -0.351 C  
BRANCH  11  12
HETATM   12  C   UNL     1     -12.070   8.936  72.151  1.00  0.00    -0.430 C  
BRANCH  12  13
HETATM   13  C   UNL     1     -12.827  10.045  71.434  1.00  0.00    -0.519 C  
BRANCH  13  14
HETATM   14  C   UNL     1     -11.844  10.943  70.710  1.00  0.00    -0.424 C  
BRANCH  14  15
HETATM   15  C   UNL     1     -11.999  10.834  69.200  1.00  0.00    -0.302 C  
BRANCH  15  16
HETATM   16  C   UNL     1     -11.731  12.197  68.603  1.00  0.00    -0.330 C  
BRANCH  16  17
HETATM   17  O   UNL     1     -12.084  12.212  67.226  1.00  0.00    -0.565 OA 
BRANCH  17  18
HETATM   18  P   UNL     1     -11.698  13.714  66.458  1.00  0.00    -0.428 P  
HETATM   19  O   UNL     1     -10.283  13.184  66.198  1.00  0.00    -0.278 OA 
HETATM   20  O   UNL     1     -12.095  14.520  67.692  1.00  0.00    -0.343 OA 
BRANCH  18  21
HETATM   21  O   UNL     1     -11.312  15.215  65.689  1.00  0.00    -0.332 OA 
BRANCH  21  22
HETATM   22  C   UNL     1     -10.190  15.888  66.252  1.00  0.00    -0.311 C  
BRANCH  22  23
HETATM   23  C   UNL     1      -9.117  14.927  66.716  1.00  0.00    -0.270 C  
BRANCH  23  24
HETATM   24  N   UNL     1      -8.304  15.394  67.943  1.00  0.00    -0.141 N  
HETATM   25  C   UNL     1      -9.056  14.931  69.176  1.00  0.00    -0.140 C  
HETATM   26  C   UNL     1      -8.207  16.921  67.950  1.00  0.00    -0.197 C  
HETATM   27  C   UNL     1      -6.909  14.798  67.932  1.00  0.00    -0.160 C  
ENDBRANCH  23  24
ENDBRANCH  22  23
ENDBRANCH  21  22
ENDBRANCH  18  21
ENDBRANCH  17  18
ENDBRANCH  16  17
ENDBRANCH  15  16
ENDBRANCH  14  15
ENDBRANCH  13  14
ENDBRANCH  12  13
ENDBRANCH  11  12
ENDBRANCH  10  11
ENDBRANCH   9  10
ENDBRANCH   8   9
ENDBRANCH   7   8
ENDBRANCH   6   7
ENDBRANCH   5   6
ENDBRANCH   4   5
ENDBRANCH   3   4
ENDBRANCH   2   3
TORSDOF 20
ENDMDL
MODEL      303
REMARK 921   NORMALIZED FREE ENERGY PREDICTED BY IDOCK:   -2.84 KCAL/MOL
REMARK 922        TOTAL FREE ENERGY PREDICTED BY IDOCK:   -8.08 KCAL/MOL
REMARK 923 INTER-LIGAND FREE ENERGY PREDICTED BY IDOCK:   -5.97 KCAL/MOL
REMARK 924 INTRA-LIGAND FREE ENERGY PREDICTED BY IDOCK:   -2.11 KCAL/MOL
REMARK 927      BINDING AFFINITY PREDICTED BY RF-SCORE:    0.00 PKD
ROOT
HETATM    1  C   UNL     1     -12.010  13.790  66.265  1.00  0.00    -0.462 C  
HETATM    2  C   UNL     1     -11.901  12.284  66.093  1.00  0.00    -0.398 C  
ENDROOT
BRANCH   2   3
HETATM    3  C   UNL     1     -11.077  11.929  64.858  1.00  0.00    -0.363 C  
BRANCH   3   4
HETATM    4  C   UNL     1      -9.744  11.300  65.251  1.00  0.00    -0.280 C  
BRANCH   4   5
HETATM    5  C   UNL     1      -9.910   9.808  65.518  1.00  0.00    -0.378 C  
BRANCH   5   6
HETATM    6  C   UNL     1      -8.657   9.044  65.104  1.00  0.00    -0.204 C  
BRANCH   6   7
HETATM    7  C   UNL     1      -8.364   7.924  66.094  1.00  0.00    -0.127 C  
BRANCH   7   8
HETATM    8  C   UNL     1      -8.891   6.596  65.568  1.00  0.00     0.004 C  
BRANCH   8   9
HETATM    9  C   UNL     1      -9.613   5.843  66.675  1.00  0.00    -0.174 C  
BRANCH   9  10
HETATM   10  C   UNL     1     -10.732   6.691  67.259  1.00  0.00    -0.427 C  
BRANCH  10  11
HETATM   11  C   UNL     1     -10.997   6.276  68.697  1.00  0.00    -0.423 C  
BRANCH  11  12
HETATM   12  C   UNL     1      -9.816   6.636  69.581  1.00  0.00    -0.168 C  
BRANCH  12  13
HETATM   13  C   UNL     1      -9.607   8.144  69.584  1.00  0.00    -0.168 C  
BRANCH  13  14
HETATM   14  C   UNL     1      -8.284   8.470  70.247  1.00  0.00    -0.115 C  
BRANCH  14  15
HETATM   15  C   UNL     1      -7.910   9.933  70.053  1.00  0.00    -0.192 C  
BRANCH  15  16
HETATM   16  C   UNL     1      -6.832  10.004  68.995  1.00  0.00    -0.055 C  
BRANCH  16  17
HETATM   17  O   UNL     1      -7.298  10.725  67.861  1.00  0.00    -0.086 OA 
BRANCH  17  18
HETATM   18  P   UNL     1      -6.559  12.283  67.716  1.00  0.00    -0.142 P  
HETATM   19  O   UNL     1      -7.948  12.920  67.821  1.00  0.00    -0.135 OA 
HETATM   20  O   UNL     1      -5.888  11.911  66.395  1.00  0.00    -0.214 OA 
BRANCH  18  21
HETATM   21  O   UNL     1      -5.819  13.840  67.571  1.00  0.00    -0.328 OA 
BRANCH  21  22
HETATM   22  C   UNL     1      -6.540  14.891  68.209  1.00  0.00    -0.115 C  
BRANCH  22  23
HETATM   23  C   UNL     1      -6.482  16.184  67.426  1.00  0.00    -0.182 C  
BRANCH  23  24
HETATM   24  N   UNL     1      -7.754  17.056  67.506  1.00  0.00    -0.167 N  
HETATM   25  C   UNL     1      -8.216  17.036  68.950  1.00  0.00    -0.204 C  
HETATM   26  C   UNL     1      -8.845  16.464  66.613  1.00  0.00    -0.249 C  
HETATM   27  C   UNL     1      -7.464  18.482  67.074  1.00  0.00    -0.217 C  
ENDBRANCH  23  24
ENDBRANCH  22  23
ENDBRANCH  21  22
ENDBRANCH  18  21
ENDBRANCH  17  18
ENDBRANCH  16  17
ENDBRANCH  15  16
ENDBRANCH  14  15
ENDBRANCH  13  14
ENDBRANCH  12  13
ENDBRANCH  11  12
ENDBRANCH  10  11
ENDBRANCH   9  10
ENDBRANCH   8   9
ENDBRANCH   7   8
ENDBRANCH   6   7
ENDBRANCH   5   6
ENDBRANCH   4   5
ENDBRANCH   3   4
ENDBRANCH   2   3
TORSDOF 20
ENDMDL
MODEL      304
REMARK 921   NORMALIZED FREE ENERGY PREDICTED BY IDOCK:   -2.81 KCAL/MOL
REMARK 922        TOTAL FREE ENERGY PREDICTED BY IDOCK:   -8.01 KCAL/MOL
REMARK 923 INTER-LIGAND FREE ENERGY PREDICTED BY IDOCK:   -6.99 KCAL/MOL
REMARK 924 INTRA-LIGAND FREE ENERGY PREDICTED BY IDOCK:   -1.02 KCAL/MOL
REMARK 927      BINDING AFFINITY PREDICTED BY RF-SCORE:    0.00 PKD
ROOT
HETATM    1  C   UNL     1      -9.023  19.112  68.783  1.00  0.00    -0.388 C  
HETATM    2  C   UNL     1     -10.346  19.314  68.064  1.00  0.00    -0.506 C  
ENDROOT
BRANCH   2   3
HETATM    3  C   UNL     1     -10.716  18.087  67.235  1.00  0.00    -0.305 C  
BRANCH   3   4
HETATM    4  C   UNL     1     -11.172  16.938  68.130  1.00  0.00    -0.093 C  
BRANCH   4   5
HETATM    5  C   UNL     1     -10.820  15.594  67.503  1.00  0.00    -0.316 C  
BRANCH   5   6
HETATM    6  C   UNL     1     -12.020  14.654  67.534  1.00  0.00    -0.309 C  
BRANCH   6   7
HETATM    7  C   UNL     1     -11.673  13.324  66.878  1.00  0.00    -0.437 C  
BRANCH   7   8
HETATM    8  C   UNL     1     -11.863  13.410  65.369  1.00  0.00    -0.381 C  
BRANCH   8   9
HETATM    9  C   UNL     1     -10.526  13.654  64.686  1.00  0.00    -0.442 C  
BRANCH   9  10
HETATM   10  C   UNL     1     -10.199  12.520  63.727  1.00  0.00    -0.360 C  
BRANCH  10  11
HETATM   11  C   UNL     1     -11.006  11.285  64.093  1.00  0.00    -0.376 C  
BRANCH  11  12
HETATM   12  C   UNL     1     -10.232  10.411  65.064  1.00  0.00    -0.334 C  
BRANCH  12  13
HETATM   13  C   UNL     1      -8.795  10.249  64.588  1.00  0.00    -0.220 C  
BRANCH  13  14
HETATM   14  C   UNL     1      -7.987   9.531  65.651  1.00  0.00    -0.108 C  
BRANCH  14  15
HETATM   15  C   UNL     1      -8.378   8.064  65.750  1.00  0.00    -0.142 C  
BRANCH  15  16
HETATM   16  C   UNL     1      -8.871   7.805  67.156  1.00  0.00    -0.125 C  
BRANCH  16  17
HETATM   17  O   UNL     1      -8.439   8.841  68.030  1.00  0.00    -0.124 OA 
BRANCH  17  18
HETATM   18  P   UNL     1      -9.753   9.596  68.864  1.00  0.00    -0.178 P  
HETATM   19  O   UNL     1      -9.380   8.795  70.116  1.00  0.00    -0.157 OA 
HETATM   20  O   UNL     1     -10.767   9.130  67.822  1.00  0.00    -0.245 OA 
BRANCH  18  21
HETATM   21  O   UNL     1     -11.066  10.353  69.699  1.00  0.00    -0.239 OA 
BRANCH  21  22
HETATM   22  C   UNL     1     -11.385   9.753  70.951  1.00  0.00    -0.365 C  
BRANCH  22  23
HETATM   23  C   UNL     1     -12.699   9.003  70.910  1.00  0.00     0.014 C  
BRANCH  23  24
HETATM   24  N   UNL     1     -12.614   7.511  71.296  1.00  0.00    -0.331 N  
HETATM   25  C   UNL     1     -12.064   6.772  70.092  1.00  0.00    -0.079 C  
HETATM   26  C   UNL     1     -14.010   6.980  71.625  1.00  0.00    -0.241 C  
HETATM   27  C   UNL     1     -11.700   7.307  72.491  1.00  0.00    -0.204 C  
ENDBRANCH  23  24
ENDBRANCH  22  23
ENDBRANCH  21  22
ENDBRANCH  18  21
ENDBRANCH  17  18
ENDBRANCH  16  17
ENDBRANCH  15  16
ENDBRANCH  14  15
ENDBRANCH  13  14
ENDBRANCH  12  13
ENDBRANCH  11  12
ENDBRANCH  10  11
ENDBRANCH   9  10
ENDBRANCH   8   9
ENDBRANCH   7   8
ENDBRANCH   6   7
ENDBRANCH   5   6
ENDBRANCH   4   5
ENDBRANCH   3   4
ENDBRANCH   2   3
TORSDOF 20
ENDMDL
MODEL      305
REMARK 921   NORMALIZED FREE ENERGY PREDICTED BY IDOCK:   -2.78 KCAL/MOL
REMARK 922        TOTAL FREE ENERGY PREDICTED BY IDOCK:   -7.96 KCAL/MOL
REMARK 923 INTER-LIGAND FREE ENERGY PREDICTED BY IDOCK:   -5.50 KCAL/MOL
REMARK 924 INTRA-LIGAND FREE ENERGY PREDICTED BY IDOCK:   -2.46 KCAL/MOL
REMARK 927      BINDING AFFINITY PREDICTED BY RF-SCORE:    0.00 PKD
ROOT
HETATM    1  C   UNL     1     -10.551  15.291  68.130  1.00  0.00    -0.254 C  
HETATM    2  C   UNL     1      -9.063  15.397  67.843  1.00  0.00    -0.178 C  
ENDROOT
BRANCH   2   3
HETATM    3  C   UNL     1      -8.562  14.180  67.070  1.00  0.00    -0.204 C  
BRANCH   3   4
HETATM    4  C   UNL     1      -7.870  13.187  67.998  1.00  0.00    -0.147 C  
BRANCH   4   5
HETATM    5  C   UNL     1      -8.728  11.942  68.194  1.00  0.00    -0.173 C  
BRANCH   5   6
HETATM    6  C   UNL     1      -9.505  11.618  66.923  1.00  0.00    -0.195 C  
BRANCH   6   7
HETATM    7  C   UNL     1      -8.767  10.571  66.099  1.00  0.00    -0.167 C  
BRANCH   7   8
HETATM    8  C   UNL     1      -9.708   9.437  65.713  1.00  0.00    -0.354 C  
BRANCH   8   9
HETATM    9  C   UNL     1     -10.607   9.080  66.887  1.00  0.00    -0.243 C  
BRANCH   9  10
HETATM   10  C   UNL     1     -10.523   7.594  67.194  1.00  0.00    -0.412 C  
BRANCH  10  11
HETATM   11  C   UNL     1      -9.461   6.945  66.321  1.00  0.00    -0.122 C  
BRANCH  11  12
HETATM   12  C   UNL     1      -8.350   6.363  67.177  1.00  0.00    -0.112 C  
BRANCH  12  13
HETATM   13  C   UNL     1      -7.104   7.232  67.076  1.00  0.00    -0.087 C  
BRANCH  13  14
HETATM   14  C   UNL     1      -6.645   7.621  68.467  1.00  0.00    -0.053 C  
BRANCH  14  15
HETATM   15  C   UNL     1      -7.557   8.675  69.079  1.00  0.00    -0.090 C  
BRANCH  15  16
HETATM   16  C   UNL     1      -7.391   8.621  70.581  1.00  0.00    -0.064 C  
BRANCH  16  17
HETATM   17  O   UNL     1      -8.358   9.449  71.216  1.00  0.00    -0.308 OA 
BRANCH  17  18
HETATM   18  P   UNL     1      -9.570   8.537  72.046  1.00  0.00    -0.300 P  
HETATM   19  O   UNL     1     -10.629   9.500  71.500  1.00  0.00    -0.323 OA 
HETATM   20  O   UNL     1      -8.870   8.712  73.392  1.00  0.00    -0.297 OA 
BRANCH  18  21
HETATM   21  O   UNL     1     -10.782   7.623  72.877  1.00  0.00    -0.305 OA 
BRANCH  21  22
HETATM   22  C   UNL     1     -10.546   6.218  72.893  1.00  0.00    -0.233 C  
BRANCH  22  23
HETATM   23  C   UNL     1     -10.668   5.599  71.518  1.00  0.00    -0.242 C  
BRANCH  23  24
HETATM   24  N   UNL     1      -9.630   4.501  71.198  1.00  0.00    -0.163 N  
HETATM   25  C   UNL     1      -9.765   4.179  69.723  1.00  0.00    -0.208 C  
HETATM   26  C   UNL     1      -9.931   3.248  72.023  1.00  0.00    -0.152 C  
HETATM   27  C   UNL     1      -8.221   4.979  71.498  1.00  0.00    -0.114 C  
ENDBRANCH  23  24
ENDBRANCH  22  23
ENDBRANCH  21  22
ENDBRANCH  18  21
ENDBRANCH  17  18
ENDBRANCH  16  17
ENDBRANCH  15  16
ENDBRANCH  14  15
ENDBRANCH  13  14
ENDBRANCH  12  13
ENDBRANCH  11  12
ENDBRANCH  10  11
ENDBRANCH   9  10
ENDBRANCH   8   9
ENDBRANCH   7   8
ENDBRANCH   6   7
ENDBRANCH   5   6
ENDBRANCH   4   5
ENDBRANCH   3   4
ENDBRANCH   2   3
TORSDOF 20
ENDMDL
MODEL      306
REMARK 921   NORMALIZED FREE ENERGY PREDICTED BY IDOCK:   -2.78 KCAL/MOL
REMARK 922        TOTAL FREE ENERGY PREDICTED BY IDOCK:   -7.95 KCAL/MOL
REMARK 923 INTER-LIGAND FREE ENERGY PREDICTED BY IDOCK:   -6.00 KCAL/MOL
REMARK 924 INTRA-LIGAND FREE ENERGY PREDICTED BY IDOCK:   -1.95 KCAL/MOL
REMARK 927      BINDING AFFINITY PREDICTED BY RF-SCORE:    0.00 PKD
ROOT
HETATM    1  C   UNL     1     -11.229   6.287  69.278  1.00  0.00    -0.458 C  
HETATM    2  C   UNL     1     -10.939   5.833  70.699  1.00  0.00    -0.319 C  
ENDROOT
BRANCH   2   3
HETATM    3  C   UNL     1     -11.813   6.578  71.704  1.00  0.00    -0.384 C  
BRANCH   3   4
HETATM    4  C   UNL     1     -11.032   6.907  72.973  1.00  0.00    -0.308 C  
BRANCH   4   5
HETATM    5  C   UNL     1     -10.092   8.084  72.738  1.00  0.00    -0.378 C  
BRANCH   5   6
HETATM    6  C   UNL     1      -8.864   7.981  73.635  1.00  0.00    -0.326 C  
BRANCH   6   7
HETATM    7  C   UNL     1      -8.442   6.527  73.796  1.00  0.00    -0.131 C  
BRANCH   7   8
HETATM    8  C   UNL     1      -6.924   6.415  73.846  1.00  0.00    -0.082 C  
BRANCH   8   9
HETATM    9  C   UNL     1      -6.398   5.829  72.544  1.00  0.00    -0.053 C  
BRANCH   9  10
HETATM   10  C   UNL     1      -7.539   5.273  71.707  1.00  0.00    -0.107 C  
BRANCH  10  11
HETATM   11  C   UNL     1      -7.003   4.248  70.720  1.00  0.00    -0.037 C  
BRANCH  11  12
HETATM   12  C   UNL     1      -6.509   4.933  69.458  1.00  0.00    -0.038 C  
BRANCH  12  13
HETATM   13  C   UNL     1      -7.605   5.816  68.880  1.00  0.00    -0.089 C  
BRANCH  13  14
HETATM   14  C   UNL     1      -8.324   5.072  67.773  1.00  0.00    -0.105 C  
BRANCH  14  15
HETATM   15  C   UNL     1      -8.038   5.689  66.411  1.00  0.00    -0.106 C  
BRANCH  15  16
HETATM   16  C   UNL     1      -8.780   7.005  66.330  1.00  0.00    -0.146 C  
BRANCH  16  17
HETATM   17  O   UNL     1      -8.447   7.687  65.127  1.00  0.00    -0.125 OA 
BRANCH  17  18
HETATM   18  P   UNL     1      -8.765   9.385  65.216  1.00  0.00    -0.198 P  
HETATM   19  O   UNL     1      -9.814   9.102  66.297  1.00  0.00    -0.252 OA 
HETATM   20  O   UNL     1      -9.078   9.470  63.724  1.00  0.00    -0.224 OA 
BRANCH  18  21
HETATM   21  O   UNL     1      -9.082  11.083  65.306  1.00  0.00    -0.202 OA 
BRANCH  21  22
HETATM   22  C   UNL     1     -10.448  11.411  65.547  1.00  0.00    -0.268 C  
BRANCH  22  23
HETATM   23  C   UNL     1     -10.940  12.522  64.645  1.00  0.00    -0.310 C  
BRANCH  23  24
HETATM   24  N   UNL     1     -11.279  13.846  65.362  1.00  0.00    -0.300 N  
HETATM   25  C   UNL     1     -12.308  13.523  66.428  1.00  0.00    -0.357 C  
HETATM   26  C   UNL     1     -11.874  14.840  64.363  1.00  0.00    -0.380 C  
HETATM   27  C   UNL     1     -10.043  14.452  66.002  1.00  0.00    -0.322 C  
ENDBRANCH  23  24
ENDBRANCH  22  23
ENDBRANCH  21  22
ENDBRANCH  18  21
ENDBRANCH  17  18
ENDBRANCH  16  17
ENDBRANCH  15  16
ENDBRANCH  14  15
ENDBRANCH  13  14
ENDBRANCH  12  13
ENDBRANCH  11  12
ENDBRANCH  10  11
ENDBRANCH   9  10
ENDBRANCH   8   9
ENDBRANCH   7   8
ENDBRANCH   6   7
ENDBRANCH   5   6
ENDBRANCH   4   5
ENDBRANCH   3   4
ENDBRANCH   2   3
TORSDOF 20
ENDMDL
MODEL      307
REMARK 921   NORMALIZED FREE ENERGY PREDICTED BY IDOCK:   -2.78 KCAL/MOL
REMARK 922        TOTAL FREE ENERGY PREDICTED BY IDOCK:   -7.95 KCAL/MOL
REMARK 923 INTER-LIGAND FREE ENERGY PREDICTED BY IDOCK:   -6.29 KCAL/MOL
REMARK 924 INTRA-LIGAND FREE ENERGY PREDICTED BY IDOCK:   -1.66 KCAL/MOL
REMARK 927      BINDING AFFINITY PREDICTED BY RF-SCORE:    0.00 PKD
ROOT
HETATM    1  C   UNL     1     -11.624   6.719  70.814  1.00  0.00    -0.418 C  
HETATM    2  C   UNL     1     -11.112   5.514  71.584  1.00  0.00    -0.192 C  
ENDROOT
BRANCH   2   3
HETATM    3  C   UNL     1     -11.609   5.531  73.027  1.00  0.00    -0.233 C  
BRANCH   3   4
HETATM    4  C   UNL     1     -10.474   5.234  74.002  1.00  0.00    -0.318 C  
BRANCH   4   5
HETATM    5  C   UNL     1      -9.714   6.509  74.350  1.00  0.00    -0.328 C  
BRANCH   5   6
HETATM    6  C   UNL     1      -8.212   6.302  74.194  1.00  0.00    -0.115 C  
BRANCH   6   7
HETATM    7  C   UNL     1      -7.910   5.526  72.919  1.00  0.00    -0.098 C  
BRANCH   7   8
HETATM    8  C   UNL     1      -6.544   5.915  72.369  1.00  0.00    -0.067 C  
BRANCH   8   9
HETATM    9  C   UNL     1      -6.699   6.951  71.266  1.00  0.00    -0.057 C  
BRANCH   9  10
HETATM   10  C   UNL     1      -7.937   6.666  70.432  1.00  0.00    -0.115 C  
BRANCH  10  11
HETATM   11  C   UNL     1      -7.637   6.912  68.962  1.00  0.00    -0.104 C  
BRANCH  11  12
HETATM   12  C   UNL     1      -8.079   8.307  68.555  1.00  0.00    -0.123 C  
BRANCH  12  13
HETATM   13  C   UNL     1      -9.537   8.287  68.120  1.00  0.00    -0.163 C  
BRANCH  13  14
HETATM   14  C   UNL     1      -9.617   8.035  66.628  1.00  0.00    -0.297 C  
BRANCH  14  15
HETATM   15  C   UNL     1      -9.779   9.335  65.852  1.00  0.00    -0.355 C  
BRANCH  15  16
HETATM   16  C   UNL     1     -10.437  10.345  66.765  1.00  0.00    -0.225 C  
BRANCH  16  17
HETATM   17  O   UNL     1      -9.710  11.568  66.756  1.00  0.00    -0.194 OA 
BRANCH  17  18
HETATM   18  P   UNL     1     -10.550  12.846  67.564  1.00  0.00    -0.231 P  
HETATM   19  O   UNL     1     -11.214  13.213  66.233  1.00  0.00    -0.291 OA 
HETATM   20  O   UNL     1      -9.250  13.466  68.070  1.00  0.00    -0.195 OA 
BRANCH  18  21
HETATM   21  O   UNL     1     -11.391  14.123  68.374  1.00  0.00    -0.258 OA 
BRANCH  21  22
HETATM   22  C   UNL     1     -11.500  15.324  67.615  1.00  0.00    -0.280 C  
BRANCH  22  23
HETATM   23  C   UNL     1     -10.879  16.508  68.322  1.00  0.00    -0.352 C  
BRANCH  23  24
HETATM   24  N   UNL     1     -10.088  17.474  67.412  1.00  0.00    -0.313 N  
HETATM   25  C   UNL     1     -10.334  17.037  65.981  1.00  0.00    -0.315 C  
HETATM   26  C   UNL     1      -8.594  17.376  67.726  1.00  0.00    -0.227 C  
HETATM   27  C   UNL     1     -10.553  18.906  67.604  1.00  0.00    -0.428 C  
ENDBRANCH  23  24
ENDBRANCH  22  23
ENDBRANCH  21  22
ENDBRANCH  18  21
ENDBRANCH  17  18
ENDBRANCH  16  17
ENDBRANCH  15  16
ENDBRANCH  14  15
ENDBRANCH  13  14
ENDBRANCH  12  13
ENDBRANCH  11  12
ENDBRANCH  10  11
ENDBRANCH   9  10
ENDBRANCH   8   9
ENDBRANCH   7   8
ENDBRANCH   6   7
ENDBRANCH   5   6
ENDBRANCH   4   5
ENDBRANCH   3   4
ENDBRANCH   2   3
TORSDOF 20
ENDMDL
MODEL      308
REMARK 921   NORMALIZED FREE ENERGY PREDICTED BY IDOCK:   -2.76 KCAL/MOL
REMARK 922        TOTAL FREE ENERGY PREDICTED BY IDOCK:   -7.92 KCAL/MOL
REMARK 923 INTER-LIGAND FREE ENERGY PREDICTED BY IDOCK:   -6.34 KCAL/MOL
REMARK 924 INTRA-LIGAND FREE ENERGY PREDICTED BY IDOCK:   -1.58 KCAL/MOL
REMARK 927      BINDING AFFINITY PREDICTED BY RF-SCORE:    0.00 PKD
ROOT
HETATM    1  C   UNL     1      -9.616   6.320  74.271  1.00  0.00    -0.240 C  
HETATM    2  C   UNL     1      -8.614   7.235  73.589  1.00  0.00    -0.193 C  
ENDROOT
BRANCH   2   3
HETATM    3  C   UNL     1      -9.183   7.804  72.291  1.00  0.00    -0.207 C  
BRANCH   3   4
HETATM    4  C   UNL     1      -8.366   7.345  71.087  1.00  0.00    -0.114 C  
BRANCH   4   5
HETATM    5  C   UNL     1      -9.088   6.232  70.337  1.00  0.00    -0.157 C  
BRANCH   5   6
HETATM    6  C   UNL     1     -10.599   6.398  70.449  1.00  0.00    -0.294 C  
BRANCH   6   7
HETATM    7  C   UNL     1     -11.253   6.265  69.080  1.00  0.00    -0.439 C  
BRANCH   7   8
HETATM    8  C   UNL     1     -10.803   7.393  68.162  1.00  0.00    -0.100 C  
BRANCH   8   9
HETATM    9  C   UNL     1     -10.349   6.830  66.824  1.00  0.00    -0.286 C  
BRANCH   9  10
HETATM   10  C   UNL     1      -8.867   7.093  66.606  1.00  0.00    -0.142 C  
BRANCH  10  11
HETATM   11  C   UNL     1      -8.686   8.253  65.639  1.00  0.00    -0.188 C  
BRANCH  11  12
HETATM   12  C   UNL     1      -8.630   9.570  66.392  1.00  0.00    -0.143 C  
BRANCH  12  13
HETATM   13  C   UNL     1      -7.186   9.925  66.717  1.00  0.00    -0.091 C  
BRANCH  13  14
HETATM   14  C   UNL     1      -7.135  11.287  67.379  1.00  0.00    -0.109 C  
BRANCH  14  15
HETATM   15  C   UNL     1      -8.333  11.505  68.293  1.00  0.00    -0.154 C  
BRANCH  15  16
HETATM   16  C   UNL     1      -8.846  12.909  68.063  1.00  0.00    -0.195 C  
BRANCH  16  17
HETATM   17  O   UNL     1      -9.267  13.067  66.713  1.00  0.00    -0.229 OA 
BRANCH  17  18
HETATM   18  P   UNL     1      -9.805  14.675  66.370  1.00  0.00    -0.313 P  
HETATM   19  O   UNL     1     -10.708  14.606  67.606  1.00  0.00    -0.263 OA 
HETATM   20  O   UNL     1     -10.254  14.292  64.961  1.00  0.00    -0.402 OA 
BRANCH  18  21
HETATM   21  O   UNL     1     -10.341  16.283  66.026  1.00  0.00    -0.319 OA 
BRANCH  21  22
HETATM   22  C   UNL     1      -9.302  17.258  66.025  1.00  0.00    -0.097 C  
BRANCH  22  23
HETATM   23  C   UNL     1      -8.911  17.682  67.423  1.00  0.00    -0.235 C  
BRANCH  23  24
HETATM   24  N   UNL     1      -8.837  19.208  67.650  1.00  0.00    -0.291 N  
HETATM   25  C   UNL     1     -10.223  19.661  68.067  1.00  0.00    -0.457 C  
HETATM   26  C   UNL     1      -8.443  19.907  66.347  1.00  0.00    -0.341 C  
HETATM   27  C   UNL     1      -7.831  19.550  68.733  1.00  0.00    -0.342 C  
ENDBRANCH  23  24
ENDBRANCH  22  23
ENDBRANCH  21  22
ENDBRANCH  18  21
ENDBRANCH  17  18
ENDBRANCH  16  17
ENDBRANCH  15  16
ENDBRANCH  14  15
ENDBRANCH  13  14
ENDBRANCH  12  13
ENDBRANCH  11  12
ENDBRANCH  10  11
ENDBRANCH   9  10
ENDBRANCH   8   9
ENDBRANCH   7   8
ENDBRANCH   6   7
ENDBRANCH   5   6
ENDBRANCH   4   5
ENDBRANCH   3   4
ENDBRANCH   2   3
TORSDOF 20
ENDMDL
MODEL      309
REMARK 921   NORMALIZED FREE ENERGY PREDICTED BY IDOCK:   -2.75 KCAL/MOL
REMARK 922        TOTAL FREE ENERGY PREDICTED BY IDOCK:   -7.88 KCAL/MOL
REMARK 923 INTER-LIGAND FREE ENERGY PREDICTED BY IDOCK:   -5.63 KCAL/MOL
REMARK 924 INTRA-LIGAND FREE ENERGY PREDICTED BY IDOCK:   -2.25 KCAL/MOL
REMARK 927      BINDING AFFINITY PREDICTED BY RF-SCORE:    0.00 PKD
ROOT
HETATM    1  C   UNL     1      -6.148   9.381  65.247  1.00  0.00    -0.065 C  
HETATM    2  C   UNL     1      -7.594   9.560  64.815  1.00  0.00    -0.112 C  
ENDROOT
BRANCH   2   3
HETATM    3  C   UNL     1      -8.348   8.234  64.852  1.00  0.00    -0.145 C  
BRANCH   3   4
HETATM    4  C   UNL     1      -8.090   7.492  66.160  1.00  0.00    -0.116 C  
BRANCH   4   5
HETATM    5  C   UNL     1      -9.156   7.836  67.195  1.00  0.00    -0.154 C  
BRANCH   5   6
HETATM    6  C   UNL     1      -9.721   6.570  67.828  1.00  0.00    -0.131 C  
BRANCH   6   7
HETATM    7  C   UNL     1      -8.744   5.413  67.671  1.00  0.00    -0.106 C  
BRANCH   7   8
HETATM    8  C   UNL     1      -8.188   4.996  69.026  1.00  0.00    -0.087 C  
BRANCH   8   9
HETATM    9  C   UNL     1      -6.727   5.402  69.141  1.00  0.00    -0.053 C  
BRANCH   9  10
HETATM   10  C   UNL     1      -6.262   5.333  70.587  1.00  0.00    -0.023 C  
BRANCH  10  11
HETATM   11  C   UNL     1      -7.222   6.110  71.475  1.00  0.00    -0.087 C  
BRANCH  11  12
HETATM   12  C   UNL     1      -6.939   7.599  71.387  1.00  0.00    -0.053 C  
BRANCH  12  13
HETATM   13  C   UNL     1      -8.131   8.388  71.912  1.00  0.00    -0.193 C  
BRANCH  13  14
HETATM   14  C   UNL     1      -9.415   7.766  71.400  1.00  0.00    -0.173 C  
BRANCH  14  15
HETATM   15  C   UNL     1     -10.621   8.636  71.724  1.00  0.00    -0.395 C  
BRANCH  15  16
HETATM   16  C   UNL     1     -11.230   9.094  70.418  1.00  0.00    -0.240 C  
BRANCH  16  17
HETATM   17  O   UNL     1     -10.338   9.967  69.736  1.00  0.00    -0.224 OA 
BRANCH  17  18
HETATM   18  P   UNL     1     -11.141  10.951  68.560  1.00  0.00    -0.307 P  
HETATM   19  O   UNL     1      -9.828  11.034  67.775  1.00  0.00    -0.169 OA 
HETATM   20  O   UNL     1     -11.572  11.969  69.614  1.00  0.00    -0.296 OA 
BRANCH  18  21
HETATM   21  O   UNL     1     -11.945  11.933  67.385  1.00  0.00    -0.603 OA 
BRANCH  21  22
HETATM   22  C   UNL     1     -11.934  13.327  67.683  1.00  0.00    -0.322 C  
BRANCH  22  23
HETATM   23  C   UNL     1     -11.602  14.170  66.471  1.00  0.00    -0.375 C  
BRANCH  23  24
HETATM   24  N   UNL     1     -10.415  15.141  66.653  1.00  0.00    -0.281 N  
HETATM   25  C   UNL     1     -10.340  15.991  65.399  1.00  0.00    -0.359 C  
HETATM   26  C   UNL     1      -9.116  14.349  66.810  1.00  0.00    -0.257 C  
HETATM   27  C   UNL     1     -10.617  16.028  67.868  1.00  0.00    -0.301 C  
ENDBRANCH  23  24
ENDBRANCH  22  23
ENDBRANCH  21  22
ENDBRANCH  18  21
ENDBRANCH  17  18
ENDBRANCH  16  17
ENDBRANCH  15  16
ENDBRANCH  14  15
ENDBRANCH  13  14
ENDBRANCH  12  13
ENDBRANCH  11  12
ENDBRANCH  10  11
ENDBRANCH   9  10
ENDBRANCH   8   9
ENDBRANCH   7   8
ENDBRANCH   6   7
ENDBRANCH   5   6
ENDBRANCH   4   5
ENDBRANCH   3   4
ENDBRANCH   2   3
TORSDOF 20
ENDMDL
MODEL      310
REMARK 921   NORMALIZED FREE ENERGY PREDICTED BY IDOCK:   -2.70 KCAL/MOL
REMARK 922        TOTAL FREE ENERGY PREDICTED BY IDOCK:   -7.79 KCAL/MOL
REMARK 923 INTER-LIGAND FREE ENERGY PREDICTED BY IDOCK:   -6.35 KCAL/MOL
REMARK 924 INTRA-LIGAND FREE ENERGY PREDICTED BY IDOCK:   -1.44 KCAL/MOL
REMARK 927      BINDING AFFINITY PREDICTED BY RF-SCORE:    0.00 PKD
ROOT
HETATM    1  C   UNL     1     -12.404  11.307  70.132  1.00  0.00    -0.354 C  
HETATM    2  C   UNL     1     -12.115  12.764  70.453  1.00  0.00    -0.382 C  
ENDROOT
BRANCH   2   3
HETATM    3  C   UNL     1     -12.939  13.239  71.647  1.00  0.00    -0.441 C  
BRANCH   3   4
HETATM    4  C   UNL     1     -12.782  14.741  71.858  1.00  0.00    -0.396 C  
BRANCH   4   5
HETATM    5  C   UNL     1     -12.703  15.469  70.521  1.00  0.00    -0.436 C  
BRANCH   5   6
HETATM    6  C   UNL     1     -11.286  15.968  70.260  1.00  0.00    -0.391 C  
BRANCH   6   7
HETATM    7  C   UNL     1     -11.039  16.114  68.765  1.00  0.00    -0.354 C  
BRANCH   7   8
HETATM    8  C   UNL     1     -11.938  15.167  67.981  1.00  0.00    -0.112 C  
BRANCH   8   9
HETATM    9  C   UNL     1     -11.132  14.444  66.912  1.00  0.00    -0.325 C  
BRANCH   9  10
HETATM   10  C   UNL     1     -11.955  14.266  65.647  1.00  0.00    -0.390 C  
BRANCH  10  11
HETATM   11  C   UNL     1     -11.048  13.873  64.492  1.00  0.00    -0.374 C  
BRANCH  11  12
HETATM   12  C   UNL     1     -10.019  12.854  64.947  1.00  0.00    -0.151 C  
BRANCH  12  13
HETATM   13  C   UNL     1     -10.184  11.560  64.162  1.00  0.00    -0.374 C  
BRANCH  13  14
HETATM   14  C   UNL     1     -10.365  10.403  65.125  1.00  0.00    -0.260 C  
BRANCH  14  15
HETATM   15  C   UNL     1     -10.533  10.893  66.556  1.00  0.00    -0.308 C  
BRANCH  15  16
HETATM   16  C   UNL     1     -10.168   9.757  67.485  1.00  0.00    -0.220 C  
BRANCH  16  17
HETATM   17  O   UNL     1      -8.755   9.645  67.598  1.00  0.00    -0.125 OA 
BRANCH  17  18
HETATM   18  P   UNL     1      -8.268   8.237  68.478  1.00  0.00    -0.133 P  
HETATM   19  O   UNL     1      -7.179   9.073  69.158  1.00  0.00    -0.065 OA 
HETATM   20  O   UNL     1      -8.053   7.433  67.198  1.00  0.00    -0.111 OA 
BRANCH  18  21
HETATM   21  O   UNL     1      -7.784   6.829  69.359  1.00  0.00    -0.100 OA 
BRANCH  21  22
HETATM   22  C   UNL     1      -8.770   5.801  69.407  1.00  0.00    -0.111 C  
BRANCH  22  23
HETATM   23  C   UNL     1      -8.216   4.498  69.940  1.00  0.00    -0.066 C  
BRANCH  23  24
HETATM   24  N   UNL     1      -8.586   4.180  71.405  1.00  0.00    -0.099 N  
HETATM   25  C   UNL     1     -10.010   3.659  71.400  1.00  0.00    -0.093 C  
HETATM   26  C   UNL     1      -8.513   5.455  72.247  1.00  0.00    -0.122 C  
HETATM   27  C   UNL     1      -7.654   3.134  71.988  1.00  0.00    -0.053 C  
ENDBRANCH  23  24
ENDBRANCH  22  23
ENDBRANCH  21  22
ENDBRANCH  18  21
ENDBRANCH  17  18
ENDBRANCH  16  17
ENDBRANCH  15  16
ENDBRANCH  14  15
ENDBRANCH  13  14
ENDBRANCH  12  13
ENDBRANCH  11  12
ENDBRANCH  10  11
ENDBRANCH   9  10
ENDBRANCH   8   9
ENDBRANCH   7   8
ENDBRANCH   6   7
ENDBRANCH   5   6
ENDBRANCH   4   5
ENDBRANCH   3   4
ENDBRANCH   2   3
TORSDOF 20
ENDMDL
MODEL      311
REMARK 921   NORMALIZED FREE ENERGY PREDICTED BY IDOCK:   -2.69 KCAL/MOL
REMARK 922        TOTAL FREE ENERGY PREDICTED BY IDOCK:   -7.76 KCAL/MOL
REMARK 923 INTER-LIGAND FREE ENERGY PREDICTED BY IDOCK:   -6.11 KCAL/MOL
REMARK 924 INTRA-LIGAND FREE ENERGY PREDICTED BY IDOCK:   -1.66 KCAL/MOL
REMARK 927      BINDING AFFINITY PREDICTED BY RF-SCORE:    0.00 PKD
ROOT
HETATM    1  C   UNL     1     -10.508  19.960  66.266  1.00  0.00    -0.590 C  
HETATM    2  C   UNL     1      -9.921  19.882  67.665  1.00  0.00    -0.553 C  
ENDROOT
BRANCH   2   3
HETATM    3  C   UNL     1      -9.642  18.436  68.066  1.00  0.00    -0.316 C  
BRANCH   3   4
HETATM    4  C   UNL     1      -8.151  18.207  68.288  1.00  0.00    -0.306 C  
BRANCH   4   5
HETATM    5  C   UNL     1      -7.742  16.816  67.815  1.00  0.00    -0.180 C  
BRANCH   5   6
HETATM    6  C   UNL     1      -8.945  15.881  67.785  1.00  0.00    -0.176 C  
BRANCH   6   7
HETATM    7  C   UNL     1      -9.167  15.342  66.378  1.00  0.00    -0.342 C  
BRANCH   7   8
HETATM    8  C   UNL     1     -10.317  14.344  66.365  1.00  0.00    -0.289 C  
BRANCH   8   9
HETATM    9  C   UNL     1     -11.647  15.079  66.293  1.00  0.00    -0.160 C  
BRANCH   9  10
HETATM   10  C   UNL     1     -12.318  14.844  64.949  1.00  0.00    -0.176 C  
BRANCH  10  11
HETATM   11  C   UNL     1     -11.474  13.898  64.109  1.00  0.00    -0.270 C  
BRANCH  11  12
HETATM   12  C   UNL     1     -12.316  12.740  63.603  1.00  0.00    -0.553 C  
BRANCH  12  13
HETATM   13  C   UNL     1     -11.778  11.425  64.148  1.00  0.00    -0.036 C  
BRANCH  13  14
HETATM   14  C   UNL     1     -10.263  11.457  64.144  1.00  0.00    -0.376 C  
BRANCH  14  15
HETATM   15  C   UNL     1      -9.676  10.102  64.513  1.00  0.00    -0.361 C  
BRANCH  15  16
HETATM   16  C   UNL     1     -10.278   9.677  65.834  1.00  0.00    -0.149 C  
BRANCH  16  17
HETATM   17  O   UNL     1      -9.556   8.577  66.375  1.00  0.00    -0.212 OA 
BRANCH  17  18
HETATM   18  P   UNL     1      -9.555   8.571  68.105  1.00  0.00    -0.151 P  
HETATM   19  O   UNL     1      -9.709   7.047  68.072  1.00  0.00    -0.128 OA 
HETATM   20  O   UNL     1     -10.728   9.547  68.173  1.00  0.00    -0.227 OA 
BRANCH  18  21
HETATM   21  O   UNL     1      -9.552   8.566  69.835  1.00  0.00    -0.168 OA 
BRANCH  21  22
HETATM   22  C   UNL     1      -8.577   9.425  70.420  1.00  0.00    -0.230 C  
BRANCH  22  23
HETATM   23  C   UNL     1      -7.218   9.277  69.771  1.00  0.00    -0.066 C  
BRANCH  23  24
HETATM   24  N   UNL     1      -6.636  10.574  69.168  1.00  0.00    -0.052 N  
HETATM   25  C   UNL     1      -6.230  10.258  67.742  1.00  0.00    -0.056 C  
HETATM   26  C   UNL     1      -5.403  11.008  69.964  1.00  0.00    -0.056 C  
HETATM   27  C   UNL     1      -7.664  11.691  69.180  1.00  0.00     0.074 C  
ENDBRANCH  23  24
ENDBRANCH  22  23
ENDBRANCH  21  22
ENDBRANCH  18  21
ENDBRANCH  17  18
ENDBRANCH  16  17
ENDBRANCH  15  16
ENDBRANCH  14  15
ENDBRANCH  13  14
ENDBRANCH  12  13
ENDBRANCH  11  12
ENDBRANCH  10  11
ENDBRANCH   9  10
ENDBRANCH   8   9
ENDBRANCH   7   8
ENDBRANCH   6   7
ENDBRANCH   5   6
ENDBRANCH   4   5
ENDBRANCH   3   4
ENDBRANCH   2   3
TORSDOF 20
ENDMDL
MODEL      312
REMARK 921   NORMALIZED FREE ENERGY PREDICTED BY IDOCK:   -2.68 KCAL/MOL
REMARK 922        TOTAL FREE ENERGY PREDICTED BY IDOCK:   -7.74 KCAL/MOL
REMARK 923 INTER-LIGAND FREE ENERGY PREDICTED BY IDOCK:   -6.33 KCAL/MOL
REMARK 924 INTRA-LIGAND FREE ENERGY PREDICTED BY IDOCK:   -1.41 KCAL/MOL
REMARK 927      BINDING AFFINITY PREDICTED BY RF-SCORE:    0.00 PKD
ROOT
HETATM    1  C   UNL     1      -9.831   5.300  71.864  1.00  0.00    -0.227 C  
HETATM    2  C   UNL     1     -10.797   5.496  70.708  1.00  0.00    -0.249 C  
ENDROOT
BRANCH   2   3
HETATM    3  C   UNL     1     -10.139   6.263  69.565  1.00  0.00    -0.217 C  
BRANCH   3   4
HETATM    4  C   UNL     1     -10.427   5.601  68.222  1.00  0.00    -0.257 C  
BRANCH   4   5
HETATM    5  C   UNL     1      -9.765   4.229  68.143  1.00  0.00    -0.165 C  
BRANCH   5   6
HETATM    6  C   UNL     1      -8.266   4.339  68.394  1.00  0.00    -0.087 C  
BRANCH   6   7
HETATM    7  C   UNL     1      -7.490   4.075  67.111  1.00  0.00    -0.073 C  
BRANCH   7   8
HETATM    8  C   UNL     1      -8.437   3.673  65.988  1.00  0.00    -0.111 C  
BRANCH   8   9
HETATM    9  C   UNL     1      -8.103   4.444  64.720  1.00  0.00    -0.099 C  
BRANCH   9  10
HETATM   10  C   UNL     1      -7.830   5.905  65.037  1.00  0.00    -0.106 C  
BRANCH  10  11
HETATM   11  C   UNL     1      -8.147   6.764  63.823  1.00  0.00     0.003 C  
BRANCH  11  12
HETATM   12  C   UNL     1      -7.208   7.955  63.753  1.00  0.00    -0.092 C  
BRANCH  12  13
HETATM   13  C   UNL     1      -7.737   9.089  64.619  1.00  0.00    -0.115 C  
BRANCH  13  14
HETATM   14  C   UNL     1      -9.183   9.368  64.260  1.00  0.00    -0.073 C  
BRANCH  14  15
HETATM   15  C   UNL     1      -9.297  10.042  62.900  1.00  0.00    -0.290 C  
BRANCH  15  16
HETATM   16  C   UNL     1      -9.711  11.479  63.123  1.00  0.00    -0.390 C  
BRANCH  16  17
HETATM   17  O   UNL     1     -11.125  11.575  63.236  1.00  0.00    -0.341 OA 
BRANCH  17  18
HETATM   18  P   UNL     1     -11.620  12.557  64.572  1.00  0.00    -0.400 P  
HETATM   19  O   UNL     1     -13.066  12.115  64.326  1.00  0.00    -0.723 OA 
HETATM   20  O   UNL     1     -10.995  13.810  63.965  1.00  0.00    -0.228 OA 
BRANCH  18  21
HETATM   21  O   UNL     1     -12.113  13.538  65.909  1.00  0.00    -0.384 OA 
BRANCH  21  22
HETATM   22  C   UNL     1     -11.501  14.824  65.947  1.00  0.00    -0.319 C  
BRANCH  22  23
HETATM   23  C   UNL     1     -10.883  15.127  67.294  1.00  0.00    -0.316 C  
BRANCH  23  24
HETATM   24  N   UNL     1      -9.752  16.179  67.275  1.00  0.00    -0.231 N  
HETATM   25  C   UNL     1      -8.659  15.640  66.374  1.00  0.00    -0.284 C  
HETATM   26  C   UNL     1      -9.199  16.371  68.689  1.00  0.00    -0.231 C  
HETATM   27  C   UNL     1     -10.254  17.509  66.743  1.00  0.00    -0.327 C  
ENDBRANCH  23  24
ENDBRANCH  22  23
ENDBRANCH  21  22
ENDBRANCH  18  21
ENDBRANCH  17  18
ENDBRANCH  16  17
ENDBRANCH  15  16
ENDBRANCH  14  15
ENDBRANCH  13  14
ENDBRANCH  12  13
ENDBRANCH  11  12
ENDBRANCH  10  11
ENDBRANCH   9  10
ENDBRANCH   8   9
ENDBRANCH   7   8
ENDBRANCH   6   7
ENDBRANCH   5   6
ENDBRANCH   4   5
ENDBRANCH   3   4
ENDBRANCH   2   3
TORSDOF 20
ENDMDL
MODEL      313
REMARK 921   NORMALIZED FREE ENERGY PREDICTED BY IDOCK:   -2.67 KCAL/MOL
REMARK 922        TOTAL FREE ENERGY PREDICTED BY IDOCK:   -7.71 KCAL/MOL
REMARK 923 INTER-LIGAND FREE ENERGY PREDICTED BY IDOCK:   -6.56 KCAL/MOL
REMARK 924 INTRA-LIGAND FREE ENERGY PREDICTED BY IDOCK:   -1.15 KCAL/MOL
REMARK 927      BINDING AFFINITY PREDICTED BY RF-SCORE:    0.00 PKD
ROOT
HETATM    1  C   UNL     1      -8.514   1.608  69.537  1.00  0.00    -0.078 C  
HETATM    2  C   UNL     1      -7.430   1.622  68.472  1.00  0.00    -0.043 C  
ENDROOT
BRANCH   2   3
HETATM    3  C   UNL     1      -7.837   2.491  67.285  1.00  0.00    -0.069 C  
BRANCH   3   4
HETATM    4  C   UNL     1      -9.188   3.156  67.528  1.00  0.00    -0.233 C  
BRANCH   4   5
HETATM    5  C   UNL     1      -9.070   4.672  67.429  1.00  0.00    -0.135 C  
BRANCH   5   6
HETATM    6  C   UNL     1     -10.337   5.347  67.940  1.00  0.00    -0.222 C  
BRANCH   6   7
HETATM    7  C   UNL     1     -10.000   6.661  68.633  1.00  0.00    -0.151 C  
BRANCH   7   8
HETATM    8  C   UNL     1     -11.055   6.998  69.678  1.00  0.00    -0.254 C  
BRANCH   8   9
HETATM    9  C   UNL     1     -10.417   7.089  71.056  1.00  0.00    -0.231 C  
BRANCH   9  10
HETATM   10  C   UNL     1     -11.259   7.951  71.982  1.00  0.00    -0.339 C  
BRANCH  10  11
HETATM   11  C   UNL     1     -12.696   7.454  71.985  1.00  0.00    -0.239 C  
BRANCH  11  12
HETATM   12  C   UNL     1     -13.649   8.575  71.607  1.00  0.00    -0.393 C  
BRANCH  12  13
HETATM   13  C   UNL     1     -12.961   9.923  71.775  1.00  0.00    -0.549 C  
BRANCH  13  14
HETATM   14  C   UNL     1     -13.028  10.691  70.471  1.00  0.00    -0.277 C  
BRANCH  14  15
HETATM   15  C   UNL     1     -11.959  11.773  70.408  1.00  0.00    -0.422 C  
BRANCH  15  16
HETATM   16  C   UNL     1     -12.562  13.057  70.931  1.00  0.00    -0.280 C  
BRANCH  16  17
HETATM   17  O   UNL     1     -12.302  14.128  70.031  1.00  0.00    -0.332 OA 
BRANCH  17  18
HETATM   18  P   UNL     1     -11.200  13.685  68.773  1.00  0.00    -0.312 P  
HETATM   19  O   UNL     1     -10.345  14.905  69.132  1.00  0.00    -0.235 OA 
HETATM   20  O   UNL     1     -12.301  13.696  67.716  1.00  0.00    -0.246 OA 
BRANCH  18  21
HETATM   21  O   UNL     1     -10.097  13.241  67.516  1.00  0.00    -0.219 OA 
BRANCH  21  22
HETATM   22  C   UNL     1     -10.707  13.061  66.241  1.00  0.00    -0.276 C  
BRANCH  22  23
HETATM   23  C   UNL     1      -9.791  12.361  65.261  1.00  0.00    -0.161 C  
BRANCH  23  24
HETATM   24  N   UNL     1      -9.431  10.904  65.624  1.00  0.00    -0.204 N  
HETATM   25  C   UNL     1     -10.454  10.435  66.639  1.00  0.00    -0.215 C  
HETATM   26  C   UNL     1      -8.035  10.854  66.246  1.00  0.00    -0.161 C  
HETATM   27  C   UNL     1      -9.471  10.011  64.397  1.00  0.00    -0.286 C  
ENDBRANCH  23  24
ENDBRANCH  22  23
ENDBRANCH  21  22
ENDBRANCH  18  21
ENDBRANCH  17  18
ENDBRANCH  16  17
ENDBRANCH  15  16
ENDBRANCH  14  15
ENDBRANCH  13  14
ENDBRANCH  12  13
ENDBRANCH  11  12
ENDBRANCH  10  11
ENDBRANCH   9  10
ENDBRANCH   8   9
ENDBRANCH   7   8
ENDBRANCH   6   7
ENDBRANCH   5   6
ENDBRANCH   4   5
ENDBRANCH   3   4
ENDBRANCH   2   3
TORSDOF 20
ENDMDL
MODEL      314
REMARK 921   NORMALIZED FREE ENERGY PREDICTED BY IDOCK:   -2.66 KCAL/MOL
REMARK 922        TOTAL FREE ENERGY PREDICTED BY IDOCK:   -7.69 KCAL/MOL
REMARK 923 INTER-LIGAND FREE ENERGY PREDICTED BY IDOCK:   -6.36 KCAL/MOL
REMARK 924 INTRA-LIGAND FREE ENERGY PREDICTED BY IDOCK:   -1.34 KCAL/MOL
REMARK 927      BINDING AFFINITY PREDICTED BY RF-SCORE:    0.00 PKD
ROOT
HETATM    1  C   UNL     1     -10.103   6.707  74.192  1.00  0.00    -0.390 C  
HETATM    2  C   UNL     1     -10.933   6.510  72.935  1.00  0.00    -0.282 C  
ENDROOT
BRANCH   2   3
HETATM    3  C   UNL     1     -11.599   7.814  72.504  1.00  0.00    -0.422 C  
BRANCH   3   4
HETATM    4  C   UNL     1     -11.872   7.821  71.004  1.00  0.00    -0.290 C  
BRANCH   4   5
HETATM    5  C   UNL     1     -10.625   7.417  70.226  1.00  0.00    -0.241 C  
BRANCH   5   6
HETATM    6  C   UNL     1     -10.972   6.412  69.134  1.00  0.00    -0.416 C  
BRANCH   6   7
HETATM    7  C   UNL     1      -9.730   6.041  68.335  1.00  0.00    -0.142 C  
BRANCH   7   8
HETATM    8  C   UNL     1      -9.906   4.679  67.677  1.00  0.00    -0.194 C  
BRANCH   8   9
HETATM    9  C   UNL     1     -10.309   4.849  66.220  1.00  0.00    -0.336 C  
BRANCH   9  10
HETATM   10  C   UNL     1      -9.131   5.336  65.391  1.00  0.00    -0.124 C  
BRANCH  10  11
HETATM   11  C   UNL     1      -8.935   4.425  64.189  1.00  0.00    -0.151 C  
BRANCH  11  12
HETATM   12  C   UNL     1      -7.678   4.811  63.429  1.00  0.00    -0.070 C  
BRANCH  12  13
HETATM   13  C   UNL     1      -6.700   5.514  64.360  1.00  0.00    -0.046 C  
BRANCH  13  14
HETATM   14  C   UNL     1      -6.373   6.886  63.807  1.00  0.00    -0.043 C  
BRANCH  14  15
HETATM   15  C   UNL     1      -7.358   7.298  62.723  1.00  0.00    -0.090 C  
BRANCH  15  16
HETATM   16  C   UNL     1      -8.277   8.350  63.302  1.00  0.00    -0.119 C  
BRANCH  16  17
HETATM   17  O   UNL     1      -7.989   8.554  64.680  1.00  0.00    -0.127 OA 
BRANCH  17  18
HETATM   18  P   UNL     1      -8.966   9.794  65.387  1.00  0.00    -0.226 P  
HETATM   19  O   UNL     1      -7.740  10.276  66.169  1.00  0.00    -0.112 OA 
HETATM   20  O   UNL     1      -9.977   8.782  65.922  1.00  0.00    -0.213 OA 
BRANCH  18  21
HETATM   21  O   UNL     1      -9.944  11.035  66.091  1.00  0.00    -0.215 OA 
BRANCH  21  22
HETATM   22  C   UNL     1     -10.256  12.107  65.206  1.00  0.00    -0.274 C  
BRANCH  22  23
HETATM   23  C   UNL     1      -9.992  13.461  65.828  1.00  0.00    -0.252 C  
BRANCH  23  24
HETATM   24  N   UNL     1     -11.204  14.418  65.852  1.00  0.00    -0.318 N  
HETATM   25  C   UNL     1     -10.724  15.755  65.320  1.00  0.00    -0.428 C  
HETATM   26  C   UNL     1     -11.700  14.590  67.289  1.00  0.00    -0.406 C  
HETATM   27  C   UNL     1     -12.333  13.890  64.986  1.00  0.00    -0.430 C  
ENDBRANCH  23  24
ENDBRANCH  22  23
ENDBRANCH  21  22
ENDBRANCH  18  21
ENDBRANCH  17  18
ENDBRANCH  16  17
ENDBRANCH  15  16
ENDBRANCH  14  15
ENDBRANCH  13  14
ENDBRANCH  12  13
ENDBRANCH  11  12
ENDBRANCH  10  11
ENDBRANCH   9  10
ENDBRANCH   8   9
ENDBRANCH   7   8
ENDBRANCH   6   7
ENDBRANCH   5   6
ENDBRANCH   4   5
ENDBRANCH   3   4
ENDBRANCH   2   3
TORSDOF 20
ENDMDL
MODEL      315
REMARK 921   NORMALIZED FREE ENERGY PREDICTED BY IDOCK:   -2.66 KCAL/MOL
REMARK 922        TOTAL FREE ENERGY PREDICTED BY IDOCK:   -7.68 KCAL/MOL
REMARK 923 INTER-LIGAND FREE ENERGY PREDICTED BY IDOCK:   -4.99 KCAL/MOL
REMARK 924 INTRA-LIGAND FREE ENERGY PREDICTED BY IDOCK:   -2.70 KCAL/MOL
REMARK 927      BINDING AFFINITY PREDICTED BY RF-SCORE:    0.00 PKD
ROOT
HETATM    1  C   UNL     1     -11.678  11.955  67.664  1.00  0.00    -0.346 C  
HETATM    2  C   UNL     1     -10.298  11.412  67.335  1.00  0.00    -0.232 C  
ENDROOT
BRANCH   2   3
HETATM    3  C   UNL     1     -10.315  10.617  66.032  1.00  0.00    -0.290 C  
BRANCH   3   4
HETATM    4  C   UNL     1      -9.939   9.159  66.274  1.00  0.00    -0.352 C  
BRANCH   4   5
HETATM    5  C   UNL     1      -9.802   8.878  67.767  1.00  0.00    -0.208 C  
BRANCH   5   6
HETATM    6  C   UNL     1     -10.045   7.402  68.061  1.00  0.00    -0.216 C  
BRANCH   6   7
HETATM    7  C   UNL     1     -10.986   6.799  67.027  1.00  0.00    -0.439 C  
BRANCH   7   8
HETATM    8  C   UNL     1     -10.469   5.443  66.564  1.00  0.00    -0.352 C  
BRANCH   8   9
HETATM    9  C   UNL     1      -9.759   4.735  67.707  1.00  0.00    -0.202 C  
BRANCH   9  10
HETATM   10  C   UNL     1      -8.371   4.285  67.280  1.00  0.00    -0.100 C  
BRANCH  10  11
HETATM   11  C   UNL     1      -7.430   4.310  68.475  1.00  0.00    -0.060 C  
BRANCH  11  12
HETATM   12  C   UNL     1      -6.478   5.489  68.378  1.00  0.00    -0.039 C  
BRANCH  12  13
HETATM   13  C   UNL     1      -6.493   6.058  66.966  1.00  0.00    -0.050 C  
BRANCH  13  14
HETATM   14  C   UNL     1      -6.302   7.560  67.023  1.00  0.00    -0.053 C  
BRANCH  14  15
HETATM   15  C   UNL     1      -6.290   8.065  68.458  1.00  0.00    -0.053 C  
BRANCH  15  16
HETATM   16  C   UNL     1      -6.300   9.577  68.422  1.00  0.00    -0.052 C  
BRANCH  16  17
HETATM   17  O   UNL     1      -6.153  10.104  69.734  1.00  0.00    -0.042 OA 
BRANCH  17  18
HETATM   18  P   UNL     1      -6.905   9.113  70.936  1.00  0.00    -0.082 P  
HETATM   19  O   UNL     1      -8.228   9.837  70.666  1.00  0.00    -0.246 OA 
HETATM   20  O   UNL     1      -5.902   9.537  72.006  1.00  0.00    -0.215 OA 
BRANCH  18  21
HETATM   21  O   UNL     1      -7.657   8.120  72.137  1.00  0.00    -0.099 OA 
BRANCH  21  22
HETATM   22  C   UNL     1      -9.066   8.302  72.247  1.00  0.00    -0.221 C  
BRANCH  22  23
HETATM   23  C   UNL     1      -9.840   7.087  71.787  1.00  0.00    -0.162 C  
BRANCH  23  24
HETATM   24  N   UNL     1      -9.971   5.958  72.832  1.00  0.00    -0.171 N  
HETATM   25  C   UNL     1     -11.357   5.364  72.674  1.00  0.00    -0.266 C  
HETATM   26  C   UNL     1      -9.822   6.535  74.241  1.00  0.00    -0.314 C  
HETATM   27  C   UNL     1      -8.919   4.886  72.611  1.00  0.00    -0.127 C  
ENDBRANCH  23  24
ENDBRANCH  22  23
ENDBRANCH  21  22
ENDBRANCH  18  21
ENDBRANCH  17  18
ENDBRANCH  16  17
ENDBRANCH  15  16
ENDBRANCH  14  15
ENDBRANCH  13  14
ENDBRANCH  12  13
ENDBRANCH  11  12
ENDBRANCH  10  11
ENDBRANCH   9  10
ENDBRANCH   8   9
ENDBRANCH   7   8
ENDBRANCH   6   7
ENDBRANCH   5   6
ENDBRANCH   4   5
ENDBRANCH   3   4
ENDBRANCH   2   3
TORSDOF 20
ENDMDL
MODEL      316
REMARK 921   NORMALIZED FREE ENERGY PREDICTED BY IDOCK:   -2.66 KCAL/MOL
REMARK 922        TOTAL FREE ENERGY PREDICTED BY IDOCK:   -7.68 KCAL/MOL
REMARK 923 INTER-LIGAND FREE ENERGY PREDICTED BY IDOCK:   -6.82 KCAL/MOL
REMARK 924 INTRA-LIGAND FREE ENERGY PREDICTED BY IDOCK:   -0.86 KCAL/MOL
REMARK 927      BINDING AFFINITY PREDICTED BY RF-SCORE:    0.00 PKD
ROOT
HETATM    1  C   UNL     1      -8.167  15.106  69.341  1.00  0.00    -0.197 C  
HETATM    2  C   UNL     1      -9.372  15.497  68.502  1.00  0.00    -0.197 C  
ENDROOT
BRANCH   2   3
HETATM    3  C   UNL     1     -10.676  15.144  69.213  1.00  0.00    -0.250 C  
BRANCH   3   4
HETATM    4  C   UNL     1     -10.990  16.151  70.314  1.00  0.00    -0.345 C  
BRANCH   4   5
HETATM    5  C   UNL     1     -11.286  15.439  71.629  1.00  0.00    -0.455 C  
BRANCH   5   6
HETATM    6  C   UNL     1     -12.492  16.063  72.321  1.00  0.00    -0.536 C  
BRANCH   6   7
HETATM    7  C   UNL     1     -13.776  15.703  71.584  1.00  0.00    -0.467 C  
BRANCH   7   8
HETATM    8  C   UNL     1     -13.747  14.244  71.147  1.00  0.00    -0.255 C  
BRANCH   8   9
HETATM    9  C   UNL     1     -13.701  13.333  72.364  1.00  0.00    -0.678 C  
BRANCH   9  10
HETATM   10  C   UNL     1     -13.897  11.882  71.956  1.00  0.00     0.214 C  
BRANCH  10  11
HETATM   11  C   UNL     1     -12.554  11.170  71.920  1.00  0.00    -0.163 C  
BRANCH  11  12
HETATM   12  C   UNL     1     -12.552  10.093  70.849  1.00  0.00    -0.454 C  
BRANCH  12  13
HETATM   13  C   UNL     1     -11.641   8.946  71.265  1.00  0.00    -0.371 C  
BRANCH  13  14
HETATM   14  C   UNL     1     -12.477   7.718  71.563  1.00  0.00    -0.348 C  
BRANCH  14  15
HETATM   15  C   UNL     1     -11.722   6.438  71.235  1.00  0.00    -0.359 C  
BRANCH  15  16
HETATM   16  C   UNL     1     -11.115   5.913  72.517  1.00  0.00    -0.283 C  
BRANCH  16  17
HETATM   17  O   UNL     1      -9.767   6.349  72.641  1.00  0.00    -0.162 OA 
BRANCH  17  18
HETATM   18  P   UNL     1      -8.967   6.477  71.112  1.00  0.00    -0.144 P  
HETATM   19  O   UNL     1      -8.523   5.018  71.254  1.00  0.00    -0.116 OA 
HETATM   20  O   UNL     1      -8.137   7.672  71.574  1.00  0.00    -0.095 OA 
BRANCH  18  21
HETATM   21  O   UNL     1      -8.169   6.606  69.582  1.00  0.00    -0.123 OA 
BRANCH  21  22
HETATM   22  C   UNL     1      -7.900   7.944  69.174  1.00  0.00    -0.109 C  
BRANCH  22  23
HETATM   23  C   UNL     1      -9.071   8.570  68.450  1.00  0.00    -0.139 C  
BRANCH  23  24
HETATM   24  N   UNL     1      -9.289   8.074  67.004  1.00  0.00    -0.147 N  
HETATM   25  C   UNL     1      -7.980   7.465  66.542  1.00  0.00    -0.111 C  
HETATM   26  C   UNL     1      -9.650   9.253  66.099  1.00  0.00    -0.260 C  
HETATM   27  C   UNL     1     -10.393   7.034  66.945  1.00  0.00    -0.268 C  
ENDBRANCH  23  24
ENDBRANCH  22  23
ENDBRANCH  21  22
ENDBRANCH  18  21
ENDBRANCH  17  18
ENDBRANCH  16  17
ENDBRANCH  15  16
ENDBRANCH  14  15
ENDBRANCH  13  14
ENDBRANCH  12  13
ENDBRANCH  11  12
ENDBRANCH  10  11
ENDBRANCH   9  10
ENDBRANCH   8   9
ENDBRANCH   7   8
ENDBRANCH   6   7
ENDBRANCH   5   6
ENDBRANCH   4   5
ENDBRANCH   3   4
ENDBRANCH   2   3
TORSDOF 20
ENDMDL
MODEL      317
REMARK 921   NORMALIZED FREE ENERGY PREDICTED BY IDOCK:   -2.65 KCAL/MOL
REMARK 922        TOTAL FREE ENERGY PREDICTED BY IDOCK:   -7.66 KCAL/MOL
REMARK 923 INTER-LIGAND FREE ENERGY PREDICTED BY IDOCK:   -6.16 KCAL/MOL
REMARK 924 INTRA-LIGAND FREE ENERGY PREDICTED BY IDOCK:   -1.50 KCAL/MOL
REMARK 927      BINDING AFFINITY PREDICTED BY RF-SCORE:    0.00 PKD
ROOT
HETATM    1  C   UNL     1     -12.391  11.342  70.104  1.00  0.00    -0.354 C  
HETATM    2  C   UNL     1     -12.063  12.798  70.384  1.00  0.00    -0.382 C  
ENDROOT
BRANCH   2   3
HETATM    3  C   UNL     1     -12.895  13.336  71.546  1.00  0.00    -0.419 C  
BRANCH   3   4
HETATM    4  C   UNL     1     -12.672  14.834  71.732  1.00  0.00    -0.396 C  
BRANCH   4   5
HETATM    5  C   UNL     1     -12.507  15.527  70.384  1.00  0.00    -0.443 C  
BRANCH   5   6
HETATM    6  C   UNL     1     -11.057  15.941  70.166  1.00  0.00    -0.369 C  
BRANCH   6   7
HETATM    7  C   UNL     1     -10.785  16.171  68.685  1.00  0.00    -0.295 C  
BRANCH   7   8
HETATM    8  C   UNL     1     -11.755  15.362  67.834  1.00  0.00    -0.198 C  
BRANCH   8   9
HETATM    9  C   UNL     1     -11.008  14.665  66.707  1.00  0.00    -0.323 C  
BRANCH   9  10
HETATM   10  C   UNL     1     -11.814  14.711  65.419  1.00  0.00    -0.304 C  
BRANCH  10  11
HETATM   11  C   UNL     1     -10.926  14.341  64.241  1.00  0.00    -0.049 C  
BRANCH  11  12
HETATM   12  C   UNL     1     -10.037  13.162  64.595  1.00  0.00    -0.248 C  
BRANCH  12  13
HETATM   13  C   UNL     1     -10.347  11.982  63.685  1.00  0.00    -0.482 C  
BRANCH  13  14
HETATM   14  C   UNL     1     -10.683  10.768  64.527  1.00  0.00    -0.147 C  
BRANCH  14  15
HETATM   15  C   UNL     1     -10.790  11.126  66.002  1.00  0.00    -0.230 C  
BRANCH  15  16
HETATM   16  C   UNL     1     -10.572   9.864  66.806  1.00  0.00    -0.144 C  
BRANCH  16  17
HETATM   17  O   UNL     1      -9.183   9.565  66.890  1.00  0.00    -0.138 OA 
BRANCH  17  18
HETATM   18  P   UNL     1      -8.880   8.020  67.606  1.00  0.00    -0.124 P  
HETATM   19  O   UNL     1      -7.697   8.634  68.363  1.00  0.00    -0.097 OA 
HETATM   20  O   UNL     1      -8.762   7.341  66.244  1.00  0.00    -0.137 OA 
BRANCH  18  21
HETATM   21  O   UNL     1      -8.577   6.475  68.323  1.00  0.00    -0.116 OA 
BRANCH  21  22
HETATM   22  C   UNL     1      -9.685   5.579  68.269  1.00  0.00    -0.132 C  
BRANCH  22  23
HETATM   23  C   UNL     1      -9.262   4.134  68.420  1.00  0.00    -0.144 C  
BRANCH  23  24
HETATM   24  N   UNL     1      -8.688   3.482  67.144  1.00  0.00    -0.111 N  
HETATM   25  C   UNL     1      -9.522   3.977  65.979  1.00  0.00    -0.183 C  
HETATM   26  C   UNL     1      -8.803   1.960  67.242  1.00  0.00    -0.130 C  
HETATM   27  C   UNL     1      -7.234   3.867  66.942  1.00  0.00    -0.064 C  
ENDBRANCH  23  24
ENDBRANCH  22  23
ENDBRANCH  21  22
ENDBRANCH  18  21
ENDBRANCH  17  18
ENDBRANCH  16  17
ENDBRANCH  15  16
ENDBRANCH  14  15
ENDBRANCH  13  14
ENDBRANCH  12  13
ENDBRANCH  11  12
ENDBRANCH  10  11
ENDBRANCH   9  10
ENDBRANCH   8   9
ENDBRANCH   7   8
ENDBRANCH   6   7
ENDBRANCH   5   6
ENDBRANCH   4   5
ENDBRANCH   3   4
ENDBRANCH   2   3
TORSDOF 20
ENDMDL
MODEL      318
REMARK 921   NORMALIZED FREE ENERGY PREDICTED BY IDOCK:   -2.64 KCAL/MOL
REMARK 922        TOTAL FREE ENERGY PREDICTED BY IDOCK:   -7.64 KCAL/MOL
REMARK 923 INTER-LIGAND FREE ENERGY PREDICTED BY IDOCK:   -6.23 KCAL/MOL
REMARK 924 INTRA-LIGAND FREE ENERGY PREDICTED BY IDOCK:   -1.41 KCAL/MOL
REMARK 927      BINDING AFFINITY PREDICTED BY RF-SCORE:    0.00 PKD
ROOT
HETATM    1  C   UNL     1      -5.961   9.306  64.518  1.00  0.00    -0.071 C  
HETATM    2  C   UNL     1      -7.374   9.353  63.963  1.00  0.00    -0.105 C  
ENDROOT
BRANCH   2   3
HETATM    3  C   UNL     1      -8.160   8.103  64.350  1.00  0.00    -0.138 C  
BRANCH   3   4
HETATM    4  C   UNL     1      -7.823   7.660  65.770  1.00  0.00    -0.106 C  
BRANCH   4   5
HETATM    5  C   UNL     1      -8.704   8.381  66.784  1.00  0.00    -0.138 C  
BRANCH   5   6
HETATM    6  C   UNL     1     -10.136   7.864  66.718  1.00  0.00    -0.352 C  
BRANCH   6   7
HETATM    7  C   UNL     1     -10.151   6.345  66.611  1.00  0.00    -0.206 C  
BRANCH   7   8
HETATM    8  C   UNL     1     -10.486   5.720  67.959  1.00  0.00    -0.286 C  
BRANCH   8   9
HETATM    9  C   UNL     1      -9.268   5.004  68.522  1.00  0.00    -0.153 C  
BRANCH   9  10
HETATM   10  C   UNL     1      -9.678   4.018  69.604  1.00  0.00    -0.245 C  
BRANCH  10  11
HETATM   11  C   UNL     1      -9.887   4.753  70.919  1.00  0.00    -0.279 C  
BRANCH  11  12
HETATM   12  C   UNL     1      -8.801   5.795  71.124  1.00  0.00    -0.139 C  
BRANCH  12  13
HETATM   13  C   UNL     1      -9.133   6.664  72.330  1.00  0.00    -0.138 C  
BRANCH  13  14
HETATM   14  C   UNL     1     -10.628   6.644  72.571  1.00  0.00    -0.245 C  
BRANCH  14  15
HETATM   15  C   UNL     1     -11.135   8.004  73.029  1.00  0.00    -0.301 C  
BRANCH  15  16
HETATM   16  C   UNL     1     -12.382   8.329  72.236  1.00  0.00    -0.356 C  
BRANCH  16  17
HETATM   17  O   UNL     1     -12.055   8.548  70.869  1.00  0.00    -0.253 OA 
BRANCH  17  18
HETATM   18  P   UNL     1     -12.147  10.217  70.424  1.00  0.00    -0.177 P  
HETATM   19  O   UNL     1     -10.636  10.205  70.174  1.00  0.00    -0.272 OA 
HETATM   20  O   UNL     1     -12.790  10.603  71.754  1.00  0.00    -0.437 OA 
BRANCH  18  21
HETATM   21  O   UNL     1     -12.240  11.886  69.977  1.00  0.00    -0.273 OA 
BRANCH  21  22
HETATM   22  C   UNL     1     -12.718  12.742  71.012  1.00  0.00    -0.243 C  
BRANCH  22  23
HETATM   23  C   UNL     1     -11.885  13.997  71.148  1.00  0.00    -0.056 C  
BRANCH  23  24
HETATM   24  N   UNL     1     -12.459  15.064  72.105  1.00  0.00    -0.328 N  
HETATM   25  C   UNL     1     -11.966  14.723  73.498  1.00  0.00    -0.157 C  
HETATM   26  C   UNL     1     -13.988  15.015  72.080  1.00  0.00    -0.503 C  
HETATM   27  C   UNL     1     -11.990  16.455  71.716  1.00  0.00    -0.273 C  
ENDBRANCH  23  24
ENDBRANCH  22  23
ENDBRANCH  21  22
ENDBRANCH  18  21
ENDBRANCH  17  18
ENDBRANCH  16  17
ENDBRANCH  15  16
ENDBRANCH  14  15
ENDBRANCH  13  14
ENDBRANCH  12  13
ENDBRANCH  11  12
ENDBRANCH  10  11
ENDBRANCH   9  10
ENDBRANCH   8   9
ENDBRANCH   7   8
ENDBRANCH   6   7
ENDBRANCH   5   6
ENDBRANCH   4   5
ENDBRANCH   3   4
ENDBRANCH   2   3
TORSDOF 20
ENDMDL
MODEL      319
REMARK 921   NORMALIZED FREE ENERGY PREDICTED BY IDOCK:   -2.63 KCAL/MOL
REMARK 922        TOTAL FREE ENERGY PREDICTED BY IDOCK:   -7.62 KCAL/MOL
REMARK 923 INTER-LIGAND FREE ENERGY PREDICTED BY IDOCK:   -5.76 KCAL/MOL
REMARK 924 INTRA-LIGAND FREE ENERGY PREDICTED BY IDOCK:   -1.86 KCAL/MOL
REMARK 927      BINDING AFFINITY PREDICTED BY RF-SCORE:    0.00 PKD
ROOT
HETATM    1  C   UNL     1      -9.685  15.020  66.258  1.00  0.00    -0.316 C  
HETATM    2  C   UNL     1     -10.375  14.097  65.268  1.00  0.00    -0.409 C  
ENDROOT
BRANCH   2   3
HETATM    3  C   UNL     1     -11.735  13.644  65.793  1.00  0.00    -0.369 C  
BRANCH   3   4
HETATM    4  C   UNL     1     -11.710  13.477  67.309  1.00  0.00    -0.423 C  
BRANCH   4   5
HETATM    5  C   UNL     1     -11.691  12.000  67.688  1.00  0.00    -0.365 C  
BRANCH   5   6
HETATM    6  C   UNL     1     -11.094  11.808  69.078  1.00  0.00    -0.301 C  
BRANCH   6   7
HETATM    7  C   UNL     1     -12.176  11.409  70.073  1.00  0.00    -0.377 C  
BRANCH   7   8
HETATM    8  C   UNL     1     -11.676  10.298  70.987  1.00  0.00    -0.461 C  
BRANCH   8   9
HETATM    9  C   UNL     1     -10.283   9.860  70.564  1.00  0.00    -0.257 C  
BRANCH   9  10
HETATM   10  C   UNL     1     -10.041   8.406  70.938  1.00  0.00    -0.234 C  
BRANCH  10  11
HETATM   11  C   UNL     1     -10.892   7.500  70.062  1.00  0.00    -0.260 C  
BRANCH  11  12
HETATM   12  C   UNL     1     -11.790   6.623  70.917  1.00  0.00    -0.434 C  
BRANCH  12  13
HETATM   13  C   UNL     1     -11.190   6.459  72.306  1.00  0.00    -0.314 C  
BRANCH  13  14
HETATM   14  C   UNL     1     -10.623   5.061  72.451  1.00  0.00    -0.275 C  
BRANCH  14  15
HETATM   15  C   UNL     1      -9.538   5.008  73.517  1.00  0.00    -0.141 C  
BRANCH  15  16
HETATM   16  C   UNL     1      -8.198   4.962  72.818  1.00  0.00    -0.105 C  
BRANCH  16  17
HETATM   17  O   UNL     1      -8.320   5.433  71.482  1.00  0.00    -0.119 OA 
BRANCH  17  18
HETATM   18  P   UNL     1      -6.872   6.186  70.908  1.00  0.00    -0.066 P  
HETATM   19  O   UNL     1      -6.147   4.844  71.064  1.00  0.00    -0.017 OA 
HETATM   20  O   UNL     1      -6.924   7.259  71.993  1.00  0.00    -0.062 OA 
BRANCH  18  21
HETATM   21  O   UNL     1      -5.424   6.938  70.333  1.00  0.00    -0.022 OA 
BRANCH  21  22
HETATM   22  C   UNL     1      -5.485   7.359  68.973  1.00  0.00    -0.018 C  
BRANCH  22  23
HETATM   23  C   UNL     1      -6.354   8.584  68.789  1.00  0.00    -0.049 C  
BRANCH  23  24
HETATM   24  N   UNL     1      -7.136   8.640  67.459  1.00  0.00    -0.079 N  
HETATM   25  C   UNL     1      -8.179   9.731  67.602  1.00  0.00    -0.114 C  
HETATM   26  C   UNL     1      -7.832   7.300  67.210  1.00  0.00    -0.111 C  
HETATM   27  C   UNL     1      -6.212   8.954  66.296  1.00  0.00    -0.064 C  
ENDBRANCH  23  24
ENDBRANCH  22  23
ENDBRANCH  21  22
ENDBRANCH  18  21
ENDBRANCH  17  18
ENDBRANCH  16  17
ENDBRANCH  15  16
ENDBRANCH  14  15
ENDBRANCH  13  14
ENDBRANCH  12  13
ENDBRANCH  11  12
ENDBRANCH  10  11
ENDBRANCH   9  10
ENDBRANCH   8   9
ENDBRANCH   7   8
ENDBRANCH   6   7
ENDBRANCH   5   6
ENDBRANCH   4   5
ENDBRANCH   3   4
ENDBRANCH   2   3
TORSDOF 20
ENDMDL
MODEL      320
REMARK 921   NORMALIZED FREE ENERGY PREDICTED BY IDOCK:   -2.58 KCAL/MOL
REMARK 922        TOTAL FREE ENERGY PREDICTED BY IDOCK:   -7.52 KCAL/MOL
REMARK 923 INTER-LIGAND FREE ENERGY PREDICTED BY IDOCK:   -5.88 KCAL/MOL
REMARK 924 INTRA-LIGAND FREE ENERGY PREDICTED BY IDOCK:   -1.63 KCAL/MOL
REMARK 927      BINDING AFFINITY PREDICTED BY RF-SCORE:    0.00 PKD
ROOT
HETATM    1  C   UNL     1      -9.492  14.712  68.264  1.00  0.00    -0.211 C  
HETATM    2  C   UNL     1      -9.281  13.585  67.266  1.00  0.00    -0.233 C  
ENDROOT
BRANCH   2   3
HETATM    3  C   UNL     1     -10.607  12.926  66.892  1.00  0.00    -0.262 C  
BRANCH   3   4
HETATM    4  C   UNL     1     -11.585  12.961  68.061  1.00  0.00    -0.385 C  
BRANCH   4   5
HETATM    5  C   UNL     1     -12.007  11.550  68.455  1.00  0.00    -0.268 C  
BRANCH   5   6
HETATM    6  C   UNL     1     -11.578  11.237  69.883  1.00  0.00    -0.413 C  
BRANCH   6   7
HETATM    7  C   UNL     1     -12.761  10.732  70.698  1.00  0.00    -0.417 C  
BRANCH   7   8
HETATM    8  C   UNL     1     -12.315   9.650  71.672  1.00  0.00    -0.489 C  
BRANCH   8   9
HETATM    9  C   UNL     1     -10.814   9.429  71.557  1.00  0.00    -0.398 C  
BRANCH   9  10
HETATM   10  C   UNL     1     -10.482   7.948  71.648  1.00  0.00    -0.255 C  
BRANCH  10  11
HETATM   11  C   UNL     1     -11.664   7.123  71.163  1.00  0.00    -0.350 C  
BRANCH  11  12
HETATM   12  C   UNL     1     -12.044   6.078  72.197  1.00  0.00    -0.201 C  
BRANCH  12  13
HETATM   13  C   UNL     1     -10.867   5.812  73.126  1.00  0.00    -0.310 C  
BRANCH  13  14
HETATM   14  C   UNL     1     -10.313   4.427  72.856  1.00  0.00    -0.240 C  
BRANCH  14  15
HETATM   15  C   UNL     1      -8.793   4.439  72.795  1.00  0.00    -0.115 C  
BRANCH  15  16
HETATM   16  C   UNL     1      -8.356   3.365  71.823  1.00  0.00    -0.066 C  
BRANCH  16  17
HETATM   17  O   UNL     1      -9.339   3.185  70.811  1.00  0.00    -0.127 OA 
BRANCH  17  18
HETATM   18  P   UNL     1      -8.655   2.675  69.306  1.00  0.00    -0.087 P  
HETATM   19  O   UNL     1      -9.621   1.486  69.302  1.00  0.00    -0.099 OA 
HETATM   20  O   UNL     1      -7.244   2.628  69.889  1.00  0.00    -0.040 OA 
BRANCH  18  21
HETATM   21  O   UNL     1      -7.971   2.167  67.800  1.00  0.00    -0.059 OA 
BRANCH  21  22
HETATM   22  C   UNL     1      -8.356   2.965  66.684  1.00  0.00    -0.095 C  
BRANCH  22  23
HETATM   23  C   UNL     1      -8.036   4.430  66.888  1.00  0.00    -0.102 C  
BRANCH  23  24
HETATM   24  N   UNL     1      -8.820   5.404  65.982  1.00  0.00    -0.139 N  
HETATM   25  C   UNL     1     -10.280   5.301  66.378  1.00  0.00    -0.249 C  
HETATM   26  C   UNL     1      -8.659   4.993  64.518  1.00  0.00    -0.143 C  
HETATM   27  C   UNL     1      -8.332   6.830  66.165  1.00  0.00    -0.130 C  
ENDBRANCH  23  24
ENDBRANCH  22  23
ENDBRANCH  21  22
ENDBRANCH  18  21
ENDBRANCH  17  18
ENDBRANCH  16  17
ENDBRANCH  15  16
ENDBRANCH  14  15
ENDBRANCH  13  14
ENDBRANCH  12  13
ENDBRANCH  11  12
ENDBRANCH  10  11
ENDBRANCH   9  10
ENDBRANCH   8   9
ENDBRANCH   7   8
ENDBRANCH   6   7
ENDBRANCH   5   6
ENDBRANCH   4   5
ENDBRANCH   3   4
ENDBRANCH   2   3
TORSDOF 20
ENDMDL
MODEL      321
REMARK 921   NORMALIZED FREE ENERGY PREDICTED BY IDOCK:   -2.57 KCAL/MOL
REMARK 922        TOTAL FREE ENERGY PREDICTED BY IDOCK:   -7.50 KCAL/MOL
REMARK 923 INTER-LIGAND FREE ENERGY PREDICTED BY IDOCK:   -5.33 KCAL/MOL
REMARK 924 INTRA-LIGAND FREE ENERGY PREDICTED BY IDOCK:   -2.17 KCAL/MOL
REMARK 927      BINDING AFFINITY PREDICTED BY RF-SCORE:    0.00 PKD
ROOT
HETATM    1  C   UNL     1     -11.977  13.830  66.344  1.00  0.00    -0.473 C  
HETATM    2  C   UNL     1     -11.706  13.210  67.704  1.00  0.00    -0.414 C  
ENDROOT
BRANCH   2   3
HETATM    3  C   UNL     1     -11.052  11.837  67.562  1.00  0.00    -0.330 C  
BRANCH   3   4
HETATM    4  C   UNL     1     -11.777  10.795  68.407  1.00  0.00    -0.232 C  
BRANCH   4   5
HETATM    5  C   UNL     1     -11.203  10.751  69.819  1.00  0.00    -0.365 C  
BRANCH   5   6
HETATM    6  C   UNL     1      -9.878   9.998  69.841  1.00  0.00    -0.266 C  
BRANCH   6   7
HETATM    7  C   UNL     1     -10.079   8.553  69.405  1.00  0.00    -0.205 C  
BRANCH   7   8
HETATM    8  C   UNL     1     -11.285   7.946  70.110  1.00  0.00    -0.157 C  
BRANCH   8   9
HETATM    9  C   UNL     1     -10.973   6.525  70.552  1.00  0.00    -0.348 C  
BRANCH   9  10
HETATM   10  C   UNL     1     -11.760   6.167  71.803  1.00  0.00    -0.312 C  
BRANCH  10  11
HETATM   11  C   UNL     1     -10.809   5.965  72.972  1.00  0.00    -0.300 C  
BRANCH  11  12
HETATM   12  C   UNL     1     -10.487   7.295  73.631  1.00  0.00    -0.391 C  
BRANCH  12  13
HETATM   13  C   UNL     1      -8.982   7.437  73.812  1.00  0.00    -0.275 C  
BRANCH  13  14
HETATM   14  C   UNL     1      -8.339   7.747  72.476  1.00  0.00    -0.170 C  
BRANCH  14  15
HETATM   15  C   UNL     1      -7.072   6.930  72.266  1.00  0.00    -0.073 C  
BRANCH  15  16
HETATM   16  C   UNL     1      -7.465   5.611  71.639  1.00  0.00    -0.093 C  
BRANCH  16  17
HETATM   17  O   UNL     1      -6.683   5.363  70.477  1.00  0.00    -0.043 OA 
BRANCH  17  18
HETATM   18  P   UNL     1      -7.652   5.131  69.063  1.00  0.00    -0.078 P  
HETATM   19  O   UNL     1      -8.416   4.028  69.802  1.00  0.00    -0.060 OA 
HETATM   20  O   UNL     1      -6.426   4.881  68.187  1.00  0.00    -0.039 OA 
BRANCH  18  21
HETATM   21  O   UNL     1      -8.621   4.900  67.649  1.00  0.00    -0.104 OA 
BRANCH  21  22
HETATM   22  C   UNL     1      -9.081   6.109  67.051  1.00  0.00    -0.118 C  
BRANCH  22  23
HETATM   23  C   UNL     1      -8.620   6.253  65.618  1.00  0.00    -0.139 C  
BRANCH  23  24
HETATM   24  N   UNL     1      -7.556   7.347  65.378  1.00  0.00    -0.090 N  
HETATM   25  C   UNL     1      -7.951   8.080  64.110  1.00  0.00    -0.137 C  
HETATM   26  C   UNL     1      -6.183   6.702  65.186  1.00  0.00    -0.038 C  
HETATM   27  C   UNL     1      -7.501   8.319  66.542  1.00  0.00    -0.081 C  
ENDBRANCH  23  24
ENDBRANCH  22  23
ENDBRANCH  21  22
ENDBRANCH  18  21
ENDBRANCH  17  18
ENDBRANCH  16  17
ENDBRANCH  15  16
ENDBRANCH  14  15
ENDBRANCH  13  14
ENDBRANCH  12  13
ENDBRANCH  11  12
ENDBRANCH  10  11
ENDBRANCH   9  10
ENDBRANCH   8   9
ENDBRANCH   7   8
ENDBRANCH   6   7
ENDBRANCH   5   6
ENDBRANCH   4   5
ENDBRANCH   3   4
ENDBRANCH   2   3
TORSDOF 20
ENDMDL
MODEL      322
REMARK 921   NORMALIZED FREE ENERGY PREDICTED BY IDOCK:   -2.57 KCAL/MOL
REMARK 922        TOTAL FREE ENERGY PREDICTED BY IDOCK:   -7.49 KCAL/MOL
REMARK 923 INTER-LIGAND FREE ENERGY PREDICTED BY IDOCK:   -6.02 KCAL/MOL
REMARK 924 INTRA-LIGAND FREE ENERGY PREDICTED BY IDOCK:   -1.47 KCAL/MOL
REMARK 927      BINDING AFFINITY PREDICTED BY RF-SCORE:    0.00 PKD
ROOT
HETATM    1  C   UNL     1     -13.344  15.336  71.746  1.00  0.00    -0.540 C  
HETATM    2  C   UNL     1     -11.966  15.751  71.261  1.00  0.00    -0.485 C  
ENDROOT
BRANCH   2   3
HETATM    3  C   UNL     1     -11.883  15.710  69.737  1.00  0.00    -0.376 C  
BRANCH   3   4
HETATM    4  C   UNL     1     -11.086  14.499  69.263  1.00  0.00    -0.296 C  
BRANCH   4   5
HETATM    5  C   UNL     1     -12.019  13.382  68.809  1.00  0.00    -0.359 C  
BRANCH   5   6
HETATM    6  C   UNL     1     -11.944  13.197  67.298  1.00  0.00    -0.389 C  
BRANCH   6   7
HETATM    7  C   UNL     1     -10.621  13.726  66.761  1.00  0.00    -0.273 C  
BRANCH   7   8
HETATM    8  C   UNL     1     -10.010  12.735  65.779  1.00  0.00    -0.259 C  
BRANCH   8   9
HETATM    9  C   UNL     1     -10.124  11.320  66.324  1.00  0.00    -0.271 C  
BRANCH   9  10
HETATM   10  C   UNL     1     -10.148  10.308  65.190  1.00  0.00    -0.355 C  
BRANCH  10  11
HETATM   11  C   UNL     1      -9.821  10.999  63.875  1.00  0.00    -0.368 C  
BRANCH  11  12
HETATM   12  C   UNL     1      -9.055  10.062  62.957  1.00  0.00    -0.298 C  
BRANCH  12  13
HETATM   13  C   UNL     1      -7.586  10.028  63.354  1.00  0.00    -0.142 C  
BRANCH  13  14
HETATM   14  C   UNL     1      -7.107   8.591  63.401  1.00  0.00    -0.090 C  
BRANCH  14  15
HETATM   15  C   UNL     1      -7.058   8.068  64.829  1.00  0.00    -0.075 C  
BRANCH  15  16
HETATM   16  C   UNL     1      -8.219   7.118  65.019  1.00  0.00    -0.093 C  
BRANCH  16  17
HETATM   17  O   UNL     1      -7.763   5.770  65.002  1.00  0.00    -0.085 OA 
BRANCH  17  18
HETATM   18  P   UNL     1      -8.378   4.846  66.329  1.00  0.00    -0.112 P  
HETATM   19  O   UNL     1      -8.678   3.701  65.356  1.00  0.00    -0.113 OA 
HETATM   20  O   UNL     1      -9.383   5.933  66.704  1.00  0.00    -0.137 OA 
BRANCH  18  21
HETATM   21  O   UNL     1      -8.992   3.921  67.657  1.00  0.00    -0.114 OA 
BRANCH  21  22
HETATM   22  C   UNL     1      -8.715   4.483  68.937  1.00  0.00    -0.086 C  
BRANCH  22  23
HETATM   23  C   UNL     1      -9.736   4.075  69.976  1.00  0.00    -0.193 C  
BRANCH  23  24
HETATM   24  N   UNL     1      -9.219   4.053  71.431  1.00  0.00    -0.121 N  
HETATM   25  C   UNL     1      -8.928   2.606  71.777  1.00  0.00    -0.082 C  
HETATM   26  C   UNL     1     -10.296   4.596  72.372  1.00  0.00    -0.199 C  
HETATM   27  C   UNL     1      -7.957   4.884  71.573  1.00  0.00    -0.110 C  
ENDBRANCH  23  24
ENDBRANCH  22  23
ENDBRANCH  21  22
ENDBRANCH  18  21
ENDBRANCH  17  18
ENDBRANCH  16  17
ENDBRANCH  15  16
ENDBRANCH  14  15
ENDBRANCH  13  14
ENDBRANCH  12  13
ENDBRANCH  11  12
ENDBRANCH  10  11
ENDBRANCH   9  10
ENDBRANCH   8   9
ENDBRANCH   7   8
ENDBRANCH   6   7
ENDBRANCH   5   6
ENDBRANCH   4   5
ENDBRANCH   3   4
ENDBRANCH   2   3
TORSDOF 20
ENDMDL
MODEL      323
REMARK 921   NORMALIZED FREE ENERGY PREDICTED BY IDOCK:   -2.56 KCAL/MOL
REMARK 922        TOTAL FREE ENERGY PREDICTED BY IDOCK:   -7.48 KCAL/MOL
REMARK 923 INTER-LIGAND FREE ENERGY PREDICTED BY IDOCK:   -5.72 KCAL/MOL
REMARK 924 INTRA-LIGAND FREE ENERGY PREDICTED BY IDOCK:   -1.76 KCAL/MOL
REMARK 927      BINDING AFFINITY PREDICTED BY RF-SCORE:    0.00 PKD
ROOT
HETATM    1  C   UNL     1     -12.040  14.041  65.755  1.00  0.00    -0.445 C  
HETATM    2  C   UNL     1     -12.145  13.607  67.207  1.00  0.00    -0.385 C  
ENDROOT
BRANCH   2   3
HETATM    3  C   UNL     1     -11.211  12.435  67.500  1.00  0.00    -0.348 C  
BRANCH   3   4
HETATM    4  C   UNL     1     -11.944  11.324  68.245  1.00  0.00    -0.215 C  
BRANCH   4   5
HETATM    5  C   UNL     1     -11.424  11.198  69.673  1.00  0.00    -0.383 C  
BRANCH   5   6
HETATM    6  C   UNL     1     -10.211  10.276  69.726  1.00  0.00    -0.262 C  
BRANCH   6   7
HETATM    7  C   UNL     1     -10.636   8.825  69.550  1.00  0.00    -0.224 C  
BRANCH   7   8
HETATM    8  C   UNL     1     -11.557   8.397  70.685  1.00  0.00    -0.205 C  
BRANCH   8   9
HETATM    9  C   UNL     1     -11.777   6.893  70.643  1.00  0.00    -0.417 C  
BRANCH   9  10
HETATM   10  C   UNL     1     -12.135   6.364  72.022  1.00  0.00    -0.353 C  
BRANCH  10  11
HETATM   11  C   UNL     1     -10.869   5.982  72.773  1.00  0.00    -0.284 C  
BRANCH  11  12
HETATM   12  C   UNL     1     -10.520   7.044  73.801  1.00  0.00    -0.392 C  
BRANCH  12  13
HETATM   13  C   UNL     1      -9.017   7.286  73.811  1.00  0.00    -0.251 C  
BRANCH  13  14
HETATM   14  C   UNL     1      -8.651   8.241  72.693  1.00  0.00    -0.264 C  
BRANCH  14  15
HETATM   15  C   UNL     1      -7.415   7.770  71.940  1.00  0.00    -0.078 C  
BRANCH  15  16
HETATM   16  C   UNL     1      -7.869   6.858  70.822  1.00  0.00    -0.097 C  
BRANCH  16  17
HETATM   17  O   UNL     1      -6.809   6.644  69.898  1.00  0.00    -0.051 OA 
BRANCH  17  18
HETATM   18  P   UNL     1      -7.297   5.693  68.538  1.00  0.00    -0.078 P  
HETATM   19  O   UNL     1      -6.219   4.667  68.904  1.00  0.00    -0.029 OA 
HETATM   20  O   UNL     1      -7.077   6.852  67.568  1.00  0.00    -0.079 OA 
BRANCH  18  21
HETATM   21  O   UNL     1      -7.786   4.742  67.178  1.00  0.00    -0.089 OA 
BRANCH  21  22
HETATM   22  C   UNL     1      -8.756   5.370  66.344  1.00  0.00    -0.121 C  
BRANCH  22  23
HETATM   23  C   UNL     1      -8.424   5.237  64.874  1.00  0.00    -0.150 C  
BRANCH  23  24
HETATM   24  N   UNL     1      -9.117   4.063  64.149  1.00  0.00    -0.136 N  
HETATM   25  C   UNL     1      -9.018   4.339  62.662  1.00  0.00    -0.115 C  
HETATM   26  C   UNL     1     -10.590   3.998  64.558  1.00  0.00    -0.180 C  
HETATM   27  C   UNL     1      -8.442   2.744  64.478  1.00  0.00    -0.088 C  
ENDBRANCH  23  24
ENDBRANCH  22  23
ENDBRANCH  21  22
ENDBRANCH  18  21
ENDBRANCH  17  18
ENDBRANCH  16  17
ENDBRANCH  15  16
ENDBRANCH  14  15
ENDBRANCH  13  14
ENDBRANCH  12  13
ENDBRANCH  11  12
ENDBRANCH  10  11
ENDBRANCH   9  10
ENDBRANCH   8   9
ENDBRANCH   7   8
ENDBRANCH   6   7
ENDBRANCH   5   6
ENDBRANCH   4   5
ENDBRANCH   3   4
ENDBRANCH   2   3
TORSDOF 20
ENDMDL
MODEL      324
REMARK 921   NORMALIZED FREE ENERGY PREDICTED BY IDOCK:   -2.55 KCAL/MOL
REMARK 922        TOTAL FREE ENERGY PREDICTED BY IDOCK:   -7.46 KCAL/MOL
REMARK 923 INTER-LIGAND FREE ENERGY PREDICTED BY IDOCK:   -5.38 KCAL/MOL
REMARK 924 INTRA-LIGAND FREE ENERGY PREDICTED BY IDOCK:   -2.08 KCAL/MOL
REMARK 927      BINDING AFFINITY PREDICTED BY RF-SCORE:    0.00 PKD
ROOT
HETATM    1  C   UNL     1     -11.742  15.735  69.023  1.00  0.00    -0.405 C  
HETATM    2  C   UNL     1     -10.881  16.220  67.869  1.00  0.00    -0.330 C  
ENDROOT
BRANCH   2   3
HETATM    3  C   UNL     1     -10.743  15.143  66.795  1.00  0.00    -0.311 C  
BRANCH   3   4
HETATM    4  C   UNL     1      -9.426  14.388  66.942  1.00  0.00    -0.268 C  
BRANCH   4   5
HETATM    5  C   UNL     1      -9.679  12.923  67.280  1.00  0.00    -0.220 C  
BRANCH   5   6
HETATM    6  C   UNL     1     -10.713  12.322  66.335  1.00  0.00    -0.284 C  
BRANCH   6   7
HETATM    7  C   UNL     1     -10.075  11.977  64.996  1.00  0.00    -0.293 C  
BRANCH   7   8
HETATM    8  C   UNL     1     -10.173  10.480  64.730  1.00  0.00    -0.373 C  
BRANCH   8   9
HETATM    9  C   UNL     1     -10.024   9.706  66.030  1.00  0.00    -0.344 C  
BRANCH   9  10
HETATM   10  C   UNL     1      -9.114   8.503  65.838  1.00  0.00    -0.237 C  
BRANCH  10  11
HETATM   11  C   UNL     1      -8.071   8.810  64.775  1.00  0.00    -0.151 C  
BRANCH  11  12
HETATM   12  C   UNL     1      -6.713   9.043  65.414  1.00  0.00    -0.072 C  
BRANCH  12  13
HETATM   13  C   UNL     1      -6.563  10.508  65.802  1.00  0.00    -0.123 C  
BRANCH  13  14
HETATM   14  C   UNL     1      -5.828  10.608  67.124  1.00  0.00    -0.048 C  
BRANCH  14  15
HETATM   15  C   UNL     1      -6.794  10.607  68.299  1.00  0.00    -0.068 C  
BRANCH  15  16
HETATM   16  C   UNL     1      -6.070  10.038  69.499  1.00  0.00    -0.042 C  
BRANCH  16  17
HETATM   17  O   UNL     1      -6.836  10.240  70.680  1.00  0.00    -0.309 OA 
BRANCH  17  18
HETATM   18  P   UNL     1      -6.375   9.171  71.960  1.00  0.00     0.225 P  
HETATM   19  O   UNL     1      -5.454  10.267  72.507  1.00  0.00    -0.309 OA 
HETATM   20  O   UNL     1      -5.927   8.088  70.981  1.00  0.00    -0.033 OA 
BRANCH  18  21
HETATM   21  O   UNL     1      -5.916   8.101  73.240  1.00  0.00    -0.057 OA 
BRANCH  21  22
HETATM   22  C   UNL     1      -6.997   7.358  73.797  1.00  0.00    -0.084 C  
BRANCH  22  23
HETATM   23  C   UNL     1      -8.310   8.105  73.715  1.00  0.00    -0.248 C  
BRANCH  23  24
HETATM   24  N   UNL     1      -9.503   7.279  73.189  1.00  0.00    -0.167 N  
HETATM   25  C   UNL     1      -8.951   6.301  72.170  1.00  0.00    -0.137 C  
HETATM   26  C   UNL     1     -10.516   8.204  72.510  1.00  0.00    -0.339 C  
HETATM   27  C   UNL     1     -10.183   6.524  74.316  1.00  0.00    -0.350 C  
ENDBRANCH  23  24
ENDBRANCH  22  23
ENDBRANCH  21  22
ENDBRANCH  18  21
ENDBRANCH  17  18
ENDBRANCH  16  17
ENDBRANCH  15  16
ENDBRANCH  14  15
ENDBRANCH  13  14
ENDBRANCH  12  13
ENDBRANCH  11  12
ENDBRANCH  10  11
ENDBRANCH   9  10
ENDBRANCH   8   9
ENDBRANCH   7   8
ENDBRANCH   6   7
ENDBRANCH   5   6
ENDBRANCH   4   5
ENDBRANCH   3   4
ENDBRANCH   2   3
TORSDOF 20
ENDMDL
MODEL      325
REMARK 921   NORMALIZED FREE ENERGY PREDICTED BY IDOCK:   -2.55 KCAL/MOL
REMARK 922        TOTAL FREE ENERGY PREDICTED BY IDOCK:   -7.44 KCAL/MOL
REMARK 923 INTER-LIGAND FREE ENERGY PREDICTED BY IDOCK:   -7.08 KCAL/MOL
REMARK 924 INTRA-LIGAND FREE ENERGY PREDICTED BY IDOCK:   -0.36 KCAL/MOL
REMARK 927      BINDING AFFINITY PREDICTED BY RF-SCORE:    0.00 PKD
ROOT
HETATM    1  C   UNL     1      -9.457   3.504  69.743  1.00  0.00    -0.241 C  
HETATM    2  C   UNL     1      -8.400   3.372  68.660  1.00  0.00    -0.090 C  
ENDROOT
BRANCH   2   3
HETATM    3  C   UNL     1      -8.930   3.855  67.312  1.00  0.00    -0.151 C  
BRANCH   3   4
HETATM    4  C   UNL     1     -10.203   4.676  67.486  1.00  0.00    -0.068 C  
BRANCH   4   5
HETATM    5  C   UNL     1      -9.944   6.146  67.174  1.00  0.00    -0.188 C  
BRANCH   5   6
HETATM    6  C   UNL     1     -10.983   7.032  67.851  1.00  0.00    -0.202 C  
BRANCH   6   7
HETATM    7  C   UNL     1     -10.598   7.294  69.301  1.00  0.00    -0.230 C  
BRANCH   7   8
HETATM    8  C   UNL     1     -11.752   6.942  70.231  1.00  0.00    -0.344 C  
BRANCH   8   9
HETATM    9  C   UNL     1     -11.376   7.248  71.672  1.00  0.00    -0.285 C  
BRANCH   9  10
HETATM   10  C   UNL     1     -11.763   8.673  72.037  1.00  0.00    -0.439 C  
BRANCH  10  11
HETATM   11  C   UNL     1     -13.090   9.029  71.385  1.00  0.00    -0.337 C  
BRANCH  11  12
HETATM   12  C   UNL     1     -13.050  10.446  70.839  1.00  0.00    -0.412 C  
BRANCH  12  13
HETATM   13  C   UNL     1     -11.676  10.742  70.255  1.00  0.00    -0.442 C  
BRANCH  13  14
HETATM   14  C   UNL     1     -11.783  10.869  68.748  1.00  0.00    -0.355 C  
BRANCH  14  15
HETATM   15  C   UNL     1     -11.046  12.101  68.241  1.00  0.00    -0.288 C  
BRANCH  15  16
HETATM   16  C   UNL     1     -10.858  11.950  66.748  1.00  0.00    -0.266 C  
BRANCH  16  17
HETATM   17  O   UNL     1      -9.794  12.781  66.298  1.00  0.00    -0.258 OA 
BRANCH  17  18
HETATM   18  P   UNL     1      -9.821  14.349  67.028  1.00  0.00    -0.265 P  
HETATM   19  O   UNL     1     -10.387  14.916  65.722  1.00  0.00    -0.292 OA 
HETATM   20  O   UNL     1      -8.332  14.290  67.360  1.00  0.00    -0.174 OA 
BRANCH  18  21
HETATM   21  O   UNL     1      -9.849  15.916  67.760  1.00  0.00    -0.220 OA 
BRANCH  21  22
HETATM   22  C   UNL     1      -8.578  16.558  67.814  1.00  0.00    -0.177 C  
BRANCH  22  23
HETATM   23  C   UNL     1      -8.659  18.024  67.448  1.00  0.00    -0.244 C  
BRANCH  23  24
HETATM   24  N   UNL     1      -9.931  18.752  67.933  1.00  0.00    -0.337 N  
HETATM   25  C   UNL     1      -9.541  19.559  69.156  1.00  0.00    -0.291 C  
HETATM   26  C   UNL     1     -11.000  17.727  68.318  1.00  0.00     0.006 C  
HETATM   27  C   UNL     1     -10.476  19.672  66.857  1.00  0.00    -0.488 C  
ENDBRANCH  23  24
ENDBRANCH  22  23
ENDBRANCH  21  22
ENDBRANCH  18  21
ENDBRANCH  17  18
ENDBRANCH  16  17
ENDBRANCH  15  16
ENDBRANCH  14  15
ENDBRANCH  13  14
ENDBRANCH  12  13
ENDBRANCH  11  12
ENDBRANCH  10  11
ENDBRANCH   9  10
ENDBRANCH   8   9
ENDBRANCH   7   8
ENDBRANCH   6   7
ENDBRANCH   5   6
ENDBRANCH   4   5
ENDBRANCH   3   4
ENDBRANCH   2   3
TORSDOF 20
ENDMDL
MODEL      326
REMARK 921   NORMALIZED FREE ENERGY PREDICTED BY IDOCK:   -2.53 KCAL/MOL
REMARK 922        TOTAL FREE ENERGY PREDICTED BY IDOCK:   -7.40 KCAL/MOL
REMARK 923 INTER-LIGAND FREE ENERGY PREDICTED BY IDOCK:   -6.04 KCAL/MOL
REMARK 924 INTRA-LIGAND FREE ENERGY PREDICTED BY IDOCK:   -1.36 KCAL/MOL
REMARK 927      BINDING AFFINITY PREDICTED BY RF-SCORE:    0.00 PKD
ROOT
HETATM    1  C   UNL     1      -8.674   9.616  65.720  1.00  0.00    -0.168 C  
HETATM    2  C   UNL     1      -8.882   8.368  66.561  1.00  0.00    -0.172 C  
ENDROOT
BRANCH   2   3
HETATM    3  C   UNL     1      -7.760   7.358  66.334  1.00  0.00    -0.093 C  
BRANCH   3   4
HETATM    4  C   UNL     1      -8.119   6.380  65.220  1.00  0.00    -0.133 C  
BRANCH   4   5
HETATM    5  C   UNL     1      -7.152   5.201  65.204  1.00  0.00    -0.063 C  
BRANCH   5   6
HETATM    6  C   UNL     1      -6.635   4.909  66.608  1.00  0.00    -0.046 C  
BRANCH   6   7
HETATM    7  C   UNL     1      -7.685   4.161  67.418  1.00  0.00    -0.084 C  
BRANCH   7   8
HETATM    8  C   UNL     1      -7.040   3.457  68.605  1.00  0.00    -0.050 C  
BRANCH   8   9
HETATM    9  C   UNL     1      -7.702   3.902  69.900  1.00  0.00    -0.051 C  
BRANCH   9  10
HETATM   10  C   UNL     1      -8.184   5.339  69.791  1.00  0.00    -0.098 C  
BRANCH  10  11
HETATM   11  C   UNL     1      -9.696   5.390  69.947  1.00  0.00    -0.249 C  
BRANCH  11  12
HETATM   12  C   UNL     1     -10.106   4.889  71.321  1.00  0.00    -0.269 C  
BRANCH  12  13
HETATM   13  C   UNL     1      -9.707   5.901  72.386  1.00  0.00    -0.175 C  
BRANCH  13  14
HETATM   14  C   UNL     1     -10.951   6.437  73.065  1.00  0.00    -0.269 C  
BRANCH  14  15
HETATM   15  C   UNL     1     -10.963   7.959  73.080  1.00  0.00    -0.398 C  
BRANCH  15  16
HETATM   16  C   UNL     1     -10.973   8.441  71.646  1.00  0.00    -0.278 C  
BRANCH  16  17
HETATM   17  O   UNL     1     -12.295   8.780  71.247  1.00  0.00    -0.295 OA 
BRANCH  17  18
HETATM   18  P   UNL     1     -12.457  10.454  70.843  1.00  0.00    -0.433 P  
HETATM   19  O   UNL     1     -10.977  10.473  70.447  1.00  0.00    -0.287 OA 
HETATM   20  O   UNL     1     -12.973  10.806  72.236  1.00  0.00    -0.340 OA 
BRANCH  18  21
HETATM   21  O   UNL     1     -12.621  12.128  70.438  1.00  0.00    -0.159 OA 
BRANCH  21  22
HETATM   22  C   UNL     1     -11.616  12.616  69.552  1.00  0.00    -0.281 C  
BRANCH  22  23
HETATM   23  C   UNL     1     -12.003  13.932  68.914  1.00  0.00    -0.358 C  
BRANCH  23  24
HETATM   24  N   UNL     1     -11.238  14.282  67.619  1.00  0.00    -0.292 N  
HETATM   25  C   UNL     1     -10.018  13.384  67.568  1.00  0.00    -0.230 C  
HETATM   26  C   UNL     1     -10.793  15.745  67.660  1.00  0.00    -0.310 C  
HETATM   27  C   UNL     1     -12.104  14.051  66.395  1.00  0.00    -0.455 C  
ENDBRANCH  23  24
ENDBRANCH  22  23
ENDBRANCH  21  22
ENDBRANCH  18  21
ENDBRANCH  17  18
ENDBRANCH  16  17
ENDBRANCH  15  16
ENDBRANCH  14  15
ENDBRANCH  13  14
ENDBRANCH  12  13
ENDBRANCH  11  12
ENDBRANCH  10  11
ENDBRANCH   9  10
ENDBRANCH   8   9
ENDBRANCH   7   8
ENDBRANCH   6   7
ENDBRANCH   5   6
ENDBRANCH   4   5
ENDBRANCH   3   4
ENDBRANCH   2   3
TORSDOF 20
ENDMDL
MODEL      327
REMARK 921   NORMALIZED FREE ENERGY PREDICTED BY IDOCK:   -2.43 KCAL/MOL
REMARK 922        TOTAL FREE ENERGY PREDICTED BY IDOCK:   -7.19 KCAL/MOL
REMARK 923 INTER-LIGAND FREE ENERGY PREDICTED BY IDOCK:   -4.84 KCAL/MOL
REMARK 924 INTRA-LIGAND FREE ENERGY PREDICTED BY IDOCK:   -2.34 KCAL/MOL
REMARK 927      BINDING AFFINITY PREDICTED BY RF-SCORE:    0.00 PKD
ROOT
HETATM    1  C   UNL     1     -12.375  15.002  69.724  1.00  0.00    -0.278 C  
HETATM    2  C   UNL     1     -10.998  14.888  69.093  1.00  0.00    -0.266 C  
ENDROOT
BRANCH   2   3
HETATM    3  C   UNL     1     -11.038  15.258  67.613  1.00  0.00    -0.323 C  
BRANCH   3   4
HETATM    4  C   UNL     1      -9.715  14.930  66.929  1.00  0.00    -0.248 C  
BRANCH   4   5
HETATM    5  C   UNL     1      -9.740  13.519  66.352  1.00  0.00    -0.296 C  
BRANCH   5   6
HETATM    6  C   UNL     1      -9.045  12.540  67.290  1.00  0.00    -0.189 C  
BRANCH   6   7
HETATM    7  C   UNL     1      -7.643  13.028  67.628  1.00  0.00    -0.160 C  
BRANCH   7   8
HETATM    8  C   UNL     1      -6.597  12.061  67.088  1.00  0.00    -0.143 C  
BRANCH   8   9
HETATM    9  C   UNL     1      -6.750  10.701  67.751  1.00  0.00    -0.068 C  
BRANCH   9  10
HETATM   10  C   UNL     1      -6.247  10.744  69.185  1.00  0.00    -0.045 C  
BRANCH  10  11
HETATM   11  C   UNL     1      -7.382  10.409  70.140  1.00  0.00    -0.049 C  
BRANCH  11  12
HETATM   12  C   UNL     1      -8.342   9.420  69.501  1.00  0.00    -0.127 C  
BRANCH  12  13
HETATM   13  C   UNL     1      -9.774   9.757  69.890  1.00  0.00    -0.273 C  
BRANCH  13  14
HETATM   14  C   UNL     1     -10.705   9.406  68.747  1.00  0.00    -0.200 C  
BRANCH  14  15
HETATM   15  C   UNL     1      -9.944   8.799  67.576  1.00  0.00    -0.254 C  
BRANCH  15  16
HETATM   16  C   UNL     1     -10.492   7.411  67.332  1.00  0.00    -0.296 C  
BRANCH  16  17
HETATM   17  O   UNL     1     -11.149   6.926  68.497  1.00  0.00    -0.168 OA 
BRANCH  17  18
HETATM   18  P   UNL     1     -10.502   5.418  69.044  1.00  0.00    -0.053 P  
HETATM   19  O   UNL     1      -9.522   6.192  69.931  1.00  0.00    -0.150 OA 
HETATM   20  O   UNL     1     -10.188   4.963  67.620  1.00  0.00    -0.146 OA 
BRANCH  18  21
HETATM   21  O   UNL     1      -9.856   3.909  69.591  1.00  0.00    -0.194 OA 
BRANCH  21  22
HETATM   22  C   UNL     1      -9.080   4.003  70.782  1.00  0.00    -0.110 C  
BRANCH  22  23
HETATM   23  C   UNL     1      -9.679   3.210  71.923  1.00  0.00    -0.164 C  
BRANCH  23  24
HETATM   24  N   UNL     1      -9.772   3.963  73.268  1.00  0.00    -0.112 N  
HETATM   25  C   UNL     1     -10.837   5.031  73.105  1.00  0.00    -0.286 C  
HETATM   26  C   UNL     1      -8.431   4.626  73.586  1.00  0.00    -0.105 C  
HETATM   27  C   UNL     1     -10.152   3.021  74.395  1.00  0.00    -0.141 C  
ENDBRANCH  23  24
ENDBRANCH  22  23
ENDBRANCH  21  22
ENDBRANCH  18  21
ENDBRANCH  17  18
ENDBRANCH  16  17
ENDBRANCH  15  16
ENDBRANCH  14  15
ENDBRANCH  13  14
ENDBRANCH  12  13
ENDBRANCH  11  12
ENDBRANCH  10  11
ENDBRANCH   9  10
ENDBRANCH   8   9
ENDBRANCH   7   8
ENDBRANCH   6   7
ENDBRANCH   5   6
ENDBRANCH   4   5
ENDBRANCH   3   4
ENDBRANCH   2   3
TORSDOF 20
ENDMDL
MODEL      328
REMARK 921   NORMALIZED FREE ENERGY PREDICTED BY IDOCK:   -2.40 KCAL/MOL
REMARK 922        TOTAL FREE ENERGY PREDICTED BY IDOCK:   -7.12 KCAL/MOL
REMARK 923 INTER-LIGAND FREE ENERGY PREDICTED BY IDOCK:   -5.76 KCAL/MOL
REMARK 924 INTRA-LIGAND FREE ENERGY PREDICTED BY IDOCK:   -1.36 KCAL/MOL
REMARK 927      BINDING AFFINITY PREDICTED BY RF-SCORE:    0.00 PKD
ROOT
HETATM    1  C   UNL     1      -8.312   4.908  68.631  1.00  0.00    -0.083 C  
HETATM    2  C   UNL     1      -9.819   4.918  68.822  1.00  0.00    -0.231 C  
ENDROOT
BRANCH   2   3
HETATM    3  C   UNL     1     -10.186   4.848  70.303  1.00  0.00    -0.299 C  
BRANCH   3   4
HETATM    4  C   UNL     1     -10.420   6.242  70.876  1.00  0.00    -0.274 C  
BRANCH   4   5
HETATM    5  C   UNL     1     -11.290   7.073  69.939  1.00  0.00    -0.260 C  
BRANCH   5   6
HETATM    6  C   UNL     1     -11.112   8.561  70.215  1.00  0.00    -0.222 C  
BRANCH   6   7
HETATM    7  C   UNL     1      -9.644   8.952  70.104  1.00  0.00    -0.199 C  
BRANCH   7   8
HETATM    8  C   UNL     1      -9.382   9.673  68.788  1.00  0.00    -0.148 C  
BRANCH   8   9
HETATM    9  C   UNL     1      -7.893   9.676  68.480  1.00  0.00    -0.085 C  
BRANCH   9  10
HETATM   10  C   UNL     1      -7.241  10.950  68.993  1.00  0.00    -0.101 C  
BRANCH  10  11
HETATM   11  C   UNL     1      -7.424  12.067  67.978  1.00  0.00    -0.113 C  
BRANCH  11  12
HETATM   12  C   UNL     1      -6.796  13.354  68.484  1.00  0.00    -0.099 C  
BRANCH  12  13
HETATM   13  C   UNL     1      -6.912  14.443  67.426  1.00  0.00    -0.091 C  
BRANCH  13  14
HETATM   14  C   UNL     1      -5.710  15.362  67.512  1.00  0.00    -0.025 C  
BRANCH  14  15
HETATM   15  C   UNL     1      -6.131  16.823  67.584  1.00  0.00    -0.167 C  
BRANCH  15  16
HETATM   16  C   UNL     1      -5.786  17.473  66.263  1.00  0.00    -0.208 C  
BRANCH  16  17
HETATM   17  O   UNL     1      -6.970  17.785  65.540  1.00  0.00    -0.415 OA 
BRANCH  17  18
HETATM   18  P   UNL     1      -8.379  17.789  66.545  1.00  0.00    -0.233 P  
HETATM   19  O   UNL     1      -9.003  16.734  65.626  1.00  0.00    -0.475 OA 
HETATM   20  O   UNL     1      -8.574  19.294  66.375  1.00  0.00    -0.322 OA 
BRANCH  18  21
HETATM   21  O   UNL     1      -9.786  17.794  67.552  1.00  0.00    -0.273 OA 
BRANCH  21  22
HETATM   22  C   UNL     1     -10.131  16.515  68.079  1.00  0.00    -0.255 C  
BRANCH  22  23
HETATM   23  C   UNL     1     -11.493  16.515  68.739  1.00  0.00    -0.143 C  
BRANCH  23  24
HETATM   24  N   UNL     1     -11.777  15.304  69.654  1.00  0.00    -0.312 N  
HETATM   25  C   UNL     1     -10.575  15.144  70.564  1.00  0.00    -0.091 C  
HETATM   26  C   UNL     1     -11.947  14.042  68.807  1.00  0.00    -0.347 C  
HETATM   27  C   UNL     1     -13.028  15.530  70.483  1.00  0.00    -0.290 C  
ENDBRANCH  23  24
ENDBRANCH  22  23
ENDBRANCH  21  22
ENDBRANCH  18  21
ENDBRANCH  17  18
ENDBRANCH  16  17
ENDBRANCH  15  16
ENDBRANCH  14  15
ENDBRANCH  13  14
ENDBRANCH  12  13
ENDBRANCH  11  12
ENDBRANCH  10  11
ENDBRANCH   9  10
ENDBRANCH   8   9
ENDBRANCH   7   8
ENDBRANCH   6   7
ENDBRANCH   5   6
ENDBRANCH   4   5
ENDBRANCH   3   4
ENDBRANCH   2   3
TORSDOF 20
ENDMDL
MODEL      329
REMARK 921   NORMALIZED FREE ENERGY PREDICTED BY IDOCK:   -2.34 KCAL/MOL
REMARK 922        TOTAL FREE ENERGY PREDICTED BY IDOCK:   -7.00 KCAL/MOL
REMARK 923 INTER-LIGAND FREE ENERGY PREDICTED BY IDOCK:   -5.20 KCAL/MOL
REMARK 924 INTRA-LIGAND FREE ENERGY PREDICTED BY IDOCK:   -1.80 KCAL/MOL
REMARK 927      BINDING AFFINITY PREDICTED BY RF-SCORE:    0.00 PKD
ROOT
HETATM    1  C   UNL     1     -12.493  14.107  69.973  1.00  0.00    -0.352 C  
HETATM    2  C   UNL     1     -11.323  13.764  69.066  1.00  0.00    -0.333 C  
ENDROOT
BRANCH   2   3
HETATM    3  C   UNL     1     -11.632  14.115  67.613  1.00  0.00    -0.394 C  
BRANCH   3   4
HETATM    4  C   UNL     1     -10.371  14.059  66.756  1.00  0.00    -0.271 C  
BRANCH   4   5
HETATM    5  C   UNL     1     -10.216  12.684  66.114  1.00  0.00    -0.272 C  
BRANCH   5   6
HETATM    6  C   UNL     1      -9.443  11.745  67.033  1.00  0.00    -0.191 C  
BRANCH   6   7
HETATM    7  C   UNL     1      -7.974  12.142  67.089  1.00  0.00    -0.170 C  
BRANCH   7   8
HETATM    8  C   UNL     1      -7.089  10.964  66.701  1.00  0.00    -0.135 C  
BRANCH   8   9
HETATM    9  C   UNL     1      -6.712  10.163  67.937  1.00  0.00    -0.067 C  
BRANCH   9  10
HETATM   10  C   UNL     1      -6.218  11.082  69.043  1.00  0.00    -0.045 C  
BRANCH  10  11
HETATM   11  C   UNL     1      -6.496  10.452  70.399  1.00  0.00    -0.125 C  
BRANCH  11  12
HETATM   12  C   UNL     1      -7.399   9.241  70.249  1.00  0.00    -0.100 C  
BRANCH  12  13
HETATM   13  C   UNL     1      -7.677   8.625  71.613  1.00  0.00    -0.146 C  
BRANCH  13  14
HETATM   14  C   UNL     1      -9.171   8.609  71.866  1.00  0.00    -0.345 C  
BRANCH  14  15
HETATM   15  C   UNL     1      -9.943   9.156  70.673  1.00  0.00    -0.307 C  
BRANCH  15  16
HETATM   16  C   UNL     1     -10.897   8.081  70.202  1.00  0.00    -0.242 C  
BRANCH  16  17
HETATM   17  O   UNL     1     -10.547   6.825  70.771  1.00  0.00    -0.215 OA 
BRANCH  17  18
HETATM   18  P   UNL     1     -10.224   5.620  69.572  1.00  0.00    -0.298 P  
HETATM   19  O   UNL     1      -8.731   5.944  69.689  1.00  0.00    -0.125 OA 
HETATM   20  O   UNL     1     -11.165   6.279  68.565  1.00  0.00    -0.352 OA 
BRANCH  18  21
HETATM   21  O   UNL     1      -9.902   4.414  68.374  1.00  0.00    -0.137 OA 
BRANCH  21  22
HETATM   22  C   UNL     1      -8.688   4.614  67.656  1.00  0.00    -0.104 C  
BRANCH  22  23
HETATM   23  C   UNL     1      -8.930   5.055  66.229  1.00  0.00    -0.127 C  
BRANCH  23  24
HETATM   24  N   UNL     1      -8.107   4.302  65.162  1.00  0.00    -0.100 N  
HETATM   25  C   UNL     1      -9.089   3.514  64.318  1.00  0.00    -0.126 C  
HETATM   26  C   UNL     1      -7.132   3.339  65.842  1.00  0.00    -0.066 C  
HETATM   27  C   UNL     1      -7.333   5.271  64.287  1.00  0.00    -0.056 C  
ENDBRANCH  23  24
ENDBRANCH  22  23
ENDBRANCH  21  22
ENDBRANCH  18  21
ENDBRANCH  17  18
ENDBRANCH  16  17
ENDBRANCH  15  16
ENDBRANCH  14  15
ENDBRANCH  13  14
ENDBRANCH  12  13
ENDBRANCH  11  12
ENDBRANCH  10  11
ENDBRANCH   9  10
ENDBRANCH   8   9
ENDBRANCH   7   8
ENDBRANCH   6   7
ENDBRANCH   5   6
ENDBRANCH   4   5
ENDBRANCH   3   4
ENDBRANCH   2   3
TORSDOF 20
ENDMDL
MODEL      330
REMARK 921   NORMALIZED FREE ENERGY PREDICTED BY IDOCK:   -2.33 KCAL/MOL
REMARK 922        TOTAL FREE ENERGY PREDICTED BY IDOCK:   -6.98 KCAL/MOL
REMARK 923 INTER-LIGAND FREE ENERGY PREDICTED BY IDOCK:   -5.27 KCAL/MOL
REMARK 924 INTRA-LIGAND FREE ENERGY PREDICTED BY IDOCK:   -1.71 KCAL/MOL
REMARK 927      BINDING AFFINITY PREDICTED BY RF-SCORE:    0.00 PKD
ROOT
HETATM    1  C   UNL     1      -8.419  15.426  69.032  1.00  0.00    -0.229 C  
HETATM    2  C   UNL     1      -8.288  14.848  67.633  1.00  0.00    -0.178 C  
ENDROOT
BRANCH   2   3
HETATM    3  C   UNL     1      -9.548  15.106  66.810  1.00  0.00    -0.260 C  
BRANCH   3   4
HETATM    4  C   UNL     1     -10.803  14.919  67.656  1.00  0.00    -0.286 C  
BRANCH   4   5
HETATM    5  C   UNL     1     -11.835  14.079  66.912  1.00  0.00    -0.458 C  
BRANCH   5   6
HETATM    6  C   UNL     1     -11.804  12.634  67.397  1.00  0.00    -0.393 C  
BRANCH   6   7
HETATM    7  C   UNL     1     -11.996  12.574  68.907  1.00  0.00    -0.282 C  
BRANCH   7   8
HETATM    8  C   UNL     1     -11.039  11.563  69.525  1.00  0.00    -0.256 C  
BRANCH   8   9
HETATM    9  C   UNL     1     -10.960  10.317  68.656  1.00  0.00    -0.289 C  
BRANCH   9  10
HETATM   10  C   UNL     1     -10.966   9.063  69.515  1.00  0.00    -0.118 C  
BRANCH  10  11
HETATM   11  C   UNL     1     -10.367   9.368  70.879  1.00  0.00    -0.380 C  
BRANCH  11  12
HETATM   12  C   UNL     1      -8.891   9.012  70.904  1.00  0.00    -0.294 C  
BRANCH  12  13
HETATM   13  C   UNL     1      -8.622   7.835  69.977  1.00  0.00    -0.140 C  
BRANCH  13  14
HETATM   14  C   UNL     1      -9.186   6.569  70.590  1.00  0.00    -0.163 C  
BRANCH  14  15
HETATM   15  C   UNL     1      -8.357   5.351  70.211  1.00  0.00    -0.112 C  
BRANCH  15  16
HETATM   16  C   UNL     1      -9.268   4.359  69.523  1.00  0.00    -0.130 C  
BRANCH  16  17
HETATM   17  O   UNL     1     -10.155   5.034  68.640  1.00  0.00    -0.165 OA 
BRANCH  17  18
HETATM   18  P   UNL     1      -9.681   4.887  66.983  1.00  0.00    -0.208 P  
HETATM   19  O   UNL     1     -11.129   5.172  66.572  1.00  0.00    -0.052 OA 
HETATM   20  O   UNL     1      -9.116   3.485  67.203  1.00  0.00    -0.141 OA 
BRANCH  18  21
HETATM   21  O   UNL     1      -9.205   4.740  65.326  1.00  0.00    -0.152 OA 
BRANCH  21  22
HETATM   22  C   UNL     1      -8.081   5.540  64.968  1.00  0.00    -0.119 C  
BRANCH  22  23
HETATM   23  C   UNL     1      -7.560   6.352  66.133  1.00  0.00    -0.090 C  
BRANCH  23  24
HETATM   24  N   UNL     1      -7.499   7.877  65.895  1.00  0.00    -0.076 N  
HETATM   25  C   UNL     1      -6.973   8.085  64.488  1.00  0.00    -0.071 C  
HETATM   26  C   UNL     1      -6.541   8.521  66.898  1.00  0.00    -0.058 C  
HETATM   27  C   UNL     1      -8.874   8.505  66.033  1.00  0.00    -0.173 C  
ENDBRANCH  23  24
ENDBRANCH  22  23
ENDBRANCH  21  22
ENDBRANCH  18  21
ENDBRANCH  17  18
ENDBRANCH  16  17
ENDBRANCH  15  16
ENDBRANCH  14  15
ENDBRANCH  13  14
ENDBRANCH  12  13
ENDBRANCH  11  12
ENDBRANCH  10  11
ENDBRANCH   9  10
ENDBRANCH   8   9
ENDBRANCH   7   8
ENDBRANCH   6   7
ENDBRANCH   5   6
ENDBRANCH   4   5
ENDBRANCH   3   4
ENDBRANCH   2   3
TORSDOF 20
ENDMDL
MODEL      331
REMARK 921   NORMALIZED FREE ENERGY PREDICTED BY IDOCK:   -2.31 KCAL/MOL
REMARK 922        TOTAL FREE ENERGY PREDICTED BY IDOCK:   -6.93 KCAL/MOL
REMARK 923 INTER-LIGAND FREE ENERGY PREDICTED BY IDOCK:   -6.19 KCAL/MOL
REMARK 924 INTRA-LIGAND FREE ENERGY PREDICTED BY IDOCK:   -0.74 KCAL/MOL
REMARK 927      BINDING AFFINITY PREDICTED BY RF-SCORE:    0.00 PKD
ROOT
HETATM    1  C   UNL     1      -8.211  15.074  69.362  1.00  0.00    -0.147 C  
HETATM    2  C   UNL     1      -9.451  15.503  68.596  1.00  0.00    -0.204 C  
ENDROOT
BRANCH   2   3
HETATM    3  C   UNL     1     -10.723  15.107  69.342  1.00  0.00    -0.269 C  
BRANCH   3   4
HETATM    4  C   UNL     1     -10.947  16.001  70.556  1.00  0.00    -0.322 C  
BRANCH   4   5
HETATM    5  C   UNL     1     -11.263  15.165  71.792  1.00  0.00    -0.299 C  
BRANCH   5   6
HETATM    6  C   UNL     1     -12.297  15.864  72.666  1.00  0.00    -0.581 C  
BRANCH   6   7
HETATM    7  C   UNL     1     -13.669  15.821  72.007  1.00  0.00    -0.408 C  
BRANCH   7   8
HETATM    8  C   UNL     1     -13.922  14.450  71.392  1.00  0.00    -0.395 C  
BRANCH   8   9
HETATM    9  C   UNL     1     -13.873  13.376  72.468  1.00  0.00    -0.595 C  
BRANCH   9  10
HETATM   10  C   UNL     1     -13.749  11.996  71.843  1.00  0.00     0.044 C  
BRANCH  10  11
HETATM   11  C   UNL     1     -12.290  11.569  71.820  1.00  0.00     0.124 C  
BRANCH  11  12
HETATM   12  C   UNL     1     -11.988  10.773  70.563  1.00  0.00    -0.456 C  
BRANCH  12  13
HETATM   13  C   UNL     1     -10.818   9.831  70.810  1.00  0.00    -0.403 C  
BRANCH  13  14
HETATM   14  C   UNL     1     -11.314   8.399  70.807  1.00  0.00    -0.290 C  
BRANCH  14  15
HETATM   15  C   UNL     1     -10.312   7.465  70.142  1.00  0.00    -0.219 C  
BRANCH  15  16
HETATM   16  C   UNL     1      -9.428   6.883  71.222  1.00  0.00    -0.165 C  
BRANCH  16  17
HETATM   17  O   UNL     1      -8.267   7.686  71.398  1.00  0.00    -0.097 OA 
BRANCH  17  18
HETATM   18  P   UNL     1      -7.842   8.560  69.967  1.00  0.00    -0.113 P  
HETATM   19  O   UNL     1      -7.035   7.345  69.498  1.00  0.00    -0.054 OA 
HETATM   20  O   UNL     1      -7.254   9.717  70.772  1.00  0.00    -0.270 OA 
BRANCH  18  21
HETATM   21  O   UNL     1      -7.419   9.435  68.536  1.00  0.00    -0.079 OA 
BRANCH  21  22
HETATM   22  C   UNL     1      -7.506  10.851  68.669  1.00  0.00    -0.105 C  
BRANCH  22  23
HETATM   23  C   UNL     1      -8.901  11.369  68.399  1.00  0.00    -0.167 C  
BRANCH  23  24
HETATM   24  N   UNL     1      -9.314  11.395  66.911  1.00  0.00    -0.177 N  
HETATM   25  C   UNL     1      -8.041  11.282  66.095  1.00  0.00    -0.065 C  
HETATM   26  C   UNL     1     -10.009  12.719  66.589  1.00  0.00    -0.245 C  
HETATM   27  C   UNL     1     -10.245  10.242  66.583  1.00  0.00    -0.233 C  
ENDBRANCH  23  24
ENDBRANCH  22  23
ENDBRANCH  21  22
ENDBRANCH  18  21
ENDBRANCH  17  18
ENDBRANCH  16  17
ENDBRANCH  15  16
ENDBRANCH  14  15
ENDBRANCH  13  14
ENDBRANCH  12  13
ENDBRANCH  11  12
ENDBRANCH  10  11
ENDBRANCH   9  10
ENDBRANCH   8   9
ENDBRANCH   7   8
ENDBRANCH   6   7
ENDBRANCH   5   6
ENDBRANCH   4   5
ENDBRANCH   3   4
ENDBRANCH   2   3
TORSDOF 20
ENDMDL
MODEL      332
REMARK 921   NORMALIZED FREE ENERGY PREDICTED BY IDOCK:   -2.30 KCAL/MOL
REMARK 922        TOTAL FREE ENERGY PREDICTED BY IDOCK:   -6.90 KCAL/MOL
REMARK 923 INTER-LIGAND FREE ENERGY PREDICTED BY IDOCK:   -4.51 KCAL/MOL
REMARK 924 INTRA-LIGAND FREE ENERGY PREDICTED BY IDOCK:   -2.39 KCAL/MOL
REMARK 927      BINDING AFFINITY PREDICTED BY RF-SCORE:    0.00 PKD
ROOT
HETATM    1  C   UNL     1      -8.084  11.129  68.792  1.00  0.00    -0.140 C  
HETATM    2  C   UNL     1      -8.162   9.904  67.896  1.00  0.00    -0.113 C  
ENDROOT
BRANCH   2   3
HETATM    3  C   UNL     1      -8.671  10.272  66.504  1.00  0.00    -0.139 C  
BRANCH   3   4
HETATM    4  C   UNL     1      -7.751   9.722  65.420  1.00  0.00    -0.123 C  
BRANCH   4   5
HETATM    5  C   UNL     1      -7.538   8.223  65.601  1.00  0.00    -0.083 C  
BRANCH   5   6
HETATM    6  C   UNL     1      -8.874   7.504  65.753  1.00  0.00    -0.122 C  
BRANCH   6   7
HETATM    7  C   UNL     1      -8.696   6.210  66.537  1.00  0.00    -0.133 C  
BRANCH   7   8
HETATM    8  C   UNL     1     -10.044   5.541  66.772  1.00  0.00    -0.242 C  
BRANCH   8   9
HETATM    9  C   UNL     1     -11.010   6.522  67.420  1.00  0.00    -0.458 C  
BRANCH   9  10
HETATM   10  C   UNL     1     -11.136   6.246  68.909  1.00  0.00    -0.434 C  
BRANCH  10  11
HETATM   11  C   UNL     1     -10.647   7.449  69.700  1.00  0.00    -0.243 C  
BRANCH  11  12
HETATM   12  C   UNL     1      -9.219   7.233  70.168  1.00  0.00    -0.152 C  
BRANCH  12  13
HETATM   13  C   UNL     1      -8.822   8.323  71.153  1.00  0.00    -0.182 C  
BRANCH  13  14
HETATM   14  C   UNL     1      -9.711   8.247  72.378  1.00  0.00    -0.373 C  
BRANCH  14  15
HETATM   15  C   UNL     1      -9.099   7.365  73.456  1.00  0.00    -0.259 C  
BRANCH  15  16
HETATM   16  C   UNL     1     -10.228   6.709  74.220  1.00  0.00    -0.326 C  
BRANCH  16  17
HETATM   17  O   UNL     1     -10.690   5.556  73.526  1.00  0.00    -0.248 OA 
BRANCH  17  18
HETATM   18  P   UNL     1      -9.406   4.478  73.101  1.00  0.00    -0.120 P  
HETATM   19  O   UNL     1     -10.081   4.255  71.744  1.00  0.00    -0.184 OA 
HETATM   20  O   UNL     1      -9.648   3.603  74.329  1.00  0.00    -0.095 OA 
BRANCH  18  21
HETATM   21  O   UNL     1      -8.121   3.401  72.676  1.00  0.00    -0.073 OA 
BRANCH  21  22
HETATM   22  C   UNL     1      -7.197   3.937  71.732  1.00  0.00    -0.053 C  
BRANCH  22  23
HETATM   23  C   UNL     1      -6.784   2.919  70.692  1.00  0.00    -0.032 C  
BRANCH  23  24
HETATM   24  N   UNL     1      -7.019   3.347  69.227  1.00  0.00    -0.041 N  
HETATM   25  C   UNL     1      -8.501   3.189  68.950  1.00  0.00    -0.067 C  
HETATM   26  C   UNL     1      -6.225   2.437  68.287  1.00  0.00    -0.025 C  
HETATM   27  C   UNL     1      -6.601   4.790  69.007  1.00  0.00    -0.045 C  
ENDBRANCH  23  24
ENDBRANCH  22  23
ENDBRANCH  21  22
ENDBRANCH  18  21
ENDBRANCH  17  18
ENDBRANCH  16  17
ENDBRANCH  15  16
ENDBRANCH  14  15
ENDBRANCH  13  14
ENDBRANCH  12  13
ENDBRANCH  11  12
ENDBRANCH  10  11
ENDBRANCH   9  10
ENDBRANCH   8   9
ENDBRANCH   7   8
ENDBRANCH   6   7
ENDBRANCH   5   6
ENDBRANCH   4   5
ENDBRANCH   3   4
ENDBRANCH   2   3
TORSDOF 20
ENDMDL
MODEL      333
REMARK 921   NORMALIZED FREE ENERGY PREDICTED BY IDOCK:   -2.26 KCAL/MOL
REMARK 922        TOTAL FREE ENERGY PREDICTED BY IDOCK:   -6.83 KCAL/MOL
REMARK 923 INTER-LIGAND FREE ENERGY PREDICTED BY IDOCK:   -5.14 KCAL/MOL
REMARK 924 INTRA-LIGAND FREE ENERGY PREDICTED BY IDOCK:   -1.69 KCAL/MOL
REMARK 927      BINDING AFFINITY PREDICTED BY RF-SCORE:    0.00 PKD
ROOT
HETATM    1  C   UNL     1     -10.662  15.516  66.204  1.00  0.00    -0.315 C  
HETATM    2  C   UNL     1     -10.530  16.902  66.811  1.00  0.00    -0.260 C  
ENDROOT
BRANCH   2   3
HETATM    3  C   UNL     1     -10.292  16.823  68.317  1.00  0.00    -0.319 C  
BRANCH   3   4
HETATM    4  C   UNL     1      -8.871  17.250  68.671  1.00  0.00    -0.261 C  
BRANCH   4   5
HETATM    5  C   UNL     1      -7.992  16.033  68.938  1.00  0.00    -0.212 C  
BRANCH   5   6
HETATM    6  C   UNL     1      -7.033  15.795  67.779  1.00  0.00    -0.173 C  
BRANCH   6   7
HETATM    7  C   UNL     1      -6.912  14.306  67.482  1.00  0.00    -0.177 C  
BRANCH   7   8
HETATM    8  C   UNL     1      -6.318  13.572  68.677  1.00  0.00    -0.091 C  
BRANCH   8   9
HETATM    9  C   UNL     1      -5.685  12.264  68.226  1.00  0.00    -0.057 C  
BRANCH   9  10
HETATM   10  C   UNL     1      -6.728  11.161  68.152  1.00  0.00    -0.059 C  
BRANCH  10  11
HETATM   11  C   UNL     1      -7.707  11.298  69.308  1.00  0.00     0.010 C  
BRANCH  11  12
HETATM   12  C   UNL     1      -9.029  10.633  68.968  1.00  0.00    -0.165 C  
BRANCH  12  13
HETATM   13  C   UNL     1     -10.115  11.686  68.798  1.00  0.00    -0.169 C  
BRANCH  13  14
HETATM   14  C   UNL     1     -11.476  11.039  68.954  1.00  0.00    -0.364 C  
BRANCH  14  15
HETATM   15  C   UNL     1     -11.382   9.721  69.709  1.00  0.00    -0.201 C  
BRANCH  15  16
HETATM   16  C   UNL     1     -12.375   9.764  70.849  1.00  0.00    -0.290 C  
BRANCH  16  17
HETATM   17  O   UNL     1     -11.758   9.340  72.058  1.00  0.00    -0.356 OA 
BRANCH  17  18
HETATM   18  P   UNL     1     -10.732   7.965  71.833  1.00  0.00    -0.272 P  
HETATM   19  O   UNL     1     -11.764   7.109  72.574  1.00  0.00    -0.257 OA 
HETATM   20  O   UNL     1      -9.551   8.656  72.510  1.00  0.00    -0.278 OA 
BRANCH  18  21
HETATM   21  O   UNL     1      -9.705   6.591  71.607  1.00  0.00    -0.164 OA 
BRANCH  21  22
HETATM   22  C   UNL     1     -10.403   5.354  71.493  1.00  0.00    -0.225 C  
BRANCH  22  23
HETATM   23  C   UNL     1      -9.471   4.163  71.539  1.00  0.00    -0.154 C  
BRANCH  23  24
HETATM   24  N   UNL     1      -8.768   3.828  70.205  1.00  0.00    -0.072 N  
HETATM   25  C   UNL     1      -8.510   2.334  70.203  1.00  0.00    -0.047 C  
HETATM   26  C   UNL     1      -7.436   4.575  70.119  1.00  0.00    -0.050 C  
HETATM   27  C   UNL     1      -9.639   4.205  69.021  1.00  0.00    -0.162 C  
ENDBRANCH  23  24
ENDBRANCH  22  23
ENDBRANCH  21  22
ENDBRANCH  18  21
ENDBRANCH  17  18
ENDBRANCH  16  17
ENDBRANCH  15  16
ENDBRANCH  14  15
ENDBRANCH  13  14
ENDBRANCH  12  13
ENDBRANCH  11  12
ENDBRANCH  10  11
ENDBRANCH   9  10
ENDBRANCH   8   9
ENDBRANCH   7   8
ENDBRANCH   6   7
ENDBRANCH   5   6
ENDBRANCH   4   5
ENDBRANCH   3   4
ENDBRANCH   2   3
TORSDOF 20
ENDMDL
MODEL      334
REMARK 921   NORMALIZED FREE ENERGY PREDICTED BY IDOCK:   -2.23 KCAL/MOL
REMARK 922        TOTAL FREE ENERGY PREDICTED BY IDOCK:   -6.77 KCAL/MOL
REMARK 923 INTER-LIGAND FREE ENERGY PREDICTED BY IDOCK:   -5.09 KCAL/MOL
REMARK 924 INTRA-LIGAND FREE ENERGY PREDICTED BY IDOCK:   -1.68 KCAL/MOL
REMARK 927      BINDING AFFINITY PREDICTED BY RF-SCORE:    0.00 PKD
ROOT
HETATM    1  C   UNL     1      -5.965   9.130  64.546  1.00  0.00    -0.070 C  
HETATM    2  C   UNL     1      -7.344   8.922  63.944  1.00  0.00    -0.098 C  
ENDROOT
BRANCH   2   3
HETATM    3  C   UNL     1      -7.824   7.487  64.150  1.00  0.00    -0.130 C  
BRANCH   3   4
HETATM    4  C   UNL     1      -7.293   6.914  65.459  1.00  0.00    -0.079 C  
BRANCH   4   5
HETATM    5  C   UNL     1      -8.229   7.250  66.615  1.00  0.00    -0.118 C  
BRANCH   5   6
HETATM    6  C   UNL     1      -9.513   6.434  66.524  1.00  0.00    -0.189 C  
BRANCH   6   7
HETATM    7  C   UNL     1      -9.197   4.946  66.454  1.00  0.00    -0.138 C  
BRANCH   7   8
HETATM    8  C   UNL     1      -9.748   4.226  67.678  1.00  0.00    -0.186 C  
BRANCH   8   9
HETATM    9  C   UNL     1      -8.613   3.600  68.473  1.00  0.00    -0.118 C  
BRANCH   9  10
HETATM   10  C   UNL     1      -9.142   2.521  69.404  1.00  0.00    -0.186 C  
BRANCH  10  11
HETATM   11  C   UNL     1      -9.601   3.147  70.711  1.00  0.00    -0.219 C  
BRANCH  11  12
HETATM   12  C   UNL     1      -8.535   4.081  71.257  1.00  0.00    -0.100 C  
BRANCH  12  13
HETATM   13  C   UNL     1      -9.018   4.727  72.548  1.00  0.00    -0.135 C  
BRANCH  13  14
HETATM   14  C   UNL     1     -10.531   4.818  72.533  1.00  0.00    -0.264 C  
BRANCH  14  15
HETATM   15  C   UNL     1     -11.012   6.167  73.048  1.00  0.00    -0.278 C  
BRANCH  15  16
HETATM   16  C   UNL     1     -11.963   6.745  72.025  1.00  0.00    -0.317 C  
BRANCH  16  17
HETATM   17  O   UNL     1     -11.309   6.896  70.771  1.00  0.00    -0.274 OA 
BRANCH  17  18
HETATM   18  P   UNL     1     -10.824   8.528  70.467  1.00  0.00    -0.229 P  
HETATM   19  O   UNL     1     -12.092   9.008  71.182  1.00  0.00    -0.291 OA 
HETATM   20  O   UNL     1     -10.732   8.288  68.962  1.00  0.00    -0.184 OA 
BRANCH  18  21
HETATM   21  O   UNL     1     -10.338  10.161  70.163  1.00  0.00    -0.270 OA 
BRANCH  21  22
HETATM   22  C   UNL     1      -9.723  10.361  68.894  1.00  0.00    -0.198 C  
BRANCH  22  23
HETATM   23  C   UNL     1     -10.110  11.683  68.270  1.00  0.00    -0.202 C  
BRANCH  23  24
HETATM   24  N   UNL     1      -9.264  12.105  67.049  1.00  0.00    -0.195 N  
HETATM   25  C   UNL     1      -8.966  13.584  67.205  1.00  0.00    -0.227 C  
HETATM   26  C   UNL     1     -10.060  11.878  65.763  1.00  0.00    -0.241 C  
HETATM   27  C   UNL     1      -7.967  11.319  66.987  1.00  0.00    -0.150 C  
ENDBRANCH  23  24
ENDBRANCH  22  23
ENDBRANCH  21  22
ENDBRANCH  18  21
ENDBRANCH  17  18
ENDBRANCH  16  17
ENDBRANCH  15  16
ENDBRANCH  14  15
ENDBRANCH  13  14
ENDBRANCH  12  13
ENDBRANCH  11  12
ENDBRANCH  10  11
ENDBRANCH   9  10
ENDBRANCH   8   9
ENDBRANCH   7   8
ENDBRANCH   6   7
ENDBRANCH   5   6
ENDBRANCH   4   5
ENDBRANCH   3   4
ENDBRANCH   2   3
TORSDOF 20
ENDMDL
MODEL      335
REMARK 921   NORMALIZED FREE ENERGY PREDICTED BY IDOCK:   -2.22 KCAL/MOL
REMARK 922        TOTAL FREE ENERGY PREDICTED BY IDOCK:   -6.74 KCAL/MOL
REMARK 923 INTER-LIGAND FREE ENERGY PREDICTED BY IDOCK:   -4.48 KCAL/MOL
REMARK 924 INTRA-LIGAND FREE ENERGY PREDICTED BY IDOCK:   -2.26 KCAL/MOL
REMARK 927      BINDING AFFINITY PREDICTED BY RF-SCORE:    0.00 PKD
ROOT
HETATM    1  C   UNL     1     -12.559  12.837  64.993  1.00  0.00    -0.538 C  
HETATM    2  C   UNL     1     -11.376  12.208  65.711  1.00  0.00    -0.402 C  
ENDROOT
BRANCH   2   3
HETATM    3  C   UNL     1     -10.438  11.517  64.725  1.00  0.00    -0.354 C  
BRANCH   3   4
HETATM    4  C   UNL     1      -9.333  10.761  65.457  1.00  0.00    -0.242 C  
BRANCH   4   5
HETATM    5  C   UNL     1      -9.887  10.057  66.691  1.00  0.00    -0.259 C  
BRANCH   5   6
HETATM    6  C   UNL     1      -9.099   8.787  66.986  1.00  0.00    -0.160 C  
BRANCH   6   7
HETATM    7  C   UNL     1      -7.719   8.853  66.344  1.00  0.00    -0.095 C  
BRANCH   7   8
HETATM    8  C   UNL     1      -7.244   7.458  65.959  1.00  0.00    -0.070 C  
BRANCH   8   9
HETATM    9  C   UNL     1      -8.303   6.427  66.315  1.00  0.00    -0.123 C  
BRANCH   9  10
HETATM   10  C   UNL     1      -7.657   5.101  66.686  1.00  0.00    -0.088 C  
BRANCH  10  11
HETATM   11  C   UNL     1      -8.109   4.677  68.075  1.00  0.00    -0.088 C  
BRANCH  11  12
HETATM   12  C   UNL     1      -7.356   5.455  69.140  1.00  0.00    -0.066 C  
BRANCH  12  13
HETATM   13  C   UNL     1      -5.877   5.523  68.788  1.00  0.00    -0.019 C  
BRANCH  13  14
HETATM   14  C   UNL     1      -5.287   6.811  69.327  1.00  0.00    -0.014 C  
BRANCH  14  15
HETATM   15  C   UNL     1      -6.199   7.449  70.365  1.00  0.00    -0.034 C  
BRANCH  15  16
HETATM   16  C   UNL     1      -5.360   8.370  71.222  1.00  0.00    -0.033 C  
BRANCH  16  17
HETATM   17  O   UNL     1      -6.123   8.856  72.320  1.00  0.00    -0.079 OA 
BRANCH  17  18
HETATM   18  P   UNL     1      -7.306   7.715  72.862  1.00  0.00    -0.094 P  
HETATM   19  O   UNL     1      -8.192   8.886  73.301  1.00  0.00    -0.342 OA 
HETATM   20  O   UNL     1      -6.303   7.014  73.777  1.00  0.00    -0.066 OA 
BRANCH  18  21
HETATM   21  O   UNL     1      -8.488   6.575  73.404  1.00  0.00    -0.119 OA 
BRANCH  21  22
HETATM   22  C   UNL     1      -9.832   7.039  73.313  1.00  0.00    -0.214 C  
BRANCH  22  23
HETATM   23  C   UNL     1     -10.527   6.546  72.063  1.00  0.00    -0.202 C  
BRANCH  23  24
HETATM   24  N   UNL     1     -11.647   7.466  71.529  1.00  0.00    -0.265 N  
HETATM   25  C   UNL     1     -12.893   6.614  71.390  1.00  0.00    -0.101 C  
HETATM   26  C   UNL     1     -11.253   8.020  70.158  1.00  0.00    -0.144 C  
HETATM   27  C   UNL     1     -11.909   8.616  72.484  1.00  0.00    -0.272 C  
ENDBRANCH  23  24
ENDBRANCH  22  23
ENDBRANCH  21  22
ENDBRANCH  18  21
ENDBRANCH  17  18
ENDBRANCH  16  17
ENDBRANCH  15  16
ENDBRANCH  14  15
ENDBRANCH  13  14
ENDBRANCH  12  13
ENDBRANCH  11  12
ENDBRANCH  10  11
ENDBRANCH   9  10
ENDBRANCH   8   9
ENDBRANCH   7   8
ENDBRANCH   6   7
ENDBRANCH   5   6
ENDBRANCH   4   5
ENDBRANCH   3   4
ENDBRANCH   2   3
TORSDOF 20
ENDMDL
MODEL      336
REMARK 921   NORMALIZED FREE ENERGY PREDICTED BY IDOCK:   -2.19 KCAL/MOL
REMARK 922        TOTAL FREE ENERGY PREDICTED BY IDOCK:   -6.67 KCAL/MOL
REMARK 923 INTER-LIGAND FREE ENERGY PREDICTED BY IDOCK:   -5.16 KCAL/MOL
REMARK 924 INTRA-LIGAND FREE ENERGY PREDICTED BY IDOCK:   -1.52 KCAL/MOL
REMARK 927      BINDING AFFINITY PREDICTED BY RF-SCORE:    0.00 PKD
ROOT
HETATM    1  C   UNL     1      -9.123   8.276  73.319  1.00  0.00    -0.278 C  
HETATM    2  C   UNL     1      -8.228   8.355  72.094  1.00  0.00    -0.207 C  
ENDROOT
BRANCH   2   3
HETATM    3  C   UNL     1      -6.835   7.806  72.392  1.00  0.00    -0.067 C  
BRANCH   3   4
HETATM    4  C   UNL     1      -5.860   8.145  71.270  1.00  0.00    -0.034 C  
BRANCH   4   5
HETATM    5  C   UNL     1      -6.561   8.925  70.163  1.00  0.00    -0.040 C  
BRANCH   5   6
HETATM    6  C   UNL     1      -5.774   8.839  68.861  1.00  0.00    -0.040 C  
BRANCH   6   7
HETATM    7  C   UNL     1      -6.592   8.134  67.788  1.00  0.00    -0.057 C  
BRANCH   7   8
HETATM    8  C   UNL     1      -5.843   6.918  67.259  1.00  0.00    -0.014 C  
BRANCH   8   9
HETATM    9  C   UNL     1      -6.586   6.319  66.075  1.00  0.00    -0.048 C  
BRANCH   9  10
HETATM   10  C   UNL     1      -6.573   4.800  66.146  1.00  0.00    -0.045 C  
BRANCH  10  11
HETATM   11  C   UNL     1      -7.998   4.274  66.201  1.00  0.00    -0.098 C  
BRANCH  11  12
HETATM   12  C   UNL     1      -8.972   5.322  65.691  1.00  0.00    -0.160 C  
BRANCH  12  13
HETATM   13  C   UNL     1     -10.393   4.956  66.099  1.00  0.00    -0.329 C  
BRANCH  13  14
HETATM   14  C   UNL     1     -10.705   5.569  67.450  1.00  0.00    -0.224 C  
BRANCH  14  15
HETATM   15  C   UNL     1     -10.555   7.083  67.422  1.00  0.00    -0.372 C  
BRANCH  15  16
HETATM   16  C   UNL     1      -9.573   7.475  68.503  1.00  0.00    -0.150 C  
BRANCH  16  17
HETATM   17  O   UNL     1     -10.091   8.552  69.275  1.00  0.00    -0.191 OA 
BRANCH  17  18
HETATM   18  P   UNL     1     -10.540   9.910  68.302  1.00  0.00    -0.225 P  
HETATM   19  O   UNL     1      -9.094  10.411  68.384  1.00  0.00    -0.137 OA 
HETATM   20  O   UNL     1     -11.643  10.322  69.274  1.00  0.00    -0.206 OA 
BRANCH  18  21
HETATM   21  O   UNL     1     -10.990  11.267  67.328  1.00  0.00    -0.253 OA 
BRANCH  21  22
HETATM   22  C   UNL     1     -10.079  12.361  67.395  1.00  0.00    -0.201 C  
BRANCH  22  23
HETATM   23  C   UNL     1     -10.213  13.294  66.211  1.00  0.00    -0.296 C  
BRANCH  23  24
HETATM   24  N   UNL     1     -11.413  14.264  66.273  1.00  0.00    -0.347 N  
HETATM   25  C   UNL     1     -10.911  15.620  65.818  1.00  0.00    -0.306 C  
HETATM   26  C   UNL     1     -11.923  14.366  67.712  1.00  0.00    -0.333 C  
HETATM   27  C   UNL     1     -12.539  13.797  65.368  1.00  0.00    -0.497 C  
ENDBRANCH  23  24
ENDBRANCH  22  23
ENDBRANCH  21  22
ENDBRANCH  18  21
ENDBRANCH  17  18
ENDBRANCH  16  17
ENDBRANCH  15  16
ENDBRANCH  14  15
ENDBRANCH  13  14
ENDBRANCH  12  13
ENDBRANCH  11  12
ENDBRANCH  10  11
ENDBRANCH   9  10
ENDBRANCH   8   9
ENDBRANCH   7   8
ENDBRANCH   6   7
ENDBRANCH   5   6
ENDBRANCH   4   5
ENDBRANCH   3   4
ENDBRANCH   2   3
TORSDOF 20
ENDMDL
MODEL      337
REMARK 921   NORMALIZED FREE ENERGY PREDICTED BY IDOCK:   -2.16 KCAL/MOL
REMARK 922        TOTAL FREE ENERGY PREDICTED BY IDOCK:   -6.61 KCAL/MOL
REMARK 923 INTER-LIGAND FREE ENERGY PREDICTED BY IDOCK:   -4.91 KCAL/MOL
REMARK 924 INTRA-LIGAND FREE ENERGY PREDICTED BY IDOCK:   -1.70 KCAL/MOL
REMARK 927      BINDING AFFINITY PREDICTED BY RF-SCORE:    0.00 PKD
ROOT
HETATM    1  C   UNL     1      -6.212   9.351  65.037  1.00  0.00    -0.068 C  
HETATM    2  C   UNL     1      -7.627   9.395  64.487  1.00  0.00    -0.110 C  
ENDROOT
BRANCH   2   3
HETATM    3  C   UNL     1      -8.139   7.992  64.169  1.00  0.00    -0.102 C  
BRANCH   3   4
HETATM    4  C   UNL     1      -7.859   7.032  65.321  1.00  0.00    -0.121 C  
BRANCH   4   5
HETATM    5  C   UNL     1      -9.010   7.040  66.322  1.00  0.00    -0.175 C  
BRANCH   5   6
HETATM    6  C   UNL     1      -9.666   5.667  66.400  1.00  0.00    -0.180 C  
BRANCH   6   7
HETATM    7  C   UNL     1      -8.819   4.629  65.678  1.00  0.00    -0.131 C  
BRANCH   7   8
HETATM    8  C   UNL     1      -8.196   3.662  66.676  1.00  0.00    -0.099 C  
BRANCH   8   9
HETATM    9  C   UNL     1      -6.711   3.952  66.829  1.00  0.00    -0.046 C  
BRANCH   9  10
HETATM   10  C   UNL     1      -6.250   3.656  68.247  1.00  0.00    -0.032 C  
BRANCH  10  11
HETATM   11  C   UNL     1      -7.081   4.455  69.238  1.00  0.00    -0.051 C  
BRANCH  11  12
HETATM   12  C   UNL     1      -6.644   5.909  69.249  1.00  0.00    -0.051 C  
BRANCH  12  13
HETATM   13  C   UNL     1      -7.496   6.704  70.228  1.00  0.00    -0.094 C  
BRANCH  13  14
HETATM   14  C   UNL     1      -8.954   6.608  69.825  1.00  0.00    -0.143 C  
BRANCH  14  15
HETATM   15  C   UNL     1      -9.837   7.462  70.723  1.00  0.00    -0.178 C  
BRANCH  15  16
HETATM   16  C   UNL     1     -10.930   8.063  69.869  1.00  0.00    -0.172 C  
BRANCH  16  17
HETATM   17  O   UNL     1     -10.374   8.946  68.903  1.00  0.00    -0.206 OA 
BRANCH  17  18
HETATM   18  P   UNL     1     -11.268  10.420  68.759  1.00  0.00    -0.176 P  
HETATM   19  O   UNL     1     -10.494  10.731  67.474  1.00  0.00    -0.195 OA 
HETATM   20  O   UNL     1     -10.840  10.890  70.148  1.00  0.00    -0.186 OA 
BRANCH  18  21
HETATM   21  O   UNL     1     -12.163  11.894  68.616  1.00  0.00    -0.358 OA 
BRANCH  21  22
HETATM   22  C   UNL     1     -11.620  12.982  69.360  1.00  0.00    -0.299 C  
BRANCH  22  23
HETATM   23  C   UNL     1     -12.396  13.253  70.630  1.00  0.00    -0.339 C  
BRANCH  23  24
HETATM   24  N   UNL     1     -12.540  14.744  71.005  1.00  0.00    -0.310 N  
HETATM   25  C   UNL     1     -14.024  15.026  71.137  1.00  0.00    -0.374 C  
HETATM   26  C   UNL     1     -11.951  15.617  69.895  1.00  0.00    -0.360 C  
HETATM   27  C   UNL     1     -11.836  15.047  72.315  1.00  0.00    -0.350 C  
ENDBRANCH  23  24
ENDBRANCH  22  23
ENDBRANCH  21  22
ENDBRANCH  18  21
ENDBRANCH  17  18
ENDBRANCH  16  17
ENDBRANCH  15  16
ENDBRANCH  14  15
ENDBRANCH  13  14
ENDBRANCH  12  13
ENDBRANCH  11  12
ENDBRANCH  10  11
ENDBRANCH   9  10
ENDBRANCH   8   9
ENDBRANCH   7   8
ENDBRANCH   6   7
ENDBRANCH   5   6
ENDBRANCH   4   5
ENDBRANCH   3   4
ENDBRANCH   2   3
TORSDOF 20
ENDMDL
MODEL      338
REMARK 921   NORMALIZED FREE ENERGY PREDICTED BY IDOCK:   -2.14 KCAL/MOL
REMARK 922        TOTAL FREE ENERGY PREDICTED BY IDOCK:   -6.57 KCAL/MOL
REMARK 923 INTER-LIGAND FREE ENERGY PREDICTED BY IDOCK:   -4.13 KCAL/MOL
REMARK 924 INTRA-LIGAND FREE ENERGY PREDICTED BY IDOCK:   -2.43 KCAL/MOL
REMARK 927      BINDING AFFINITY PREDICTED BY RF-SCORE:    0.00 PKD
ROOT
HETATM    1  C   UNL     1     -11.725  11.622  68.703  1.00  0.00    -0.386 C  
HETATM    2  C   UNL     1     -10.433  11.164  68.048  1.00  0.00    -0.217 C  
ENDROOT
BRANCH   2   3
HETATM    3  C   UNL     1     -10.711  10.412  66.748  1.00  0.00    -0.235 C  
BRANCH   3   4
HETATM    4  C   UNL     1     -10.243   8.964  66.841  1.00  0.00    -0.347 C  
BRANCH   4   5
HETATM    5  C   UNL     1      -9.669   8.670  68.223  1.00  0.00    -0.171 C  
BRANCH   5   6
HETATM    6  C   UNL     1      -9.713   7.175  68.518  1.00  0.00    -0.143 C  
BRANCH   6   7
HETATM    7  C   UNL     1     -10.690   6.475  67.583  1.00  0.00    -0.381 C  
BRANCH   7   8
HETATM    8  C   UNL     1      -9.960   5.457  66.717  1.00  0.00    -0.217 C  
BRANCH   8   9
HETATM    9  C   UNL     1      -8.846   4.794  67.513  1.00  0.00    -0.108 C  
BRANCH   9  10
HETATM   10  C   UNL     1      -7.516   4.928  66.788  1.00  0.00    -0.087 C  
BRANCH  10  11
HETATM   11  C   UNL     1      -6.463   5.476  67.738  1.00  0.00    -0.048 C  
BRANCH  11  12
HETATM   12  C   UNL     1      -6.040   6.872  67.315  1.00  0.00    -0.036 C  
BRANCH  12  13
HETATM   13  C   UNL     1      -6.649   7.215  65.963  1.00  0.00    -0.052 C  
BRANCH  13  14
HETATM   14  C   UNL     1      -6.666   8.719  65.782  1.00  0.00    -0.068 C  
BRANCH  14  15
HETATM   15  C   UNL     1      -6.334   9.439  67.081  1.00  0.00    -0.066 C  
BRANCH  15  16
HETATM   16  C   UNL     1      -5.730  10.780  66.731  1.00  0.00    -0.069 C  
BRANCH  16  17
HETATM   17  O   UNL     1      -5.173  11.390  67.889  1.00  0.00    -0.043 OA 
BRANCH  17  18
HETATM   18  P   UNL     1      -6.070  12.777  68.405  1.00  0.00    -0.089 P  
HETATM   19  O   UNL     1      -5.787  13.429  67.048  1.00  0.00    -0.172 OA 
HETATM   20  O   UNL     1      -5.193  12.963  69.641  1.00  0.00    -0.072 OA 
BRANCH  18  21
HETATM   21  O   UNL     1      -6.967  14.163  68.921  1.00  0.00    -0.099 OA 
BRANCH  21  22
HETATM   22  C   UNL     1      -7.607  14.872  67.864  1.00  0.00    -0.136 C  
BRANCH  22  23
HETATM   23  C   UNL     1      -8.938  15.454  68.286  1.00  0.00    -0.185 C  
BRANCH  23  24
HETATM   24  N   UNL     1      -8.986  16.996  68.355  1.00  0.00    -0.239 N  
HETATM   25  C   UNL     1      -7.848  17.436  69.254  1.00  0.00     0.096 C  
HETATM   26  C   UNL     1     -10.317  17.447  68.960  1.00  0.00    -0.319 C  
HETATM   27  C   UNL     1      -8.824  17.609  66.976  1.00  0.00    -0.246 C  
ENDBRANCH  23  24
ENDBRANCH  22  23
ENDBRANCH  21  22
ENDBRANCH  18  21
ENDBRANCH  17  18
ENDBRANCH  16  17
ENDBRANCH  15  16
ENDBRANCH  14  15
ENDBRANCH  13  14
ENDBRANCH  12  13
ENDBRANCH  11  12
ENDBRANCH  10  11
ENDBRANCH   9  10
ENDBRANCH   8   9
ENDBRANCH   7   8
ENDBRANCH   6   7
ENDBRANCH   5   6
ENDBRANCH   4   5
ENDBRANCH   3   4
ENDBRANCH   2   3
TORSDOF 20
ENDMDL
MODEL      339
REMARK 921   NORMALIZED FREE ENERGY PREDICTED BY IDOCK:   -2.03 KCAL/MOL
REMARK 922        TOTAL FREE ENERGY PREDICTED BY IDOCK:   -6.33 KCAL/MOL
REMARK 923 INTER-LIGAND FREE ENERGY PREDICTED BY IDOCK:   -4.05 KCAL/MOL
REMARK 924 INTRA-LIGAND FREE ENERGY PREDICTED BY IDOCK:   -2.28 KCAL/MOL
REMARK 927      BINDING AFFINITY PREDICTED BY RF-SCORE:    0.00 PKD
ROOT
HETATM    1  C   UNL     1     -11.678  12.946  63.727  1.00  0.00    -0.557 C  
HETATM    2  C   UNL     1     -10.234  12.519  63.927  1.00  0.00    -0.386 C  
ENDROOT
BRANCH   2   3
HETATM    3  C   UNL     1      -9.757  11.637  62.776  1.00  0.00    -0.085 C  
BRANCH   3   4
HETATM    4  C   UNL     1      -8.643  10.699  63.229  1.00  0.00    -0.151 C  
BRANCH   4   5
HETATM    5  C   UNL     1      -8.886  10.223  64.657  1.00  0.00    -0.220 C  
BRANCH   5   6
HETATM    6  C   UNL     1      -8.345   8.811  64.854  1.00  0.00    -0.179 C  
BRANCH   6   7
HETATM    7  C   UNL     1      -7.061   8.616  64.059  1.00  0.00    -0.090 C  
BRANCH   7   8
HETATM    8  C   UNL     1      -6.939   7.172  63.591  1.00  0.00    -0.061 C  
BRANCH   8   9
HETATM    9  C   UNL     1      -8.009   6.315  64.250  1.00  0.00    -0.108 C  
BRANCH   9  10
HETATM   10  C   UNL     1      -7.376   5.189  65.052  1.00  0.00    -0.068 C  
BRANCH  10  11
HETATM   11  C   UNL     1      -8.063   5.069  66.404  1.00  0.00    -0.108 C  
BRANCH  11  12
HETATM   12  C   UNL     1      -7.506   6.095  67.376  1.00  0.00    -0.082 C  
BRANCH  12  13
HETATM   13  C   UNL     1      -5.996   5.942  67.488  1.00  0.00    -0.018 C  
BRANCH  13  14
HETATM   14  C   UNL     1      -5.376   7.281  67.833  1.00  0.00    -0.024 C  
BRANCH  14  15
HETATM   15  C   UNL     1      -6.413   8.395  67.817  1.00  0.00    -0.061 C  
BRANCH  15  16
HETATM   16  C   UNL     1      -6.104   9.338  68.958  1.00  0.00    -0.043 C  
BRANCH  16  17
HETATM   17  O   UNL     1      -7.275  10.046  69.345  1.00  0.00    -0.067 OA 
BRANCH  17  18
HETATM   18  P   UNL     1      -8.388   9.057  70.226  1.00  0.00    -0.197 P  
HETATM   19  O   UNL     1      -9.535   9.690  69.432  1.00  0.00    -0.170 OA 
HETATM   20  O   UNL     1      -7.889   9.580  71.570  1.00  0.00    -0.243 OA 
BRANCH  18  21
HETATM   21  O   UNL     1      -9.500   8.066  71.106  1.00  0.00    -0.149 OA 
BRANCH  21  22
HETATM   22  C   UNL     1      -8.989   6.783  71.456  1.00  0.00    -0.137 C  
BRANCH  22  23
HETATM   23  C   UNL     1      -9.336   6.395  72.877  1.00  0.00    -0.136 C  
BRANCH  23  24
HETATM   24  N   UNL     1      -9.719   4.912  73.076  1.00  0.00    -0.142 N  
HETATM   25  C   UNL     1     -11.208   4.873  73.359  1.00  0.00    -0.338 C  
HETATM   26  C   UNL     1      -8.958   4.336  74.272  1.00  0.00    -0.100 C  
HETATM   27  C   UNL     1      -9.404   4.096  71.836  1.00  0.00    -0.132 C  
ENDBRANCH  23  24
ENDBRANCH  22  23
ENDBRANCH  21  22
ENDBRANCH  18  21
ENDBRANCH  17  18
ENDBRANCH  16  17
ENDBRANCH  15  16
ENDBRANCH  14  15
ENDBRANCH  13  14
ENDBRANCH  12  13
ENDBRANCH  11  12
ENDBRANCH  10  11
ENDBRANCH   9  10
ENDBRANCH   8   9
ENDBRANCH   7   8
ENDBRANCH   6   7
ENDBRANCH   5   6
ENDBRANCH   4   5
ENDBRANCH   3   4
ENDBRANCH   2   3
TORSDOF 20
ENDMDL
MODEL      340
REMARK 921   NORMALIZED FREE ENERGY PREDICTED BY IDOCK:   -2.00 KCAL/MOL
REMARK 922        TOTAL FREE ENERGY PREDICTED BY IDOCK:   -6.27 KCAL/MOL
REMARK 923 INTER-LIGAND FREE ENERGY PREDICTED BY IDOCK:   -4.57 KCAL/MOL
REMARK 924 INTRA-LIGAND FREE ENERGY PREDICTED BY IDOCK:   -1.69 KCAL/MOL
REMARK 927      BINDING AFFINITY PREDICTED BY RF-SCORE:    0.00 PKD
ROOT
HETATM    1  C   UNL     1      -9.010  10.385  65.149  1.00  0.00    -0.217 C  
HETATM    2  C   UNL     1      -8.798   8.893  65.337  1.00  0.00    -0.234 C  
ENDROOT
BRANCH   2   3
HETATM    3  C   UNL     1      -7.561   8.413  64.583  1.00  0.00    -0.104 C  
BRANCH   3   4
HETATM    4  C   UNL     1      -7.815   8.373  63.080  1.00  0.00    -0.147 C  
BRANCH   4   5
HETATM    5  C   UNL     1      -6.693   7.631  62.362  1.00  0.00    -0.076 C  
BRANCH   5   6
HETATM    6  C   UNL     1      -5.896   6.779  63.343  1.00  0.00    -0.035 C  
BRANCH   6   7
HETATM    7  C   UNL     1      -6.395   5.340  63.327  1.00  0.00    -0.022 C  
BRANCH   7   8
HETATM    8  C   UNL     1      -5.427   4.433  64.075  1.00  0.00    -0.013 C  
BRANCH   8   9
HETATM    9  C   UNL     1      -6.123   3.794  65.267  1.00  0.00    -0.024 C  
BRANCH   9  10
HETATM   10  C   UNL     1      -7.049   4.792  65.945  1.00  0.00    -0.071 C  
BRANCH  10  11
HETATM   11  C   UNL     1      -8.430   4.179  66.118  1.00  0.00    -0.109 C  
BRANCH  11  12
HETATM   12  C   UNL     1      -8.335   2.846  66.838  1.00  0.00    -0.093 C  
BRANCH  12  13
HETATM   13  C   UNL     1      -7.999   3.068  68.306  1.00  0.00    -0.066 C  
BRANCH  13  14
HETATM   14  C   UNL     1      -9.223   2.781  69.153  1.00  0.00    -0.215 C  
BRANCH  14  15
HETATM   15  C   UNL     1      -9.433   3.858  70.208  1.00  0.00    -0.255 C  
BRANCH  15  16
HETATM   16  C   UNL     1      -9.700   5.165  69.494  1.00  0.00    -0.192 C  
BRANCH  16  17
HETATM   17  O   UNL     1     -11.062   5.545  69.651  1.00  0.00    -0.249 OA 
BRANCH  17  18
HETATM   18  P   UNL     1     -11.251   6.935  70.662  1.00  0.00    -0.340 P  
HETATM   19  O   UNL     1      -9.766   7.252  70.456  1.00  0.00    -0.176 OA 
HETATM   20  O   UNL     1     -11.794   6.100  71.819  1.00  0.00    -0.299 OA 
BRANCH  18  21
HETATM   21  O   UNL     1     -11.442   8.327  71.672  1.00  0.00    -0.254 OA 
BRANCH  21  22
HETATM   22  C   UNL     1     -10.635   9.439  71.293  1.00  0.00    -0.330 C  
BRANCH  22  23
HETATM   23  C   UNL     1     -11.392  10.435  70.442  1.00  0.00    -0.337 C  
BRANCH  23  24
HETATM   24  N   UNL     1     -10.664  10.886  69.157  1.00  0.00    -0.214 N  
HETATM   25  C   UNL     1      -9.214  10.466  69.298  1.00  0.00    -0.184 C  
HETATM   26  C   UNL     1     -10.742  12.408  69.024  1.00  0.00    -0.098 C  
HETATM   27  C   UNL     1     -11.275  10.238  67.928  1.00  0.00    -0.220 C  
ENDBRANCH  23  24
ENDBRANCH  22  23
ENDBRANCH  21  22
ENDBRANCH  18  21
ENDBRANCH  17  18
ENDBRANCH  16  17
ENDBRANCH  15  16
ENDBRANCH  14  15
ENDBRANCH  13  14
ENDBRANCH  12  13
ENDBRANCH  11  12
ENDBRANCH  10  11
ENDBRANCH   9  10
ENDBRANCH   8   9
ENDBRANCH   7   8
ENDBRANCH   6   7
ENDBRANCH   5   6
ENDBRANCH   4   5
ENDBRANCH   3   4
ENDBRANCH   2   3
TORSDOF 20
ENDMDL
MODEL      341
REMARK 921   NORMALIZED FREE ENERGY PREDICTED BY IDOCK:   -1.92 KCAL/MOL
REMARK 922        TOTAL FREE ENERGY PREDICTED BY IDOCK:   -6.08 KCAL/MOL
REMARK 923 INTER-LIGAND FREE ENERGY PREDICTED BY IDOCK:   -4.43 KCAL/MOL
REMARK 924 INTRA-LIGAND FREE ENERGY PREDICTED BY IDOCK:   -1.65 KCAL/MOL
REMARK 927      BINDING AFFINITY PREDICTED BY RF-SCORE:    0.00 PKD
ROOT
HETATM    1  C   UNL     1     -10.647  15.578  66.213  1.00  0.00    -0.310 C  
HETATM    2  C   UNL     1     -10.738  17.024  66.669  1.00  0.00    -0.092 C  
ENDROOT
BRANCH   2   3
HETATM    3  C   UNL     1     -10.604  17.132  68.186  1.00  0.00    -0.380 C  
BRANCH   3   4
HETATM    4  C   UNL     1      -9.357  17.922  68.572  1.00  0.00    -0.299 C  
BRANCH   4   5
HETATM    5  C   UNL     1      -8.207  16.982  68.915  1.00  0.00    -0.204 C  
BRANCH   5   6
HETATM    6  C   UNL     1      -7.155  16.991  67.812  1.00  0.00    -0.162 C  
BRANCH   6   7
HETATM    7  C   UNL     1      -6.728  15.570  67.470  1.00  0.00    -0.220 C  
BRANCH   7   8
HETATM    8  C   UNL     1      -6.065  14.910  68.672  1.00  0.00    -0.087 C  
BRANCH   8   9
HETATM    9  C   UNL     1      -5.141  13.793  68.211  1.00  0.00    -0.104 C  
BRANCH   9  10
HETATM   10  C   UNL     1      -5.939  12.548  67.856  1.00  0.00    -0.101 C  
BRANCH  10  11
HETATM   11  C   UNL     1      -7.245  12.534  68.634  1.00  0.00    -0.103 C  
BRANCH  11  12
HETATM   12  C   UNL     1      -8.281  11.685  67.919  1.00  0.00    -0.141 C  
BRANCH  12  13
HETATM   13  C   UNL     1      -9.184  12.569  67.070  1.00  0.00    -0.214 C  
BRANCH  13  14
HETATM   14  C   UNL     1     -10.606  12.048  67.133  1.00  0.00    -0.255 C  
BRANCH  14  15
HETATM   15  C   UNL     1     -10.644  10.584  67.547  1.00  0.00    -0.306 C  
BRANCH  15  16
HETATM   16  C   UNL     1     -11.539  10.465  68.760  1.00  0.00    -0.119 C  
BRANCH  16  17
HETATM   17  O   UNL     1     -10.918   9.662  69.756  1.00  0.00    -0.234 OA 
BRANCH  17  18
HETATM   18  P   UNL     1     -10.196   8.233  69.101  1.00  0.00    -0.212 P  
HETATM   19  O   UNL     1     -11.242   7.397  69.847  1.00  0.00    -0.228 OA 
HETATM   20  O   UNL     1      -8.824   8.589  69.670  1.00  0.00    -0.134 OA 
BRANCH  18  21
HETATM   21  O   UNL     1      -9.473   6.804  68.445  1.00  0.00    -0.128 OA 
BRANCH  21  22
HETATM   22  C   UNL     1      -8.110   6.962  68.063  1.00  0.00    -0.115 C  
BRANCH  22  23
HETATM   23  C   UNL     1      -7.574   5.750  67.333  1.00  0.00    -0.096 C  
BRANCH  23  24
HETATM   24  N   UNL     1      -7.023   4.629  68.241  1.00  0.00    -0.055 N  
HETATM   25  C   UNL     1      -5.911   3.942  67.473  1.00  0.00    -0.023 C  
HETATM   26  C   UNL     1      -8.130   3.618  68.547  1.00  0.00    -0.070 C  
HETATM   27  C   UNL     1      -6.482   5.196  69.541  1.00  0.00    -0.038 C  
ENDBRANCH  23  24
ENDBRANCH  22  23
ENDBRANCH  21  22
ENDBRANCH  18  21
ENDBRANCH  17  18
ENDBRANCH  16  17
ENDBRANCH  15  16
ENDBRANCH  14  15
ENDBRANCH  13  14
ENDBRANCH  12  13
ENDBRANCH  11  12
ENDBRANCH  10  11
ENDBRANCH   9  10
ENDBRANCH   8   9
ENDBRANCH   7   8
ENDBRANCH   6   7
ENDBRANCH   5   6
ENDBRANCH   4   5
ENDBRANCH   3   4
ENDBRANCH   2   3
TORSDOF 20
ENDMDL
MODEL      342
REMARK 921   NORMALIZED FREE ENERGY PREDICTED BY IDOCK:   -1.84 KCAL/MOL
REMARK 922        TOTAL FREE ENERGY PREDICTED BY IDOCK:   -5.92 KCAL/MOL
REMARK 923 INTER-LIGAND FREE ENERGY PREDICTED BY IDOCK:   -3.90 KCAL/MOL
REMARK 924 INTRA-LIGAND FREE ENERGY PREDICTED BY IDOCK:   -2.02 KCAL/MOL
REMARK 927      BINDING AFFINITY PREDICTED BY RF-SCORE:    0.00 PKD
ROOT
HETATM    1  C   UNL     1      -7.936   6.931  65.889  1.00  0.00    -0.112 C  
HETATM    2  C   UNL     1      -6.569   7.458  65.485  1.00  0.00    -0.045 C  
ENDROOT
BRANCH   2   3
HETATM    3  C   UNL     1      -6.178   8.674  66.321  1.00  0.00    -0.060 C  
BRANCH   3   4
HETATM    4  C   UNL     1      -5.246   9.597  65.543  1.00  0.00    -0.043 C  
BRANCH   4   5
HETATM    5  C   UNL     1      -5.133   9.150  64.089  1.00  0.00    -0.054 C  
BRANCH   5   6
HETATM    6  C   UNL     1      -5.446  10.304  63.144  1.00  0.00    -0.136 C  
BRANCH   6   7
HETATM    7  C   UNL     1      -6.744  10.041  62.393  1.00  0.00    -0.123 C  
BRANCH   7   8
HETATM    8  C   UNL     1      -7.868  10.900  62.956  1.00  0.00     0.134 C  
BRANCH   8   9
HETATM    9  C   UNL     1      -8.962  10.016  63.537  1.00  0.00    -0.279 C  
BRANCH   9  10
HETATM   10  C   UNL     1      -9.087  10.232  65.036  1.00  0.00    -0.244 C  
BRANCH  10  11
HETATM   11  C   UNL     1     -10.414  10.906  65.351  1.00  0.00    -0.291 C  
BRANCH  11  12
HETATM   12  C   UNL     1     -10.325  11.670  66.661  1.00  0.00    -0.257 C  
BRANCH  12  13
HETATM   13  C   UNL     1     -11.170  10.982  67.724  1.00  0.00    -0.374 C  
BRANCH  13  14
HETATM   14  C   UNL     1     -10.382  10.889  69.015  1.00  0.00    -0.230 C  
BRANCH  14  15
HETATM   15  C   UNL     1      -8.883  10.896  68.752  1.00  0.00    -0.162 C  
BRANCH  15  16
HETATM   16  C   UNL     1      -8.221  10.032  69.802  1.00  0.00    -0.178 C  
BRANCH  16  17
HETATM   17  O   UNL     1      -9.199   9.468  70.668  1.00  0.00    -0.245 OA 
BRANCH  17  18
HETATM   18  P   UNL     1      -8.656   8.008  71.420  1.00  0.00    -0.154 P  
HETATM   19  O   UNL     1     -10.109   7.691  71.789  1.00  0.00    -0.171 OA 
HETATM   20  O   UNL     1      -7.689   8.761  72.330  1.00  0.00    -0.343 OA 
BRANCH  18  21
HETATM   21  O   UNL     1      -8.113   6.547  72.171  1.00  0.00    -0.106 OA 
BRANCH  21  22
HETATM   22  C   UNL     1      -7.405   5.670  71.299  1.00  0.00    -0.085 C  
BRANCH  22  23
HETATM   23  C   UNL     1      -8.277   5.147  70.179  1.00  0.00    -0.086 C  
BRANCH  23  24
HETATM   24  N   UNL     1      -9.308   4.075  70.597  1.00  0.00    -0.131 N  
HETATM   25  C   UNL     1     -10.659   4.760  70.657  1.00  0.00     0.116 C  
HETATM   26  C   UNL     1      -8.953   3.525  71.979  1.00  0.00    -0.100 C  
HETATM   27  C   UNL     1      -9.348   2.937  69.593  1.00  0.00    -0.135 C  
ENDBRANCH  23  24
ENDBRANCH  22  23
ENDBRANCH  21  22
ENDBRANCH  18  21
ENDBRANCH  17  18
ENDBRANCH  16  17
ENDBRANCH  15  16
ENDBRANCH  14  15
ENDBRANCH  13  14
ENDBRANCH  12  13
ENDBRANCH  11  12
ENDBRANCH  10  11
ENDBRANCH   9  10
ENDBRANCH   8   9
ENDBRANCH   7   8
ENDBRANCH   6   7
ENDBRANCH   5   6
ENDBRANCH   4   5
ENDBRANCH   3   4
ENDBRANCH   2   3
TORSDOF 20
ENDMDL
MODEL      343
REMARK 921   NORMALIZED FREE ENERGY PREDICTED BY IDOCK:   -1.73 KCAL/MOL
REMARK 922        TOTAL FREE ENERGY PREDICTED BY IDOCK:   -5.68 KCAL/MOL
REMARK 923 INTER-LIGAND FREE ENERGY PREDICTED BY IDOCK:   -4.08 KCAL/MOL
REMARK 924 INTRA-LIGAND FREE ENERGY PREDICTED BY IDOCK:   -1.59 KCAL/MOL
REMARK 927      BINDING AFFINITY PREDICTED BY RF-SCORE:    0.00 PKD
ROOT
HETATM    1  C   UNL     1     -12.044  13.768  66.266  1.00  0.00    -0.484 C  
HETATM    2  C   UNL     1     -12.223  12.259  66.266  1.00  0.00     0.058 C  
ENDROOT
BRANCH   2   3
HETATM    3  C   UNL     1     -11.655  11.637  64.993  1.00  0.00    -0.133 C  
BRANCH   3   4
HETATM    4  C   UNL     1     -10.138  11.502  65.077  1.00  0.00    -0.315 C  
BRANCH   4   5
HETATM    5  C   UNL     1      -9.749  10.308  65.942  1.00  0.00    -0.283 C  
BRANCH   5   6
HETATM    6  C   UNL     1      -8.524   9.605  65.371  1.00  0.00    -0.155 C  
BRANCH   6   7
HETATM    7  C   UNL     1      -7.552   9.238  66.485  1.00  0.00    -0.093 C  
BRANCH   7   8
HETATM    8  C   UNL     1      -7.807   7.816  66.968  1.00  0.00    -0.112 C  
BRANCH   8   9
HETATM    9  C   UNL     1      -7.694   7.749  68.483  1.00  0.00    -0.118 C  
BRANCH   9  10
HETATM   10  C   UNL     1      -8.505   8.860  69.131  1.00  0.00    -0.132 C  
BRANCH  10  11
HETATM   11  C   UNL     1      -8.064   9.046  70.574  1.00  0.00    -0.169 C  
BRANCH  11  12
HETATM   12  C   UNL     1      -6.641   9.574  70.632  1.00  0.00    -0.103 C  
BRANCH  12  13
HETATM   13  C   UNL     1      -6.618  11.055  70.280  1.00  0.00    -0.015 C  
BRANCH  13  14
HETATM   14  C   UNL     1      -5.367  11.367  69.485  1.00  0.00    -0.049 C  
BRANCH  14  15
HETATM   15  C   UNL     1      -5.131  12.868  69.386  1.00  0.00    -0.074 C  
BRANCH  15  16
HETATM   16  C   UNL     1      -5.473  13.303  67.978  1.00  0.00    -0.111 C  
BRANCH  16  17
HETATM   17  O   UNL     1      -6.859  13.606  67.878  1.00  0.00    -0.117 OA 
BRANCH  17  18
HETATM   18  P   UNL     1      -7.153  15.294  67.635  1.00  0.00    -0.196 P  
HETATM   19  O   UNL     1      -7.777  15.358  69.032  1.00  0.00    -0.153 OA 
HETATM   20  O   UNL     1      -7.946  15.037  66.356  1.00  0.00     0.199 OA 
BRANCH  18  21
HETATM   21  O   UNL     1      -7.445  16.982  67.391  1.00  0.00    -0.151 OA 
BRANCH  21  22
HETATM   22  C   UNL     1      -7.832  17.684  68.569  1.00  0.00    -0.282 C  
BRANCH  22  23
HETATM   23  C   UNL     1      -8.730  18.862  68.267  1.00  0.00    -0.333 C  
BRANCH  23  24
HETATM   24  N   UNL     1     -10.178  18.499  67.871  1.00  0.00    -0.366 N  
HETATM   25  C   UNL     1     -10.653  17.442  68.849  1.00  0.00    -0.243 C  
HETATM   26  C   UNL     1     -10.199  17.926  66.452  1.00  0.00    -0.372 C  
HETATM   27  C   UNL     1     -11.084  19.715  67.940  1.00  0.00     0.217 C  
ENDBRANCH  23  24
ENDBRANCH  22  23
ENDBRANCH  21  22
ENDBRANCH  18  21
ENDBRANCH  17  18
ENDBRANCH  16  17
ENDBRANCH  15  16
ENDBRANCH  14  15
ENDBRANCH  13  14
ENDBRANCH  12  13
ENDBRANCH  11  12
ENDBRANCH  10  11
ENDBRANCH   9  10
ENDBRANCH   8   9
ENDBRANCH   7   8
ENDBRANCH   6   7
ENDBRANCH   5   6
ENDBRANCH   4   5
ENDBRANCH   3   4
ENDBRANCH   2   3
TORSDOF 20
ENDMDL
MODEL      344
REMARK 921   NORMALIZED FREE ENERGY PREDICTED BY IDOCK:   -1.64 KCAL/MOL
REMARK 922        TOTAL FREE ENERGY PREDICTED BY IDOCK:   -5.47 KCAL/MOL
REMARK 923 INTER-LIGAND FREE ENERGY PREDICTED BY IDOCK:   -5.35 KCAL/MOL
REMARK 924 INTRA-LIGAND FREE ENERGY PREDICTED BY IDOCK:   -0.12 KCAL/MOL
REMARK 927      BINDING AFFINITY PREDICTED BY RF-SCORE:    0.00 PKD
ROOT
HETATM    1  C   UNL     1      -8.845   4.798  64.882  1.00  0.00    -0.153 C  
HETATM    2  C   UNL     1      -8.393   5.875  65.854  1.00  0.00    -0.136 C  
ENDROOT
BRANCH   2   3
HETATM    3  C   UNL     1      -9.587   6.605  66.463  1.00  0.00    -0.187 C  
BRANCH   3   4
HETATM    4  C   UNL     1      -9.406   6.795  67.965  1.00  0.00    -0.118 C  
BRANCH   4   5
HETATM    5  C   UNL     1      -7.957   6.549  68.370  1.00  0.00    -0.110 C  
BRANCH   5   6
HETATM    6  C   UNL     1      -7.306   7.839  68.855  1.00  0.00    -0.086 C  
BRANCH   6   7
HETATM    7  C   UNL     1      -6.557   8.520  67.718  1.00  0.00    -0.062 C  
BRANCH   7   8
HETATM    8  C   UNL     1      -6.856  10.013  67.700  1.00  0.00    -0.084 C  
BRANCH   8   9
HETATM    9  C   UNL     1      -7.139  10.474  66.279  1.00  0.00    -0.132 C  
BRANCH   9  10
HETATM   10  C   UNL     1      -8.636  10.530  66.021  1.00  0.00    -0.166 C  
BRANCH  10  11
HETATM   11  C   UNL     1      -9.037  11.937  65.606  1.00  0.00     0.017 C  
BRANCH  11  12
HETATM   12  C   UNL     1      -9.932  12.567  66.659  1.00  0.00    -0.243 C  
BRANCH  12  13
HETATM   13  C   UNL     1     -11.385  12.508  66.211  1.00  0.00    -0.386 C  
BRANCH  13  14
HETATM   14  C   UNL     1     -12.267  13.139  67.269  1.00  0.00    -0.234 C  
BRANCH  14  15
HETATM   15  C   UNL     1     -11.445  13.671  68.434  1.00  0.00    -0.346 C  
BRANCH  15  16
HETATM   16  C   UNL     1     -11.027  12.494  69.286  1.00  0.00    -0.080 C  
BRANCH  16  17
HETATM   17  O   UNL     1     -12.051  11.508  69.305  1.00  0.00    -0.321 OA 
BRANCH  17  18
HETATM   18  P   UNL     1     -11.614  10.114  70.232  1.00  0.00    -0.294 P  
HETATM   19  O   UNL     1     -12.180  10.800  71.479  1.00  0.00    -0.311 OA 
HETATM   20  O   UNL     1     -10.153  10.204  69.796  1.00  0.00    -0.230 OA 
BRANCH  18  21
HETATM   21  O   UNL     1     -11.178   8.719  71.157  1.00  0.00    -0.248 OA 
BRANCH  21  22
HETATM   22  C   UNL     1     -11.909   7.542  70.821  1.00  0.00    -0.228 C  
BRANCH  22  23
HETATM   23  C   UNL     1     -11.162   6.278  71.186  1.00  0.00    -0.305 C  
BRANCH  23  24
HETATM   24  N   UNL     1     -10.267   6.385  72.440  1.00  0.00    -0.184 N  
HETATM   25  C   UNL     1     -10.750   7.586  73.229  1.00  0.00    -0.382 C  
HETATM   26  C   UNL     1      -8.811   6.601  72.022  1.00  0.00    -0.135 C  
HETATM   27  C   UNL     1     -10.368   5.131  73.290  1.00  0.00    -0.204 C  
ENDBRANCH  23  24
ENDBRANCH  22  23
ENDBRANCH  21  22
ENDBRANCH  18  21
ENDBRANCH  17  18
ENDBRANCH  16  17
ENDBRANCH  15  16
ENDBRANCH  14  15
ENDBRANCH  13  14
ENDBRANCH  12  13
ENDBRANCH  11  12
ENDBRANCH  10  11
ENDBRANCH   9  10
ENDBRANCH   8   9
ENDBRANCH   7   8
ENDBRANCH   6   7
ENDBRANCH   5   6
ENDBRANCH   4   5
ENDBRANCH   3   4
ENDBRANCH   2   3
TORSDOF 20
ENDMDL
MODEL      345
REMARK 921   NORMALIZED FREE ENERGY PREDICTED BY IDOCK:   -0.99 KCAL/MOL
REMARK 922        TOTAL FREE ENERGY PREDICTED BY IDOCK:   -4.06 KCAL/MOL
REMARK 923 INTER-LIGAND FREE ENERGY PREDICTED BY IDOCK:   -6.63 KCAL/MOL
REMARK 924 INTRA-LIGAND FREE ENERGY PREDICTED BY IDOCK:    2.57 KCAL/MOL
REMARK 927      BINDING AFFINITY PREDICTED BY RF-SCORE:    0.00 PKD
ROOT
HETATM    1  C   UNL     1     -12.668  14.489  73.870  1.00  0.00     0.214 C  
HETATM    2  C   UNL     1     -13.347  13.631  72.815  1.00  0.00    -0.465 C  
ENDROOT
BRANCH   2   3
HETATM    3  C   UNL     1     -13.478  14.385  71.494  1.00  0.00    -0.443 C  
BRANCH   3   4
HETATM    4  C   UNL     1     -12.963  15.814  71.624  1.00  0.00    -0.509 C  
BRANCH   4   5
HETATM    5  C   UNL     1     -11.612  15.967  70.934  1.00  0.00    -0.456 C  
BRANCH   5   6
HETATM    6  C   UNL     1     -11.263  14.708  70.149  1.00  0.00    -0.230 C  
BRANCH   6   7
HETATM    7  C   UNL     1     -12.520  13.908  69.836  1.00  0.00    -0.285 C  
BRANCH   7   8
HETATM    8  C   UNL     1     -12.174  12.445  69.593  1.00  0.00    -0.171 C  
BRANCH   8   9
HETATM    9  C   UNL     1     -12.026  12.181  68.103  1.00  0.00    -0.242 C  
BRANCH   9  10
HETATM   10  C   UNL     1     -11.406  10.815  67.858  1.00  0.00    -0.372 C  
BRANCH  10  11
HETATM   11  C   UNL     1     -10.174  10.957  66.979  1.00  0.00    -0.256 C  
BRANCH  11  12
HETATM   12  C   UNL     1      -9.528  12.316  67.183  1.00  0.00    -0.196 C  
BRANCH  12  13
HETATM   13  C   UNL     1      -9.650  13.148  65.915  1.00  0.00    -0.122 C  
BRANCH  13  14
HETATM   14  C   UNL     1     -10.652  14.264  66.137  1.00  0.00    -0.293 C  
BRANCH  14  15
HETATM   15  C   UNL     1     -10.713  15.202  64.940  1.00  0.00    -0.421 C  
BRANCH  15  16
HETATM   16  C   UNL     1     -11.367  16.490  65.389  1.00  0.00     0.293 C  
BRANCH  16  17
HETATM   17  O   UNL     1     -10.772  16.952  66.595  1.00  0.00    -0.228 OA 
BRANCH  17  18
HETATM   18  P   UNL     1      -9.823  18.380  66.362  1.00  0.00    -0.319 P  
HETATM   19  O   UNL     1      -9.497  18.373  67.859  1.00  0.00    -0.274 OA 
HETATM   20  O   UNL     1     -10.998  19.138  65.748  1.00  0.00    -0.304 OA 
BRANCH  18  21
HETATM   21  O   UNL     1      -8.873  19.807  66.128  1.00  0.00    -0.369 OA 
BRANCH  21  22
HETATM   22  C   UNL     1      -7.513  19.676  66.533  1.00  0.00    -0.261 C  
BRANCH  22  23
HETATM   23  C   UNL     1      -7.230  20.394  67.834  1.00  0.00    -0.276 C  
BRANCH  23  24
HETATM   24  N   UNL     1      -6.145  19.743  68.720  1.00  0.00    -0.242 N  
HETATM   25  C   UNL     1      -5.158  20.833  69.087  1.00  0.00    -0.310 C  
HETATM   26  C   UNL     1      -5.424  18.646  67.934  1.00  0.00    -0.176 C  
HETATM   27  C   UNL     1      -6.753  19.148  69.977  1.00  0.00     0.080 C  
ENDBRANCH  23  24
ENDBRANCH  22  23
ENDBRANCH  21  22
ENDBRANCH  18  21
ENDBRANCH  17  18
ENDBRANCH  16  17
ENDBRANCH  15  16
ENDBRANCH  14  15
ENDBRANCH  13  14
ENDBRANCH  12  13
ENDBRANCH  11  12
ENDBRANCH  10  11
ENDBRANCH   9  10
ENDBRANCH   8   9
ENDBRANCH   7   8
ENDBRANCH   6   7
ENDBRANCH   5   6
ENDBRANCH   4   5
ENDBRANCH   3   4
ENDBRANCH   2   3
TORSDOF 20
ENDMDL
MODEL      346
REMARK 921   NORMALIZED FREE ENERGY PREDICTED BY IDOCK:   -0.94 KCAL/MOL
REMARK 922        TOTAL FREE ENERGY PREDICTED BY IDOCK:   -3.97 KCAL/MOL
REMARK 923 INTER-LIGAND FREE ENERGY PREDICTED BY IDOCK:   -3.36 KCAL/MOL
REMARK 924 INTRA-LIGAND FREE ENERGY PREDICTED BY IDOCK:   -0.61 KCAL/MOL
REMARK 927      BINDING AFFINITY PREDICTED BY RF-SCORE:    0.00 PKD
ROOT
HETATM    1  C   UNL     1      -7.956   6.585  65.504  1.00  0.00    -0.117 C  
HETATM    2  C   UNL     1      -6.729   7.411  65.157  1.00  0.00    -0.044 C  
ENDROOT
BRANCH   2   3
HETATM    3  C   UNL     1      -6.693   8.708  65.962  1.00  0.00    -0.061 C  
BRANCH   3   4
HETATM    4  C   UNL     1      -5.943   9.801  65.208  1.00  0.00    -0.074 C  
BRANCH   4   5
HETATM    5  C   UNL     1      -5.683   9.380  63.766  1.00  0.00    -0.080 C  
BRANCH   5   6
HETATM    6  C   UNL     1      -6.304  10.375  62.793  1.00  0.00    -0.139 C  
BRANCH   6   7
HETATM    7  C   UNL     1      -7.699   9.921  62.383  1.00  0.00    -0.133 C  
BRANCH   7   8
HETATM    8  C   UNL     1      -8.746  10.917  62.863  1.00  0.00    -0.228 C  
BRANCH   8   9
HETATM    9  C   UNL     1      -9.498  10.350  64.058  1.00  0.00    -0.351 C  
BRANCH   9  10
HETATM   10  C   UNL     1      -9.405  11.293  65.247  1.00  0.00    -0.225 C  
BRANCH  10  11
HETATM   11  C   UNL     1     -10.736  11.998  65.452  1.00  0.00    -0.330 C  
BRANCH  11  12
HETATM   12  C   UNL     1     -10.515  13.429  65.910  1.00  0.00    -0.287 C  
BRANCH  12  13
HETATM   13  C   UNL     1     -10.927  13.580  67.368  1.00  0.00    -0.286 C  
BRANCH  13  14
HETATM   14  C   UNL     1      -9.690  13.747  68.228  1.00  0.00    -0.231 C  
BRANCH  14  15
HETATM   15  C   UNL     1      -8.440  13.270  67.504  1.00  0.00    -0.202 C  
BRANCH  15  16
HETATM   16  C   UNL     1      -7.798  12.187  68.342  1.00  0.00    -0.149 C  
BRANCH  16  17
HETATM   17  O   UNL     1      -8.657  11.818  69.415  1.00  0.00     0.437 OA 
BRANCH  17  18
HETATM   18  P   UNL     1      -9.034  10.130  69.413  1.00  0.00    -0.140 P  
HETATM   19  O   UNL     1     -10.504  10.487  69.653  1.00  0.00    -0.235 OA 
HETATM   20  O   UNL     1      -8.032   9.840  70.529  1.00  0.00    -0.220 OA 
BRANCH  18  21
HETATM   21  O   UNL     1      -9.410   8.441  69.410  1.00  0.00    -0.153 OA 
BRANCH  21  22
HETATM   22  C   UNL     1      -8.644   7.674  68.485  1.00  0.00    -0.129 C  
BRANCH  22  23
HETATM   23  C   UNL     1      -9.390   6.452  67.996  1.00  0.00    -0.115 C  
BRANCH  23  24
HETATM   24  N   UNL     1      -9.073   5.144  68.753  1.00  0.00    -0.110 N  
HETATM   25  C   UNL     1      -8.210   4.299  67.836  1.00  0.00    -0.094 C  
HETATM   26  C   UNL     1     -10.371   4.396  69.063  1.00  0.00     0.447 C  
HETATM   27  C   UNL     1      -8.331   5.428  70.046  1.00  0.00    -0.107 C  
ENDBRANCH  23  24
ENDBRANCH  22  23
ENDBRANCH  21  22
ENDBRANCH  18  21
ENDBRANCH  17  18
ENDBRANCH  16  17
ENDBRANCH  15  16
ENDBRANCH  14  15
ENDBRANCH  13  14
ENDBRANCH  12  13
ENDBRANCH  11  12
ENDBRANCH  10  11
ENDBRANCH   9  10
ENDBRANCH   8   9
ENDBRANCH   7   8
ENDBRANCH   6   7
ENDBRANCH   5   6
ENDBRANCH   4   5
ENDBRANCH   3   4
ENDBRANCH   2   3
TORSDOF 20
ENDMDL
MODEL      347
REMARK 921   NORMALIZED FREE ENERGY PREDICTED BY IDOCK:   -0.91 KCAL/MOL
REMARK 922        TOTAL FREE ENERGY PREDICTED BY IDOCK:   -3.90 KCAL/MOL
REMARK 923 INTER-LIGAND FREE ENERGY PREDICTED BY IDOCK:   -3.16 KCAL/MOL
REMARK 924 INTRA-LIGAND FREE ENERGY PREDICTED BY IDOCK:   -0.74 KCAL/MOL
REMARK 927      BINDING AFFINITY PREDICTED BY RF-SCORE:    0.00 PKD
ROOT
HETATM    1  C   UNL     1      -8.859   7.633  72.422  1.00  0.00    -0.176 C  
HETATM    2  C   UNL     1      -7.986   6.962  71.375  1.00  0.00    -0.108 C  
ENDROOT
BRANCH   2   3
HETATM    3  C   UNL     1      -6.909   6.098  72.027  1.00  0.00    -0.072 C  
BRANCH   3   4
HETATM    4  C   UNL     1      -5.918   5.582  70.989  1.00  0.00    -0.028 C  
BRANCH   4   5
HETATM    5  C   UNL     1      -6.429   5.842  69.577  1.00  0.00    -0.042 C  
BRANCH   5   6
HETATM    6  C   UNL     1      -5.502   5.215  68.543  1.00  0.00    -0.011 C  
BRANCH   6   7
HETATM    7  C   UNL     1      -6.307   4.478  67.481  1.00  0.00    -0.041 C  
BRANCH   7   8
HETATM    8  C   UNL     1      -5.804   3.049  67.327  1.00  0.00    -0.023 C  
BRANCH   8   9
HETATM    9  C   UNL     1      -5.343   2.806  65.898  1.00  0.00    -0.009 C  
BRANCH   9  10
HETATM   10  C   UNL     1      -5.991   1.553  65.331  1.00  0.00    -0.017 C  
BRANCH  10  11
HETATM   11  C   UNL     1      -7.183   1.933  64.467  1.00  0.00    -0.056 C  
BRANCH  11  12
HETATM   12  C   UNL     1      -7.375   3.440  64.459  1.00  0.00    -0.071 C  
BRANCH  12  13
HETATM   13  C   UNL     1      -8.676   3.796  63.755  1.00  0.00    -0.098 C  
BRANCH  13  14
HETATM   14  C   UNL     1      -9.748   4.084  64.787  1.00  0.00    -0.187 C  
BRANCH  14  15
HETATM   15  C   UNL     1      -9.170   4.779  66.011  1.00  0.00    -0.148 C  
BRANCH  15  16
HETATM   16  C   UNL     1      -9.700   4.078  67.241  1.00  0.00    -0.153 C  
BRANCH  16  17
HETATM   17  O   UNL     1     -10.290   5.019  68.130  1.00  0.00    -0.116 OA 
BRANCH  17  18
HETATM   18  P   UNL     1     -10.226   6.637  67.523  1.00  0.00    -0.245 P  
HETATM   19  O   UNL     1     -10.191   7.148  68.967  1.00  0.00    -0.178 OA 
HETATM   20  O   UNL     1     -11.508   6.452  66.714  1.00  0.00    -0.141 OA 
BRANCH  18  21
HETATM   21  O   UNL     1     -10.161   8.255  66.914  1.00  0.00    -0.268 OA 
BRANCH  21  22
HETATM   22  C   UNL     1      -8.915   8.912  67.133  1.00  0.00    -0.127 C  
BRANCH  22  23
HETATM   23  C   UNL     1      -9.071  10.187  67.933  1.00  0.00    -0.131 C  
BRANCH  23  24
HETATM   24  N   UNL     1      -9.024  11.490  67.105  1.00  0.00    -0.162 N  
HETATM   25  C   UNL     1      -9.942  12.484  67.789  1.00  0.00    -0.210 C  
HETATM   26  C   UNL     1      -9.529  11.222  65.687  1.00  0.00    -0.229 C  
HETATM   27  C   UNL     1      -7.613  12.046  67.044  1.00  0.00    -0.111 C  
ENDBRANCH  23  24
ENDBRANCH  22  23
ENDBRANCH  21  22
ENDBRANCH  18  21
ENDBRANCH  17  18
ENDBRANCH  16  17
ENDBRANCH  15  16
ENDBRANCH  14  15
ENDBRANCH  13  14
ENDBRANCH  12  13
ENDBRANCH  11  12
ENDBRANCH  10  11
ENDBRANCH   9  10
ENDBRANCH   8   9
ENDBRANCH   7   8
ENDBRANCH   6   7
ENDBRANCH   5   6
ENDBRANCH   4   5
ENDBRANCH   3   4
ENDBRANCH   2   3
TORSDOF 20
ENDMDL
MODEL      348
REMARK 921   NORMALIZED FREE ENERGY PREDICTED BY IDOCK:   -0.31 KCAL/MOL
REMARK 922        TOTAL FREE ENERGY PREDICTED BY IDOCK:   -2.59 KCAL/MOL
REMARK 923 INTER-LIGAND FREE ENERGY PREDICTED BY IDOCK:   -2.83 KCAL/MOL
REMARK 924 INTRA-LIGAND FREE ENERGY PREDICTED BY IDOCK:    0.24 KCAL/MOL
REMARK 927      BINDING AFFINITY PREDICTED BY RF-SCORE:    0.00 PKD
ROOT
HETATM    1  C   UNL     1     -12.036  19.831  66.426  1.00  0.00     2.376 C  
HETATM    2  C   UNL     1     -10.715  19.664  67.157  1.00  0.00    -0.587 C  
ENDROOT
BRANCH   2   3
HETATM    3  C   UNL     1     -10.096  18.298  66.872  1.00  0.00    -0.377 C  
BRANCH   3   4
HETATM    4  C   UNL     1      -8.678  18.440  66.330  1.00  0.00    -0.209 C  
BRANCH   4   5
HETATM    5  C   UNL     1      -7.954  17.099  66.352  1.00  0.00    -0.346 C  
BRANCH   5   6
HETATM    6  C   UNL     1      -8.358  16.288  67.577  1.00  0.00    -0.174 C  
BRANCH   6   7
HETATM    7  C   UNL     1      -9.123  15.038  67.162  1.00  0.00    -0.229 C  
BRANCH   7   8
HETATM    8  C   UNL     1      -9.345  14.126  68.361  1.00  0.00    -0.208 C  
BRANCH   8   9
HETATM    9  C   UNL     1     -10.803  14.171  68.791  1.00  0.00    -0.271 C  
BRANCH   9  10
HETATM   10  C   UNL     1     -11.701  13.605  67.702  1.00  0.00    -0.398 C  
BRANCH  10  11
HETATM   11  C   UNL     1     -10.856  13.126  66.533  1.00  0.00    -0.291 C  
BRANCH  11  12
HETATM   12  C   UNL     1     -11.479  11.897  65.894  1.00  0.00    -0.340 C  
BRANCH  12  13
HETATM   13  C   UNL     1     -10.769  10.640  66.376  1.00  0.00    -0.198 C  
BRANCH  13  14
HETATM   14  C   UNL     1      -9.391  11.003  66.891  1.00  0.00    -0.189 C  
BRANCH  14  15
HETATM   15  C   UNL     1      -8.330  10.822  65.815  1.00  0.00    -0.158 C  
BRANCH  15  16
HETATM   16  C   UNL     1      -8.566   9.486  65.147  1.00  0.00    -0.162 C  
BRANCH  16  17
HETATM   17  O   UNL     1      -7.682   9.321  64.044  1.00  0.00    -0.108 OA 
BRANCH  17  18
HETATM   18  P   UNL     1      -7.371   7.658  63.686  1.00  0.00    -0.107 P  
HETATM   19  O   UNL     1      -8.203   7.806  62.408  1.00  0.00    -0.160 OA 
HETATM   20  O   UNL     1      -7.939   7.196  65.026  1.00  0.00    -0.119 OA 
BRANCH  18  21
HETATM   21  O   UNL     1      -7.058   5.994  63.328  1.00  0.00    -0.046 OA 
BRANCH  21  22
HETATM   22  C   UNL     1      -8.199   5.148  63.440  1.00  0.00    -0.114 C  
BRANCH  22  23
HETATM   23  C   UNL     1      -8.183   4.327  64.711  1.00  0.00    -0.103 C  
BRANCH  23  24
HETATM   24  N   UNL     1      -7.968   2.811  64.510  1.00  0.00    -0.078 N  
HETATM   25  C   UNL     1      -9.335   2.158  64.565  1.00  0.00    -0.130 C  
HETATM   26  C   UNL     1      -7.093   2.258  65.637  1.00  0.00    -0.056 C  
HETATM   27  C   UNL     1      -7.310   2.527  63.172  1.00  0.00    -0.048 C  
ENDBRANCH  23  24
ENDBRANCH  22  23
ENDBRANCH  21  22
ENDBRANCH  18  21
ENDBRANCH  17  18
ENDBRANCH  16  17
ENDBRANCH  15  16
ENDBRANCH  14  15
ENDBRANCH  13  14
ENDBRANCH  12  13
ENDBRANCH  11  12
ENDBRANCH  10  11
ENDBRANCH   9  10
ENDBRANCH   8   9
ENDBRANCH   7   8
ENDBRANCH   6   7
ENDBRANCH   5   6
ENDBRANCH   4   5
ENDBRANCH   3   4
ENDBRANCH   2   3
TORSDOF 20
ENDMDL
MODEL      349
REMARK 921   NORMALIZED FREE ENERGY PREDICTED BY IDOCK:   -0.07 KCAL/MOL
REMARK 922        TOTAL FREE ENERGY PREDICTED BY IDOCK:   -2.06 KCAL/MOL
REMARK 923 INTER-LIGAND FREE ENERGY PREDICTED BY IDOCK:   -2.32 KCAL/MOL
REMARK 924 INTRA-LIGAND FREE ENERGY PREDICTED BY IDOCK:    0.26 KCAL/MOL
REMARK 927      BINDING AFFINITY PREDICTED BY RF-SCORE:    0.00 PKD
ROOT
HETATM    1  C   UNL     1     -12.034  19.831  66.427  1.00  0.00     2.376 C  
HETATM    2  C   UNL     1     -10.707  19.700  67.153  1.00  0.00    -0.587 C  
ENDROOT
BRANCH   2   3
HETATM    3  C   UNL     1     -10.064  18.341  66.885  1.00  0.00    -0.377 C  
BRANCH   3   4
HETATM    4  C   UNL     1      -8.659  18.502  66.315  1.00  0.00    -0.223 C  
BRANCH   4   5
HETATM    5  C   UNL     1      -7.898  17.182  66.374  1.00  0.00    -0.352 C  
BRANCH   5   6
HETATM    6  C   UNL     1      -8.247  16.415  67.644  1.00  0.00    -0.166 C  
BRANCH   6   7
HETATM    7  C   UNL     1      -8.975  15.122  67.303  1.00  0.00    -0.213 C  
BRANCH   7   8
HETATM    8  C   UNL     1      -9.134  14.256  68.546  1.00  0.00    -0.191 C  
BRANCH   8   9
HETATM    9  C   UNL     1     -10.585  14.261  69.005  1.00  0.00    -0.243 C  
BRANCH   9  10
HETATM   10  C   UNL     1     -11.477  13.594  67.970  1.00  0.00    -0.345 C  
BRANCH  10  11
HETATM   11  C   UNL     1     -10.634  13.092  66.809  1.00  0.00    -0.269 C  
BRANCH  11  12
HETATM   12  C   UNL     1     -11.198  11.791  66.265  1.00  0.00    -0.370 C  
BRANCH  12  13
HETATM   13  C   UNL     1     -10.396  10.612  66.797  1.00  0.00    -0.299 C  
BRANCH  13  14
HETATM   14  C   UNL     1      -9.026  11.087  67.235  1.00  0.00    -0.138 C  
BRANCH  14  15
HETATM   15  C   UNL     1      -7.966  10.020  67.000  1.00  0.00    -0.106 C  
BRANCH  15  16
HETATM   16  C   UNL     1      -8.505   8.705  67.517  1.00  0.00    -0.124 C  
BRANCH  16  17
HETATM   17  O   UNL     1      -7.609   7.646  67.202  1.00  0.00    -0.099 OA 
BRANCH  17  18
HETATM   18  P   UNL     1      -7.731   6.322  68.309  1.00  0.00    -0.106 P  
HETATM   19  O   UNL     1      -8.386   5.492  67.201  1.00  0.00    -0.105 OA 
HETATM   20  O   UNL     1      -8.509   7.159  69.323  1.00  0.00    -0.131 OA 
BRANCH  18  21
HETATM   21  O   UNL     1      -7.852   4.999  69.417  1.00  0.00    -0.073 OA 
BRANCH  21  22
HETATM   22  C   UNL     1      -9.184   4.697  69.823  1.00  0.00    -0.123 C  
BRANCH  22  23
HETATM   23  C   UNL     1      -9.488   5.201  71.217  1.00  0.00    -0.153 C  
BRANCH  23  24
HETATM   24  N   UNL     1      -9.672   4.102  72.286  1.00  0.00    -0.147 N  
HETATM   25  C   UNL     1     -11.164   3.893  72.456  1.00  0.00     0.429 C  
HETATM   26  C   UNL     1      -9.068   4.564  73.613  1.00  0.00    -0.105 C  
HETATM   27  C   UNL     1      -9.013   2.805  71.853  1.00  0.00    -0.081 C  
ENDBRANCH  23  24
ENDBRANCH  22  23
ENDBRANCH  21  22
ENDBRANCH  18  21
ENDBRANCH  17  18
ENDBRANCH  16  17
ENDBRANCH  15  16
ENDBRANCH  14  15
ENDBRANCH  13  14
ENDBRANCH  12  13
ENDBRANCH  11  12
ENDBRANCH  10  11
ENDBRANCH   9  10
ENDBRANCH   8   9
ENDBRANCH   7   8
ENDBRANCH   6   7
ENDBRANCH   5   6
ENDBRANCH   4   5
ENDBRANCH   3   4
ENDBRANCH   2   3
TORSDOF 20
ENDMDL
MODEL      350
REMARK 921   NORMALIZED FREE ENERGY PREDICTED BY IDOCK:    1.05 KCAL/MOL
REMARK 922        TOTAL FREE ENERGY PREDICTED BY IDOCK:    0.35 KCAL/MOL
REMARK 923 INTER-LIGAND FREE ENERGY PREDICTED BY IDOCK:   -0.97 KCAL/MOL
REMARK 924 INTRA-LIGAND FREE ENERGY PREDICTED BY IDOCK:    1.32 KCAL/MOL
REMARK 927      BINDING AFFINITY PREDICTED BY RF-SCORE:    0.00 PKD
ROOT
HETATM    1  C   UNL     1     -12.072  19.826  66.430  1.00  0.00     2.896 C  
HETATM    2  C   UNL     1     -10.760  19.779  67.195  1.00  0.00    -0.547 C  
ENDROOT
BRANCH   2   3
HETATM    3  C   UNL     1     -10.057  18.438  67.003  1.00  0.00    -0.382 C  
BRANCH   3   4
HETATM    4  C   UNL     1      -8.652  18.630  66.443  1.00  0.00    -0.284 C  
BRANCH   4   5
HETATM    5  C   UNL     1      -7.820  17.365  66.628  1.00  0.00    -0.292 C  
BRANCH   5   6
HETATM    6  C   UNL     1      -8.128  16.708  67.968  1.00  0.00    -0.181 C  
BRANCH   6   7
HETATM    7  C   UNL     1      -8.744  15.331  67.757  1.00  0.00    -0.168 C  
BRANCH   7   8
HETATM    8  C   UNL     1      -8.838  14.582  69.080  1.00  0.00    -0.039 C  
BRANCH   8   9
HETATM    9  C   UNL     1     -10.289  14.486  69.526  1.00  0.00    -0.028 C  
BRANCH   9  10
HETATM   10  C   UNL     1     -11.098  13.654  68.545  1.00  0.00    -0.301 C  
BRANCH  10  11
HETATM   11  C   UNL     1     -10.197  13.151  67.428  1.00  0.00    -0.232 C  
BRANCH  11  12
HETATM   12  C   UNL     1     -10.619  11.760  66.990  1.00  0.00    -0.267 C  
BRANCH  12  13
HETATM   13  C   UNL     1      -9.716  10.714  67.630  1.00  0.00    -0.186 C  
BRANCH  13  14
HETATM   14  C   UNL     1      -8.419  11.365  68.067  1.00  0.00    -0.145 C  
BRANCH  14  15
HETATM   15  C   UNL     1      -7.335  11.208  67.010  1.00  0.00    -0.128 C  
BRANCH  15  16
HETATM   16  C   UNL     1      -7.337   9.768  66.548  1.00  0.00    -0.095 C  
BRANCH  16  17
HETATM   17  O   UNL     1      -6.433   9.595  65.464  1.00  0.00    -0.072 OA 
BRANCH  17  18
HETATM   18  P   UNL     1      -5.832   7.977  65.352  1.00  0.00    -0.037 P  
HETATM   19  O   UNL     1      -6.674   7.782  64.087  1.00  0.00    -0.055 OA 
HETATM   20  O   UNL     1      -6.314   7.633  66.760  1.00  0.00    -0.047 OA 
BRANCH  18  21
HETATM   21  O   UNL     1      -5.230   6.359  65.241  1.00  0.00    -0.013 OA 
BRANCH  21  22
HETATM   22  C   UNL     1      -6.202   5.353  65.515  1.00  0.00    -0.034 C  
BRANCH  22  23
HETATM   23  C   UNL     1      -6.046   4.766  66.901  1.00  0.00    -0.031 C  
BRANCH  23  24
HETATM   24  N   UNL     1      -7.256   4.969  67.839  1.00  0.00    -0.066 N  
HETATM   25  C   UNL     1      -6.935   6.156  68.727  1.00  0.00    -0.076 C  
HETATM   26  C   UNL     1      -7.456   3.724  68.705  1.00  0.00    -0.054 C  
HETATM   27  C   UNL     1      -8.521   5.243  67.045  1.00  0.00    -0.106 C  
ENDBRANCH  23  24
ENDBRANCH  22  23
ENDBRANCH  21  22
ENDBRANCH  18  21
ENDBRANCH  17  18
ENDBRANCH  16  17
ENDBRANCH  15  16
ENDBRANCH  14  15
ENDBRANCH  13  14
ENDBRANCH  12  13
ENDBRANCH  11  12
ENDBRANCH  10  11
ENDBRANCH   9  10
ENDBRANCH   8   9
ENDBRANCH   7   8
ENDBRANCH   6   7
ENDBRANCH   5   6
ENDBRANCH   4   5
ENDBRANCH   3   4
ENDBRANCH   2   3
TORSDOF 20
ENDMDL
MODEL      351
REMARK 921   NORMALIZED FREE ENERGY PREDICTED BY IDOCK:    2.24 KCAL/MOL
REMARK 922        TOTAL FREE ENERGY PREDICTED BY IDOCK:    2.94 KCAL/MOL
REMARK 923 INTER-LIGAND FREE ENERGY PREDICTED BY IDOCK:    1.74 KCAL/MOL
REMARK 924 INTRA-LIGAND FREE ENERGY PREDICTED BY IDOCK:    1.21 KCAL/MOL
REMARK 927      BINDING AFFINITY PREDICTED BY RF-SCORE:    0.00 PKD
ROOT
HETATM    1  C   UNL     1     -12.343  19.739  66.447  1.00  0.00     4.035 C  
HETATM    2  C   UNL     1     -11.214  19.673  67.461  1.00  0.00     0.027 C  
ENDROOT
BRANCH   2   3
HETATM    3  C   UNL     1     -10.604  18.275  67.517  1.00  0.00    -0.432 C  
BRANCH   3   4
HETATM    4  C   UNL     1      -9.109  18.317  67.218  1.00  0.00    -0.256 C  
BRANCH   4   5
HETATM    5  C   UNL     1      -8.428  17.034  67.683  1.00  0.00    -0.210 C  
BRANCH   5   6
HETATM    6  C   UNL     1      -8.943  16.619  69.056  1.00  0.00    -0.204 C  
BRANCH   6   7
HETATM    7  C   UNL     1      -9.619  15.256  68.983  1.00  0.00    -0.237 C  
BRANCH   7   8
HETATM    8  C   UNL     1      -9.762  14.657  70.376  1.00  0.00     1.082 C  
BRANCH   8   9
HETATM    9  C   UNL     1     -11.219  14.693  70.813  1.00  0.00    -0.082 C  
BRANCH   9  10
HETATM   10  C   UNL     1     -12.100  13.973  69.805  1.00  0.00    -0.405 C  
BRANCH  10  11
HETATM   11  C   UNL     1     -11.272  13.559  68.599  1.00  0.00    -0.311 C  
BRANCH  11  12
HETATM   12  C   UNL     1     -11.694  12.185  68.110  1.00  0.00    -0.402 C  
BRANCH  12  13
HETATM   13  C   UNL     1     -10.755  11.122  68.666  1.00  0.00    -0.234 C  
BRANCH  13  14
HETATM   14  C   UNL     1      -9.498  11.783  69.193  1.00  0.00     0.314 C  
BRANCH  14  15
HETATM   15  C   UNL     1      -8.395  11.798  68.144  1.00  0.00    -0.156 C  
BRANCH  15  16
HETATM   16  C   UNL     1      -8.319  10.419  67.528  1.00  0.00    -0.114 C  
BRANCH  16  17
HETATM   17  O   UNL     1      -7.369  10.402  66.469  1.00  0.00    -0.107 OA 
BRANCH  17  18
HETATM   18  P   UNL     1      -7.249   8.853  65.710  1.00  0.00    -0.086 P  
HETATM   19  O   UNL     1      -7.910   9.446  64.461  1.00  0.00    -0.111 OA 
HETATM   20  O   UNL     1      -8.017   8.169  66.838  1.00  0.00    -0.101 OA 
BRANCH  18  21
HETATM   21  O   UNL     1      -7.128   7.303  64.950  1.00  0.00    -0.059 OA 
BRANCH  21  22
HETATM   22  C   UNL     1      -8.374   6.628  64.798  1.00  0.00    -0.006 C  
BRANCH  22  23
HETATM   23  C   UNL     1      -8.641   5.654  65.924  1.00  0.00    -0.144 C  
BRANCH  23  24
HETATM   24  N   UNL     1      -9.799   4.664  65.674  1.00  0.00    -0.194 N  
HETATM   25  C   UNL     1     -11.023   5.228  66.368  1.00  0.00     0.017 C  
HETATM   26  C   UNL     1      -9.454   3.301  66.277  1.00  0.00    -0.079 C  
HETATM   27  C   UNL     1     -10.070   4.507  64.189  1.00  0.00     0.192 C  
ENDBRANCH  23  24
ENDBRANCH  22  23
ENDBRANCH  21  22
ENDBRANCH  18  21
ENDBRANCH  17  18
ENDBRANCH  16  17
ENDBRANCH  15  16
ENDBRANCH  14  15
ENDBRANCH  13  14
ENDBRANCH  12  13
ENDBRANCH  11  12
ENDBRANCH  10  11
ENDBRANCH   9  10
ENDBRANCH   8   9
ENDBRANCH   7   8
ENDBRANCH   6   7
ENDBRANCH   5   6
ENDBRANCH   4   5
ENDBRANCH   3   4
ENDBRANCH   2   3
TORSDOF 20
ENDMDL
MODEL      352
REMARK 921   NORMALIZED FREE ENERGY PREDICTED BY IDOCK:    3.65 KCAL/MOL
REMARK 922        TOTAL FREE ENERGY PREDICTED BY IDOCK:    6.00 KCAL/MOL
REMARK 923 INTER-LIGAND FREE ENERGY PREDICTED BY IDOCK:   -2.02 KCAL/MOL
REMARK 924 INTRA-LIGAND FREE ENERGY PREDICTED BY IDOCK:    8.03 KCAL/MOL
REMARK 927      BINDING AFFINITY PREDICTED BY RF-SCORE:    0.00 PKD
ROOT
HETATM    1  C   UNL     1      -9.315   5.140  65.268  1.00  0.00    -0.053 C  
HETATM    2  C   UNL     1      -9.402   6.369  66.158  1.00  0.00    -0.110 C  
ENDROOT
BRANCH   2   3
HETATM    3  C   UNL     1     -10.852   6.701  66.499  1.00  0.00     0.008 C  
BRANCH   3   4
HETATM    4  C   UNL     1     -10.975   7.214  67.930  1.00  0.00    -0.154 C  
BRANCH   4   5
HETATM    5  C   UNL     1      -9.600   7.350  68.575  1.00  0.00    -0.146 C  
BRANCH   5   6
HETATM    6  C   UNL     1      -9.019   8.735  68.320  1.00  0.00    -0.141 C  
BRANCH   6   7
HETATM    7  C   UNL     1      -8.087   8.709  67.115  1.00  0.00    -0.100 C  
BRANCH   7   8
HETATM    8  C   UNL     1      -8.163  10.027  66.355  1.00  0.00    -0.119 C  
BRANCH   8   9
HETATM    9  C   UNL     1      -8.004   9.780  64.862  1.00  0.00    -0.133 C  
BRANCH   9  10
HETATM   10  C   UNL     1      -9.361   9.726  64.180  1.00  0.00    -0.237 C  
BRANCH  10  11
HETATM   11  C   UNL     1      -9.548  10.954  63.303  1.00  0.00    -0.377 C  
BRANCH  11  12
HETATM   12  C   UNL     1     -10.026  12.133  64.133  1.00  0.00    -0.279 C  
BRANCH  12  13
HETATM   13  C   UNL     1     -11.536  12.277  64.013  1.00  0.00    -0.495 C  
BRANCH  13  14
HETATM   14  C   UNL     1     -11.995  13.479  64.814  1.00  0.00    -0.424 C  
BRANCH  14  15
HETATM   15  C   UNL     1     -10.849  14.448  65.068  1.00  0.00    -0.420 C  
BRANCH  15  16
HETATM   16  C   UNL     1      -9.790  13.720  65.865  1.00  0.00    -0.260 C  
BRANCH  16  17
HETATM   17  O   UNL     1     -10.341  13.216  67.076  1.00  0.00    -0.246 OA 
BRANCH  17  18
HETATM   18  P   UNL     1      -9.146  12.500  68.101  1.00  0.00    -0.161 P  
HETATM   19  O   UNL     1      -8.578  13.898  68.369  1.00  0.00    -0.171 OA 
HETATM   20  O   UNL     1      -8.653  11.577  66.989  1.00  0.00    -0.149 OA 
BRANCH  18  21
HETATM   21  O   UNL     1      -7.952  11.783  69.128  1.00  0.00     0.032 OA 
BRANCH  21  22
HETATM   22  C   UNL     1      -8.488  10.967  70.166  1.00  0.00     1.651 C  
BRANCH  22  23
HETATM   23  C   UNL     1      -7.428  10.118  70.834  1.00  0.00     0.788 C  
BRANCH  23  24
HETATM   24  N   UNL     1      -5.971  10.536  70.539  1.00  0.00    -0.109 N  
HETATM   25  C   UNL     1      -6.024  11.914  69.909  1.00  0.00    -0.148 C  
HETATM   26  C   UNL     1      -5.338   9.550  69.556  1.00  0.00    -0.035 C  
HETATM   27  C   UNL     1      -5.148  10.579  71.813  1.00  0.00    -0.037 C  
ENDBRANCH  23  24
ENDBRANCH  22  23
ENDBRANCH  21  22
ENDBRANCH  18  21
ENDBRANCH  17  18
ENDBRANCH  16  17
ENDBRANCH  15  16
ENDBRANCH  14  15
ENDBRANCH  13  14
ENDBRANCH  12  13
ENDBRANCH  11  12
ENDBRANCH  10  11
ENDBRANCH   9  10
ENDBRANCH   8   9
ENDBRANCH   7   8
ENDBRANCH   6   7
ENDBRANCH   5   6
ENDBRANCH   4   5
ENDBRANCH   3   4
ENDBRANCH   2   3
TORSDOF 20
ENDMDL
MODEL      353
REMARK 921   NORMALIZED FREE ENERGY PREDICTED BY IDOCK:   12.95 KCAL/MOL
REMARK 922        TOTAL FREE ENERGY PREDICTED BY IDOCK:   26.17 KCAL/MOL
REMARK 923 INTER-LIGAND FREE ENERGY PREDICTED BY IDOCK:   16.20 KCAL/MOL
REMARK 924 INTRA-LIGAND FREE ENERGY PREDICTED BY IDOCK:    9.97 KCAL/MOL
REMARK 927      BINDING AFFINITY PREDICTED BY RF-SCORE:    0.00 PKD
ROOT
HETATM    1  C   UNL     1     -14.314  13.599  74.402  1.00  0.00    12.267 C  
HETATM    2  C   UNL     1     -14.404  13.799  72.899  1.00  0.00     0.743 C  
ENDROOT
BRANCH   2   3
HETATM    3  C   UNL     1     -13.592  15.013  72.455  1.00  0.00    -0.569 C  
BRANCH   3   4
HETATM    4  C   UNL     1     -13.205  15.880  73.649  1.00  0.00    -0.522 C  
BRANCH   4   5
HETATM    5  C   UNL     1     -11.853  15.454  74.210  1.00  0.00    -0.170 C  
BRANCH   5   6
HETATM    6  C   UNL     1     -11.427  14.110  73.631  1.00  0.00     1.894 C  
BRANCH   6   7
HETATM    7  C   UNL     1     -12.513  13.554  72.719  1.00  0.00     0.398 C  
BRANCH   7   8
HETATM    8  C   UNL     1     -12.307  12.062  72.493  1.00  0.00     2.246 C  
BRANCH   8   9
HETATM    9  C   UNL     1     -11.838  11.808  71.068  1.00  0.00     0.262 C  
BRANCH   9  10
HETATM   10  C   UNL     1     -11.110  10.477  70.973  1.00  0.00     0.235 C  
BRANCH  10  11
HETATM   11  C   UNL     1      -9.845  10.639  70.144  1.00  0.00     0.502 C  
BRANCH  11  12
HETATM   12  C   UNL     1      -9.676  12.083  69.707  1.00  0.00     1.721 C  
BRANCH  12  13
HETATM   13  C   UNL     1      -9.547  12.158  68.192  1.00  0.00    -0.208 C  
BRANCH  13  14
HETATM   14  C   UNL     1     -10.821  12.728  67.603  1.00  0.00    -0.252 C  
BRANCH  14  15
HETATM   15  C   UNL     1     -10.736  12.830  66.087  1.00  0.00    -0.297 C  
BRANCH  15  16
HETATM   16  C   UNL     1     -11.707  13.898  65.635  1.00  0.00    -0.354 C  
BRANCH  16  17
HETATM   17  O   UNL     1     -11.662  15.013  66.516  1.00  0.00    -0.266 OA 
BRANCH  17  18
HETATM   18  P   UNL     1     -10.469  16.177  66.052  1.00  0.00    -0.291 P  
HETATM   19  O   UNL     1     -10.802  16.980  67.314  1.00  0.00    -0.252 OA 
HETATM   20  O   UNL     1     -11.129  16.407  64.694  1.00  0.00    -0.663 OA 
BRANCH  18  21
HETATM   21  O   UNL     1      -9.274  17.340  65.588  1.00  0.00    -0.501 OA 
BRANCH  21  22
HETATM   22  C   UNL     1      -8.300  17.609  66.592  1.00  0.00    -0.260 C  
BRANCH  22  23
HETATM   23  C   UNL     1      -8.780  18.632  67.598  1.00  0.00    -0.272 C  
BRANCH  23  24
HETATM   24  N   UNL     1      -8.603  18.229  69.078  1.00  0.00    -0.104 N  
HETATM   25  C   UNL     1      -7.411  19.002  69.609  1.00  0.00     0.139 C  
HETATM   26  C   UNL     1      -8.322  16.729  69.178  1.00  0.00    -0.086 C  
HETATM   27  C   UNL     1      -9.842  18.567  69.887  1.00  0.00     0.861 C  
ENDBRANCH  23  24
ENDBRANCH  22  23
ENDBRANCH  21  22
ENDBRANCH  18  21
ENDBRANCH  17  18
ENDBRANCH  16  17
ENDBRANCH  15  16
ENDBRANCH  14  15
ENDBRANCH  13  14
ENDBRANCH  12  13
ENDBRANCH  11  12
ENDBRANCH  10  11
ENDBRANCH   9  10
ENDBRANCH   8   9
ENDBRANCH   7   8
ENDBRANCH   6   7
ENDBRANCH   5   6
ENDBRANCH   4   5
ENDBRANCH   3   4
ENDBRANCH   2   3
TORSDOF 20
ENDMDL
MODEL      354
REMARK 921   NORMALIZED FREE ENERGY PREDICTED BY IDOCK:   14.64 KCAL/MOL
REMARK 922        TOTAL FREE ENERGY PREDICTED BY IDOCK:   29.83 KCAL/MOL
REMARK 923 INTER-LIGAND FREE ENERGY PREDICTED BY IDOCK:   20.27 KCAL/MOL
REMARK 924 INTRA-LIGAND FREE ENERGY PREDICTED BY IDOCK:    9.56 KCAL/MOL
REMARK 927      BINDING AFFINITY PREDICTED BY RF-SCORE:    0.00 PKD
ROOT
HETATM    1  C   UNL     1     -14.295  13.598  74.479  1.00  0.00    13.580 C  
HETATM    2  C   UNL     1     -14.397  13.732  72.969  1.00  0.00     1.230 C  
ENDROOT
BRANCH   2   3
HETATM    3  C   UNL     1     -13.668  14.979  72.476  1.00  0.00    -0.572 C  
BRANCH   3   4
HETATM    4  C   UNL     1     -13.377  15.936  73.628  1.00  0.00    -0.393 C  
BRANCH   4   5
HETATM    5  C   UNL     1     -11.982  15.693  74.193  1.00  0.00    -0.417 C  
BRANCH   5   6
HETATM    6  C   UNL     1     -11.445  14.340  73.741  1.00  0.00     1.543 C  
BRANCH   6   7
HETATM    7  C   UNL     1     -12.537  13.537  73.048  1.00  0.00     0.595 C  
BRANCH   7   8
HETATM    8  C   UNL     1     -12.138  12.070  72.947  1.00  0.00     5.331 C  
BRANCH   8   9
HETATM    9  C   UNL     1     -12.029  11.656  71.488  1.00  0.00     0.672 C  
BRANCH   9  10
HETATM   10  C   UNL     1     -11.094  10.466  71.336  1.00  0.00     0.603 C  
BRANCH  10  11
HETATM   11  C   UNL     1     -10.289  10.603  70.054  1.00  0.00     0.016 C  
BRANCH  11  12
HETATM   12  C   UNL     1     -10.682  11.868  69.311  1.00  0.00    -0.095 C  
BRANCH  12  13
HETATM   13  C   UNL     1     -11.201  11.518  67.923  1.00  0.00    -0.344 C  
BRANCH  13  14
HETATM   14  C   UNL     1     -10.590  12.457  66.903  1.00  0.00    -0.251 C  
BRANCH  14  15
HETATM   15  C   UNL     1     -11.230  12.283  65.533  1.00  0.00    -0.376 C  
BRANCH  15  16
HETATM   16  C   UNL     1     -10.127  12.272  64.499  1.00  0.00    -0.254 C  
BRANCH  16  17
HETATM   17  O   UNL     1      -9.113  11.345  64.868  1.00  0.00    -0.126 OA 
BRANCH  17  18
HETATM   18  P   UNL     1      -8.989  10.022  63.761  1.00  0.00    -0.266 P  
HETATM   19  O   UNL     1      -7.487   9.953  64.055  1.00  0.00    -0.127 OA 
HETATM   20  O   UNL     1      -9.600  10.835  62.621  1.00  0.00    -0.290 OA 
BRANCH  18  21
HETATM   21  O   UNL     1      -8.867   8.698  62.654  1.00  0.00    -0.114 OA 
BRANCH  21  22
HETATM   22  C   UNL     1      -8.148   7.577  63.162  1.00  0.00    -0.049 C  
BRANCH  22  23
HETATM   23  C   UNL     1      -8.726   7.065  64.463  1.00  0.00     0.483 C  
BRANCH  23  24
HETATM   24  N   UNL     1      -8.708   5.530  64.630  1.00  0.00    -0.073 N  
HETATM   25  C   UNL     1      -7.257   5.118  64.784  1.00  0.00    -0.062 C  
HETATM   26  C   UNL     1      -9.297   4.866  63.384  1.00  0.00     0.182 C  
HETATM   27  C   UNL     1      -9.501   5.106  65.853  1.00  0.00    -0.156 C  
ENDBRANCH  23  24
ENDBRANCH  22  23
ENDBRANCH  21  22
ENDBRANCH  18  21
ENDBRANCH  17  18
ENDBRANCH  16  17
ENDBRANCH  15  16
ENDBRANCH  14  15
ENDBRANCH  13  14
ENDBRANCH  12  13
ENDBRANCH  11  12
ENDBRANCH  10  11
ENDBRANCH   9  10
ENDBRANCH   8   9
ENDBRANCH   7   8
ENDBRANCH   6   7
ENDBRANCH   5   6
ENDBRANCH   4   5
ENDBRANCH   3   4
ENDBRANCH   2   3
TORSDOF 20
ENDMDL
