MODEL        1
REMARK 921   NORMALIZED FREE ENERGY PREDICTED BY IDOCK:   -6.72 KCAL/MOL
REMARK 922        TOTAL FREE ENERGY PREDICTED BY IDOCK:   -9.40 KCAL/MOL
REMARK 923 INTER-LIGAND FREE ENERGY PREDICTED BY IDOCK:   -8.69 KCAL/MOL
REMARK 924 INTRA-LIGAND FREE ENERGY PREDICTED BY IDOCK:   -0.71 KCAL/MOL
REMARK 927      BINDING AFFINITY PREDICTED BY RF-SCORE:    0.00 PKD
ROOT
HETATM    1  C   UNL     1     -12.127  15.286  69.691  1.00  0.00    -0.342 C  
HETATM    2  C   UNL     1     -12.035  13.867  69.210  1.00  0.00    -0.402 A  
HETATM    3  C   UNL     1     -12.010  12.828  70.146  1.00  0.00    -0.371 A  
HETATM    4  C   UNL     1     -11.994  11.502  69.728  1.00  0.00    -0.346 A  
HETATM    5  N   UNL     1     -11.951  11.222  68.411  1.00  0.00    -0.603 NA 
HETATM    6  C   UNL     1     -12.030  13.546  67.854  1.00  0.00    -0.337 A  
HETATM    7  N   UNL     1     -11.983  12.249  67.477  1.00  0.00    -0.528 NA 
ENDROOT
BRANCH   4   8
HETATM    8  C   UNL     1     -12.024  10.380  70.678  1.00  0.00    -0.448 A  
HETATM    9  C   UNL     1     -10.894   8.495  71.765  1.00  0.00    -0.374 A  
HETATM   10  C   UNL     1     -10.865   9.616  70.935  1.00  0.00    -0.409 A  
HETATM   11  C   UNL     1     -13.205  10.001  71.341  1.00  0.00    -0.486 A  
HETATM   12  C   UNL     1     -12.084   8.121  72.378  1.00  0.00    -0.406 A  
HETATM   13  C   UNL     1     -13.235   8.880  72.177  1.00  0.00    -0.478 A  
ENDBRANCH   4   8
BRANCH   6  14
HETATM   14  N   UNL     1     -12.161  14.578  66.917  1.00  0.00    -0.509 NA 
HETATM   15  H   UNL     1     -12.941  15.235  66.943  1.00  0.00     0.000 HD 
BRANCH  14  16
HETATM   16  C   UNL     1     -11.119  14.658  65.904  1.00  0.00    -0.338 C  
BRANCH  16  17
HETATM   17  C   UNL     1      -9.841  15.260  66.531  1.00  0.00    -0.266 C  
BRANCH  17  18
HETATM   18  N   UNL     1      -9.395  16.547  65.945  1.00  0.00    -0.489 NA 
HETATM   19  C   UNL     1     -10.325  17.665  66.230  1.00  0.00    -0.342 C  
HETATM   20  C   UNL     1     -10.346  18.093  67.708  1.00  0.00    -0.399 C  
HETATM   21  O   UNL     1      -9.036  18.451  68.165  1.00  0.00    -0.292 OA 
HETATM   22  C   UNL     1      -8.104  17.381  67.963  1.00  0.00    -0.227 C  
HETATM   23  C   UNL     1      -8.068  16.932  66.490  1.00  0.00    -0.291 C  
ENDBRANCH  17  18
ENDBRANCH  16  17
ENDBRANCH  14  16
ENDBRANCH   6  14
TORSDOF 5
ENDMDL
MODEL        2
REMARK 921   NORMALIZED FREE ENERGY PREDICTED BY IDOCK:   -6.67 KCAL/MOL
REMARK 922        TOTAL FREE ENERGY PREDICTED BY IDOCK:   -9.34 KCAL/MOL
REMARK 923 INTER-LIGAND FREE ENERGY PREDICTED BY IDOCK:   -8.83 KCAL/MOL
REMARK 924 INTRA-LIGAND FREE ENERGY PREDICTED BY IDOCK:   -0.51 KCAL/MOL
REMARK 927      BINDING AFFINITY PREDICTED BY RF-SCORE:    0.00 PKD
ROOT
HETATM    1  C   UNL     1     -13.959  14.606  72.571  1.00  0.00    -0.518 C  
HETATM    2  C   UNL     1     -13.205  13.623  71.724  1.00  0.00    -0.477 A  
HETATM    3  C   UNL     1     -13.251  12.264  72.051  1.00  0.00    -0.508 A  
HETATM    4  C   UNL     1     -12.619  11.323  71.245  1.00  0.00    -0.382 A  
HETATM    5  N   UNL     1     -11.916  11.734  70.172  1.00  0.00    -0.342 NA 
HETATM    6  C   UNL     1     -12.504  14.015  70.586  1.00  0.00    -0.365 A  
HETATM    7  N   UNL     1     -11.873  13.082  69.838  1.00  0.00    -0.325 NA 
ENDROOT
BRANCH   4   8
HETATM    8  C   UNL     1     -12.689   9.881  71.522  1.00  0.00    -0.515 A  
HETATM    9  C   UNL     1     -11.557   7.755  71.984  1.00  0.00    -0.347 A  
HETATM   10  C   UNL     1     -11.522   9.139  71.806  1.00  0.00    -0.452 A  
HETATM   11  C   UNL     1     -13.906   9.177  71.481  1.00  0.00    -0.353 A  
HETATM   12  C   UNL     1     -12.768   7.079  71.902  1.00  0.00    -0.314 A  
HETATM   13  C   UNL     1     -13.943   7.790  71.663  1.00  0.00    -0.495 A  
ENDBRANCH   4   8
BRANCH   6  14
HETATM   14  N   UNL     1     -12.545  15.359  70.198  1.00  0.00    -0.589 NA 
HETATM   15  H   UNL     1     -13.418  15.825  69.956  1.00  0.00     0.000 HD 
BRANCH  14  16
HETATM   16  C   UNL     1     -11.266  16.053  70.162  1.00  0.00    -0.373 C  
BRANCH  16  17
HETATM   17  C   UNL     1     -10.993  16.548  68.723  1.00  0.00    -0.330 C  
BRANCH  17  18
HETATM   18  N   UNL     1     -10.137  17.754  68.621  1.00  0.00    -0.369 NA 
HETATM   19  C   UNL     1      -8.713  17.433  68.370  1.00  0.00    -0.271 C  
HETATM   20  C   UNL     1      -8.444  16.855  66.970  1.00  0.00    -0.203 C  
HETATM   21  O   UNL     1      -8.907  17.740  65.942  1.00  0.00    -0.512 OA 
HETATM   22  C   UNL     1     -10.298  18.042  66.105  1.00  0.00    -0.366 C  
HETATM   23  C   UNL     1     -10.593  18.620  67.502  1.00  0.00    -0.423 C  
ENDBRANCH  17  18
ENDBRANCH  16  17
ENDBRANCH  14  16
ENDBRANCH   6  14
TORSDOF 5
ENDMDL
MODEL        3
REMARK 921   NORMALIZED FREE ENERGY PREDICTED BY IDOCK:   -6.60 KCAL/MOL
REMARK 922        TOTAL FREE ENERGY PREDICTED BY IDOCK:   -9.24 KCAL/MOL
REMARK 923 INTER-LIGAND FREE ENERGY PREDICTED BY IDOCK:   -8.73 KCAL/MOL
REMARK 924 INTRA-LIGAND FREE ENERGY PREDICTED BY IDOCK:   -0.51 KCAL/MOL
REMARK 927      BINDING AFFINITY PREDICTED BY RF-SCORE:    0.00 PKD
ROOT
HETATM    1  C   UNL     1     -11.321  12.881  66.429  1.00  0.00    -0.361 C  
HETATM    2  C   UNL     1     -11.688  12.922  67.884  1.00  0.00    -0.405 A  
HETATM    3  C   UNL     1     -11.709  11.731  68.616  1.00  0.00    -0.389 A  
HETATM    4  C   UNL     1     -11.979  11.745  69.980  1.00  0.00    -0.344 A  
HETATM    5  N   UNL     1     -12.272  12.913  70.586  1.00  0.00    -0.363 NA 
HETATM    6  C   UNL     1     -11.956  14.119  68.545  1.00  0.00    -0.332 A  
HETATM    7  N   UNL     1     -12.246  14.100  69.865  1.00  0.00    -0.346 NA 
ENDROOT
BRANCH   4   8
HETATM    8  C   UNL     1     -11.957  10.523  70.798  1.00  0.00    -0.472 A  
HETATM    9  C   UNL     1     -13.067   9.009  72.374  1.00  0.00    -0.487 A  
HETATM   10  C   UNL     1     -13.096  10.115  71.525  1.00  0.00    -0.529 A  
HETATM   11  C   UNL     1     -10.799   9.733  70.917  1.00  0.00    -0.399 A  
HETATM   12  C   UNL     1     -11.899   8.267  72.502  1.00  0.00    -0.439 A  
HETATM   13  C   UNL     1     -10.770   8.620  71.765  1.00  0.00    -0.392 A  
ENDBRANCH   4   8
BRANCH   6  14
HETATM   14  N   UNL     1     -11.832  15.321  67.839  1.00  0.00    -0.419 NA 
HETATM   15  H   UNL     1     -12.310  15.477  66.952  1.00  0.00     0.000 HD 
BRANCH  14  16
HETATM   16  C   UNL     1     -10.981  16.334  68.446  1.00  0.00    -0.351 C  
BRANCH  16  17
HETATM   17  C   UNL     1     -10.450  17.282  67.345  1.00  0.00    -0.338 C  
BRANCH  17  18
HETATM   18  N   UNL     1     -10.654  18.727  67.604  1.00  0.00    -0.428 NA 
HETATM   19  C   UNL     1      -9.880  19.221  68.767  1.00  0.00    -0.447 C  
HETATM   20  C   UNL     1      -8.360  19.252  68.535  1.00  0.00    -0.366 C  
HETATM   21  O   UNL     1      -8.024  20.041  67.387  1.00  0.00    -0.283 OA 
HETATM   22  C   UNL     1      -8.705  19.572  66.216  1.00  0.00    -0.359 C  
HETATM   23  C   UNL     1     -10.230  19.528  66.426  1.00  0.00    -0.479 C  
ENDBRANCH  17  18
ENDBRANCH  16  17
ENDBRANCH  14  16
ENDBRANCH   6  14
TORSDOF 5
ENDMDL
MODEL        4
REMARK 921   NORMALIZED FREE ENERGY PREDICTED BY IDOCK:   -6.59 KCAL/MOL
REMARK 922        TOTAL FREE ENERGY PREDICTED BY IDOCK:   -9.23 KCAL/MOL
REMARK 923 INTER-LIGAND FREE ENERGY PREDICTED BY IDOCK:   -8.72 KCAL/MOL
REMARK 924 INTRA-LIGAND FREE ENERGY PREDICTED BY IDOCK:   -0.51 KCAL/MOL
REMARK 927      BINDING AFFINITY PREDICTED BY RF-SCORE:    0.00 PKD
ROOT
HETATM    1  C   UNL     1     -11.438  12.868  66.593  1.00  0.00    -0.393 C  
HETATM    2  C   UNL     1     -11.784  12.928  68.052  1.00  0.00    -0.401 A  
HETATM    3  C   UNL     1     -11.852  11.740  68.787  1.00  0.00    -0.380 A  
HETATM    4  C   UNL     1     -12.103  11.770  70.154  1.00  0.00    -0.317 A  
HETATM    5  N   UNL     1     -12.332  12.950  70.761  1.00  0.00    -0.359 NA 
HETATM    6  C   UNL     1     -11.986  14.137  68.714  1.00  0.00    -0.332 A  
HETATM    7  N   UNL     1     -12.259  14.134  70.038  1.00  0.00    -0.341 NA 
ENDROOT
BRANCH   4   8
HETATM    8  C   UNL     1     -12.128  10.549  70.974  1.00  0.00    -0.492 A  
HETATM    9  C   UNL     1     -11.054   8.474  71.717  1.00  0.00    -0.378 A  
HETATM   10  C   UNL     1     -11.017   9.679  71.016  1.00  0.00    -0.431 A  
HETATM   11  C   UNL     1     -13.263  10.180  71.718  1.00  0.00    -0.542 A  
HETATM   12  C   UNL     1     -12.202   8.116  72.414  1.00  0.00    -0.374 A  
HETATM   13  C   UNL     1     -13.300   8.973  72.425  1.00  0.00    -0.516 A  
ENDBRANCH   4   8
BRANCH   6  14
HETATM   14  N   UNL     1     -11.814  15.331  68.004  1.00  0.00    -0.447 NA 
HETATM   15  H   UNL     1     -12.300  15.511  67.126  1.00  0.00     0.000 HD 
BRANCH  14  16
HETATM   16  C   UNL     1     -10.902  16.300  68.593  1.00  0.00    -0.322 C  
BRANCH  16  17
HETATM   17  C   UNL     1     -10.406  17.269  67.495  1.00  0.00    -0.346 C  
BRANCH  17  18
HETATM   18  N   UNL     1     -10.711  18.701  67.731  1.00  0.00    -0.388 NA 
HETATM   19  C   UNL     1      -9.931  19.281  68.850  1.00  0.00    -0.427 C  
HETATM   20  C   UNL     1      -8.429  19.424  68.551  1.00  0.00    -0.362 C  
HETATM   21  O   UNL     1      -8.204  20.208  67.373  1.00  0.00    -0.319 OA 
HETATM   22  C   UNL     1      -8.894  19.659  66.243  1.00  0.00    -0.371 C  
HETATM   23  C   UNL     1     -10.401  19.503  66.520  1.00  0.00    -0.482 C  
ENDBRANCH  17  18
ENDBRANCH  16  17
ENDBRANCH  14  16
ENDBRANCH   6  14
TORSDOF 5
ENDMDL
MODEL        5
REMARK 921   NORMALIZED FREE ENERGY PREDICTED BY IDOCK:   -6.51 KCAL/MOL
REMARK 922        TOTAL FREE ENERGY PREDICTED BY IDOCK:   -9.12 KCAL/MOL
REMARK 923 INTER-LIGAND FREE ENERGY PREDICTED BY IDOCK:   -8.61 KCAL/MOL
REMARK 924 INTRA-LIGAND FREE ENERGY PREDICTED BY IDOCK:   -0.51 KCAL/MOL
REMARK 927      BINDING AFFINITY PREDICTED BY RF-SCORE:    0.00 PKD
ROOT
HETATM    1  C   UNL     1     -14.022  14.305  72.351  1.00  0.00    -0.597 C  
HETATM    2  C   UNL     1     -13.237  13.305  71.554  1.00  0.00    -0.383 A  
HETATM    3  C   UNL     1     -13.284  11.955  71.916  1.00  0.00    -0.467 A  
HETATM    4  C   UNL     1     -12.622  10.998  71.156  1.00  0.00    -0.418 A  
HETATM    5  N   UNL     1     -11.889  11.384  70.093  1.00  0.00    -0.337 NA 
HETATM    6  C   UNL     1     -12.503  13.671  70.427  1.00  0.00    -0.294 A  
HETATM    7  N   UNL     1     -11.844  12.723  69.725  1.00  0.00    -0.327 NA 
ENDROOT
BRANCH   4   8
HETATM    8  C   UNL     1     -12.691   9.562  71.469  1.00  0.00    -0.461 A  
HETATM    9  C   UNL     1     -11.565   7.467  72.062  1.00  0.00    -0.321 A  
HETATM   10  C   UNL     1     -11.535   8.845  71.846  1.00  0.00    -0.442 A  
HETATM   11  C   UNL     1     -13.895   8.841  71.374  1.00  0.00    -0.318 A  
HETATM   12  C   UNL     1     -12.760   6.772  71.924  1.00  0.00    -0.298 A  
HETATM   13  C   UNL     1     -13.926   7.459  71.594  1.00  0.00    -0.523 A  
ENDBRANCH   4   8
BRANCH   6  14
HETATM   14  N   UNL     1     -12.540  15.004  70.003  1.00  0.00    -0.558 NA 
HETATM   15  H   UNL     1     -13.391  15.563  70.053  1.00  0.00     0.000 HD 
BRANCH  14  16
HETATM   16  C   UNL     1     -11.292  15.545  69.485  1.00  0.00    -0.313 C  
BRANCH  16  17
HETATM   17  C   UNL     1     -11.417  15.747  67.957  1.00  0.00    -0.264 C  
BRANCH  17  18
HETATM   18  N   UNL     1     -10.633  14.800  67.128  1.00  0.00    -0.280 NA 
HETATM   19  C   UNL     1     -11.444  13.668  66.621  1.00  0.00    -0.343 C  
HETATM   20  C   UNL     1     -12.485  14.075  65.564  1.00  0.00    -0.509 C  
HETATM   21  O   UNL     1     -11.869  14.738  64.453  1.00  0.00    -0.422 OA 
HETATM   22  C   UNL     1     -11.114  15.877  64.882  1.00  0.00    -0.389 C  
HETATM   23  C   UNL     1     -10.066  15.496  65.944  1.00  0.00    -0.349 C  
ENDBRANCH  17  18
ENDBRANCH  16  17
ENDBRANCH  14  16
ENDBRANCH   6  14
TORSDOF 5
ENDMDL
MODEL        6
REMARK 921   NORMALIZED FREE ENERGY PREDICTED BY IDOCK:   -6.49 KCAL/MOL
REMARK 922        TOTAL FREE ENERGY PREDICTED BY IDOCK:   -9.09 KCAL/MOL
REMARK 923 INTER-LIGAND FREE ENERGY PREDICTED BY IDOCK:   -8.33 KCAL/MOL
REMARK 924 INTRA-LIGAND FREE ENERGY PREDICTED BY IDOCK:   -0.76 KCAL/MOL
REMARK 927      BINDING AFFINITY PREDICTED BY RF-SCORE:    0.00 PKD
ROOT
HETATM    1  C   UNL     1     -11.782  13.386  66.986  1.00  0.00    -0.426 C  
HETATM    2  C   UNL     1     -11.633  14.627  66.156  1.00  0.00    -0.332 A  
HETATM    3  C   UNL     1     -10.916  15.711  66.672  1.00  0.00    -0.212 A  
HETATM    4  C   UNL     1     -10.703  16.848  65.900  1.00  0.00    -0.149 A  
HETATM    5  N   UNL     1     -11.237  16.921  64.665  1.00  0.00    -0.956 NA 
HETATM    6  C   UNL     1     -12.139  14.715  64.861  1.00  0.00    -0.382 A  
HETATM    7  N   UNL     1     -11.944  15.844  64.145  1.00  0.00    -0.616 NA 
ENDROOT
BRANCH   4   8
HETATM    8  C   UNL     1      -9.908  17.987  66.384  1.00  0.00    -0.340 A  
HETATM    9  C   UNL     1      -7.769  18.901  67.159  1.00  0.00    -0.246 A  
HETATM   10  C   UNL     1      -8.522  17.858  66.618  1.00  0.00    -0.281 A  
HETATM   11  C   UNL     1     -10.496  19.234  66.665  1.00  0.00    -0.541 A  
HETATM   12  C   UNL     1      -8.383  20.110  67.462  1.00  0.00    -0.383 A  
HETATM   13  C   UNL     1      -9.741  20.282  67.203  1.00  0.00    -0.592 A  
ENDBRANCH   4   8
BRANCH   6  14
HETATM   14  N   UNL     1     -12.765  13.594  64.305  1.00  0.00    -0.650 NA 
HETATM   15  H   UNL     1     -13.601  13.181  64.718  1.00  0.00     0.000 HD 
BRANCH  14  16
HETATM   16  C   UNL     1     -12.152  13.051  63.102  1.00  0.00    -0.246 C  
BRANCH  16  17
HETATM   17  C   UNL     1     -11.377  11.761  63.459  1.00  0.00    -0.405 C  
BRANCH  17  18
HETATM   18  N   UNL     1      -9.933  11.947  63.734  1.00  0.00    -0.353 NA 
HETATM   19  C   UNL     1      -9.506  11.343  65.018  1.00  0.00    -0.185 C  
HETATM   20  C   UNL     1      -9.533   9.805  65.020  1.00  0.00    -0.272 C  
HETATM   21  O   UNL     1      -8.725   9.269  63.965  1.00  0.00    -0.205 OA 
HETATM   22  C   UNL     1      -9.132   9.779  62.689  1.00  0.00    -0.279 C  
HETATM   23  C   UNL     1      -9.116  11.319  62.663  1.00  0.00    -0.283 C  
ENDBRANCH  17  18
ENDBRANCH  16  17
ENDBRANCH  14  16
ENDBRANCH   6  14
TORSDOF 5
ENDMDL
MODEL        7
REMARK 921   NORMALIZED FREE ENERGY PREDICTED BY IDOCK:   -6.43 KCAL/MOL
REMARK 922        TOTAL FREE ENERGY PREDICTED BY IDOCK:   -9.02 KCAL/MOL
REMARK 923 INTER-LIGAND FREE ENERGY PREDICTED BY IDOCK:   -8.42 KCAL/MOL
REMARK 924 INTRA-LIGAND FREE ENERGY PREDICTED BY IDOCK:   -0.60 KCAL/MOL
REMARK 927      BINDING AFFINITY PREDICTED BY RF-SCORE:    0.00 PKD
ROOT
HETATM    1  C   UNL     1     -11.512  12.665  66.567  1.00  0.00    -0.409 C  
HETATM    2  C   UNL     1     -11.785  12.667  68.043  1.00  0.00    -0.402 A  
HETATM    3  C   UNL     1     -11.723  11.462  68.750  1.00  0.00    -0.404 A  
HETATM    4  C   UNL     1     -11.903  11.442  70.128  1.00  0.00    -0.355 A  
HETATM    5  N   UNL     1     -12.190  12.588  70.776  1.00  0.00    -0.332 NA 
HETATM    6  C   UNL     1     -12.044  13.842  68.745  1.00  0.00    -0.309 A  
HETATM    7  N   UNL     1     -12.246  13.789  70.081  1.00  0.00    -0.350 NA 
ENDROOT
BRANCH   4   8
HETATM    8  C   UNL     1     -11.791  10.206  70.917  1.00  0.00    -0.468 A  
HETATM    9  C   UNL     1     -12.795   8.565  72.438  1.00  0.00    -0.373 A  
HETATM   10  C   UNL     1     -12.903   9.687  71.615  1.00  0.00    -0.499 A  
HETATM   11  C   UNL     1     -10.574   9.512  71.038  1.00  0.00    -0.392 A  
HETATM   12  C   UNL     1     -11.571   7.920  72.568  1.00  0.00    -0.443 A  
HETATM   13  C   UNL     1     -10.465   8.384  71.859  1.00  0.00    -0.366 A  
ENDBRANCH   4   8
BRANCH   6  14
HETATM   14  N   UNL     1     -12.002  15.060  68.058  1.00  0.00    -0.521 NA 
HETATM   15  H   UNL     1     -12.299  15.143  67.086  1.00  0.00     0.000 HD 
BRANCH  14  16
HETATM   16  C   UNL     1     -11.510  16.204  68.813  1.00  0.00    -0.340 C  
BRANCH  16  17
HETATM   17  C   UNL     1     -10.228  16.748  68.141  1.00  0.00    -0.301 C  
BRANCH  17  18
HETATM   18  N   UNL     1     -10.292  16.873  66.665  1.00  0.00    -0.310 NA 
HETATM   19  C   UNL     1     -10.255  18.281  66.203  1.00  0.00    -0.381 C  
HETATM   20  C   UNL     1      -8.899  18.972  66.424  1.00  0.00    -0.321 C  
HETATM   21  O   UNL     1      -7.836  18.248  65.790  1.00  0.00    -0.517 OA 
HETATM   22  C   UNL     1      -7.790  16.890  66.244  1.00  0.00    -0.311 C  
HETATM   23  C   UNL     1      -9.140  16.177  66.036  1.00  0.00    -0.318 C  
ENDBRANCH  17  18
ENDBRANCH  16  17
ENDBRANCH  14  16
ENDBRANCH   6  14
TORSDOF 5
ENDMDL
MODEL        8
REMARK 921   NORMALIZED FREE ENERGY PREDICTED BY IDOCK:   -6.43 KCAL/MOL
REMARK 922        TOTAL FREE ENERGY PREDICTED BY IDOCK:   -9.02 KCAL/MOL
REMARK 923 INTER-LIGAND FREE ENERGY PREDICTED BY IDOCK:   -8.50 KCAL/MOL
REMARK 924 INTRA-LIGAND FREE ENERGY PREDICTED BY IDOCK:   -0.52 KCAL/MOL
REMARK 927      BINDING AFFINITY PREDICTED BY RF-SCORE:    0.00 PKD
ROOT
HETATM    1  C   UNL     1     -11.556  12.744  66.402  1.00  0.00    -0.435 C  
HETATM    2  C   UNL     1     -11.814  12.787  67.880  1.00  0.00    -0.392 A  
HETATM    3  C   UNL     1     -11.789  11.596  68.612  1.00  0.00    -0.370 A  
HETATM    4  C   UNL     1     -11.956  11.612  69.992  1.00  0.00    -0.351 A  
HETATM    5  N   UNL     1     -12.193  12.781  70.618  1.00  0.00    -0.357 NA 
HETATM    6  C   UNL     1     -12.021  13.986  68.560  1.00  0.00    -0.348 A  
HETATM    7  N   UNL     1     -12.212  13.969  69.898  1.00  0.00    -0.334 NA 
ENDROOT
BRANCH   4   8
HETATM    8  C   UNL     1     -11.882  10.389  70.806  1.00  0.00    -0.466 A  
HETATM    9  C   UNL     1     -12.912   8.847  72.410  1.00  0.00    -0.467 A  
HETATM   10  C   UNL     1     -12.991   9.954  71.565  1.00  0.00    -0.523 A  
HETATM   11  C   UNL     1     -10.704   9.626  70.891  1.00  0.00    -0.402 A  
HETATM   12  C   UNL     1     -11.724   8.132  72.503  1.00  0.00    -0.457 A  
HETATM   13  C   UNL     1     -10.625   8.512  71.735  1.00  0.00    -0.371 A  
ENDBRANCH   4   8
BRANCH   6  14
HETATM   14  N   UNL     1     -11.941  15.187  67.846  1.00  0.00    -0.467 NA 
HETATM   15  H   UNL     1     -12.477  15.345  66.993  1.00  0.00     0.000 HD 
BRANCH  14  16
HETATM   16  C   UNL     1     -11.048  16.197  68.394  1.00  0.00    -0.359 C  
BRANCH  16  17
HETATM   17  C   UNL     1     -10.426  17.012  67.236  1.00  0.00    -0.301 C  
BRANCH  17  18
HETATM   18  N   UNL     1      -9.194  17.762  67.581  1.00  0.00    -0.248 NA 
HETATM   19  C   UNL     1      -8.683  18.581  66.458  1.00  0.00    -0.286 C  
HETATM   20  C   UNL     1      -9.578  19.781  66.106  1.00  0.00    -0.398 C  
HETATM   21  O   UNL     1      -9.783  20.630  67.243  1.00  0.00    -0.465 OA 
HETATM   22  C   UNL     1     -10.331  19.897  68.346  1.00  0.00    -0.378 C  
HETATM   23  C   UNL     1      -9.452  18.687  68.715  1.00  0.00    -0.321 C  
ENDBRANCH  17  18
ENDBRANCH  16  17
ENDBRANCH  14  16
ENDBRANCH   6  14
TORSDOF 5
ENDMDL
MODEL        9
REMARK 921   NORMALIZED FREE ENERGY PREDICTED BY IDOCK:   -6.38 KCAL/MOL
REMARK 922        TOTAL FREE ENERGY PREDICTED BY IDOCK:   -8.95 KCAL/MOL
REMARK 923 INTER-LIGAND FREE ENERGY PREDICTED BY IDOCK:   -8.41 KCAL/MOL
REMARK 924 INTRA-LIGAND FREE ENERGY PREDICTED BY IDOCK:   -0.54 KCAL/MOL
REMARK 927      BINDING AFFINITY PREDICTED BY RF-SCORE:    0.00 PKD
ROOT
HETATM    1  C   UNL     1     -11.444  12.244  65.936  1.00  0.00    -0.428 C  
HETATM    2  C   UNL     1     -11.712  12.533  67.384  1.00  0.00    -0.432 A  
HETATM    3  C   UNL     1     -11.785  11.472  68.290  1.00  0.00    -0.371 A  
HETATM    4  C   UNL     1     -11.964  11.713  69.648  1.00  0.00    -0.324 A  
HETATM    5  N   UNL     1     -12.117  12.980  70.081  1.00  0.00    -0.338 NA 
HETATM    6  C   UNL     1     -11.834  13.835  67.866  1.00  0.00    -0.378 A  
HETATM    7  N   UNL     1     -12.038  14.039  69.186  1.00  0.00    -0.355 NA 
ENDROOT
BRANCH   4   8
HETATM    8  C   UNL     1     -11.992  10.629  70.641  1.00  0.00    -0.466 A  
HETATM    9  C   UNL     1     -10.882   8.748  71.755  1.00  0.00    -0.416 A  
HETATM   10  C   UNL     1     -10.849   9.835  70.882  1.00  0.00    -0.399 A  
HETATM   11  C   UNL     1     -13.157  10.316  71.364  1.00  0.00    -0.512 A  
HETATM   12  C   UNL     1     -12.058   8.439  72.429  1.00  0.00    -0.443 A  
HETATM   13  C   UNL     1     -13.190   9.229  72.243  1.00  0.00    -0.535 A  
ENDBRANCH   4   8
BRANCH   6  14
HETATM   14  N   UNL     1     -11.656  14.902  66.978  1.00  0.00    -0.343 NA 
HETATM   15  H   UNL     1     -12.343  15.127  66.260  1.00  0.00     0.000 HD 
BRANCH  14  16
HETATM   16  C   UNL     1     -10.431  15.671  67.141  1.00  0.00    -0.303 C  
BRANCH  16  17
HETATM   17  C   UNL     1     -10.771  17.180  67.150  1.00  0.00    -0.177 C  
BRANCH  17  18
HETATM   18  N   UNL     1     -10.073  17.991  66.124  1.00  0.00    -0.505 NA 
HETATM   19  C   UNL     1     -10.417  19.431  66.193  1.00  0.00    -0.508 C  
HETATM   20  C   UNL     1      -9.870  20.140  67.444  1.00  0.00    -0.434 C  
HETATM   21  O   UNL     1      -8.448  19.999  67.544  1.00  0.00    -0.321 OA 
HETATM   22  C   UNL     1      -8.061  18.619  67.537  1.00  0.00    -0.249 C  
HETATM   23  C   UNL     1      -8.601  17.885  66.295  1.00  0.00    -0.177 C  
ENDBRANCH  17  18
ENDBRANCH  16  17
ENDBRANCH  14  16
ENDBRANCH   6  14
TORSDOF 5
ENDMDL
MODEL       10
REMARK 921   NORMALIZED FREE ENERGY PREDICTED BY IDOCK:   -6.28 KCAL/MOL
REMARK 922        TOTAL FREE ENERGY PREDICTED BY IDOCK:   -8.83 KCAL/MOL
REMARK 923 INTER-LIGAND FREE ENERGY PREDICTED BY IDOCK:   -8.25 KCAL/MOL
REMARK 924 INTRA-LIGAND FREE ENERGY PREDICTED BY IDOCK:   -0.58 KCAL/MOL
REMARK 927      BINDING AFFINITY PREDICTED BY RF-SCORE:    0.00 PKD
ROOT
HETATM    1  C   UNL     1     -11.148  11.975  65.065  1.00  0.00    -0.368 C  
HETATM    2  C   UNL     1     -11.456  12.467  66.449  1.00  0.00    -0.427 A  
HETATM    3  C   UNL     1     -11.527  11.548  67.500  1.00  0.00    -0.355 A  
HETATM    4  C   UNL     1     -11.743  11.981  68.804  1.00  0.00    -0.321 A  
HETATM    5  N   UNL     1     -11.935  13.293  69.043  1.00  0.00    -0.311 NA 
HETATM    6  C   UNL     1     -11.619  13.821  66.733  1.00  0.00    -0.370 A  
HETATM    7  N   UNL     1     -11.858  14.212  68.004  1.00  0.00    -0.360 NA 
ENDROOT
BRANCH   4   8
HETATM    8  C   UNL     1     -11.769  11.053  69.945  1.00  0.00    -0.424 A  
HETATM    9  C   UNL     1     -10.718   9.255  71.238  1.00  0.00    -0.422 A  
HETATM   10  C   UNL     1     -10.676  10.202  70.214  1.00  0.00    -0.352 A  
HETATM   11  C   UNL     1     -12.889  10.951  70.789  1.00  0.00    -0.378 A  
HETATM   12  C   UNL     1     -11.852   9.150  72.034  1.00  0.00    -0.407 A  
HETATM   13  C   UNL     1     -12.931  10.004  71.819  1.00  0.00    -0.560 A  
ENDBRANCH   4   8
BRANCH   6  14
HETATM   14  N   UNL     1     -11.444  14.751  65.702  1.00  0.00    -0.346 NA 
HETATM   15  H   UNL     1     -12.117  14.849  64.942  1.00  0.00     0.000 HD 
BRANCH  14  16
HETATM   16  C   UNL     1     -10.244  15.572  65.778  1.00  0.00    -0.366 C  
BRANCH  16  17
HETATM   17  C   UNL     1     -10.647  17.064  65.835  1.00  0.00    -0.216 C  
BRANCH  17  18
HETATM   18  N   UNL     1      -9.519  18.019  65.951  1.00  0.00    -0.509 NA 
HETATM   19  C   UNL     1      -9.965  19.415  66.174  1.00  0.00    -0.425 C  
HETATM   20  C   UNL     1     -10.596  19.652  67.556  1.00  0.00    -0.446 C  
HETATM   21  O   UNL     1      -9.700  19.279  68.610  1.00  0.00    -0.379 OA 
HETATM   22  C   UNL     1      -9.279  17.916  68.474  1.00  0.00    -0.284 C  
HETATM   23  C   UNL     1      -8.645  17.652  67.095  1.00  0.00    -0.227 C  
ENDBRANCH  17  18
ENDBRANCH  16  17
ENDBRANCH  14  16
ENDBRANCH   6  14
TORSDOF 5
ENDMDL
MODEL       11
REMARK 921   NORMALIZED FREE ENERGY PREDICTED BY IDOCK:   -6.25 KCAL/MOL
REMARK 922        TOTAL FREE ENERGY PREDICTED BY IDOCK:   -8.79 KCAL/MOL
REMARK 923 INTER-LIGAND FREE ENERGY PREDICTED BY IDOCK:   -8.25 KCAL/MOL
REMARK 924 INTRA-LIGAND FREE ENERGY PREDICTED BY IDOCK:   -0.54 KCAL/MOL
REMARK 927      BINDING AFFINITY PREDICTED BY RF-SCORE:    0.00 PKD
ROOT
HETATM    1  C   UNL     1     -11.790  12.719  66.023  1.00  0.00    -0.495 C  
HETATM    2  C   UNL     1     -11.492  13.665  67.149  1.00  0.00    -0.367 A  
HETATM    3  C   UNL     1     -11.116  14.980  66.856  1.00  0.00    -0.331 A  
HETATM    4  C   UNL     1     -10.901  15.897  67.879  1.00  0.00    -0.327 A  
HETATM    5  N   UNL     1     -11.006  15.498  69.161  1.00  0.00    -0.243 NA 
HETATM    6  C   UNL     1     -11.631  13.291  68.484  1.00  0.00    -0.333 A  
HETATM    7  N   UNL     1     -11.385  14.195  69.459  1.00  0.00    -0.263 NA 
ENDROOT
BRANCH   4   8
HETATM    8  C   UNL     1     -10.559  17.302  67.613  1.00  0.00    -0.350 A  
HETATM    9  C   UNL     1     -10.038  19.549  68.444  1.00  0.00    -0.546 A  
HETATM   10  C   UNL     1     -10.278  18.194  68.671  1.00  0.00    -0.382 A  
HETATM   11  C   UNL     1     -10.531  17.824  66.307  1.00  0.00    -0.307 A  
HETATM   12  C   UNL     1     -10.053  20.045  67.146  1.00  0.00    -0.587 A  
HETATM   13  C   UNL     1     -10.287  19.182  66.078  1.00  0.00    -0.538 A  
ENDBRANCH   4   8
BRANCH   6  14
HETATM   14  N   UNL     1     -12.108  12.008  68.778  1.00  0.00    -0.276 NA 
HETATM   15  H   UNL     1     -12.721  11.501  68.141  1.00  0.00     0.000 HD 
BRANCH  14  16
HETATM   16  C   UNL     1     -11.678  11.441  70.047  1.00  0.00    -0.334 C  
BRANCH  16  17
HETATM   17  C   UNL     1     -12.864  10.701  70.707  1.00  0.00    -0.352 C  
BRANCH  17  18
HETATM   18  N   UNL     1     -12.546   9.997  71.972  1.00  0.00    -0.347 NA 
HETATM   19  C   UNL     1     -13.657   9.142  72.453  1.00  0.00    -0.483 C  
HETATM   20  C   UNL     1     -13.916   7.907  71.574  1.00  0.00    -0.367 C  
HETATM   21  O   UNL     1     -12.737   7.103  71.443  1.00  0.00    -0.367 OA 
HETATM   22  C   UNL     1     -11.641   7.869  70.928  1.00  0.00    -0.273 C  
HETATM   23  C   UNL     1     -11.364   9.115  71.790  1.00  0.00    -0.381 C  
ENDBRANCH  17  18
ENDBRANCH  16  17
ENDBRANCH  14  16
ENDBRANCH   6  14
TORSDOF 5
ENDMDL
MODEL       12
REMARK 921   NORMALIZED FREE ENERGY PREDICTED BY IDOCK:   -6.25 KCAL/MOL
REMARK 922        TOTAL FREE ENERGY PREDICTED BY IDOCK:   -8.79 KCAL/MOL
REMARK 923 INTER-LIGAND FREE ENERGY PREDICTED BY IDOCK:   -8.18 KCAL/MOL
REMARK 924 INTRA-LIGAND FREE ENERGY PREDICTED BY IDOCK:   -0.61 KCAL/MOL
REMARK 927      BINDING AFFINITY PREDICTED BY RF-SCORE:    0.00 PKD
ROOT
HETATM    1  C   UNL     1     -11.469  12.007  65.671  1.00  0.00    -0.372 C  
HETATM    2  C   UNL     1     -11.677  12.376  67.111  1.00  0.00    -0.415 A  
HETATM    3  C   UNL     1     -11.770  11.362  68.069  1.00  0.00    -0.324 A  
HETATM    4  C   UNL     1     -11.894  11.674  69.418  1.00  0.00    -0.342 A  
HETATM    5  N   UNL     1     -11.976  12.965  69.795  1.00  0.00    -0.315 NA 
HETATM    6  C   UNL     1     -11.725  13.702  67.534  1.00  0.00    -0.371 A  
HETATM    7  N   UNL     1     -11.878  13.977  68.848  1.00  0.00    -0.336 NA 
ENDROOT
BRANCH   4   8
HETATM    8  C   UNL     1     -11.939  10.640  70.462  1.00  0.00    -0.446 A  
HETATM    9  C   UNL     1     -10.880   8.763  71.632  1.00  0.00    -0.399 A  
HETATM   10  C   UNL     1     -10.826   9.806  70.707  1.00  0.00    -0.403 A  
HETATM   11  C   UNL     1     -13.095  10.414  71.232  1.00  0.00    -0.494 A  
HETATM   12  C   UNL     1     -12.047   8.539  72.353  1.00  0.00    -0.436 A  
HETATM   13  C   UNL     1     -13.149   9.371  72.163  1.00  0.00    -0.526 A  
ENDBRANCH   4   8
BRANCH   6  14
HETATM   14  N   UNL     1     -11.527  14.718  66.592  1.00  0.00    -0.354 NA 
HETATM   15  H   UNL     1     -12.293  15.094  66.034  1.00  0.00     0.000 HD 
BRANCH  14  16
HETATM   16  C   UNL     1     -10.162  15.205  66.454  1.00  0.00    -0.281 C  
BRANCH  16  17
HETATM   17  C   UNL     1     -10.178  16.748  66.347  1.00  0.00    -0.323 C  
BRANCH  17  18
HETATM   18  N   UNL     1     -10.603  17.463  67.575  1.00  0.00    -0.352 NA 
HETATM   19  C   UNL     1      -9.664  17.276  68.706  1.00  0.00    -0.280 C  
HETATM   20  C   UNL     1      -8.307  17.971  68.507  1.00  0.00    -0.304 C  
HETATM   21  O   UNL     1      -8.469  19.375  68.266  1.00  0.00    -0.320 OA 
HETATM   22  C   UNL     1      -9.327  19.613  67.143  1.00  0.00    -0.337 C  
HETATM   23  C   UNL     1     -10.694  18.923  67.318  1.00  0.00    -0.449 C  
ENDBRANCH  17  18
ENDBRANCH  16  17
ENDBRANCH  14  16
ENDBRANCH   6  14
TORSDOF 5
ENDMDL
MODEL       13
REMARK 921   NORMALIZED FREE ENERGY PREDICTED BY IDOCK:   -6.23 KCAL/MOL
REMARK 922        TOTAL FREE ENERGY PREDICTED BY IDOCK:   -8.75 KCAL/MOL
REMARK 923 INTER-LIGAND FREE ENERGY PREDICTED BY IDOCK:   -8.02 KCAL/MOL
REMARK 924 INTRA-LIGAND FREE ENERGY PREDICTED BY IDOCK:   -0.73 KCAL/MOL
REMARK 927      BINDING AFFINITY PREDICTED BY RF-SCORE:    0.00 PKD
ROOT
HETATM    1  C   UNL     1     -10.214  16.624  66.273  1.00  0.00    -0.344 C  
HETATM    2  C   UNL     1     -10.827  15.475  67.018  1.00  0.00    -0.314 A  
HETATM    3  C   UNL     1     -11.151  15.632  68.369  1.00  0.00    -0.326 A  
HETATM    4  C   UNL     1     -11.782  14.608  69.067  1.00  0.00    -0.306 A  
HETATM    5  N   UNL     1     -12.035  13.440  68.446  1.00  0.00    -0.353 NA 
HETATM    6  C   UNL     1     -11.137  14.269  66.391  1.00  0.00    -0.325 A  
HETATM    7  N   UNL     1     -11.722  13.280  67.102  1.00  0.00    -0.356 NA 
ENDROOT
BRANCH   4   8
HETATM    8  C   UNL     1     -12.189  14.752  70.473  1.00  0.00    -0.385 A  
HETATM    9  C   UNL     1     -12.157  16.025  72.568  1.00  0.00    -0.635 A  
HETATM   10  C   UNL     1     -11.856  15.908  71.211  1.00  0.00    -0.502 A  
HETATM   11  C   UNL     1     -12.893  13.738  71.147  1.00  0.00    -0.409 A  
HETATM   12  C   UNL     1     -12.821  14.992  73.219  1.00  0.00    -0.647 A  
HETATM   13  C   UNL     1     -13.200  13.856  72.508  1.00  0.00    -0.601 A  
ENDBRANCH   4   8
BRANCH   6  14
HETATM   14  N   UNL     1     -10.910  14.148  65.016  1.00  0.00    -0.373 NA 
HETATM   15  H   UNL     1     -10.382  14.845  64.491  1.00  0.00     0.000 HD 
BRANCH  14  16
HETATM   16  C   UNL     1     -11.473  12.967  64.377  1.00  0.00    -0.365 C  
BRANCH  16  17
HETATM   17  C   UNL     1     -10.345  12.177  63.674  1.00  0.00    -0.452 C  
BRANCH  17  18
HETATM   18  N   UNL     1     -10.304  10.727  63.979  1.00  0.00    -0.340 NA 
HETATM   19  C   UNL     1      -9.303   9.994  63.169  1.00  0.00    -0.260 C  
HETATM   20  C   UNL     1      -7.846  10.334  63.525  1.00  0.00    -0.130 C  
HETATM   21  O   UNL     1      -7.580  10.098  64.913  1.00  0.00    -0.137 OA 
HETATM   22  C   UNL     1      -8.488  10.829  65.748  1.00  0.00    -0.174 C  
HETATM   23  C   UNL     1      -9.955  10.508  65.407  1.00  0.00    -0.289 C  
ENDBRANCH  17  18
ENDBRANCH  16  17
ENDBRANCH  14  16
ENDBRANCH   6  14
TORSDOF 5
ENDMDL
MODEL       14
REMARK 921   NORMALIZED FREE ENERGY PREDICTED BY IDOCK:   -6.14 KCAL/MOL
REMARK 922        TOTAL FREE ENERGY PREDICTED BY IDOCK:   -8.65 KCAL/MOL
REMARK 923 INTER-LIGAND FREE ENERGY PREDICTED BY IDOCK:   -7.93 KCAL/MOL
REMARK 924 INTRA-LIGAND FREE ENERGY PREDICTED BY IDOCK:   -0.72 KCAL/MOL
REMARK 927      BINDING AFFINITY PREDICTED BY RF-SCORE:    0.00 PKD
ROOT
HETATM    1  C   UNL     1     -11.870  13.721  64.374  1.00  0.00    -0.458 C  
HETATM    2  C   UNL     1     -11.486  14.290  65.709  1.00  0.00    -0.335 A  
HETATM    3  C   UNL     1     -11.129  15.639  65.800  1.00  0.00    -0.173 A  
HETATM    4  C   UNL     1     -10.834  16.210  67.032  1.00  0.00    -0.194 A  
HETATM    5  N   UNL     1     -10.845  15.442  68.139  1.00  0.00    -0.274 NA 
HETATM    6  C   UNL     1     -11.527  13.529  66.875  1.00  0.00    -0.344 A  
HETATM    7  N   UNL     1     -11.206  14.102  68.056  1.00  0.00    -0.269 NA 
ENDROOT
BRANCH   4   8
HETATM    8  C   UNL     1     -10.509  17.637  67.179  1.00  0.00    -0.319 A  
HETATM    9  C   UNL     1     -10.087  19.828  66.164  1.00  0.00    -0.600 A  
HETATM   10  C   UNL     1     -10.479  18.494  66.057  1.00  0.00    -0.433 A  
HETATM   11  C   UNL     1     -10.181  18.197  68.427  1.00  0.00    -0.401 A  
HETATM   12  C   UNL     1      -9.733  20.347  67.403  1.00  0.00    -0.597 A  
HETATM   13  C   UNL     1      -9.792  19.537  68.535  1.00  0.00    -0.518 A  
ENDBRANCH   4   8
BRANCH   6  14
HETATM   14  N   UNL     1     -11.985  12.209  66.803  1.00  0.00    -0.615 NA 
HETATM   15  H   UNL     1     -12.954  11.985  66.577  1.00  0.00     0.000 HD 
BRANCH  14  16
HETATM   16  C   UNL     1     -10.997  11.173  67.068  1.00  0.00    -0.289 C  
BRANCH  16  17
HETATM   17  C   UNL     1     -11.429  10.360  68.311  1.00  0.00    -0.144 C  
BRANCH  17  18
HETATM   18  N   UNL     1     -10.962  10.897  69.611  1.00  0.00    -0.260 NA 
HETATM   19  C   UNL     1     -12.062  11.454  70.434  1.00  0.00    -0.384 C  
HETATM   20  C   UNL     1     -13.034  10.391  70.972  1.00  0.00    -0.399 C  
HETATM   21  O   UNL     1     -12.345   9.392  71.735  1.00  0.00    -0.350 OA 
HETATM   22  C   UNL     1     -11.303   8.779  70.965  1.00  0.00    -0.278 C  
HETATM   23  C   UNL     1     -10.317   9.825  70.412  1.00  0.00    -0.293 C  
ENDBRANCH  17  18
ENDBRANCH  16  17
ENDBRANCH  14  16
ENDBRANCH   6  14
TORSDOF 5
ENDMDL
MODEL       15
REMARK 921   NORMALIZED FREE ENERGY PREDICTED BY IDOCK:   -6.12 KCAL/MOL
REMARK 922        TOTAL FREE ENERGY PREDICTED BY IDOCK:   -8.62 KCAL/MOL
REMARK 923 INTER-LIGAND FREE ENERGY PREDICTED BY IDOCK:   -8.08 KCAL/MOL
REMARK 924 INTRA-LIGAND FREE ENERGY PREDICTED BY IDOCK:   -0.54 KCAL/MOL
REMARK 927      BINDING AFFINITY PREDICTED BY RF-SCORE:    0.00 PKD
ROOT
HETATM    1  C   UNL     1     -11.822  15.133  72.372  1.00  0.00    -0.488 C  
HETATM    2  C   UNL     1     -11.686  15.163  70.878  1.00  0.00    -0.378 A  
HETATM    3  C   UNL     1     -11.248  16.335  70.255  1.00  0.00    -0.343 A  
HETATM    4  C   UNL     1     -11.047  16.372  68.880  1.00  0.00    -0.328 A  
HETATM    5  N   UNL     1     -11.326  15.281  68.140  1.00  0.00    -0.327 NA 
HETATM    6  C   UNL     1     -11.929  14.038  70.092  1.00  0.00    -0.330 A  
HETATM    7  N   UNL     1     -11.755  14.111  68.754  1.00  0.00    -0.324 NA 
ENDROOT
BRANCH   4   8
HETATM    8  C   UNL     1     -10.535  17.567  68.193  1.00  0.00    -0.386 A  
HETATM    9  C   UNL     1      -9.713  19.875  68.286  1.00  0.00    -0.479 A  
HETATM   10  C   UNL     1     -10.118  18.701  68.922  1.00  0.00    -0.357 A  
HETATM   11  C   UNL     1     -10.472  17.645  66.790  1.00  0.00    -0.289 A  
HETATM   12  C   UNL     1      -9.695  19.937  66.898  1.00  0.00    -0.532 A  
HETATM   13  C   UNL     1     -10.062  18.820  66.150  1.00  0.00    -0.421 A  
ENDBRANCH   4   8
BRANCH   6  14
HETATM   14  N   UNL     1     -12.265  12.835  70.723  1.00  0.00    -0.461 NA 
HETATM   15  H   UNL     1     -12.756  12.812  71.616  1.00  0.00     0.000 HD 
BRANCH  14  16
HETATM   16  C   UNL     1     -11.872  11.617  70.029  1.00  0.00    -0.355 C  
BRANCH  16  17
HETATM   17  C   UNL     1     -12.542  10.401  70.709  1.00  0.00    -0.371 C  
BRANCH  17  18
HETATM   18  N   UNL     1     -11.667   9.623  71.618  1.00  0.00    -0.395 NA 
HETATM   19  C   UNL     1     -12.338   8.432  72.188  1.00  0.00    -0.370 C  
HETATM   20  C   UNL     1     -12.621   7.326  71.156  1.00  0.00    -0.323 C  
HETATM   21  O   UNL     1     -11.419   6.909  70.497  1.00  0.00    -0.303 OA 
HETATM   22  C   UNL     1     -10.754   8.018  69.878  1.00  0.00    -0.242 C  
HETATM   23  C   UNL     1     -10.464   9.141  70.891  1.00  0.00    -0.278 C  
ENDBRANCH  17  18
ENDBRANCH  16  17
ENDBRANCH  14  16
ENDBRANCH   6  14
TORSDOF 5
ENDMDL
MODEL       16
REMARK 921   NORMALIZED FREE ENERGY PREDICTED BY IDOCK:   -6.10 KCAL/MOL
REMARK 922        TOTAL FREE ENERGY PREDICTED BY IDOCK:   -8.60 KCAL/MOL
REMARK 923 INTER-LIGAND FREE ENERGY PREDICTED BY IDOCK:   -8.04 KCAL/MOL
REMARK 924 INTRA-LIGAND FREE ENERGY PREDICTED BY IDOCK:   -0.56 KCAL/MOL
REMARK 927      BINDING AFFINITY PREDICTED BY RF-SCORE:    0.00 PKD
ROOT
HETATM    1  C   UNL     1     -12.680  11.996  70.855  1.00  0.00    -0.291 C  
HETATM    2  C   UNL     1     -11.971  10.720  70.506  1.00  0.00    -0.456 A  
HETATM    3  C   UNL     1     -11.777   9.753  71.498  1.00  0.00    -0.450 A  
HETATM    4  C   UNL     1     -11.184   8.534  71.189  1.00  0.00    -0.267 A  
HETATM    5  N   UNL     1     -10.750   8.307  69.934  1.00  0.00    -0.240 NA 
HETATM    6  C   UNL     1     -11.548  10.441  69.208  1.00  0.00    -0.176 A  
HETATM    7  N   UNL     1     -10.947   9.260  68.943  1.00  0.00    -0.088 NA 
ENDROOT
BRANCH   4   8
HETATM    8  C   UNL     1     -11.011   7.470  72.189  1.00  0.00    -0.293 A  
HETATM    9  C   UNL     1      -9.934   6.632  74.226  1.00  0.00    -0.372 A  
HETATM   10  C   UNL     1     -10.179   7.659  73.314  1.00  0.00    -0.398 A  
HETATM   11  C   UNL     1     -11.634   6.216  72.052  1.00  0.00    -0.364 A  
HETATM   12  C   UNL     1     -10.533   5.391  74.046  1.00  0.00    -0.317 A  
HETATM   13  C   UNL     1     -11.392   5.187  72.968  1.00  0.00    -0.381 A  
ENDBRANCH   4   8
BRANCH   6  14
HETATM   14  N   UNL     1     -11.836  11.361  68.194  1.00  0.00    -0.589 NA 
HETATM   15  H   UNL     1     -12.793  11.574  67.913  1.00  0.00     0.000 HD 
BRANCH  14  16
HETATM   16  C   UNL     1     -10.689  11.997  67.563  1.00  0.00    -0.226 C  
BRANCH  16  17
HETATM   17  C   UNL     1     -10.989  12.223  66.063  1.00  0.00    -0.292 C  
BRANCH  17  18
HETATM   18  N   UNL     1     -12.407  12.511  65.739  1.00  0.00    -0.626 NA 
HETATM   19  C   UNL     1     -12.748  13.948  65.867  1.00  0.00    -0.421 C  
HETATM   20  C   UNL     1     -12.093  14.839  64.798  1.00  0.00    -0.381 C  
HETATM   21  O   UNL     1     -12.428  14.400  63.476  1.00  0.00    -0.770 OA 
HETATM   22  C   UNL     1     -12.067  13.027  63.278  1.00  0.00    -0.422 C  
HETATM   23  C   UNL     1     -12.709  12.114  64.339  1.00  0.00    -0.217 C  
ENDBRANCH  17  18
ENDBRANCH  16  17
ENDBRANCH  14  16
ENDBRANCH   6  14
TORSDOF 5
ENDMDL
MODEL       17
REMARK 921   NORMALIZED FREE ENERGY PREDICTED BY IDOCK:   -6.10 KCAL/MOL
REMARK 922        TOTAL FREE ENERGY PREDICTED BY IDOCK:   -8.59 KCAL/MOL
REMARK 923 INTER-LIGAND FREE ENERGY PREDICTED BY IDOCK:   -8.01 KCAL/MOL
REMARK 924 INTRA-LIGAND FREE ENERGY PREDICTED BY IDOCK:   -0.58 KCAL/MOL
REMARK 927      BINDING AFFINITY PREDICTED BY RF-SCORE:    0.00 PKD
ROOT
HETATM    1  C   UNL     1     -12.483  13.820  71.618  1.00  0.00    -0.309 C  
HETATM    2  C   UNL     1     -12.354  13.085  70.315  1.00  0.00    -0.311 A  
HETATM    3  C   UNL     1     -12.143  13.812  69.139  1.00  0.00    -0.374 A  
HETATM    4  C   UNL     1     -11.952  13.156  67.929  1.00  0.00    -0.303 A  
HETATM    5  N   UNL     1     -12.022  11.811  67.885  1.00  0.00    -0.597 NA 
HETATM    6  C   UNL     1     -12.382  11.694  70.246  1.00  0.00    -0.258 A  
HETATM    7  N   UNL     1     -12.225  11.083  69.051  1.00  0.00    -0.483 NA 
ENDROOT
BRANCH   4   8
HETATM    8  C   UNL     1     -11.672  13.879  66.679  1.00  0.00    -0.417 A  
HETATM    9  C   UNL     1     -10.305  15.475  65.416  1.00  0.00    -0.422 A  
HETATM   10  C   UNL     1     -10.539  14.713  66.561  1.00  0.00    -0.300 A  
HETATM   11  C   UNL     1     -12.532  13.800  65.569  1.00  0.00    -0.548 A  
HETATM   12  C   UNL     1     -11.191  15.406  64.348  1.00  0.00    -0.215 A  
HETATM   13  C   UNL     1     -12.296  14.560  64.418  1.00  0.00    -0.437 A  
ENDBRANCH   4   8
BRANCH   6  14
HETATM   14  N   UNL     1     -12.488  10.962  71.434  1.00  0.00    -0.369 NA 
HETATM   15  H   UNL     1     -11.962  11.213  72.271  1.00  0.00     0.000 HD 
BRANCH  14  16
HETATM   16  C   UNL     1     -13.392   9.822  71.405  1.00  0.00    -0.371 C  
BRANCH  16  17
HETATM   17  C   UNL     1     -12.816   8.689  72.285  1.00  0.00    -0.383 C  
BRANCH  17  18
HETATM   18  N   UNL     1     -11.363   8.440  72.125  1.00  0.00    -0.341 NA 
HETATM   19  C   UNL     1     -10.854   7.385  73.032  1.00  0.00    -0.375 C  
HETATM   20  C   UNL     1     -11.358   5.973  72.686  1.00  0.00    -0.277 C  
HETATM   21  O   UNL     1     -11.032   5.620  71.336  1.00  0.00    -0.250 OA 
HETATM   22  C   UNL     1     -11.551   6.581  70.409  1.00  0.00    -0.407 C  
HETATM   23  C   UNL     1     -11.063   8.005  70.736  1.00  0.00    -0.259 C  
ENDBRANCH  17  18
ENDBRANCH  16  17
ENDBRANCH  14  16
ENDBRANCH   6  14
TORSDOF 5
ENDMDL
MODEL       18
REMARK 921   NORMALIZED FREE ENERGY PREDICTED BY IDOCK:   -6.04 KCAL/MOL
REMARK 922        TOTAL FREE ENERGY PREDICTED BY IDOCK:   -8.51 KCAL/MOL
REMARK 923 INTER-LIGAND FREE ENERGY PREDICTED BY IDOCK:   -8.09 KCAL/MOL
REMARK 924 INTRA-LIGAND FREE ENERGY PREDICTED BY IDOCK:   -0.42 KCAL/MOL
REMARK 927      BINDING AFFINITY PREDICTED BY RF-SCORE:    0.00 PKD
ROOT
HETATM    1  C   UNL     1     -10.271  14.085  65.418  1.00  0.00    -0.368 C  
HETATM    2  C   UNL     1     -10.731  12.884  66.191  1.00  0.00    -0.290 A  
HETATM    3  C   UNL     1     -10.172  11.634  65.907  1.00  0.00    -0.277 A  
HETATM    4  C   UNL     1     -10.528  10.516  66.652  1.00  0.00    -0.228 A  
HETATM    5  N   UNL     1     -11.457  10.632  67.621  1.00  0.00    -0.479 NA 
HETATM    6  C   UNL     1     -11.660  12.982  67.225  1.00  0.00    -0.356 A  
HETATM    7  N   UNL     1     -12.011  11.873  67.912  1.00  0.00    -0.577 NA 
ENDROOT
BRANCH   4   8
HETATM    8  C   UNL     1      -9.924   9.195  66.423  1.00  0.00    -0.358 A  
HETATM    9  C   UNL     1      -9.829   6.794  66.915  1.00  0.00    -0.229 A  
HETATM   10  C   UNL     1     -10.441   8.041  67.051  1.00  0.00    -0.410 A  
HETATM   11  C   UNL     1      -8.793   9.030  65.603  1.00  0.00    -0.224 A  
HETATM   12  C   UNL     1      -8.691   6.667  66.128  1.00  0.00    -0.154 A  
HETATM   13  C   UNL     1      -8.181   7.779  65.462  1.00  0.00    -0.137 A  
ENDBRANCH   4   8
BRANCH   6  14
HETATM   14  N   UNL     1     -12.141  14.247  67.580  1.00  0.00    -0.570 NA 
HETATM   15  H   UNL     1     -12.984  14.641  67.163  1.00  0.00     0.000 HD 
BRANCH  14  16
HETATM   16  C   UNL     1     -11.367  14.968  68.580  1.00  0.00    -0.303 C  
BRANCH  16  17
HETATM   17  C   UNL     1     -11.879  14.596  69.990  1.00  0.00    -0.308 C  
BRANCH  17  18
HETATM   18  N   UNL     1     -12.680  15.642  70.669  1.00  0.00    -0.446 NA 
HETATM   19  C   UNL     1     -13.998  15.151  71.134  1.00  0.00    -0.404 C  
HETATM   20  C   UNL     1     -13.913  14.150  72.299  1.00  0.00    -0.548 C  
HETATM   21  O   UNL     1     -13.207  14.708  73.414  1.00  0.00    -0.585 OA 
HETATM   22  C   UNL     1     -11.899  15.152  73.032  1.00  0.00    -0.335 C  
HETATM   23  C   UNL     1     -11.958  16.153  71.864  1.00  0.00    -0.507 C  
ENDBRANCH  17  18
ENDBRANCH  16  17
ENDBRANCH  14  16
ENDBRANCH   6  14
TORSDOF 5
ENDMDL
MODEL       19
REMARK 921   NORMALIZED FREE ENERGY PREDICTED BY IDOCK:   -6.02 KCAL/MOL
REMARK 922        TOTAL FREE ENERGY PREDICTED BY IDOCK:   -8.49 KCAL/MOL
REMARK 923 INTER-LIGAND FREE ENERGY PREDICTED BY IDOCK:   -7.77 KCAL/MOL
REMARK 924 INTRA-LIGAND FREE ENERGY PREDICTED BY IDOCK:   -0.72 KCAL/MOL
REMARK 927      BINDING AFFINITY PREDICTED BY RF-SCORE:    0.00 PKD
ROOT
HETATM    1  C   UNL     1     -13.563  13.707  72.520  1.00  0.00    -0.675 C  
HETATM    2  C   UNL     1     -12.943  13.173  71.263  1.00  0.00    -0.339 A  
HETATM    3  C   UNL     1     -12.484  14.070  70.293  1.00  0.00    -0.403 A  
HETATM    4  C   UNL     1     -11.843  13.607  69.150  1.00  0.00    -0.348 A  
HETATM    5  N   UNL     1     -11.711  12.280  68.954  1.00  0.00    -0.313 NA 
HETATM    6  C   UNL     1     -12.757  11.808  71.052  1.00  0.00    -0.275 A  
HETATM    7  N   UNL     1     -12.159  11.385  69.917  1.00  0.00    -0.327 NA 
ENDROOT
BRANCH   4   8
HETATM    8  C   UNL     1     -11.297  14.518  68.133  1.00  0.00    -0.319 A  
HETATM    9  C   UNL     1     -10.516  16.751  67.489  1.00  0.00    -0.319 A  
HETATM   10  C   UNL     1     -10.953  15.848  68.458  1.00  0.00    -0.324 A  
HETATM   11  C   UNL     1     -11.126  14.118  66.795  1.00  0.00    -0.314 A  
HETATM   12  C   UNL     1     -10.392  16.340  66.168  1.00  0.00    -0.352 A  
HETATM   13  C   UNL     1     -10.684  15.022  65.823  1.00  0.00    -0.351 A  
ENDBRANCH   4   8
BRANCH   6  14
HETATM   14  N   UNL     1     -13.120  10.915  72.067  1.00  0.00    -0.520 NA 
HETATM   15  H   UNL     1     -13.099  11.179  73.052  1.00  0.00     0.000 HD 
BRANCH  14  16
HETATM   16  C   UNL     1     -13.529   9.587  71.634  1.00  0.00    -0.385 C  
BRANCH  16  17
HETATM   17  C   UNL     1     -12.740   8.523  72.430  1.00  0.00    -0.337 C  
BRANCH  17  18
HETATM   18  N   UNL     1     -11.298   8.427  72.101  1.00  0.00    -0.341 NA 
HETATM   19  C   UNL     1     -10.567   7.480  72.976  1.00  0.00    -0.368 C  
HETATM   20  C   UNL     1     -10.943   6.006  72.747  1.00  0.00    -0.264 C  
HETATM   21  O   UNL     1     -10.741   5.624  71.380  1.00  0.00    -0.247 OA 
HETATM   22  C   UNL     1     -11.473   6.476  70.489  1.00  0.00    -0.387 C  
HETATM   23  C   UNL     1     -11.116   7.959  70.703  1.00  0.00    -0.259 C  
ENDBRANCH  17  18
ENDBRANCH  16  17
ENDBRANCH  14  16
ENDBRANCH   6  14
TORSDOF 5
ENDMDL
MODEL       20
REMARK 921   NORMALIZED FREE ENERGY PREDICTED BY IDOCK:   -6.00 KCAL/MOL
REMARK 922        TOTAL FREE ENERGY PREDICTED BY IDOCK:   -8.47 KCAL/MOL
REMARK 923 INTER-LIGAND FREE ENERGY PREDICTED BY IDOCK:   -7.83 KCAL/MOL
REMARK 924 INTRA-LIGAND FREE ENERGY PREDICTED BY IDOCK:   -0.64 KCAL/MOL
REMARK 927      BINDING AFFINITY PREDICTED BY RF-SCORE:    0.00 PKD
ROOT
HETATM    1  C   UNL     1     -10.671  14.620  65.163  1.00  0.00    -0.430 C  
HETATM    2  C   UNL     1     -11.008  15.129  66.534  1.00  0.00    -0.318 A  
HETATM    3  C   UNL     1     -11.453  14.229  67.507  1.00  0.00    -0.368 A  
HETATM    4  C   UNL     1     -11.708  14.660  68.804  1.00  0.00    -0.324 A  
HETATM    5  N   UNL     1     -11.573  15.965  69.108  1.00  0.00    -0.380 NA 
HETATM    6  C   UNL     1     -10.840  16.466  66.887  1.00  0.00    -0.118 A  
HETATM    7  N   UNL     1     -11.125  16.864  68.147  1.00  0.00    -0.293 NA 
ENDROOT
BRANCH   4   8
HETATM    8  C   UNL     1     -12.124  13.736  69.870  1.00  0.00    -0.412 A  
HETATM    9  C   UNL     1     -12.290  11.454  70.751  1.00  0.00    -0.483 A  
HETATM   10  C   UNL     1     -11.828  12.358  69.793  1.00  0.00    -0.387 A  
HETATM   11  C   UNL     1     -12.858  14.176  70.986  1.00  0.00    -0.421 A  
HETATM   12  C   UNL     1     -13.045  11.911  71.824  1.00  0.00    -0.465 A  
HETATM   13  C   UNL     1     -13.318  13.271  71.949  1.00  0.00    -0.540 A  
ENDBRANCH   4   8
BRANCH   6  14
HETATM   14  N   UNL     1     -10.295  17.348  65.947  1.00  0.00    -0.539 NA 
HETATM   15  H   UNL     1      -9.702  17.025  65.183  1.00  0.00     0.000 HD 
BRANCH  14  16
HETATM   16  C   UNL     1     -10.625  18.755  66.123  1.00  0.00    -0.377 C  
BRANCH  16  17
HETATM   17  C   UNL     1      -9.321  19.571  66.275  1.00  0.00    -0.372 C  
BRANCH  17  18
HETATM   18  N   UNL     1      -8.088  18.767  66.452  1.00  0.00    -0.280 NA 
HETATM   19  C   UNL     1      -6.887  19.416  65.875  1.00  0.00    -0.267 C  
HETATM   20  C   UNL     1      -6.437  20.676  66.634  1.00  0.00    -0.256 C  
HETATM   21  O   UNL     1      -6.190  20.391  68.016  1.00  0.00    -0.237 OA 
HETATM   22  C   UNL     1      -7.343  19.811  68.640  1.00  0.00    -0.307 C  
HETATM   23  C   UNL     1      -7.815  18.548  67.896  1.00  0.00    -0.253 C  
ENDBRANCH  17  18
ENDBRANCH  16  17
ENDBRANCH  14  16
ENDBRANCH   6  14
TORSDOF 5
ENDMDL
MODEL       21
REMARK 921   NORMALIZED FREE ENERGY PREDICTED BY IDOCK:   -5.99 KCAL/MOL
REMARK 922        TOTAL FREE ENERGY PREDICTED BY IDOCK:   -8.45 KCAL/MOL
REMARK 923 INTER-LIGAND FREE ENERGY PREDICTED BY IDOCK:   -7.51 KCAL/MOL
REMARK 924 INTRA-LIGAND FREE ENERGY PREDICTED BY IDOCK:   -0.94 KCAL/MOL
REMARK 927      BINDING AFFINITY PREDICTED BY RF-SCORE:    0.00 PKD
ROOT
HETATM    1  C   UNL     1      -7.951  12.342  67.160  1.00  0.00    -0.161 C  
HETATM    2  C   UNL     1      -9.396  11.992  67.371  1.00  0.00    -0.178 A  
HETATM    3  C   UNL     1      -9.776  11.341  68.548  1.00  0.00    -0.199 A  
HETATM    4  C   UNL     1     -11.115  11.066  68.802  1.00  0.00    -0.239 A  
HETATM    5  N   UNL     1     -12.044  11.385  67.880  1.00  0.00    -0.621 NA 
HETATM    6  C   UNL     1     -10.383  12.346  66.453  1.00  0.00    -0.234 A  
HETATM    7  N   UNL     1     -11.673  12.038  66.711  1.00  0.00    -0.580 NA 
ENDROOT
BRANCH   4   8
HETATM    8  C   UNL     1     -11.563  10.433  70.052  1.00  0.00    -0.378 A  
HETATM    9  C   UNL     1     -11.195   8.819  71.860  1.00  0.00    -0.438 A  
HETATM   10  C   UNL     1     -10.751   9.494  70.722  1.00  0.00    -0.391 A  
HETATM   11  C   UNL     1     -12.825  10.708  70.610  1.00  0.00    -0.404 A  
HETATM   12  C   UNL     1     -12.460   9.083  72.369  1.00  0.00    -0.375 A  
HETATM   13  C   UNL     1     -13.270  10.035  71.753  1.00  0.00    -0.540 A  
ENDBRANCH   4   8
BRANCH   6  14
HETATM   14  N   UNL     1     -10.018  13.090  65.325  1.00  0.00    -0.466 NA 
HETATM   15  H   UNL     1      -9.279  12.784  64.693  1.00  0.00     0.000 HD 
BRANCH  14  16
HETATM   16  C   UNL     1     -10.757  14.325  65.107  1.00  0.00    -0.394 C  
BRANCH  16  17
HETATM   17  C   UNL     1      -9.958  15.510  65.698  1.00  0.00    -0.360 C  
BRANCH  17  18
HETATM   18  N   UNL     1     -10.627  16.234  66.806  1.00  0.00    -0.290 NA 
HETATM   19  C   UNL     1     -10.469  15.558  68.115  1.00  0.00    -0.259 C  
HETATM   20  C   UNL     1      -9.033  15.596  68.664  1.00  0.00    -0.202 C  
HETATM   21  O   UNL     1      -8.553  16.942  68.776  1.00  0.00    -0.252 OA 
HETATM   22  C   UNL     1      -8.631  17.627  67.520  1.00  0.00    -0.222 C  
HETATM   23  C   UNL     1     -10.061  17.600  66.948  1.00  0.00    -0.331 C  
ENDBRANCH  17  18
ENDBRANCH  16  17
ENDBRANCH  14  16
ENDBRANCH   6  14
TORSDOF 5
ENDMDL
MODEL       22
REMARK 921   NORMALIZED FREE ENERGY PREDICTED BY IDOCK:   -5.84 KCAL/MOL
REMARK 922        TOTAL FREE ENERGY PREDICTED BY IDOCK:   -8.26 KCAL/MOL
REMARK 923 INTER-LIGAND FREE ENERGY PREDICTED BY IDOCK:   -7.71 KCAL/MOL
REMARK 924 INTRA-LIGAND FREE ENERGY PREDICTED BY IDOCK:   -0.55 KCAL/MOL
REMARK 927      BINDING AFFINITY PREDICTED BY RF-SCORE:    0.00 PKD
ROOT
HETATM    1  C   UNL     1     -10.897  13.398  64.607  1.00  0.00    -0.405 C  
HETATM    2  C   UNL     1     -11.001  14.127  65.915  1.00  0.00    -0.297 A  
HETATM    3  C   UNL     1     -10.618  15.470  65.981  1.00  0.00    -0.333 A  
HETATM    4  C   UNL     1     -10.767  16.189  67.161  1.00  0.00    -0.262 A  
HETATM    5  N   UNL     1     -11.237  15.570  68.261  1.00  0.00    -0.328 NA 
HETATM    6  C   UNL     1     -11.522  13.523  67.057  1.00  0.00    -0.340 A  
HETATM    7  N   UNL     1     -11.626  14.237  68.200  1.00  0.00    -0.313 NA 
ENDROOT
BRANCH   4   8
HETATM    8  C   UNL     1     -10.428  17.617  67.258  1.00  0.00    -0.338 A  
HETATM    9  C   UNL     1      -9.921  19.586  68.628  1.00  0.00    -0.538 A  
HETATM   10  C   UNL     1     -10.158  18.216  68.507  1.00  0.00    -0.413 A  
HETATM   11  C   UNL     1     -10.392  18.449  66.124  1.00  0.00    -0.431 A  
HETATM   12  C   UNL     1      -9.928  20.391  67.496  1.00  0.00    -0.537 A  
HETATM   13  C   UNL     1     -10.151  19.822  66.243  1.00  0.00    -0.601 A  
ENDBRANCH   4   8
BRANCH   6  14
HETATM   14  N   UNL     1     -12.003  12.212  66.966  1.00  0.00    -0.598 NA 
HETATM   15  H   UNL     1     -12.896  11.994  66.525  1.00  0.00     0.000 HD 
BRANCH  14  16
HETATM   16  C   UNL     1     -11.155  11.177  67.540  1.00  0.00    -0.291 C  
BRANCH  16  17
HETATM   17  C   UNL     1     -11.784  10.671  68.858  1.00  0.00    -0.211 C  
BRANCH  17  18
HETATM   18  N   UNL     1     -10.834  10.478  69.979  1.00  0.00    -0.279 NA 
HETATM   19  C   UNL     1     -11.417   9.711  71.105  1.00  0.00    -0.384 C  
HETATM   20  C   UNL     1     -11.675   8.230  70.780  1.00  0.00    -0.202 C  
HETATM   21  O   UNL     1     -10.478   7.575  70.344  1.00  0.00    -0.215 OA 
HETATM   22  C   UNL     1      -9.900   8.246  69.217  1.00  0.00    -0.186 C  
HETATM   23  C   UNL     1      -9.634   9.733  69.518  1.00  0.00    -0.210 C  
ENDBRANCH  17  18
ENDBRANCH  16  17
ENDBRANCH  14  16
ENDBRANCH   6  14
TORSDOF 5
ENDMDL
MODEL       23
REMARK 921   NORMALIZED FREE ENERGY PREDICTED BY IDOCK:   -5.84 KCAL/MOL
REMARK 922        TOTAL FREE ENERGY PREDICTED BY IDOCK:   -8.26 KCAL/MOL
REMARK 923 INTER-LIGAND FREE ENERGY PREDICTED BY IDOCK:   -7.58 KCAL/MOL
REMARK 924 INTRA-LIGAND FREE ENERGY PREDICTED BY IDOCK:   -0.68 KCAL/MOL
REMARK 927      BINDING AFFINITY PREDICTED BY RF-SCORE:    0.00 PKD
ROOT
HETATM    1  C   UNL     1     -10.420  16.181  66.285  1.00  0.00    -0.321 C  
HETATM    2  C   UNL     1     -10.975  15.167  67.242  1.00  0.00    -0.327 A  
HETATM    3  C   UNL     1     -11.308  15.565  68.541  1.00  0.00    -0.356 A  
HETATM    4  C   UNL     1     -11.887  14.664  69.428  1.00  0.00    -0.329 A  
HETATM    5  N   UNL     1     -12.079  13.387  69.045  1.00  0.00    -0.307 NA 
HETATM    6  C   UNL     1     -11.222  13.850  66.862  1.00  0.00    -0.312 A  
HETATM    7  N   UNL     1     -11.756  12.987  67.755  1.00  0.00    -0.346 NA 
ENDROOT
BRANCH   4   8
HETATM    8  C   UNL     1     -12.304  15.055  70.783  1.00  0.00    -0.400 A  
HETATM    9  C   UNL     1     -14.087  15.545  72.393  1.00  0.00    -0.627 A  
HETATM   10  C   UNL     1     -13.669  15.093  71.141  1.00  0.00    -0.510 A  
HETATM   11  C   UNL     1     -11.370  15.439  71.763  1.00  0.00    -0.457 A  
HETATM   12  C   UNL     1     -13.145  15.953  73.329  1.00  0.00    -0.694 A  
HETATM   13  C   UNL     1     -11.788  15.888  73.020  1.00  0.00    -0.535 A  
ENDBRANCH   4   8
BRANCH   6  14
HETATM   14  N   UNL     1     -10.987  13.477  65.533  1.00  0.00    -0.285 NA 
HETATM   15  H   UNL     1     -10.455  14.066  64.893  1.00  0.00     0.000 HD 
BRANCH  14  16
HETATM   16  C   UNL     1     -11.547  12.199  65.119  1.00  0.00    -0.317 C  
BRANCH  16  17
HETATM   17  C   UNL     1     -10.405  11.263  64.662  1.00  0.00    -0.315 C  
BRANCH  17  18
HETATM   18  N   UNL     1      -9.346  11.018  65.670  1.00  0.00    -0.207 NA 
HETATM   19  C   UNL     1      -9.827  10.239  66.835  1.00  0.00    -0.197 C  
HETATM   20  C   UNL     1     -10.160   8.773  66.507  1.00  0.00    -0.279 C  
HETATM   21  O   UNL     1      -9.034   8.099  65.931  1.00  0.00    -0.171 OA 
HETATM   22  C   UNL     1      -8.561   8.782  64.764  1.00  0.00    -0.134 C  
HETATM   23  C   UNL     1      -8.223  10.254  65.067  1.00  0.00    -0.154 C  
ENDBRANCH  17  18
ENDBRANCH  16  17
ENDBRANCH  14  16
ENDBRANCH   6  14
TORSDOF 5
ENDMDL
MODEL       24
REMARK 921   NORMALIZED FREE ENERGY PREDICTED BY IDOCK:   -5.83 KCAL/MOL
REMARK 922        TOTAL FREE ENERGY PREDICTED BY IDOCK:   -8.24 KCAL/MOL
REMARK 923 INTER-LIGAND FREE ENERGY PREDICTED BY IDOCK:   -7.64 KCAL/MOL
REMARK 924 INTRA-LIGAND FREE ENERGY PREDICTED BY IDOCK:   -0.60 KCAL/MOL
REMARK 927      BINDING AFFINITY PREDICTED BY RF-SCORE:    0.00 PKD
ROOT
HETATM    1  C   UNL     1     -12.205  13.580  70.209  1.00  0.00    -0.417 C  
HETATM    2  C   UNL     1     -11.773  14.159  68.893  1.00  0.00    -0.369 A  
HETATM    3  C   UNL     1     -11.395  15.504  68.830  1.00  0.00    -0.329 A  
HETATM    4  C   UNL     1     -10.925  16.050  67.641  1.00  0.00    -0.284 A  
HETATM    5  N   UNL     1     -10.884  15.288  66.531  1.00  0.00    -0.313 NA 
HETATM    6  C   UNL     1     -11.683  13.384  67.739  1.00  0.00    -0.359 A  
HETATM    7  N   UNL     1     -11.253  13.949  66.589  1.00  0.00    -0.313 NA 
ENDROOT
BRANCH   4   8
HETATM    8  C   UNL     1     -10.465  17.444  67.546  1.00  0.00    -0.354 A  
HETATM    9  C   UNL     1      -9.699  19.501  68.637  1.00  0.00    -0.514 A  
HETATM   10  C   UNL     1     -10.054  18.153  68.695  1.00  0.00    -0.406 A  
HETATM   11  C   UNL     1     -10.446  18.135  66.321  1.00  0.00    -0.374 A  
HETATM   12  C   UNL     1      -9.725  20.170  67.419  1.00  0.00    -0.563 A  
HETATM   13  C   UNL     1     -10.086  19.486  66.261  1.00  0.00    -0.560 A  
ENDBRANCH   4   8
BRANCH   6  14
HETATM   14  N   UNL     1     -11.960  12.015  67.823  1.00  0.00    -0.553 NA 
HETATM   15  H   UNL     1     -12.915  11.658  67.848  1.00  0.00     0.000 HD 
BRANCH  14  16
HETATM   16  C   UNL     1     -10.806  11.131  67.874  1.00  0.00    -0.235 C  
BRANCH  16  17
HETATM   17  C   UNL     1     -11.157   9.877  68.707  1.00  0.00    -0.135 C  
BRANCH  17  18
HETATM   18  N   UNL     1     -10.585   9.845  70.075  1.00  0.00    -0.268 NA 
HETATM   19  C   UNL     1     -11.620   9.865  71.135  1.00  0.00    -0.389 C  
HETATM   20  C   UNL     1     -12.451   8.574  71.216  1.00  0.00    -0.249 C  
HETATM   21  O   UNL     1     -11.614   7.426  71.407  1.00  0.00    -0.259 OA 
HETATM   22  C   UNL     1     -10.626   7.326  70.375  1.00  0.00    -0.226 C  
HETATM   23  C   UNL     1      -9.782   8.611  70.272  1.00  0.00    -0.174 C  
ENDBRANCH  17  18
ENDBRANCH  16  17
ENDBRANCH  14  16
ENDBRANCH   6  14
TORSDOF 5
ENDMDL
MODEL       25
REMARK 921   NORMALIZED FREE ENERGY PREDICTED BY IDOCK:   -5.82 KCAL/MOL
REMARK 922        TOTAL FREE ENERGY PREDICTED BY IDOCK:   -8.23 KCAL/MOL
REMARK 923 INTER-LIGAND FREE ENERGY PREDICTED BY IDOCK:   -7.56 KCAL/MOL
REMARK 924 INTRA-LIGAND FREE ENERGY PREDICTED BY IDOCK:   -0.67 KCAL/MOL
REMARK 927      BINDING AFFINITY PREDICTED BY RF-SCORE:    0.00 PKD
ROOT
HETATM    1  C   UNL     1     -10.469   8.841  69.266  1.00  0.00    -0.228 C  
HETATM    2  C   UNL     1     -11.431   9.406  70.268  1.00  0.00    -0.223 A  
HETATM    3  C   UNL     1     -11.608  10.792  70.340  1.00  0.00    -0.431 A  
HETATM    4  C   UNL     1     -12.542  11.341  71.211  1.00  0.00    -0.382 A  
HETATM    5  N   UNL     1     -13.244  10.531  72.027  1.00  0.00    -0.449 NA 
HETATM    6  C   UNL     1     -12.199   8.591  71.097  1.00  0.00    -0.232 A  
HETATM    7  N   UNL     1     -13.078   9.153  71.956  1.00  0.00    -0.394 NA 
ENDROOT
BRANCH   4   8
HETATM    8  C   UNL     1     -12.798  12.787  71.277  1.00  0.00    -0.355 A  
HETATM    9  C   UNL     1     -13.953  14.689  72.307  1.00  0.00    -0.589 A  
HETATM   10  C   UNL     1     -13.628  13.332  72.281  1.00  0.00    -0.703 A  
HETATM   11  C   UNL     1     -12.260  13.679  70.331  1.00  0.00    -0.434 A  
HETATM   12  C   UNL     1     -13.437  15.542  71.339  1.00  0.00    -0.583 A  
HETATM   13  C   UNL     1     -12.582  15.040  70.360  1.00  0.00    -0.399 A  
ENDBRANCH   4   8
BRANCH   6  14
HETATM   14  N   UNL     1     -12.101   7.202  70.953  1.00  0.00    -0.440 NA 
HETATM   15  H   UNL     1     -12.157   6.748  70.042  1.00  0.00     0.000 HD 
BRANCH  14  16
HETATM   16  C   UNL     1     -11.915   6.444  72.182  1.00  0.00    -0.298 C  
BRANCH  16  17
HETATM   17  C   UNL     1     -10.799   7.103  73.026  1.00  0.00    -0.328 C  
BRANCH  17  18
HETATM   18  N   UNL     1      -9.476   6.438  72.954  1.00  0.00    -0.146 NA 
HETATM   19  C   UNL     1      -8.620   6.972  71.868  1.00  0.00    -0.120 C  
HETATM   20  C   UNL     1      -8.131   8.410  72.114  1.00  0.00    -0.135 C  
HETATM   21  O   UNL     1      -7.423   8.515  73.355  1.00  0.00    -0.312 OA 
HETATM   22  C   UNL     1      -8.228   8.062  74.451  1.00  0.00    -0.229 C  
HETATM   23  C   UNL     1      -8.733   6.624  74.227  1.00  0.00    -0.153 C  
ENDBRANCH  17  18
ENDBRANCH  16  17
ENDBRANCH  14  16
ENDBRANCH   6  14
TORSDOF 5
ENDMDL
MODEL       26
REMARK 921   NORMALIZED FREE ENERGY PREDICTED BY IDOCK:   -5.81 KCAL/MOL
REMARK 922        TOTAL FREE ENERGY PREDICTED BY IDOCK:   -8.22 KCAL/MOL
REMARK 923 INTER-LIGAND FREE ENERGY PREDICTED BY IDOCK:   -7.69 KCAL/MOL
REMARK 924 INTRA-LIGAND FREE ENERGY PREDICTED BY IDOCK:   -0.53 KCAL/MOL
REMARK 927      BINDING AFFINITY PREDICTED BY RF-SCORE:    0.00 PKD
ROOT
HETATM    1  C   UNL     1     -12.606  11.451  70.924  1.00  0.00    -0.453 C  
HETATM    2  C   UNL     1     -11.786  10.243  70.577  1.00  0.00    -0.419 A  
HETATM    3  C   UNL     1     -11.521   9.290  71.565  1.00  0.00    -0.454 A  
HETATM    4  C   UNL     1     -10.823   8.128  71.256  1.00  0.00    -0.237 A  
HETATM    5  N   UNL     1     -10.357   7.946  70.005  1.00  0.00    -0.216 NA 
HETATM    6  C   UNL     1     -11.326  10.010  69.282  1.00  0.00    -0.117 A  
HETATM    7  N   UNL     1     -10.623   8.886  69.017  1.00  0.00    -0.214 NA 
ENDROOT
BRANCH   4   8
HETATM    8  C   UNL     1     -10.571   7.075  72.252  1.00  0.00    -0.242 A  
HETATM    9  C   UNL     1     -10.436   4.697  72.834  1.00  0.00    -0.254 A  
HETATM   10  C   UNL     1     -10.586   5.712  71.887  1.00  0.00    -0.287 A  
HETATM   11  C   UNL     1     -10.341   7.377  73.607  1.00  0.00    -0.367 A  
HETATM   12  C   UNL     1     -10.247   5.023  74.171  1.00  0.00    -0.279 A  
HETATM   13  C   UNL     1     -10.186   6.361  74.556  1.00  0.00    -0.310 A  
ENDBRANCH   4   8
BRANCH   6  14
HETATM   14  N   UNL     1     -11.680  10.909  68.270  1.00  0.00    -0.640 NA 
HETATM   15  H   UNL     1     -12.624  11.283  68.186  1.00  0.00     0.000 HD 
BRANCH  14  16
HETATM   16  C   UNL     1     -10.620  11.277  67.343  1.00  0.00    -0.224 C  
BRANCH  16  17
HETATM   17  C   UNL     1     -11.022  12.568  66.592  1.00  0.00    -0.266 C  
BRANCH  17  18
HETATM   18  N   UNL     1     -10.310  12.803  65.313  1.00  0.00    -0.292 NA 
HETATM   19  C   UNL     1     -10.679  11.831  64.258  1.00  0.00    -0.342 C  
HETATM   20  C   UNL     1     -12.119  11.993  63.741  1.00  0.00    -0.499 C  
HETATM   21  O   UNL     1     -12.349  13.320  63.249  1.00  0.00    -0.721 OA 
HETATM   22  C   UNL     1     -12.059  14.302  64.251  1.00  0.00    -0.441 C  
HETATM   23  C   UNL     1     -10.623  14.158  64.788  1.00  0.00    -0.418 C  
ENDBRANCH  17  18
ENDBRANCH  16  17
ENDBRANCH  14  16
ENDBRANCH   6  14
TORSDOF 5
ENDMDL
MODEL       27
REMARK 921   NORMALIZED FREE ENERGY PREDICTED BY IDOCK:   -5.79 KCAL/MOL
REMARK 922        TOTAL FREE ENERGY PREDICTED BY IDOCK:   -8.20 KCAL/MOL
REMARK 923 INTER-LIGAND FREE ENERGY PREDICTED BY IDOCK:   -7.86 KCAL/MOL
REMARK 924 INTRA-LIGAND FREE ENERGY PREDICTED BY IDOCK:   -0.34 KCAL/MOL
REMARK 927      BINDING AFFINITY PREDICTED BY RF-SCORE:    0.00 PKD
ROOT
HETATM    1  C   UNL     1     -12.317  14.070  69.820  1.00  0.00    -0.344 C  
HETATM    2  C   UNL     1     -11.300  14.639  68.875  1.00  0.00    -0.305 A  
HETATM    3  C   UNL     1     -11.238  16.024  68.691  1.00  0.00    -0.366 A  
HETATM    4  C   UNL     1     -10.262  16.585  67.875  1.00  0.00    -0.273 A  
HETATM    5  N   UNL     1      -9.403  15.781  67.219  1.00  0.00    -0.209 NA 
HETATM    6  C   UNL     1     -10.373  13.835  68.215  1.00  0.00    -0.247 A  
HETATM    7  N   UNL     1      -9.455  14.405  67.403  1.00  0.00    -0.202 NA 
ENDROOT
BRANCH   4   8
HETATM    8  C   UNL     1     -10.128  18.039  67.698  1.00  0.00    -0.352 A  
HETATM    9  C   UNL     1     -10.045  19.995  66.222  1.00  0.00    -0.603 A  
HETATM   10  C   UNL     1     -10.256  18.630  66.423  1.00  0.00    -0.461 A  
HETATM   11  C   UNL     1      -9.835  18.893  68.777  1.00  0.00    -0.461 A  
HETATM   12  C   UNL     1      -9.720  20.809  67.300  1.00  0.00    -0.487 A  
HETATM   13  C   UNL     1      -9.628  20.262  68.578  1.00  0.00    -0.100 A  
ENDBRANCH   4   8
BRANCH   6  14
HETATM   14  N   UNL     1     -10.365  12.461  68.479  1.00  0.00    -0.247 NA 
HETATM   15  H   UNL     1     -10.561  12.088  69.407  1.00  0.00     0.000 HD 
BRANCH  14  16
HETATM   16  C   UNL     1     -10.060  11.594  67.350  1.00  0.00    -0.198 C  
BRANCH  16  17
HETATM   17  C   UNL     1     -11.081  11.850  66.218  1.00  0.00    -0.314 C  
BRANCH  17  18
HETATM   18  N   UNL     1     -10.493  12.092  64.878  1.00  0.00    -0.278 NA 
HETATM   19  C   UNL     1     -11.294  11.502  63.780  1.00  0.00    -0.329 C  
HETATM   20  C   UNL     1     -12.647  12.199  63.555  1.00  0.00    -0.506 C  
HETATM   21  O   UNL     1     -12.477  13.599  63.303  1.00  0.00    -0.801 OA 
HETATM   22  C   UNL     1     -11.754  14.233  64.365  1.00  0.00    -0.389 C  
HETATM   23  C   UNL     1     -10.395  13.551  64.612  1.00  0.00    -0.385 C  
ENDBRANCH  17  18
ENDBRANCH  16  17
ENDBRANCH  14  16
ENDBRANCH   6  14
TORSDOF 5
ENDMDL
MODEL       28
REMARK 921   NORMALIZED FREE ENERGY PREDICTED BY IDOCK:   -5.71 KCAL/MOL
REMARK 922        TOTAL FREE ENERGY PREDICTED BY IDOCK:   -8.09 KCAL/MOL
REMARK 923 INTER-LIGAND FREE ENERGY PREDICTED BY IDOCK:   -7.44 KCAL/MOL
REMARK 924 INTRA-LIGAND FREE ENERGY PREDICTED BY IDOCK:   -0.64 KCAL/MOL
REMARK 927      BINDING AFFINITY PREDICTED BY RF-SCORE:    0.00 PKD
ROOT
HETATM    1  C   UNL     1     -10.157   9.159  69.182  1.00  0.00    -0.199 C  
HETATM    2  C   UNL     1     -11.199   9.625  70.156  1.00  0.00    -0.302 A  
HETATM    3  C   UNL     1     -11.451  10.995  70.284  1.00  0.00    -0.363 A  
HETATM    4  C   UNL     1     -12.456  11.452  71.128  1.00  0.00    -0.360 A  
HETATM    5  N   UNL     1     -13.157  10.568  71.865  1.00  0.00    -0.479 NA 
HETATM    6  C   UNL     1     -11.967   8.732  70.901  1.00  0.00    -0.201 A  
HETATM    7  N   UNL     1     -12.917   9.206  71.737  1.00  0.00    -0.354 NA 
ENDROOT
BRANCH   4   8
HETATM    8  C   UNL     1     -12.790  12.879  71.250  1.00  0.00    -0.361 A  
HETATM    9  C   UNL     1     -12.504  15.194  70.494  1.00  0.00    -0.429 A  
HETATM   10  C   UNL     1     -12.270  13.827  70.342  1.00  0.00    -0.433 A  
HETATM   11  C   UNL     1     -13.607  13.362  72.288  1.00  0.00    -0.703 A  
HETATM   12  C   UNL     1     -13.285  15.647  71.550  1.00  0.00    -0.555 A  
HETATM   13  C   UNL     1     -13.846  14.733  72.439  1.00  0.00    -0.578 A  
ENDBRANCH   4   8
BRANCH   6  14
HETATM   14  N   UNL     1     -11.789   7.359  70.696  1.00  0.00    -0.465 NA 
HETATM   15  H   UNL     1     -11.314   6.992  69.872  1.00  0.00     0.000 HD 
BRANCH  14  16
HETATM   16  C   UNL     1     -12.324   6.484  71.730  1.00  0.00    -0.287 C  
BRANCH  16  17
HETATM   17  C   UNL     1     -11.185   5.604  72.296  1.00  0.00    -0.259 C  
BRANCH  17  18
HETATM   18  N   UNL     1     -10.865   5.828  73.726  1.00  0.00    -0.214 NA 
HETATM   19  C   UNL     1     -10.296   4.629  74.385  1.00  0.00    -0.273 C  
HETATM   20  C   UNL     1      -8.883   4.265  73.899  1.00  0.00    -0.096 C  
HETATM   21  O   UNL     1      -7.975   5.360  74.067  1.00  0.00    -0.106 OA 
HETATM   22  C   UNL     1      -8.451   6.536  73.400  1.00  0.00    -0.119 C  
HETATM   23  C   UNL     1      -9.867   6.920  73.868  1.00  0.00    -0.307 C  
ENDBRANCH  17  18
ENDBRANCH  16  17
ENDBRANCH  14  16
ENDBRANCH   6  14
TORSDOF 5
ENDMDL
MODEL       29
REMARK 921   NORMALIZED FREE ENERGY PREDICTED BY IDOCK:   -5.69 KCAL/MOL
REMARK 922        TOTAL FREE ENERGY PREDICTED BY IDOCK:   -8.06 KCAL/MOL
REMARK 923 INTER-LIGAND FREE ENERGY PREDICTED BY IDOCK:   -7.44 KCAL/MOL
REMARK 924 INTRA-LIGAND FREE ENERGY PREDICTED BY IDOCK:   -0.62 KCAL/MOL
REMARK 927      BINDING AFFINITY PREDICTED BY RF-SCORE:    0.00 PKD
ROOT
HETATM    1  C   UNL     1      -7.993  10.550  69.258  1.00  0.00    -0.156 C  
HETATM    2  C   UNL     1      -9.414  10.825  68.863  1.00  0.00    -0.190 A  
HETATM    3  C   UNL     1      -9.676  11.416  67.623  1.00  0.00    -0.183 A  
HETATM    4  C   UNL     1     -10.985  11.620  67.201  1.00  0.00    -0.280 A  
HETATM    5  N   UNL     1     -12.005  11.290  68.017  1.00  0.00    -0.641 NA 
HETATM    6  C   UNL     1     -10.489  10.457  69.669  1.00  0.00    -0.243 A  
HETATM    7  N   UNL     1     -11.751  10.695  69.247  1.00  0.00    -0.280 NA 
ENDROOT
BRANCH   4   8
HETATM    8  C   UNL     1     -11.305  12.188  65.882  1.00  0.00    -0.407 A  
HETATM    9  C   UNL     1     -12.496  13.843  64.521  1.00  0.00    -0.336 A  
HETATM   10  C   UNL     1     -12.110  13.341  65.765  1.00  0.00    -0.491 A  
HETATM   11  C   UNL     1     -10.854  11.592  64.690  1.00  0.00    -0.373 A  
HETATM   12  C   UNL     1     -12.067  13.213  63.359  1.00  0.00    -0.558 A  
HETATM   13  C   UNL     1     -11.237  12.097  63.443  1.00  0.00    -0.494 A  
ENDBRANCH   4   8
BRANCH   6  14
HETATM   14  N   UNL     1     -10.233   9.770  70.861  1.00  0.00    -0.338 NA 
HETATM   15  H   UNL     1      -9.284   9.587  71.186  1.00  0.00     0.000 HD 
BRANCH  14  16
HETATM   16  C   UNL     1     -11.402   9.332  71.611  1.00  0.00    -0.397 C  
BRANCH  16  17
HETATM   17  C   UNL     1     -11.065   8.027  72.368  1.00  0.00    -0.352 C  
BRANCH  17  18
HETATM   18  N   UNL     1     -11.959   6.880  72.079  1.00  0.00    -0.308 NA 
HETATM   19  C   UNL     1     -12.254   6.727  70.635  1.00  0.00    -0.254 C  
HETATM   20  C   UNL     1     -11.044   6.278  69.798  1.00  0.00    -0.406 C  
HETATM   21  O   UNL     1     -10.496   5.049  70.292  1.00  0.00    -0.261 OA 
HETATM   22  C   UNL     1     -10.140   5.158  71.676  1.00  0.00    -0.200 C  
HETATM   23  C   UNL     1     -11.336   5.610  72.534  1.00  0.00    -0.294 C  
ENDBRANCH  17  18
ENDBRANCH  16  17
ENDBRANCH  14  16
ENDBRANCH   6  14
TORSDOF 5
ENDMDL
MODEL       30
REMARK 921   NORMALIZED FREE ENERGY PREDICTED BY IDOCK:   -5.68 KCAL/MOL
REMARK 922        TOTAL FREE ENERGY PREDICTED BY IDOCK:   -8.04 KCAL/MOL
REMARK 923 INTER-LIGAND FREE ENERGY PREDICTED BY IDOCK:   -7.39 KCAL/MOL
REMARK 924 INTRA-LIGAND FREE ENERGY PREDICTED BY IDOCK:   -0.65 KCAL/MOL
REMARK 927      BINDING AFFINITY PREDICTED BY RF-SCORE:    0.00 PKD
ROOT
HETATM    1  C   UNL     1      -7.943  12.684  66.917  1.00  0.00     0.019 C  
HETATM    2  C   UNL     1      -9.402  12.461  67.190  1.00  0.00    -0.199 A  
HETATM    3  C   UNL     1      -9.780  11.654  68.268  1.00  0.00    -0.197 A  
HETATM    4  C   UNL     1     -11.122  11.485  68.586  1.00  0.00    -0.238 A  
HETATM    5  N   UNL     1     -12.065  12.062  67.816  1.00  0.00    -0.499 NA 
HETATM    6  C   UNL     1     -10.397  13.077  66.435  1.00  0.00    -0.281 A  
HETATM    7  N   UNL     1     -11.696  12.870  66.747  1.00  0.00    -0.366 NA 
ENDROOT
BRANCH   4   8
HETATM    8  C   UNL     1     -11.560  10.691  69.744  1.00  0.00    -0.385 A  
HETATM    9  C   UNL     1     -12.852  10.507  71.820  1.00  0.00    -0.559 A  
HETATM   10  C   UNL     1     -12.491  11.209  70.670  1.00  0.00    -0.448 A  
HETATM   11  C   UNL     1     -11.049   9.405  69.997  1.00  0.00    -0.248 A  
HETATM   12  C   UNL     1     -12.303   9.253  72.064  1.00  0.00    -0.433 A  
HETATM   13  C   UNL     1     -11.413   8.697  71.148  1.00  0.00    -0.332 A  
ENDBRANCH   4   8
BRANCH   6  14
HETATM   14  N   UNL     1     -10.021  13.967  65.422  1.00  0.00    -0.514 NA 
HETATM   15  H   UNL     1      -9.480  13.666  64.612  1.00  0.00     0.000 HD 
BRANCH  14  16
HETATM   16  C   UNL     1     -10.448  15.348  65.593  1.00  0.00    -0.372 C  
BRANCH  16  17
HETATM   17  C   UNL     1      -9.412  16.102  66.458  1.00  0.00    -0.264 C  
BRANCH  17  18
HETATM   18  N   UNL     1      -9.028  17.444  65.960  1.00  0.00    -0.522 NA 
HETATM   19  C   UNL     1     -10.122  18.437  66.075  1.00  0.00    -0.279 C  
HETATM   20  C   UNL     1     -10.455  18.829  67.525  1.00  0.00    -0.435 C  
HETATM   21  O   UNL     1      -9.300  19.331  68.208  1.00  0.00    -0.319 OA 
HETATM   22  C   UNL     1      -8.225  18.384  68.176  1.00  0.00    -0.287 C  
HETATM   23  C   UNL     1      -7.875  17.974  66.733  1.00  0.00    -0.235 C  
ENDBRANCH  17  18
ENDBRANCH  16  17
ENDBRANCH  14  16
ENDBRANCH   6  14
TORSDOF 5
ENDMDL
MODEL       31
REMARK 921   NORMALIZED FREE ENERGY PREDICTED BY IDOCK:   -5.66 KCAL/MOL
REMARK 922        TOTAL FREE ENERGY PREDICTED BY IDOCK:   -8.03 KCAL/MOL
REMARK 923 INTER-LIGAND FREE ENERGY PREDICTED BY IDOCK:   -7.54 KCAL/MOL
REMARK 924 INTRA-LIGAND FREE ENERGY PREDICTED BY IDOCK:   -0.49 KCAL/MOL
REMARK 927      BINDING AFFINITY PREDICTED BY RF-SCORE:    0.00 PKD
ROOT
HETATM    1  C   UNL     1      -9.015  10.294  68.680  1.00  0.00    -0.144 C  
HETATM    2  C   UNL     1     -10.077  10.030  69.707  1.00  0.00    -0.284 A  
HETATM    3  C   UNL     1      -9.988   8.883  70.501  1.00  0.00    -0.243 A  
HETATM    4  C   UNL     1     -10.919   8.647  71.507  1.00  0.00    -0.290 A  
HETATM    5  N   UNL     1     -11.942   9.507  71.679  1.00  0.00    -0.384 NA 
HETATM    6  C   UNL     1     -11.123  10.922  69.934  1.00  0.00    -0.241 A  
HETATM    7  N   UNL     1     -12.032  10.652  70.897  1.00  0.00    -0.356 NA 
ENDROOT
BRANCH   4   8
HETATM    8  C   UNL     1     -10.830   7.483  72.401  1.00  0.00    -0.323 A  
HETATM    9  C   UNL     1      -9.816   6.369  74.336  1.00  0.00    -0.338 A  
HETATM   10  C   UNL     1      -9.979   7.495  73.527  1.00  0.00    -0.371 A  
HETATM   11  C   UNL     1     -11.557   6.303  72.155  1.00  0.00    -0.367 A  
HETATM   12  C   UNL     1     -10.519   5.205  74.049  1.00  0.00    -0.323 A  
HETATM   13  C   UNL     1     -11.397   5.176  72.968  1.00  0.00    -0.381 A  
ENDBRANCH   4   8
BRANCH   6  14
HETATM   14  N   UNL     1     -11.155  12.121  69.212  1.00  0.00    -0.392 NA 
HETATM   15  H   UNL     1     -10.618  12.939  69.500  1.00  0.00     0.000 HD 
BRANCH  14  16
HETATM   16  C   UNL     1     -11.999  12.132  68.027  1.00  0.00    -0.166 C  
BRANCH  16  17
HETATM   17  C   UNL     1     -11.766  13.445  67.245  1.00  0.00    -0.380 C  
BRANCH  17  18
HETATM   18  N   UNL     1     -10.798  13.351  66.126  1.00  0.00    -0.280 NA 
HETATM   19  C   UNL     1     -11.087  12.227  65.205  1.00  0.00    -0.317 C  
HETATM   20  C   UNL     1     -12.366  12.419  64.372  1.00  0.00    -0.447 C  
HETATM   21  O   UNL     1     -12.319  13.636  63.617  1.00  0.00    -0.691 OA 
HETATM   22  C   UNL     1     -12.097  14.767  64.468  1.00  0.00    -0.446 C  
HETATM   23  C   UNL     1     -10.822  14.597  65.315  1.00  0.00    -0.377 C  
ENDBRANCH  17  18
ENDBRANCH  16  17
ENDBRANCH  14  16
ENDBRANCH   6  14
TORSDOF 5
ENDMDL
MODEL       32
REMARK 921   NORMALIZED FREE ENERGY PREDICTED BY IDOCK:   -5.66 KCAL/MOL
REMARK 922        TOTAL FREE ENERGY PREDICTED BY IDOCK:   -8.02 KCAL/MOL
REMARK 923 INTER-LIGAND FREE ENERGY PREDICTED BY IDOCK:   -7.16 KCAL/MOL
REMARK 924 INTRA-LIGAND FREE ENERGY PREDICTED BY IDOCK:   -0.86 KCAL/MOL
REMARK 927      BINDING AFFINITY PREDICTED BY RF-SCORE:    0.00 PKD
ROOT
HETATM    1  C   UNL     1     -11.993  13.803  68.300  1.00  0.00    -0.392 C  
HETATM    2  C   UNL     1     -11.586  14.654  67.133  1.00  0.00    -0.394 A  
HETATM    3  C   UNL     1     -10.960  15.882  67.370  1.00  0.00    -0.257 A  
HETATM    4  C   UNL     1     -10.510  16.661  66.310  1.00  0.00    -0.268 A  
HETATM    5  N   UNL     1     -10.727  16.249  65.045  1.00  0.00    -0.656 NA 
HETATM    6  C   UNL     1     -11.761  14.236  65.816  1.00  0.00    -0.359 A  
HETATM    7  N   UNL     1     -11.342  15.028  64.804  1.00  0.00    -0.412 NA 
ENDROOT
BRANCH   4   8
HETATM    8  C   UNL     1      -9.798  17.931  66.516  1.00  0.00    -0.343 A  
HETATM    9  C   UNL     1      -7.696  19.156  66.822  1.00  0.00    -0.259 A  
HETATM   10  C   UNL     1      -8.387  17.977  66.541  1.00  0.00    -0.293 A  
HETATM   11  C   UNL     1     -10.486  19.140  66.730  1.00  0.00    -0.524 A  
HETATM   12  C   UNL     1      -8.402  20.328  67.066  1.00  0.00    -0.373 A  
HETATM   13  C   UNL     1      -9.794  20.324  67.008  1.00  0.00    -0.607 A  
ENDBRANCH   4   8
BRANCH   6  14
HETATM   14  N   UNL     1     -12.291  12.962  65.579  1.00  0.00    -0.519 NA 
HETATM   15  H   UNL     1     -13.180  12.664  65.979  1.00  0.00     0.000 HD 
BRANCH  14  16
HETATM   16  C   UNL     1     -11.499  12.089  64.726  1.00  0.00    -0.298 C  
BRANCH  16  17
HETATM   17  C   UNL     1     -10.655  11.139  65.609  1.00  0.00    -0.223 C  
BRANCH  17  18
HETATM   18  N   UNL     1      -9.210  11.461  65.682  1.00  0.00    -0.213 NA 
HETATM   19  C   UNL     1      -8.858  12.275  66.869  1.00  0.00    -0.207 C  
HETATM   20  C   UNL     1      -8.980  11.515  68.201  1.00  0.00    -0.172 C  
HETATM   21  O   UNL     1      -8.179  10.327  68.199  1.00  0.00    -0.111 OA 
HETATM   22  C   UNL     1      -8.517   9.474  67.098  1.00  0.00    -0.131 C  
HETATM   23  C   UNL     1      -8.405  10.215  65.752  1.00  0.00    -0.145 C  
ENDBRANCH  17  18
ENDBRANCH  16  17
ENDBRANCH  14  16
ENDBRANCH   6  14
TORSDOF 5
ENDMDL
MODEL       33
REMARK 921   NORMALIZED FREE ENERGY PREDICTED BY IDOCK:   -5.64 KCAL/MOL
REMARK 922        TOTAL FREE ENERGY PREDICTED BY IDOCK:   -7.99 KCAL/MOL
REMARK 923 INTER-LIGAND FREE ENERGY PREDICTED BY IDOCK:   -7.09 KCAL/MOL
REMARK 924 INTRA-LIGAND FREE ENERGY PREDICTED BY IDOCK:   -0.90 KCAL/MOL
REMARK 927      BINDING AFFINITY PREDICTED BY RF-SCORE:    0.00 PKD
ROOT
HETATM    1  C   UNL     1     -10.551  13.379  64.335  1.00  0.00    -0.423 C  
HETATM    2  C   UNL     1     -10.813  14.070  65.641  1.00  0.00    -0.295 A  
HETATM    3  C   UNL     1     -10.450  15.413  65.788  1.00  0.00    -0.371 A  
HETATM    4  C   UNL     1     -10.742  16.099  66.962  1.00  0.00    -0.254 A  
HETATM    5  N   UNL     1     -11.335  15.447  67.981  1.00  0.00    -0.339 NA 
HETATM    6  C   UNL     1     -11.460  13.433  66.698  1.00  0.00    -0.344 A  
HETATM    7  N   UNL     1     -11.704  14.115  67.839  1.00  0.00    -0.347 NA 
ENDROOT
BRANCH   4   8
HETATM    8  C   UNL     1     -10.428  17.525  67.137  1.00  0.00    -0.312 A  
HETATM    9  C   UNL     1      -9.891  19.410  68.608  1.00  0.00    -0.522 A  
HETATM   10  C   UNL     1     -10.106  18.047  68.408  1.00  0.00    -0.392 A  
HETATM   11  C   UNL     1     -10.467  18.429  66.060  1.00  0.00    -0.400 A  
HETATM   12  C   UNL     1      -9.972  20.287  67.534  1.00  0.00    -0.557 A  
HETATM   13  C   UNL     1     -10.247  19.797  66.259  1.00  0.00    -0.615 A  
ENDBRANCH   4   8
BRANCH   6  14
HETATM   14  N   UNL     1     -11.918  12.123  66.515  1.00  0.00    -0.631 NA 
HETATM   15  H   UNL     1     -12.502  11.861  65.721  1.00  0.00     0.000 HD 
BRANCH  14  16
HETATM   16  C   UNL     1     -11.512  11.157  67.525  1.00  0.00    -0.216 C  
BRANCH  16  17
HETATM   17  C   UNL     1     -10.304  10.346  67.001  1.00  0.00    -0.240 C  
BRANCH  17  18
HETATM   18  N   UNL     1      -9.176  10.207  67.952  1.00  0.00    -0.137 NA 
HETATM   19  C   UNL     1      -8.015   9.493  67.371  1.00  0.00    -0.106 C  
HETATM   20  C   UNL     1      -7.282  10.286  66.276  1.00  0.00    -0.117 C  
HETATM   21  O   UNL     1      -6.845  11.562  66.761  1.00  0.00    -0.138 OA 
HETATM   22  C   UNL     1      -7.941  12.321  67.287  1.00  0.00    -0.177 C  
HETATM   23  C   UNL     1      -8.694  11.545  68.383  1.00  0.00    -0.160 C  
ENDBRANCH  17  18
ENDBRANCH  16  17
ENDBRANCH  14  16
ENDBRANCH   6  14
TORSDOF 5
ENDMDL
MODEL       34
REMARK 921   NORMALIZED FREE ENERGY PREDICTED BY IDOCK:   -5.61 KCAL/MOL
REMARK 922        TOTAL FREE ENERGY PREDICTED BY IDOCK:   -7.96 KCAL/MOL
REMARK 923 INTER-LIGAND FREE ENERGY PREDICTED BY IDOCK:   -7.26 KCAL/MOL
REMARK 924 INTRA-LIGAND FREE ENERGY PREDICTED BY IDOCK:   -0.70 KCAL/MOL
REMARK 927      BINDING AFFINITY PREDICTED BY RF-SCORE:    0.00 PKD
ROOT
HETATM    1  C   UNL     1     -10.310  13.175  64.952  1.00  0.00    -0.352 C  
HETATM    2  C   UNL     1     -10.704  14.003  66.141  1.00  0.00    -0.289 A  
HETATM    3  C   UNL     1     -10.352  15.355  66.178  1.00  0.00    -0.325 A  
HETATM    4  C   UNL     1     -10.761  16.163  67.233  1.00  0.00    -0.277 A  
HETATM    5  N   UNL     1     -11.459  15.621  68.250  1.00  0.00    -0.362 NA 
HETATM    6  C   UNL     1     -11.460  13.479  67.187  1.00  0.00    -0.338 A  
HETATM    7  N   UNL     1     -11.818  14.279  68.216  1.00  0.00    -0.337 NA 
ENDROOT
BRANCH   4   8
HETATM    8  C   UNL     1     -10.460  17.601  67.284  1.00  0.00    -0.338 A  
HETATM    9  C   UNL     1      -9.913  19.607  68.584  1.00  0.00    -0.553 A  
HETATM   10  C   UNL     1     -10.116  18.229  68.501  1.00  0.00    -0.419 A  
HETATM   11  C   UNL     1     -10.535  18.414  66.138  1.00  0.00    -0.422 A  
HETATM   12  C   UNL     1     -10.029  20.392  67.444  1.00  0.00    -0.556 A  
HETATM   13  C   UNL     1     -10.327  19.796  66.220  1.00  0.00    -0.626 A  
ENDBRANCH   4   8
BRANCH   6  14
HETATM   14  N   UNL     1     -11.903  12.154  67.101  1.00  0.00    -0.591 NA 
HETATM   15  H   UNL     1     -12.233  11.751  66.225  1.00  0.00     0.000 HD 
BRANCH  14  16
HETATM   16  C   UNL     1     -11.864  11.386  68.337  1.00  0.00    -0.274 C  
BRANCH  16  17
HETATM   17  C   UNL     1     -10.967  10.142  68.138  1.00  0.00    -0.259 C  
BRANCH  17  18
HETATM   18  N   UNL     1      -9.845  10.317  67.185  1.00  0.00    -0.179 NA 
HETATM   19  C   UNL     1      -8.531  10.449  67.857  1.00  0.00    -0.114 C  
HETATM   20  C   UNL     1      -8.046   9.155  68.532  1.00  0.00    -0.103 C  
HETATM   21  O   UNL     1      -7.979   8.072  67.596  1.00  0.00    -0.119 OA 
HETATM   22  C   UNL     1      -9.243   7.863  66.954  1.00  0.00    -0.155 C  
HETATM   23  C   UNL     1      -9.753   9.147  66.273  1.00  0.00    -0.274 C  
ENDBRANCH  17  18
ENDBRANCH  16  17
ENDBRANCH  14  16
ENDBRANCH   6  14
TORSDOF 5
ENDMDL
MODEL       35
REMARK 921   NORMALIZED FREE ENERGY PREDICTED BY IDOCK:   -5.61 KCAL/MOL
REMARK 922        TOTAL FREE ENERGY PREDICTED BY IDOCK:   -7.96 KCAL/MOL
REMARK 923 INTER-LIGAND FREE ENERGY PREDICTED BY IDOCK:   -7.31 KCAL/MOL
REMARK 924 INTRA-LIGAND FREE ENERGY PREDICTED BY IDOCK:   -0.65 KCAL/MOL
REMARK 927      BINDING AFFINITY PREDICTED BY RF-SCORE:    0.00 PKD
ROOT
HETATM    1  C   UNL     1     -11.707  12.516  66.370  1.00  0.00    -0.458 C  
HETATM    2  C   UNL     1     -11.903  12.621  67.854  1.00  0.00    -0.388 A  
HETATM    3  C   UNL     1     -11.898  11.456  68.628  1.00  0.00    -0.377 A  
HETATM    4  C   UNL     1     -12.008  11.527  70.012  1.00  0.00    -0.357 A  
HETATM    5  N   UNL     1     -12.171  12.727  70.604  1.00  0.00    -0.357 NA 
HETATM    6  C   UNL     1     -12.033  13.850  68.497  1.00  0.00    -0.359 A  
HETATM    7  N   UNL     1     -12.170  13.888  69.841  1.00  0.00    -0.336 NA 
ENDROOT
BRANCH   4   8
HETATM    8  C   UNL     1     -11.953  10.332  70.867  1.00  0.00    -0.473 A  
HETATM    9  C   UNL     1     -13.019   8.839  72.493  1.00  0.00    -0.382 A  
HETATM   10  C   UNL     1     -13.079   9.918  71.611  1.00  0.00    -0.538 A  
HETATM   11  C   UNL     1     -10.776   9.574  71.005  1.00  0.00    -0.411 A  
HETATM   12  C   UNL     1     -11.833   8.131  72.639  1.00  0.00    -0.389 A  
HETATM   13  C   UNL     1     -10.716   8.489  71.886  1.00  0.00    -0.394 A  
ENDBRANCH   4   8
BRANCH   6  14
HETATM   14  N   UNL     1     -11.932  15.021  67.738  1.00  0.00    -0.478 NA 
HETATM   15  H   UNL     1     -12.496  15.173  66.902  1.00  0.00     0.000 HD 
BRANCH  14  16
HETATM   16  C   UNL     1     -10.974  16.010  68.211  1.00  0.00    -0.335 C  
BRANCH  16  17
HETATM   17  C   UNL     1      -9.542  15.443  68.073  1.00  0.00    -0.206 C  
BRANCH  17  18
HETATM   18  N   UNL     1      -8.582  15.891  69.110  1.00  0.00    -0.242 NA 
HETATM   19  C   UNL     1      -7.457  14.946  69.303  1.00  0.00    -0.177 C  
HETATM   20  C   UNL     1      -6.484  14.887  68.114  1.00  0.00    -0.133 C  
HETATM   21  O   UNL     1      -5.953  16.183  67.810  1.00  0.00    -0.118 OA 
HETATM   22  C   UNL     1      -7.000  17.128  67.559  1.00  0.00    -0.151 C  
HETATM   23  C   UNL     1      -7.991  17.202  68.736  1.00  0.00    -0.255 C  
ENDBRANCH  17  18
ENDBRANCH  16  17
ENDBRANCH  14  16
ENDBRANCH   6  14
TORSDOF 5
ENDMDL
MODEL       36
REMARK 921   NORMALIZED FREE ENERGY PREDICTED BY IDOCK:   -5.61 KCAL/MOL
REMARK 922        TOTAL FREE ENERGY PREDICTED BY IDOCK:   -7.96 KCAL/MOL
REMARK 923 INTER-LIGAND FREE ENERGY PREDICTED BY IDOCK:   -7.16 KCAL/MOL
REMARK 924 INTRA-LIGAND FREE ENERGY PREDICTED BY IDOCK:   -0.79 KCAL/MOL
REMARK 927      BINDING AFFINITY PREDICTED BY RF-SCORE:    0.00 PKD
ROOT
HETATM    1  C   UNL     1      -9.887  10.036  65.821  1.00  0.00    -0.345 C  
HETATM    2  C   UNL     1     -10.597  10.456  67.075  1.00  0.00    -0.305 A  
HETATM    3  C   UNL     1     -10.438   9.695  68.237  1.00  0.00    -0.259 A  
HETATM    4  C   UNL     1     -11.028  10.097  69.430  1.00  0.00    -0.245 A  
HETATM    5  N   UNL     1     -11.799  11.202  69.450  1.00  0.00    -0.318 NA 
HETATM    6  C   UNL     1     -11.367  11.616  67.134  1.00  0.00    -0.306 A  
HETATM    7  N   UNL     1     -11.954  11.966  68.300  1.00  0.00    -0.493 NA 
ENDROOT
BRANCH   4   8
HETATM    8  C   UNL     1     -10.841   9.356  70.687  1.00  0.00    -0.346 A  
HETATM    9  C   UNL     1      -9.349   8.320  72.333  1.00  0.00    -0.338 A  
HETATM   10  C   UNL     1      -9.549   9.095  71.191  1.00  0.00    -0.347 A  
HETATM   11  C   UNL     1     -11.932   8.850  71.417  1.00  0.00    -0.374 A  
HETATM   12  C   UNL     1     -10.443   7.801  73.015  1.00  0.00    -0.432 A  
HETATM   13  C   UNL     1     -11.733   8.076  72.565  1.00  0.00    -0.446 A  
ENDBRANCH   4   8
BRANCH   6  14
HETATM   14  N   UNL     1     -11.440  12.434  66.002  1.00  0.00    -0.363 NA 
HETATM   15  H   UNL     1     -11.075  12.138  65.097  1.00  0.00     0.000 HD 
BRANCH  14  16
HETATM   16  C   UNL     1     -12.069  13.733  66.191  1.00  0.00    -0.441 C  
BRANCH  16  17
HETATM   17  C   UNL     1     -11.057  14.848  65.840  1.00  0.00    -0.338 C  
BRANCH  17  18
HETATM   18  N   UNL     1     -10.769  15.808  66.933  1.00  0.00    -0.315 NA 
HETATM   19  C   UNL     1     -10.287  15.148  68.169  1.00  0.00    -0.239 C  
HETATM   20  C   UNL     1      -8.881  14.537  68.038  1.00  0.00    -0.175 C  
HETATM   21  O   UNL     1      -7.921  15.520  67.633  1.00  0.00    -0.132 OA 
HETATM   22  C   UNL     1      -8.312  16.154  66.408  1.00  0.00    -0.322 C  
HETATM   23  C   UNL     1      -9.719  16.771  66.514  1.00  0.00    -0.283 C  
ENDBRANCH  17  18
ENDBRANCH  16  17
ENDBRANCH  14  16
ENDBRANCH   6  14
TORSDOF 5
ENDMDL
MODEL       37
REMARK 921   NORMALIZED FREE ENERGY PREDICTED BY IDOCK:   -5.59 KCAL/MOL
REMARK 922        TOTAL FREE ENERGY PREDICTED BY IDOCK:   -7.94 KCAL/MOL
REMARK 923 INTER-LIGAND FREE ENERGY PREDICTED BY IDOCK:   -7.36 KCAL/MOL
REMARK 924 INTRA-LIGAND FREE ENERGY PREDICTED BY IDOCK:   -0.58 KCAL/MOL
REMARK 927      BINDING AFFINITY PREDICTED BY RF-SCORE:    0.00 PKD
ROOT
HETATM    1  C   UNL     1     -10.540   8.761  69.484  1.00  0.00    -0.224 C  
HETATM    2  C   UNL     1     -11.537   9.365  70.429  1.00  0.00    -0.241 A  
HETATM    3  C   UNL     1     -11.664  10.756  70.490  1.00  0.00    -0.449 A  
HETATM    4  C   UNL     1     -12.626  11.341  71.305  1.00  0.00    -0.382 A  
HETATM    5  N   UNL     1     -13.405  10.560  72.079  1.00  0.00    -0.401 NA 
HETATM    6  C   UNL     1     -12.382   8.580  71.210  1.00  0.00    -0.271 A  
HETATM    7  N   UNL     1     -13.287   9.177  72.018  1.00  0.00    -0.411 NA 
ENDROOT
BRANCH   4   8
HETATM    8  C   UNL     1     -12.830  12.797  71.357  1.00  0.00    -0.371 A  
HETATM    9  C   UNL     1     -13.955  14.745  72.333  1.00  0.00    -0.575 A  
HETATM   10  C   UNL     1     -13.680  13.377  72.324  1.00  0.00    -0.705 A  
HETATM   11  C   UNL     1     -12.221  13.664  70.433  1.00  0.00    -0.434 A  
HETATM   12  C   UNL     1     -13.368  15.573  71.385  1.00  0.00    -0.592 A  
HETATM   13  C   UNL     1     -12.492  15.037  70.444  1.00  0.00    -0.407 A  
ENDBRANCH   4   8
BRANCH   6  14
HETATM   14  N   UNL     1     -12.329   7.189  71.073  1.00  0.00    -0.465 NA 
HETATM   15  H   UNL     1     -12.621   6.719  70.216  1.00  0.00     0.000 HD 
BRANCH  14  16
HETATM   16  C   UNL     1     -11.832   6.451  72.225  1.00  0.00    -0.271 C  
BRANCH  16  17
HETATM   17  C   UNL     1     -10.692   5.507  71.776  1.00  0.00    -0.226 C  
BRANCH  17  18
HETATM   18  N   UNL     1      -9.872   4.940  72.873  1.00  0.00    -0.148 NA 
HETATM   19  C   UNL     1     -10.688   4.330  73.948  1.00  0.00    -0.264 C  
HETATM   20  C   UNL     1     -11.409   3.039  73.524  1.00  0.00    -0.146 C  
HETATM   21  O   UNL     1     -10.483   2.062  73.034  1.00  0.00    -0.121 OA 
HETATM   22  C   UNL     1      -9.702   2.583  71.951  1.00  0.00    -0.150 C  
HETATM   23  C   UNL     1      -8.973   3.879  72.351  1.00  0.00    -0.109 C  
ENDBRANCH  17  18
ENDBRANCH  16  17
ENDBRANCH  14  16
ENDBRANCH   6  14
TORSDOF 5
ENDMDL
MODEL       38
REMARK 921   NORMALIZED FREE ENERGY PREDICTED BY IDOCK:   -5.59 KCAL/MOL
REMARK 922        TOTAL FREE ENERGY PREDICTED BY IDOCK:   -7.94 KCAL/MOL
REMARK 923 INTER-LIGAND FREE ENERGY PREDICTED BY IDOCK:   -7.07 KCAL/MOL
REMARK 924 INTRA-LIGAND FREE ENERGY PREDICTED BY IDOCK:   -0.87 KCAL/MOL
REMARK 927      BINDING AFFINITY PREDICTED BY RF-SCORE:    0.00 PKD
ROOT
HETATM    1  C   UNL     1     -10.061  11.839  63.280  1.00  0.00    -0.448 C  
HETATM    2  C   UNL     1     -10.748  11.816  64.614  1.00  0.00    -0.363 A  
HETATM    3  C   UNL     1     -10.346  10.882  65.574  1.00  0.00    -0.316 A  
HETATM    4  C   UNL     1     -10.917  10.882  66.842  1.00  0.00    -0.223 A  
HETATM    5  N   UNL     1     -11.901  11.757  67.126  1.00  0.00    -0.620 NA 
HETATM    6  C   UNL     1     -11.740  12.735  64.949  1.00  0.00    -0.352 A  
HETATM    7  N   UNL     1     -12.300  12.692  66.179  1.00  0.00    -0.535 NA 
ENDROOT
BRANCH   4   8
HETATM    8  C   UNL     1     -10.484   9.954  67.897  1.00  0.00    -0.282 A  
HETATM    9  C   UNL     1      -9.989   9.513  70.258  1.00  0.00    -0.310 A  
HETATM   10  C   UNL     1     -10.478  10.348  69.253  1.00  0.00    -0.257 A  
HETATM   11  C   UNL     1     -10.028   8.657  67.602  1.00  0.00    -0.248 A  
HETATM   12  C   UNL     1      -9.510   8.250  69.933  1.00  0.00    -0.167 A  
HETATM   13  C   UNL     1      -9.542   7.817  68.610  1.00  0.00    -0.154 A  
ENDBRANCH   4   8
BRANCH   6  14
HETATM   14  N   UNL     1     -12.070  13.736  64.029  1.00  0.00    -0.640 NA 
HETATM   15  H   UNL     1     -12.270  13.526  63.051  1.00  0.00     0.000 HD 
BRANCH  14  16
HETATM   16  C   UNL     1     -12.112  15.095  64.549  1.00  0.00    -0.301 C  
BRANCH  16  17
HETATM   17  C   UNL     1     -10.672  15.575  64.844  1.00  0.00    -0.392 C  
BRANCH  17  18
HETATM   18  N   UNL     1     -10.509  16.353  66.096  1.00  0.00    -0.328 NA 
HETATM   19  C   UNL     1     -10.778  15.552  67.313  1.00  0.00    -0.308 C  
HETATM   20  C   UNL     1      -9.722  14.468  67.589  1.00  0.00    -0.215 C  
HETATM   21  O   UNL     1      -8.409  15.034  67.688  1.00  0.00    -0.146 OA 
HETATM   22  C   UNL     1      -8.074  15.776  66.508  1.00  0.00    -0.196 C  
HETATM   23  C   UNL     1      -9.120  16.866  66.209  1.00  0.00    -0.267 C  
ENDBRANCH  17  18
ENDBRANCH  16  17
ENDBRANCH  14  16
ENDBRANCH   6  14
TORSDOF 5
ENDMDL
MODEL       39
REMARK 921   NORMALIZED FREE ENERGY PREDICTED BY IDOCK:   -5.59 KCAL/MOL
REMARK 922        TOTAL FREE ENERGY PREDICTED BY IDOCK:   -7.94 KCAL/MOL
REMARK 923 INTER-LIGAND FREE ENERGY PREDICTED BY IDOCK:   -7.20 KCAL/MOL
REMARK 924 INTRA-LIGAND FREE ENERGY PREDICTED BY IDOCK:   -0.74 KCAL/MOL
REMARK 927      BINDING AFFINITY PREDICTED BY RF-SCORE:    0.00 PKD
ROOT
HETATM    1  C   UNL     1     -12.343  12.624  70.930  1.00  0.00    -0.352 C  
HETATM    2  C   UNL     1     -11.905  11.700  69.831  1.00  0.00    -0.434 A  
HETATM    3  C   UNL     1     -11.887  12.166  68.513  1.00  0.00    -0.365 A  
HETATM    4  C   UNL     1     -11.422  11.356  67.484  1.00  0.00    -0.260 A  
HETATM    5  N   UNL     1     -11.033  10.095  67.756  1.00  0.00    -0.294 NA 
HETATM    6  C   UNL     1     -11.460  10.405  70.088  1.00  0.00    -0.319 A  
HETATM    7  N   UNL     1     -11.042   9.628  69.064  1.00  0.00    -0.130 NA 
ENDROOT
BRANCH   4   8
HETATM    8  C   UNL     1     -11.335  11.826  66.093  1.00  0.00    -0.342 A  
HETATM    9  C   UNL     1     -12.170  13.254  64.283  1.00  0.00    -0.454 A  
HETATM   10  C   UNL     1     -12.178  12.855  65.620  1.00  0.00    -0.519 A  
HETATM   11  C   UNL     1     -10.439  11.253  65.172  1.00  0.00    -0.351 A  
HETATM   12  C   UNL     1     -11.301  12.645  63.386  1.00  0.00    -0.456 A  
HETATM   13  C   UNL     1     -10.428  11.655  63.832  1.00  0.00    -0.433 A  
ENDBRANCH   4   8
BRANCH   6  14
HETATM   14  N   UNL     1     -11.377   9.973  71.417  1.00  0.00    -0.284 NA 
HETATM   15  H   UNL     1     -10.631  10.280  72.039  1.00  0.00     0.000 HD 
BRANCH  14  16
HETATM   16  C   UNL     1     -12.420   9.058  71.858  1.00  0.00    -0.384 C  
BRANCH  16  17
HETATM   17  C   UNL     1     -11.776   7.879  72.624  1.00  0.00    -0.341 C  
BRANCH  17  18
HETATM   18  N   UNL     1     -12.047   6.535  72.059  1.00  0.00    -0.331 NA 
HETATM   19  C   UNL     1     -11.632   6.409  70.642  1.00  0.00    -0.347 C  
HETATM   20  C   UNL     1     -10.107   6.430  70.438  1.00  0.00    -0.185 C  
HETATM   21  O   UNL     1      -9.465   5.402  71.202  1.00  0.00    -0.150 OA 
HETATM   22  C   UNL     1      -9.789   5.510  72.594  1.00  0.00    -0.162 C  
HETATM   23  C   UNL     1     -11.312   5.494  72.824  1.00  0.00    -0.303 C  
ENDBRANCH  17  18
ENDBRANCH  16  17
ENDBRANCH  14  16
ENDBRANCH   6  14
TORSDOF 5
ENDMDL
MODEL       40
REMARK 921   NORMALIZED FREE ENERGY PREDICTED BY IDOCK:   -5.59 KCAL/MOL
REMARK 922        TOTAL FREE ENERGY PREDICTED BY IDOCK:   -7.93 KCAL/MOL
REMARK 923 INTER-LIGAND FREE ENERGY PREDICTED BY IDOCK:   -7.42 KCAL/MOL
REMARK 924 INTRA-LIGAND FREE ENERGY PREDICTED BY IDOCK:   -0.51 KCAL/MOL
REMARK 927      BINDING AFFINITY PREDICTED BY RF-SCORE:    0.00 PKD
ROOT
HETATM    1  C   UNL     1     -10.463  10.375  67.328  1.00  0.00    -0.304 C  
HETATM    2  C   UNL     1     -11.042  10.389  68.713  1.00  0.00    -0.298 A  
HETATM    3  C   UNL     1     -10.892   9.263  69.527  1.00  0.00    -0.211 A  
HETATM    4  C   UNL     1     -11.357   9.271  70.837  1.00  0.00    -0.308 A  
HETATM    5  N   UNL     1     -12.003  10.357  71.304  1.00  0.00    -0.354 NA 
HETATM    6  C   UNL     1     -11.679  11.513  69.236  1.00  0.00    -0.330 A  
HETATM    7  N   UNL     1     -12.150  11.482  70.502  1.00  0.00    -0.375 NA 
ENDROOT
BRANCH   4   8
HETATM    8  C   UNL     1     -11.171   8.129  71.744  1.00  0.00    -0.329 A  
HETATM    9  C   UNL     1     -10.038   7.113  73.667  1.00  0.00    -0.389 A  
HETATM   10  C   UNL     1     -10.294   8.213  72.847  1.00  0.00    -0.333 A  
HETATM   11  C   UNL     1     -11.825   6.901  71.534  1.00  0.00    -0.366 A  
HETATM   12  C   UNL     1     -10.670   5.902  73.414  1.00  0.00    -0.293 A  
HETATM   13  C   UNL     1     -11.572   5.799  72.357  1.00  0.00    -0.320 A  
ENDBRANCH   4   8
BRANCH   6  14
HETATM   14  N   UNL     1     -11.737  12.676  68.460  1.00  0.00    -0.314 NA 
HETATM   15  H   UNL     1     -12.439  12.805  67.732  1.00  0.00     0.000 HD 
BRANCH  14  16
HETATM   16  C   UNL     1     -10.738  13.692  68.755  1.00  0.00    -0.244 C  
BRANCH  16  17
HETATM   17  C   UNL     1     -10.856  14.841  67.727  1.00  0.00    -0.278 C  
BRANCH  17  18
HETATM   18  N   UNL     1      -9.907  14.771  66.589  1.00  0.00    -0.250 NA 
HETATM   19  C   UNL     1     -10.528  14.245  65.351  1.00  0.00    -0.365 C  
HETATM   20  C   UNL     1     -11.557  15.197  64.719  1.00  0.00    -0.364 C  
HETATM   21  O   UNL     1     -10.979  16.478  64.440  1.00  0.00    -0.872 OA 
HETATM   22  C   UNL     1     -10.410  17.060  65.619  1.00  0.00    -0.209 C  
HETATM   23  C   UNL     1      -9.378  16.122  66.273  1.00  0.00    -0.317 C  
ENDBRANCH  17  18
ENDBRANCH  16  17
ENDBRANCH  14  16
ENDBRANCH   6  14
TORSDOF 5
ENDMDL
MODEL       41
REMARK 921   NORMALIZED FREE ENERGY PREDICTED BY IDOCK:   -5.58 KCAL/MOL
REMARK 922        TOTAL FREE ENERGY PREDICTED BY IDOCK:   -7.91 KCAL/MOL
REMARK 923 INTER-LIGAND FREE ENERGY PREDICTED BY IDOCK:   -7.29 KCAL/MOL
REMARK 924 INTRA-LIGAND FREE ENERGY PREDICTED BY IDOCK:   -0.63 KCAL/MOL
REMARK 927      BINDING AFFINITY PREDICTED BY RF-SCORE:    0.00 PKD
ROOT
HETATM    1  C   UNL     1      -9.008   8.916  65.636  1.00  0.00    -0.249 C  
HETATM    2  C   UNL     1      -9.958   9.887  66.274  1.00  0.00    -0.322 A  
HETATM    3  C   UNL     1     -10.069  11.178  65.750  1.00  0.00    -0.299 A  
HETATM    4  C   UNL     1     -10.989  12.077  66.277  1.00  0.00    -0.299 A  
HETATM    5  N   UNL     1     -11.742  11.713  67.333  1.00  0.00    -0.606 NA 
HETATM    6  C   UNL     1     -10.778   9.525  67.341  1.00  0.00    -0.227 A  
HETATM    7  N   UNL     1     -11.642  10.429  67.853  1.00  0.00    -0.346 NA 
ENDROOT
BRANCH   4   8
HETATM    8  C   UNL     1     -11.176  13.426  65.720  1.00  0.00    -0.305 A  
HETATM    9  C   UNL     1     -12.361  14.947  64.206  1.00  0.00    -0.300 A  
HETATM   10  C   UNL     1     -12.221  13.697  64.811  1.00  0.00    -0.440 A  
HETATM   11  C   UNL     1     -10.309  14.486  66.041  1.00  0.00    -0.320 A  
HETATM   12  C   UNL     1     -11.468  15.966  64.512  1.00  0.00    -0.287 A  
HETATM   13  C   UNL     1     -10.452  15.741  65.438  1.00  0.00    -0.438 A  
ENDBRANCH   4   8
BRANCH   6  14
HETATM   14  N   UNL     1     -10.744   8.203  67.798  1.00  0.00    -0.465 NA 
HETATM   15  H   UNL     1     -11.077   7.426  67.228  1.00  0.00     0.000 HD 
BRANCH  14  16
HETATM   16  C   UNL     1     -10.205   8.002  69.135  1.00  0.00    -0.217 C  
BRANCH  16  17
HETATM   17  C   UNL     1     -11.260   7.287  70.010  1.00  0.00    -0.209 C  
BRANCH  17  18
HETATM   18  N   UNL     1     -11.208   7.612  71.456  1.00  0.00    -0.243 NA 
HETATM   19  C   UNL     1     -11.005   9.056  71.716  1.00  0.00    -0.372 C  
HETATM   20  C   UNL     1     -12.213   9.931  71.339  1.00  0.00    -0.408 C  
HETATM   21  O   UNL     1     -13.400   9.500  72.016  1.00  0.00    -0.396 OA 
HETATM   22  C   UNL     1     -13.676   8.119  71.753  1.00  0.00    -0.374 C  
HETATM   23  C   UNL     1     -12.479   7.222  72.120  1.00  0.00    -0.168 C  
ENDBRANCH  17  18
ENDBRANCH  16  17
ENDBRANCH  14  16
ENDBRANCH   6  14
TORSDOF 5
ENDMDL
MODEL       42
REMARK 921   NORMALIZED FREE ENERGY PREDICTED BY IDOCK:   -5.54 KCAL/MOL
REMARK 922        TOTAL FREE ENERGY PREDICTED BY IDOCK:   -7.86 KCAL/MOL
REMARK 923 INTER-LIGAND FREE ENERGY PREDICTED BY IDOCK:   -7.13 KCAL/MOL
REMARK 924 INTRA-LIGAND FREE ENERGY PREDICTED BY IDOCK:   -0.73 KCAL/MOL
REMARK 927      BINDING AFFINITY PREDICTED BY RF-SCORE:    0.00 PKD
ROOT
HETATM    1  C   UNL     1     -14.227   8.735  72.529  1.00  0.00    -0.394 C  
HETATM    2  C   UNL     1     -12.945   9.153  71.871  1.00  0.00    -0.473 A  
HETATM    3  C   UNL     1     -12.959  10.211  70.957  1.00  0.00    -0.473 A  
HETATM    4  C   UNL     1     -11.776  10.664  70.384  1.00  0.00    -0.353 A  
HETATM    5  N   UNL     1     -10.617  10.044  70.676  1.00  0.00    -0.267 NA 
HETATM    6  C   UNL     1     -11.725   8.556  72.185  1.00  0.00    -0.378 A  
HETATM    7  N   UNL     1     -10.595   8.996  71.589  1.00  0.00    -0.343 NA 
ENDROOT
BRANCH   4   8
HETATM    8  C   UNL     1     -11.740  11.809  69.461  1.00  0.00    -0.408 A  
HETATM    9  C   UNL     1     -12.013  14.211  69.053  1.00  0.00    -0.376 A  
HETATM   10  C   UNL     1     -11.957  13.124  69.926  1.00  0.00    -0.387 A  
HETATM   11  C   UNL     1     -11.524  11.641  68.081  1.00  0.00    -0.382 A  
HETATM   12  C   UNL     1     -11.833  14.011  67.690  1.00  0.00    -0.430 A  
HETATM   13  C   UNL     1     -11.575  12.731  67.205  1.00  0.00    -0.420 A  
ENDBRANCH   4   8
BRANCH   6  14
HETATM   14  N   UNL     1     -11.693   7.569  73.176  1.00  0.00    -0.596 NA 
HETATM   15  H   UNL     1     -12.538   7.094  73.493  1.00  0.00     0.000 HD 
BRANCH  14  16
HETATM   16  C   UNL     1     -10.383   7.260  73.730  1.00  0.00    -0.313 C  
BRANCH  16  17
HETATM   17  C   UNL     1     -10.141   5.735  73.653  1.00  0.00    -0.204 C  
BRANCH  17  18
HETATM   18  N   UNL     1      -8.918   5.325  72.922  1.00  0.00    -0.121 NA 
HETATM   19  C   UNL     1      -8.762   3.854  72.838  1.00  0.00    -0.098 C  
HETATM   20  C   UNL     1      -9.799   3.170  71.931  1.00  0.00    -0.168 C  
HETATM   21  O   UNL     1      -9.773   3.715  70.606  1.00  0.00    -0.180 OA 
HETATM   22  C   UNL     1      -9.976   5.134  70.624  1.00  0.00    -0.226 C  
HETATM   23  C   UNL     1      -8.950   5.841  71.529  1.00  0.00    -0.140 C  
ENDBRANCH  17  18
ENDBRANCH  16  17
ENDBRANCH  14  16
ENDBRANCH   6  14
TORSDOF 5
ENDMDL
MODEL       43
REMARK 921   NORMALIZED FREE ENERGY PREDICTED BY IDOCK:   -5.51 KCAL/MOL
REMARK 922        TOTAL FREE ENERGY PREDICTED BY IDOCK:   -7.83 KCAL/MOL
REMARK 923 INTER-LIGAND FREE ENERGY PREDICTED BY IDOCK:   -7.25 KCAL/MOL
REMARK 924 INTRA-LIGAND FREE ENERGY PREDICTED BY IDOCK:   -0.58 KCAL/MOL
REMARK 927      BINDING AFFINITY PREDICTED BY RF-SCORE:    0.00 PKD
ROOT
HETATM    1  C   UNL     1      -8.815   9.132  69.118  1.00  0.00    -0.146 C  
HETATM    2  C   UNL     1      -9.963  10.068  68.873  1.00  0.00    -0.198 A  
HETATM    3  C   UNL     1     -10.118  10.642  67.608  1.00  0.00    -0.208 A  
HETATM    4  C   UNL     1     -11.209  11.459  67.333  1.00  0.00    -0.305 A  
HETATM    5  N   UNL     1     -12.094  11.736  68.310  1.00  0.00    -0.506 NA 
HETATM    6  C   UNL     1     -10.915  10.340  69.853  1.00  0.00    -0.303 A  
HETATM    7  N   UNL     1     -11.949  11.162  69.567  1.00  0.00    -0.337 NA 
ENDROOT
BRANCH   4   8
HETATM    8  C   UNL     1     -11.439  12.038  66.001  1.00  0.00    -0.399 A  
HETATM    9  C   UNL     1     -12.392  13.807  64.596  1.00  0.00    -0.410 A  
HETATM   10  C   UNL     1     -12.087  13.283  65.853  1.00  0.00    -0.493 A  
HETATM   11  C   UNL     1     -11.059  11.366  64.825  1.00  0.00    -0.258 A  
HETATM   12  C   UNL     1     -12.038  13.105  63.451  1.00  0.00    -0.558 A  
HETATM   13  C   UNL     1     -11.360  11.892  63.564  1.00  0.00    -0.516 A  
ENDBRANCH   4   8
BRANCH   6  14
HETATM   14  N   UNL     1     -10.820   9.684  71.086  1.00  0.00    -0.353 NA 
HETATM   15  H   UNL     1      -9.923   9.511  71.538  1.00  0.00     0.000 HD 
BRANCH  14  16
HETATM   16  C   UNL     1     -12.078   9.264  71.685  1.00  0.00    -0.379 C  
BRANCH  16  17
HETATM   17  C   UNL     1     -11.847   7.977  72.511  1.00  0.00    -0.361 C  
BRANCH  17  18
HETATM   18  N   UNL     1     -10.611   7.227  72.182  1.00  0.00    -0.206 NA 
HETATM   19  C   UNL     1      -9.636   7.204  73.296  1.00  0.00    -0.195 C  
HETATM   20  C   UNL     1     -10.089   6.361  74.501  1.00  0.00    -0.339 C  
HETATM   21  O   UNL     1     -10.381   5.013  74.113  1.00  0.00    -0.221 OA 
HETATM   22  C   UNL     1     -11.365   4.974  73.071  1.00  0.00    -0.298 C  
HETATM   23  C   UNL     1     -10.935   5.815  71.854  1.00  0.00    -0.259 C  
ENDBRANCH  17  18
ENDBRANCH  16  17
ENDBRANCH  14  16
ENDBRANCH   6  14
TORSDOF 5
ENDMDL
MODEL       44
REMARK 921   NORMALIZED FREE ENERGY PREDICTED BY IDOCK:   -5.49 KCAL/MOL
REMARK 922        TOTAL FREE ENERGY PREDICTED BY IDOCK:   -7.80 KCAL/MOL
REMARK 923 INTER-LIGAND FREE ENERGY PREDICTED BY IDOCK:   -6.77 KCAL/MOL
REMARK 924 INTRA-LIGAND FREE ENERGY PREDICTED BY IDOCK:   -1.03 KCAL/MOL
REMARK 927      BINDING AFFINITY PREDICTED BY RF-SCORE:    0.00 PKD
ROOT
HETATM    1  C   UNL     1     -10.829  15.847  69.855  1.00  0.00    -0.333 C  
HETATM    2  C   UNL     1     -10.103  15.199  68.712  1.00  0.00    -0.226 A  
HETATM    3  C   UNL     1     -10.837  14.535  67.725  1.00  0.00    -0.267 A  
HETATM    4  C   UNL     1     -10.199  13.985  66.620  1.00  0.00    -0.275 A  
HETATM    5  N   UNL     1      -8.856  14.050  66.529  1.00  0.00    -0.099 NA 
HETATM    6  C   UNL     1      -8.719  15.286  68.572  1.00  0.00    -0.176 A  
HETATM    7  N   UNL     1      -8.121  14.715  67.503  1.00  0.00    -0.170 NA 
ENDROOT
BRANCH   4   8
HETATM    8  C   UNL     1     -10.939  13.327  65.533  1.00  0.00    -0.297 A  
HETATM    9  C   UNL     1     -10.950  12.222  63.344  1.00  0.00    -0.467 A  
HETATM   10  C   UNL     1     -10.261  12.771  64.426  1.00  0.00    -0.344 A  
HETATM   11  C   UNL     1     -12.343  13.253  65.531  1.00  0.00    -0.533 A  
HETATM   12  C   UNL     1     -12.339  12.195  63.352  1.00  0.00    -0.648 A  
HETATM   13  C   UNL     1     -13.035  12.698  64.449  1.00  0.00    -0.232 A  
ENDBRANCH   4   8
BRANCH   6  14
HETATM   14  N   UNL     1      -7.994  16.040  69.501  1.00  0.00    -0.143 NA 
HETATM   15  H   UNL     1      -8.029  15.843  70.501  1.00  0.00     0.000 HD 
BRANCH  14  16
HETATM   16  C   UNL     1      -7.184  17.120  68.957  1.00  0.00    -0.229 C  
BRANCH  16  17
HETATM   17  C   UNL     1      -8.095  18.324  68.624  1.00  0.00    -0.286 C  
BRANCH  17  18
HETATM   18  N   UNL     1      -7.968  18.851  67.244  1.00  0.00    -0.245 NA 
HETATM   19  C   UNL     1      -8.719  18.050  66.249  1.00  0.00    -0.168 C  
HETATM   20  C   UNL     1     -10.247  18.163  66.387  1.00  0.00    -0.399 C  
HETATM   21  O   UNL     1     -10.679  19.527  66.305  1.00  0.00    -0.453 OA 
HETATM   22  C   UNL     1     -10.023  20.339  67.286  1.00  0.00    -0.440 C  
HETATM   23  C   UNL     1      -8.490  20.240  67.170  1.00  0.00    -0.339 C  
ENDBRANCH  17  18
ENDBRANCH  16  17
ENDBRANCH  14  16
ENDBRANCH   6  14
TORSDOF 5
ENDMDL
MODEL       45
REMARK 921   NORMALIZED FREE ENERGY PREDICTED BY IDOCK:   -5.45 KCAL/MOL
REMARK 922        TOTAL FREE ENERGY PREDICTED BY IDOCK:   -7.76 KCAL/MOL
REMARK 923 INTER-LIGAND FREE ENERGY PREDICTED BY IDOCK:   -7.17 KCAL/MOL
REMARK 924 INTRA-LIGAND FREE ENERGY PREDICTED BY IDOCK:   -0.59 KCAL/MOL
REMARK 927      BINDING AFFINITY PREDICTED BY RF-SCORE:    0.00 PKD
ROOT
HETATM    1  C   UNL     1     -12.343  13.689  65.552  1.00  0.00    -0.519 C  
HETATM    2  C   UNL     1     -11.909  13.086  66.856  1.00  0.00    -0.442 A  
HETATM    3  C   UNL     1     -11.450  11.765  66.879  1.00  0.00    -0.364 A  
HETATM    4  C   UNL     1     -10.978  11.202  68.058  1.00  0.00    -0.252 A  
HETATM    5  N   UNL     1     -11.011  11.921  69.197  1.00  0.00    -0.224 NA 
HETATM    6  C   UNL     1     -11.895  13.819  68.041  1.00  0.00    -0.373 A  
HETATM    7  N   UNL     1     -11.459  13.236  69.180  1.00  0.00    -0.288 NA 
ENDROOT
BRANCH   4   8
HETATM    8  C   UNL     1     -10.435   9.836  68.114  1.00  0.00    -0.258 A  
HETATM    9  C   UNL     1      -9.250   8.075  69.342  1.00  0.00    -0.152 A  
HETATM   10  C   UNL     1      -9.848   9.335  69.296  1.00  0.00    -0.172 A  
HETATM   11  C   UNL     1     -10.447   8.988  66.991  1.00  0.00    -0.316 A  
HETATM   12  C   UNL     1      -9.244   7.273  68.207  1.00  0.00    -0.133 A  
HETATM   13  C   UNL     1      -9.852   7.722  67.038  1.00  0.00    -0.286 A  
ENDBRANCH   4   8
BRANCH   6  14
HETATM   14  N   UNL     1     -12.253  15.171  68.000  1.00  0.00    -0.448 NA 
HETATM   15  H   UNL     1     -13.039  15.505  67.443  1.00  0.00     0.000 HD 
BRANCH  14  16
HETATM   16  C   UNL     1     -11.439  16.073  68.801  1.00  0.00    -0.375 C  
BRANCH  16  17
HETATM   17  C   UNL     1     -10.467  16.842  67.877  1.00  0.00    -0.344 C  
BRANCH  17  18
HETATM   18  N   UNL     1     -10.169  18.234  68.291  1.00  0.00    -0.376 NA 
HETATM   19  C   UNL     1      -8.730  18.574  68.186  1.00  0.00    -0.310 C  
HETATM   20  C   UNL     1      -8.217  18.661  66.739  1.00  0.00    -0.267 C  
HETATM   21  O   UNL     1      -8.974  19.608  65.974  1.00  0.00    -0.359 OA 
HETATM   22  C   UNL     1     -10.372  19.295  65.996  1.00  0.00    -0.475 C  
HETATM   23  C   UNL     1     -10.909  19.198  67.436  1.00  0.00    -0.435 C  
ENDBRANCH  17  18
ENDBRANCH  16  17
ENDBRANCH  14  16
ENDBRANCH   6  14
TORSDOF 5
ENDMDL
MODEL       46
REMARK 921   NORMALIZED FREE ENERGY PREDICTED BY IDOCK:   -5.45 KCAL/MOL
REMARK 922        TOTAL FREE ENERGY PREDICTED BY IDOCK:   -7.75 KCAL/MOL
REMARK 923 INTER-LIGAND FREE ENERGY PREDICTED BY IDOCK:   -7.43 KCAL/MOL
REMARK 924 INTRA-LIGAND FREE ENERGY PREDICTED BY IDOCK:   -0.32 KCAL/MOL
REMARK 927      BINDING AFFINITY PREDICTED BY RF-SCORE:    0.00 PKD
ROOT
HETATM    1  C   UNL     1     -11.899  12.502  69.574  1.00  0.00    -0.375 C  
HETATM    2  C   UNL     1     -11.452  12.956  68.215  1.00  0.00    -0.348 A  
HETATM    3  C   UNL     1     -10.944  12.015  67.313  1.00  0.00    -0.313 A  
HETATM    4  C   UNL     1     -10.586  12.394  66.025  1.00  0.00    -0.256 A  
HETATM    5  N   UNL     1     -10.684  13.688  65.662  1.00  0.00    -0.278 NA 
HETATM    6  C   UNL     1     -11.580  14.279  67.799  1.00  0.00    -0.354 A  
HETATM    7  N   UNL     1     -11.195  14.626  66.550  1.00  0.00    -0.341 NA 
ENDROOT
BRANCH   4   8
HETATM    8  C   UNL     1     -10.099  11.427  65.029  1.00  0.00    -0.323 A  
HETATM    9  C   UNL     1      -9.079   9.261  64.502  1.00  0.00    -0.145 A  
HETATM   10  C   UNL     1      -9.625  10.157  65.422  1.00  0.00    -0.325 A  
HETATM   11  C   UNL     1     -10.054  11.736  63.657  1.00  0.00    -0.445 A  
HETATM   12  C   UNL     1      -9.012   9.607  63.158  1.00  0.00    -0.253 A  
HETATM   13  C   UNL     1      -9.510  10.837  62.733  1.00  0.00    -0.358 A  
ENDBRANCH   4   8
BRANCH   6  14
HETATM   14  N   UNL     1     -12.186  15.201  68.661  1.00  0.00    -0.597 NA 
HETATM   15  H   UNL     1     -13.184  15.173  68.866  1.00  0.00     0.000 HD 
BRANCH  14  16
HETATM   16  C   UNL     1     -11.306  16.202  69.247  1.00  0.00    -0.328 C  
BRANCH  16  17
HETATM   17  C   UNL     1     -10.989  17.286  68.192  1.00  0.00    -0.193 C  
BRANCH  17  18
HETATM   18  N   UNL     1      -9.989  18.299  68.607  1.00  0.00    -0.379 NA 
HETATM   19  C   UNL     1      -8.622  17.993  68.126  1.00  0.00    -0.273 C  
HETATM   20  C   UNL     1      -8.454  18.131  66.603  1.00  0.00    -0.264 C  
HETATM   21  O   UNL     1      -8.820  19.442  66.155  1.00  0.00    -0.353 OA 
HETATM   22  C   UNL     1     -10.159  19.770  66.547  1.00  0.00    -0.476 C  
HETATM   23  C   UNL     1     -10.352  19.636  68.069  1.00  0.00    -0.453 C  
ENDBRANCH  17  18
ENDBRANCH  16  17
ENDBRANCH  14  16
ENDBRANCH   6  14
TORSDOF 5
ENDMDL
MODEL       47
REMARK 921   NORMALIZED FREE ENERGY PREDICTED BY IDOCK:   -5.43 KCAL/MOL
REMARK 922        TOTAL FREE ENERGY PREDICTED BY IDOCK:   -7.72 KCAL/MOL
REMARK 923 INTER-LIGAND FREE ENERGY PREDICTED BY IDOCK:   -7.07 KCAL/MOL
REMARK 924 INTRA-LIGAND FREE ENERGY PREDICTED BY IDOCK:   -0.65 KCAL/MOL
REMARK 927      BINDING AFFINITY PREDICTED BY RF-SCORE:    0.00 PKD
ROOT
HETATM    1  C   UNL     1     -11.996  13.568  68.271  1.00  0.00    -0.377 C  
HETATM    2  C   UNL     1     -11.533  14.446  67.145  1.00  0.00    -0.379 A  
HETATM    3  C   UNL     1     -11.027  15.717  67.433  1.00  0.00    -0.279 A  
HETATM    4  C   UNL     1     -10.528  16.525  66.418  1.00  0.00    -0.274 A  
HETATM    5  N   UNL     1     -10.581  16.096  65.142  1.00  0.00    -0.609 NA 
HETATM    6  C   UNL     1     -11.539  14.012  65.821  1.00  0.00    -0.339 A  
HETATM    7  N   UNL     1     -11.076  14.831  64.850  1.00  0.00    -0.396 NA 
ENDROOT
BRANCH   4   8
HETATM    8  C   UNL     1      -9.937  17.845  66.685  1.00  0.00    -0.355 A  
HETATM    9  C   UNL     1     -10.211  20.206  67.288  1.00  0.00    -0.540 A  
HETATM   10  C   UNL     1     -10.738  18.926  67.115  1.00  0.00    -0.506 A  
HETATM   11  C   UNL     1      -8.567  18.096  66.491  1.00  0.00    -0.282 A  
HETATM   12  C   UNL     1      -8.860  20.434  67.054  1.00  0.00    -0.400 A  
HETATM   13  C   UNL     1      -8.036  19.378  66.669  1.00  0.00    -0.310 A  
ENDBRANCH   4   8
BRANCH   6  14
HETATM   14  N   UNL     1     -11.946  12.703  65.543  1.00  0.00    -0.437 NA 
HETATM   15  H   UNL     1     -12.888  12.374  65.751  1.00  0.00     0.000 HD 
BRANCH  14  16
HETATM   16  C   UNL     1     -10.944  11.837  64.938  1.00  0.00    -0.300 C  
BRANCH  16  17
HETATM   17  C   UNL     1     -10.041  11.247  66.046  1.00  0.00    -0.239 C  
BRANCH  17  18
HETATM   18  N   UNL     1     -10.707  10.289  66.961  1.00  0.00    -0.242 NA 
HETATM   19  C   UNL     1     -10.381   8.876  66.656  1.00  0.00    -0.223 C  
HETATM   20  C   UNL     1      -8.923   8.495  66.962  1.00  0.00    -0.137 C  
HETATM   21  O   UNL     1      -8.591   8.761  68.331  1.00  0.00    -0.132 OA 
HETATM   22  C   UNL     1      -8.835  10.133  68.667  1.00  0.00    -0.136 C  
HETATM   23  C   UNL     1     -10.290  10.540  68.365  1.00  0.00    -0.176 C  
ENDBRANCH  17  18
ENDBRANCH  16  17
ENDBRANCH  14  16
ENDBRANCH   6  14
TORSDOF 5
ENDMDL
MODEL       48
REMARK 921   NORMALIZED FREE ENERGY PREDICTED BY IDOCK:   -5.41 KCAL/MOL
REMARK 922        TOTAL FREE ENERGY PREDICTED BY IDOCK:   -7.71 KCAL/MOL
REMARK 923 INTER-LIGAND FREE ENERGY PREDICTED BY IDOCK:   -7.16 KCAL/MOL
REMARK 924 INTRA-LIGAND FREE ENERGY PREDICTED BY IDOCK:   -0.54 KCAL/MOL
REMARK 927      BINDING AFFINITY PREDICTED BY RF-SCORE:    0.00 PKD
ROOT
HETATM    1  C   UNL     1     -12.526  13.601  65.681  1.00  0.00    -0.540 C  
HETATM    2  C   UNL     1     -11.345  13.021  66.403  1.00  0.00    -0.355 A  
HETATM    3  C   UNL     1     -11.514  11.866  67.172  1.00  0.00    -0.386 A  
HETATM    4  C   UNL     1     -10.425  11.268  67.796  1.00  0.00    -0.187 A  
HETATM    5  N   UNL     1      -9.208  11.837  67.697  1.00  0.00    -0.176 NA 
HETATM    6  C   UNL     1     -10.068  13.566  66.285  1.00  0.00    -0.298 A  
HETATM    7  N   UNL     1      -9.033  12.981  66.928  1.00  0.00    -0.223 NA 
ENDROOT
BRANCH   4   8
HETATM    8  C   UNL     1     -10.550  10.023  68.569  1.00  0.00    -0.245 A  
HETATM    9  C   UNL     1     -10.709   8.878  70.731  1.00  0.00    -0.287 A  
HETATM   10  C   UNL     1     -10.678  10.050  69.974  1.00  0.00    -0.348 A  
HETATM   11  C   UNL     1     -10.512   8.760  67.950  1.00  0.00    -0.275 A  
HETATM   12  C   UNL     1     -10.633   7.644  70.097  1.00  0.00    -0.239 A  
HETATM   13  C   UNL     1     -10.548   7.584  68.707  1.00  0.00    -0.179 A  
ENDBRANCH   4   8
BRANCH   6  14
HETATM   14  N   UNL     1      -9.877  14.658  65.432  1.00  0.00    -0.491 NA 
HETATM   15  H   UNL     1     -10.193  14.648  64.462  1.00  0.00     0.000 HD 
BRANCH  14  16
HETATM   16  C   UNL     1      -9.201  15.811  66.009  1.00  0.00    -0.344 C  
BRANCH  16  17
HETATM   17  C   UNL     1     -10.236  16.926  66.285  1.00  0.00    -0.329 C  
BRANCH  17  18
HETATM   18  N   UNL     1      -9.807  18.294  65.907  1.00  0.00    -0.531 NA 
HETATM   19  C   UNL     1     -10.637  19.352  66.529  1.00  0.00    -0.458 C  
HETATM   20  C   UNL     1     -10.447  19.476  68.051  1.00  0.00    -0.405 C  
HETATM   21  O   UNL     1      -9.074  19.707  68.388  1.00  0.00    -0.344 OA 
HETATM   22  C   UNL     1      -8.229  18.678  67.856  1.00  0.00    -0.265 C  
HETATM   23  C   UNL     1      -8.404  18.533  66.333  1.00  0.00    -0.259 C  
ENDBRANCH  17  18
ENDBRANCH  16  17
ENDBRANCH  14  16
ENDBRANCH   6  14
TORSDOF 5
ENDMDL
MODEL       49
REMARK 921   NORMALIZED FREE ENERGY PREDICTED BY IDOCK:   -5.40 KCAL/MOL
REMARK 922        TOTAL FREE ENERGY PREDICTED BY IDOCK:   -7.69 KCAL/MOL
REMARK 923 INTER-LIGAND FREE ENERGY PREDICTED BY IDOCK:   -7.23 KCAL/MOL
REMARK 924 INTRA-LIGAND FREE ENERGY PREDICTED BY IDOCK:   -0.46 KCAL/MOL
REMARK 927      BINDING AFFINITY PREDICTED BY RF-SCORE:    0.00 PKD
ROOT
HETATM    1  C   UNL     1     -11.894  13.021  69.529  1.00  0.00    -0.385 C  
HETATM    2  C   UNL     1     -11.612  13.835  68.299  1.00  0.00    -0.373 A  
HETATM    3  C   UNL     1     -11.290  15.189  68.436  1.00  0.00    -0.326 A  
HETATM    4  C   UNL     1     -10.958  15.951  67.321  1.00  0.00    -0.234 A  
HETATM    5  N   UNL     1     -10.998  15.389  66.097  1.00  0.00    -0.310 NA 
HETATM    6  C   UNL     1     -11.607  13.271  67.025  1.00  0.00    -0.359 A  
HETATM    7  N   UNL     1     -11.310  14.043  65.956  1.00  0.00    -0.322 NA 
ENDROOT
BRANCH   4   8
HETATM    8  C   UNL     1     -10.559  17.363  67.427  1.00  0.00    -0.308 A  
HETATM    9  C   UNL     1      -9.949  19.478  66.347  1.00  0.00    -0.532 A  
HETATM   10  C   UNL     1     -10.410  18.163  66.273  1.00  0.00    -0.407 A  
HETATM   11  C   UNL     1     -10.278  17.963  68.668  1.00  0.00    -0.387 A  
HETATM   12  C   UNL     1      -9.643  20.034  67.583  1.00  0.00    -0.516 A  
HETATM   13  C   UNL     1      -9.820  19.282  68.743  1.00  0.00    -0.514 A  
ENDBRANCH   4   8
BRANCH   6  14
HETATM   14  N   UNL     1     -11.825  11.895  66.897  1.00  0.00    -0.610 NA 
HETATM   15  H   UNL     1     -12.763  11.502  66.818  1.00  0.00     0.000 HD 
BRANCH  14  16
HETATM   16  C   UNL     1     -10.635  11.057  66.883  1.00  0.00    -0.258 C  
BRANCH  16  17
HETATM   17  C   UNL     1     -11.012   9.625  67.328  1.00  0.00    -0.037 C  
BRANCH  17  18
HETATM   18  N   UNL     1      -9.870   8.762  67.716  1.00  0.00    -0.165 NA 
HETATM   19  C   UNL     1      -9.827   8.479  69.170  1.00  0.00    -0.186 C  
HETATM   20  C   UNL     1     -10.966   7.567  69.658  1.00  0.00    -0.153 C  
HETATM   21  O   UNL     1     -10.981   6.325  68.944  1.00  0.00    -0.306 OA 
HETATM   22  C   UNL     1     -11.078   6.539  67.530  1.00  0.00    -0.308 C  
HETATM   23  C   UNL     1      -9.949   7.453  67.018  1.00  0.00    -0.231 C  
ENDBRANCH  17  18
ENDBRANCH  16  17
ENDBRANCH  14  16
ENDBRANCH   6  14
TORSDOF 5
ENDMDL
MODEL       50
REMARK 921   NORMALIZED FREE ENERGY PREDICTED BY IDOCK:   -5.39 KCAL/MOL
REMARK 922        TOTAL FREE ENERGY PREDICTED BY IDOCK:   -7.67 KCAL/MOL
REMARK 923 INTER-LIGAND FREE ENERGY PREDICTED BY IDOCK:   -7.22 KCAL/MOL
REMARK 924 INTRA-LIGAND FREE ENERGY PREDICTED BY IDOCK:   -0.45 KCAL/MOL
REMARK 927      BINDING AFFINITY PREDICTED BY RF-SCORE:    0.00 PKD
ROOT
HETATM    1  C   UNL     1     -14.149  14.156  72.182  1.00  0.00    -0.643 C  
HETATM    2  C   UNL     1     -13.225  13.212  71.468  1.00  0.00    -0.368 A  
HETATM    3  C   UNL     1     -13.225  11.859  71.821  1.00  0.00    -0.426 A  
HETATM    4  C   UNL     1     -12.431  10.950  71.131  1.00  0.00    -0.405 A  
HETATM    5  N   UNL     1     -11.620  11.389  70.150  1.00  0.00    -0.305 NA 
HETATM    6  C   UNL     1     -12.405  13.631  70.422  1.00  0.00    -0.345 A  
HETATM    7  N   UNL     1     -11.621  12.731  69.790  1.00  0.00    -0.257 NA 
ENDROOT
BRANCH   4   8
HETATM    8  C   UNL     1     -12.442   9.511  71.434  1.00  0.00    -0.450 A  
HETATM    9  C   UNL     1     -13.663   7.391  71.605  1.00  0.00    -0.468 A  
HETATM   10  C   UNL     1     -13.607   8.737  71.241  1.00  0.00    -0.204 A  
HETATM   11  C   UNL     1     -11.313   8.855  71.956  1.00  0.00    -0.427 A  
HETATM   12  C   UNL     1     -12.544   6.777  72.153  1.00  0.00    -0.163 A  
HETATM   13  C   UNL     1     -11.366   7.504  72.317  1.00  0.00    -0.338 A  
ENDBRANCH   4   8
BRANCH   6  14
HETATM   14  N   UNL     1     -12.482  14.962  69.998  1.00  0.00    -0.505 NA 
HETATM   15  H   UNL     1     -13.129  15.260  69.268  1.00  0.00     0.000 HD 
BRANCH  14  16
HETATM   16  C   UNL     1     -11.584  15.897  70.660  1.00  0.00    -0.400 C  
BRANCH  16  17
HETATM   17  C   UNL     1     -10.480  16.335  69.670  1.00  0.00    -0.294 C  
BRANCH  17  18
HETATM   18  N   UNL     1      -9.614  15.243  69.165  1.00  0.00    -0.230 NA 
HETATM   19  C   UNL     1      -9.628  15.131  67.688  1.00  0.00    -0.206 C  
HETATM   20  C   UNL     1      -8.941  16.305  66.969  1.00  0.00    -0.206 C  
HETATM   21  O   UNL     1      -7.586  16.465  67.409  1.00  0.00    -0.138 OA 
HETATM   22  C   UNL     1      -7.518  16.634  68.830  1.00  0.00    -0.232 C  
HETATM   23  C   UNL     1      -8.203  15.471  69.573  1.00  0.00    -0.209 C  
ENDBRANCH  17  18
ENDBRANCH  16  17
ENDBRANCH  14  16
ENDBRANCH   6  14
TORSDOF 5
ENDMDL
MODEL       51
REMARK 921   NORMALIZED FREE ENERGY PREDICTED BY IDOCK:   -5.37 KCAL/MOL
REMARK 922        TOTAL FREE ENERGY PREDICTED BY IDOCK:   -7.65 KCAL/MOL
REMARK 923 INTER-LIGAND FREE ENERGY PREDICTED BY IDOCK:   -7.40 KCAL/MOL
REMARK 924 INTRA-LIGAND FREE ENERGY PREDICTED BY IDOCK:   -0.25 KCAL/MOL
REMARK 927      BINDING AFFINITY PREDICTED BY RF-SCORE:    0.00 PKD
ROOT
HETATM    1  C   UNL     1      -9.585  14.592  66.562  1.00  0.00    -0.308 C  
HETATM    2  C   UNL     1      -9.639  15.894  67.308  1.00  0.00    -0.220 A  
HETATM    3  C   UNL     1      -8.549  16.767  67.237  1.00  0.00    -0.208 A  
HETATM    4  C   UNL     1      -8.598  18.009  67.861  1.00  0.00    -0.257 A  
HETATM    5  N   UNL     1      -9.686  18.348  68.579  1.00  0.00    -0.345 NA 
HETATM    6  C   UNL     1     -10.767  16.288  68.025  1.00  0.00    -0.331 A  
HETATM    7  N   UNL     1     -10.775  17.488  68.648  1.00  0.00    -0.276 NA 
ENDROOT
BRANCH   4   8
HETATM    8  C   UNL     1      -7.497  18.978  67.765  1.00  0.00    -0.271 A  
HETATM    9  C   UNL     1      -5.691  20.013  66.468  1.00  0.00    -0.182 A  
HETATM   10  C   UNL     1      -6.794  19.162  66.555  1.00  0.00    -0.214 A  
HETATM   11  C   UNL     1      -7.076  19.734  68.875  1.00  0.00    -0.358 A  
HETATM   12  C   UNL     1      -5.274  20.719  67.590  1.00  0.00    -0.249 A  
HETATM   13  C   UNL     1      -5.973  20.590  68.789  1.00  0.00    -0.372 A  
ENDBRANCH   4   8
BRANCH   6  14
HETATM   14  N   UNL     1     -11.897  15.463  68.010  1.00  0.00    -0.413 NA 
HETATM   15  H   UNL     1     -12.769  15.750  67.567  1.00  0.00     0.000 HD 
BRANCH  14  16
HETATM   16  C   UNL     1     -11.755  14.171  68.664  1.00  0.00    -0.350 C  
BRANCH  16  17
HETATM   17  C   UNL     1     -11.723  14.373  70.197  1.00  0.00    -0.297 C  
BRANCH  17  18
HETATM   18  N   UNL     1     -12.727  15.325  70.730  1.00  0.00    -0.405 NA 
HETATM   19  C   UNL     1     -13.959  14.657  71.210  1.00  0.00    -0.330 C  
HETATM   20  C   UNL     1     -13.754  13.818  72.483  1.00  0.00    -0.561 C  
HETATM   21  O   UNL     1     -13.212  14.610  73.548  1.00  0.00    -0.546 OA 
HETATM   22  C   UNL     1     -11.985  15.238  73.154  1.00  0.00    -0.418 C  
HETATM   23  C   UNL     1     -12.164  16.082  71.878  1.00  0.00    -0.489 C  
ENDBRANCH  17  18
ENDBRANCH  16  17
ENDBRANCH  14  16
ENDBRANCH   6  14
TORSDOF 5
ENDMDL
MODEL       52
REMARK 921   NORMALIZED FREE ENERGY PREDICTED BY IDOCK:   -5.37 KCAL/MOL
REMARK 922        TOTAL FREE ENERGY PREDICTED BY IDOCK:   -7.65 KCAL/MOL
REMARK 923 INTER-LIGAND FREE ENERGY PREDICTED BY IDOCK:   -7.02 KCAL/MOL
REMARK 924 INTRA-LIGAND FREE ENERGY PREDICTED BY IDOCK:   -0.63 KCAL/MOL
REMARK 927      BINDING AFFINITY PREDICTED BY RF-SCORE:    0.00 PKD
ROOT
HETATM    1  C   UNL     1      -8.405  13.998  68.574  1.00  0.00    -0.143 C  
HETATM    2  C   UNL     1      -8.994  15.378  68.588  1.00  0.00    -0.191 A  
HETATM    3  C   UNL     1      -8.142  16.486  68.537  1.00  0.00    -0.218 A  
HETATM    4  C   UNL     1      -8.661  17.774  68.480  1.00  0.00    -0.291 A  
HETATM    5  N   UNL     1      -9.995  17.955  68.525  1.00  0.00    -0.360 NA 
HETATM    6  C   UNL     1     -10.371  15.594  68.593  1.00  0.00    -0.216 A  
HETATM    7  N   UNL     1     -10.847  16.859  68.568  1.00  0.00    -0.354 NA 
ENDROOT
BRANCH   4   8
HETATM    8  C   UNL     1      -7.801  18.962  68.370  1.00  0.00    -0.359 A  
HETATM    9  C   UNL     1      -7.128  20.986  67.160  1.00  0.00    -0.383 A  
HETATM   10  C   UNL     1      -7.988  19.900  67.332  1.00  0.00    -0.324 A  
HETATM   11  C   UNL     1      -6.742  19.196  69.266  1.00  0.00    -0.340 A  
HETATM   12  C   UNL     1      -6.067  21.172  68.039  1.00  0.00    -0.373 A  
HETATM   13  C   UNL     1      -5.882  20.286  69.098  1.00  0.00    -0.352 A  
ENDBRANCH   4   8
BRANCH   6  14
HETATM   14  N   UNL     1     -11.226  14.488  68.537  1.00  0.00    -0.253 NA 
HETATM   15  H   UNL     1     -11.218  13.762  69.253  1.00  0.00     0.000 HD 
BRANCH  14  16
HETATM   16  C   UNL     1     -12.129  14.434  67.397  1.00  0.00    -0.313 C  
BRANCH  16  17
HETATM   17  C   UNL     1     -11.445  13.671  66.238  1.00  0.00    -0.333 C  
BRANCH  17  18
HETATM   18  N   UNL     1     -12.056  12.365  65.893  1.00  0.00    -0.623 NA 
HETATM   19  C   UNL     1     -12.680  12.357  64.549  1.00  0.00    -0.314 C  
HETATM   20  C   UNL     1     -11.668  12.437  63.394  1.00  0.00    -0.472 C  
HETATM   21  O   UNL     1     -10.709  11.374  63.467  1.00  0.00    -0.380 OA 
HETATM   22  C   UNL     1     -10.033  11.370  64.730  1.00  0.00    -0.267 C  
HETATM   23  C   UNL     1     -11.028  11.293  65.904  1.00  0.00    -0.157 C  
ENDBRANCH  17  18
ENDBRANCH  16  17
ENDBRANCH  14  16
ENDBRANCH   6  14
TORSDOF 5
ENDMDL
MODEL       53
REMARK 921   NORMALIZED FREE ENERGY PREDICTED BY IDOCK:   -5.37 KCAL/MOL
REMARK 922        TOTAL FREE ENERGY PREDICTED BY IDOCK:   -7.65 KCAL/MOL
REMARK 923 INTER-LIGAND FREE ENERGY PREDICTED BY IDOCK:   -7.11 KCAL/MOL
REMARK 924 INTRA-LIGAND FREE ENERGY PREDICTED BY IDOCK:   -0.53 KCAL/MOL
REMARK 927      BINDING AFFINITY PREDICTED BY RF-SCORE:    0.00 PKD
ROOT
HETATM    1  C   UNL     1     -12.838  12.730  71.287  1.00  0.00    -0.355 C  
HETATM    2  C   UNL     1     -12.070  11.752  70.446  1.00  0.00    -0.440 A  
HETATM    3  C   UNL     1     -11.918  10.437  70.894  1.00  0.00    -0.478 A  
HETATM    4  C   UNL     1     -11.272   9.492  70.105  1.00  0.00    -0.234 A  
HETATM    5  N   UNL     1     -10.745   9.864  68.922  1.00  0.00    -0.216 NA 
HETATM    6  C   UNL     1     -11.550  12.099  69.201  1.00  0.00    -0.319 A  
HETATM    7  N   UNL     1     -10.899  11.168  68.468  1.00  0.00    -0.187 NA 
ENDROOT
BRANCH   4   8
HETATM    8  C   UNL     1     -11.139   8.086  70.515  1.00  0.00    -0.251 A  
HETATM    9  C   UNL     1     -10.353   5.810  70.052  1.00  0.00    -0.328 A  
HETATM   10  C   UNL     1     -10.416   7.165  69.726  1.00  0.00    -0.238 A  
HETATM   11  C   UNL     1     -11.750   7.593  71.682  1.00  0.00    -0.313 A  
HETATM   12  C   UNL     1     -10.997   5.344  71.191  1.00  0.00    -0.126 A  
HETATM   13  C   UNL     1     -11.684   6.235  72.013  1.00  0.00    -0.374 A  
ENDBRANCH   4   8
BRANCH   6  14
HETATM   14  N   UNL     1     -11.792  13.385  68.704  1.00  0.00    -0.348 NA 
HETATM   15  H   UNL     1     -12.712  13.670  68.368  1.00  0.00     0.000 HD 
BRANCH  14  16
HETATM   16  C   UNL     1     -10.654  14.292  68.694  1.00  0.00    -0.250 C  
BRANCH  16  17
HETATM   17  C   UNL     1     -10.897  15.408  67.652  1.00  0.00    -0.304 C  
BRANCH  17  18
HETATM   18  N   UNL     1      -9.899  15.479  66.558  1.00  0.00    -0.251 NA 
HETATM   19  C   UNL     1     -10.327  14.755  65.338  1.00  0.00    -0.386 C  
HETATM   20  C   UNL     1     -11.505  15.416  64.604  1.00  0.00    -0.337 C  
HETATM   21  O   UNL     1     -11.207  16.773  64.255  1.00  0.00    -1.163 OA 
HETATM   22  C   UNL     1     -10.839  17.538  65.410  1.00  0.00     0.059 C  
HETATM   23  C   UNL     1      -9.662  16.893  66.165  1.00  0.00    -0.272 C  
ENDBRANCH  17  18
ENDBRANCH  16  17
ENDBRANCH  14  16
ENDBRANCH   6  14
TORSDOF 5
ENDMDL
MODEL       54
REMARK 921   NORMALIZED FREE ENERGY PREDICTED BY IDOCK:   -5.36 KCAL/MOL
REMARK 922        TOTAL FREE ENERGY PREDICTED BY IDOCK:   -7.64 KCAL/MOL
REMARK 923 INTER-LIGAND FREE ENERGY PREDICTED BY IDOCK:   -6.91 KCAL/MOL
REMARK 924 INTRA-LIGAND FREE ENERGY PREDICTED BY IDOCK:   -0.73 KCAL/MOL
REMARK 927      BINDING AFFINITY PREDICTED BY RF-SCORE:    0.00 PKD
ROOT
HETATM    1  C   UNL     1      -8.457  13.017  68.307  1.00  0.00    -0.159 C  
HETATM    2  C   UNL     1      -9.606  13.972  68.449  1.00  0.00    -0.222 A  
HETATM    3  C   UNL     1      -9.428  15.312  68.095  1.00  0.00    -0.203 A  
HETATM    4  C   UNL     1     -10.493  16.205  68.151  1.00  0.00    -0.279 A  
HETATM    5  N   UNL     1     -11.690  15.782  68.600  1.00  0.00    -0.379 NA 
HETATM    6  C   UNL     1     -10.867  13.553  68.872  1.00  0.00    -0.224 A  
HETATM    7  N   UNL     1     -11.876  14.449  68.947  1.00  0.00    -0.315 NA 
ENDROOT
BRANCH   4   8
HETATM    8  C   UNL     1     -10.362  17.610  67.736  1.00  0.00    -0.365 A  
HETATM    9  C   UNL     1     -10.017  19.967  68.315  1.00  0.00    -0.508 A  
HETATM   10  C   UNL     1     -10.059  18.620  68.674  1.00  0.00    -0.412 A  
HETATM   11  C   UNL     1     -10.565  18.009  66.402  1.00  0.00    -0.259 A  
HETATM   12  C   UNL     1     -10.259  20.338  66.997  1.00  0.00    -0.503 A  
HETATM   13  C   UNL     1     -10.520  19.360  66.040  1.00  0.00    -0.596 A  
ENDBRANCH   4   8
BRANCH   6  14
HETATM   14  N   UNL     1     -11.075  12.193  69.126  1.00  0.00    -0.335 NA 
HETATM   15  H   UNL     1     -10.672  11.727  69.938  1.00  0.00     0.000 HD 
BRANCH  14  16
HETATM   16  C   UNL     1     -11.901  11.481  68.161  1.00  0.00    -0.236 C  
BRANCH  16  17
HETATM   17  C   UNL     1     -11.248  11.571  66.762  1.00  0.00    -0.285 C  
BRANCH  17  18
HETATM   18  N   UNL     1     -12.043  12.290  65.738  1.00  0.00    -0.603 NA 
HETATM   19  C   UNL     1     -11.475  13.613  65.388  1.00  0.00    -0.311 C  
HETATM   20  C   UNL     1     -10.146  13.533  64.618  1.00  0.00    -0.217 C  
HETATM   21  O   UNL     1     -10.283  12.757  63.421  1.00  0.00    -0.314 OA 
HETATM   22  C   UNL     1     -10.779  11.444  63.708  1.00  0.00    -0.403 C  
HETATM   23  C   UNL     1     -12.109  11.497  64.483  1.00  0.00     0.213 C  
ENDBRANCH  17  18
ENDBRANCH  16  17
ENDBRANCH  14  16
ENDBRANCH   6  14
TORSDOF 5
ENDMDL
MODEL       55
REMARK 921   NORMALIZED FREE ENERGY PREDICTED BY IDOCK:   -5.35 KCAL/MOL
REMARK 922        TOTAL FREE ENERGY PREDICTED BY IDOCK:   -7.63 KCAL/MOL
REMARK 923 INTER-LIGAND FREE ENERGY PREDICTED BY IDOCK:   -7.05 KCAL/MOL
REMARK 924 INTRA-LIGAND FREE ENERGY PREDICTED BY IDOCK:   -0.57 KCAL/MOL
REMARK 927      BINDING AFFINITY PREDICTED BY RF-SCORE:    0.00 PKD
ROOT
HETATM    1  C   UNL     1     -12.902  12.569  71.828  1.00  0.00    -0.347 C  
HETATM    2  C   UNL     1     -12.522  12.318  70.398  1.00  0.00    -0.221 A  
HETATM    3  C   UNL     1     -12.105  13.389  69.603  1.00  0.00    -0.349 A  
HETATM    4  C   UNL     1     -11.682  13.176  68.296  1.00  0.00    -0.349 A  
HETATM    5  N   UNL     1     -11.725  11.933  67.779  1.00  0.00    -0.516 NA 
HETATM    6  C   UNL     1     -12.519  11.037  69.849  1.00  0.00    -0.219 A  
HETATM    7  N   UNL     1     -12.133  10.863  68.566  1.00  0.00    -0.519 NA 
ENDROOT
BRANCH   4   8
HETATM    8  C   UNL     1     -11.183  14.267  67.445  1.00  0.00    -0.330 A  
HETATM    9  C   UNL     1     -10.546  16.619  67.172  1.00  0.00    -0.264 A  
HETATM   10  C   UNL     1     -10.935  15.550  67.979  1.00  0.00    -0.311 A  
HETATM   11  C   UNL     1     -10.965  14.091  66.067  1.00  0.00    -0.298 A  
HETATM   12  C   UNL     1     -10.374  16.426  65.806  1.00  0.00    -0.388 A  
HETATM   13  C   UNL     1     -10.570  15.161  65.256  1.00  0.00    -0.432 A  
ENDBRANCH   4   8
BRANCH   6  14
HETATM   14  N   UNL     1     -12.835   9.950  70.672  1.00  0.00    -0.551 NA 
HETATM   15  H   UNL     1     -13.786   9.590  70.750  1.00  0.00     0.000 HD 
BRANCH  14  16
HETATM   16  C   UNL     1     -11.727   9.364  71.412  1.00  0.00    -0.378 C  
BRANCH  16  17
HETATM   17  C   UNL     1     -11.431   7.952  70.856  1.00  0.00    -0.281 C  
BRANCH  17  18
HETATM   18  N   UNL     1     -10.087   7.779  70.253  1.00  0.00    -0.194 NA 
HETATM   19  C   UNL     1      -9.416   6.532  70.686  1.00  0.00    -0.166 C  
HETATM   20  C   UNL     1     -10.068   5.252  70.136  1.00  0.00    -0.263 C  
HETATM   21  O   UNL     1     -10.130   5.272  68.704  1.00  0.00    -0.168 OA 
HETATM   22  C   UNL     1     -10.821   6.435  68.231  1.00  0.00    -0.309 C  
HETATM   23  C   UNL     1     -10.187   7.730  68.771  1.00  0.00    -0.201 C  
ENDBRANCH  17  18
ENDBRANCH  16  17
ENDBRANCH  14  16
ENDBRANCH   6  14
TORSDOF 5
ENDMDL
MODEL       56
REMARK 921   NORMALIZED FREE ENERGY PREDICTED BY IDOCK:   -5.32 KCAL/MOL
REMARK 922        TOTAL FREE ENERGY PREDICTED BY IDOCK:   -7.59 KCAL/MOL
REMARK 923 INTER-LIGAND FREE ENERGY PREDICTED BY IDOCK:   -7.04 KCAL/MOL
REMARK 924 INTRA-LIGAND FREE ENERGY PREDICTED BY IDOCK:   -0.54 KCAL/MOL
REMARK 927      BINDING AFFINITY PREDICTED BY RF-SCORE:    0.00 PKD
ROOT
HETATM    1  C   UNL     1     -10.408   7.988  66.816  1.00  0.00    -0.360 C  
HETATM    2  C   UNL     1     -10.259   8.519  68.212  1.00  0.00    -0.244 A  
HETATM    3  C   UNL     1     -10.441   7.653  69.295  1.00  0.00    -0.220 A  
HETATM    4  C   UNL     1     -10.243   8.099  70.597  1.00  0.00    -0.196 A  
HETATM    5  N   UNL     1      -9.923   9.389  70.814  1.00  0.00    -0.284 NA 
HETATM    6  C   UNL     1      -9.889   9.838  68.466  1.00  0.00    -0.156 A  
HETATM    7  N   UNL     1      -9.733  10.253  69.743  1.00  0.00    -0.194 NA 
ENDROOT
BRANCH   4   8
HETATM    8  C   UNL     1     -10.370   7.207  71.760  1.00  0.00    -0.216 A  
HETATM    9  C   UNL     1     -11.371   5.235  72.817  1.00  0.00    -0.342 A  
HETATM   10  C   UNL     1     -11.168   6.044  71.699  1.00  0.00    -0.328 A  
HETATM   11  C   UNL     1      -9.736   7.491  72.983  1.00  0.00    -0.278 A  
HETATM   12  C   UNL     1     -10.761   5.558  74.024  1.00  0.00    -0.215 A  
HETATM   13  C   UNL     1      -9.935   6.677  74.104  1.00  0.00    -0.361 A  
ENDBRANCH   4   8
BRANCH   6  14
HETATM   14  N   UNL     1      -9.603  10.677  67.383  1.00  0.00    -0.157 NA 
HETATM   15  H   UNL     1      -9.060  10.359  66.581  1.00  0.00     0.000 HD 
BRANCH  14  16
HETATM   16  C   UNL     1     -10.128  12.032  67.468  1.00  0.00    -0.195 C  
BRANCH  16  17
HETATM   17  C   UNL     1     -11.043  12.304  66.252  1.00  0.00    -0.302 C  
BRANCH  17  18
HETATM   18  N   UNL     1     -10.359  12.849  65.055  1.00  0.00    -0.313 NA 
HETATM   19  C   UNL     1     -10.743  12.156  63.803  1.00  0.00    -0.437 C  
HETATM   20  C   UNL     1     -12.193  12.422  63.366  1.00  0.00    -0.523 C  
HETATM   21  O   UNL     1     -12.443  13.825  63.213  1.00  0.00    -0.819 OA 
HETATM   22  C   UNL     1     -12.139  14.540  64.418  1.00  0.00    -0.472 C  
HETATM   23  C   UNL     1     -10.692  14.287  64.878  1.00  0.00    -0.432 C  
ENDBRANCH  17  18
ENDBRANCH  16  17
ENDBRANCH  14  16
ENDBRANCH   6  14
TORSDOF 5
ENDMDL
MODEL       57
REMARK 921   NORMALIZED FREE ENERGY PREDICTED BY IDOCK:   -5.32 KCAL/MOL
REMARK 922        TOTAL FREE ENERGY PREDICTED BY IDOCK:   -7.59 KCAL/MOL
REMARK 923 INTER-LIGAND FREE ENERGY PREDICTED BY IDOCK:   -6.92 KCAL/MOL
REMARK 924 INTRA-LIGAND FREE ENERGY PREDICTED BY IDOCK:   -0.67 KCAL/MOL
REMARK 927      BINDING AFFINITY PREDICTED BY RF-SCORE:    0.00 PKD
ROOT
HETATM    1  C   UNL     1     -10.196   9.684  67.479  1.00  0.00    -0.274 C  
HETATM    2  C   UNL     1     -10.727   9.747  68.880  1.00  0.00    -0.241 A  
HETATM    3  C   UNL     1     -10.150   8.943  69.867  1.00  0.00    -0.204 A  
HETATM    4  C   UNL     1     -10.575   9.030  71.188  1.00  0.00    -0.290 A  
HETATM    5  N   UNL     1     -11.587   9.861  71.505  1.00  0.00    -0.354 NA 
HETATM    6  C   UNL     1     -11.745  10.626  69.245  1.00  0.00    -0.264 A  
HETATM    7  N   UNL     1     -12.161  10.668  70.531  1.00  0.00    -0.324 NA 
ENDROOT
BRANCH   4   8
HETATM    8  C   UNL     1      -9.957   8.242  72.265  1.00  0.00    -0.366 A  
HETATM    9  C   UNL     1     -10.185   6.734  74.185  1.00  0.00    -0.370 A  
HETATM   10  C   UNL     1     -10.740   7.419  73.104  1.00  0.00    -0.436 A  
HETATM   11  C   UNL     1      -8.576   8.301  72.527  1.00  0.00    -0.273 A  
HETATM   12  C   UNL     1      -8.823   6.838  74.443  1.00  0.00    -0.204 A  
HETATM   13  C   UNL     1      -8.018   7.610  73.608  1.00  0.00    -0.188 A  
ENDBRANCH   4   8
BRANCH   6  14
HETATM   14  N   UNL     1     -12.252  11.507  68.283  1.00  0.00    -0.493 NA 
HETATM   15  H   UNL     1     -12.848  11.188  67.519  1.00  0.00     0.000 HD 
BRANCH  14  16
HETATM   16  C   UNL     1     -11.879  12.905  68.436  1.00  0.00    -0.318 C  
BRANCH  16  17
HETATM   17  C   UNL     1     -11.934  13.604  67.058  1.00  0.00    -0.406 C  
BRANCH  17  18
HETATM   18  N   UNL     1     -10.842  13.244  66.123  1.00  0.00    -0.279 NA 
HETATM   19  C   UNL     1     -10.850  14.057  64.884  1.00  0.00    -0.410 C  
HETATM   20  C   UNL     1     -10.472  15.531  65.105  1.00  0.00    -0.403 C  
HETATM   21  O   UNL     1      -9.188  15.652  65.729  1.00  0.00    -0.321 OA 
HETATM   22  C   UNL     1      -9.141  14.928  66.964  1.00  0.00    -0.237 C  
HETATM   23  C   UNL     1      -9.519  13.448  66.769  1.00  0.00    -0.261 C  
ENDBRANCH  17  18
ENDBRANCH  16  17
ENDBRANCH  14  16
ENDBRANCH   6  14
TORSDOF 5
ENDMDL
MODEL       58
REMARK 921   NORMALIZED FREE ENERGY PREDICTED BY IDOCK:   -5.32 KCAL/MOL
REMARK 922        TOTAL FREE ENERGY PREDICTED BY IDOCK:   -7.58 KCAL/MOL
REMARK 923 INTER-LIGAND FREE ENERGY PREDICTED BY IDOCK:   -6.99 KCAL/MOL
REMARK 924 INTRA-LIGAND FREE ENERGY PREDICTED BY IDOCK:   -0.59 KCAL/MOL
REMARK 927      BINDING AFFINITY PREDICTED BY RF-SCORE:    0.00 PKD
ROOT
HETATM    1  C   UNL     1     -11.074  10.719  67.225  1.00  0.00    -0.339 C  
HETATM    2  C   UNL     1     -11.318  11.950  68.048  1.00  0.00    -0.352 A  
HETATM    3  C   UNL     1     -10.950  13.198  67.536  1.00  0.00    -0.282 A  
HETATM    4  C   UNL     1     -11.225  14.361  68.246  1.00  0.00    -0.275 A  
HETATM    5  N   UNL     1     -11.805  14.276  69.459  1.00  0.00    -0.308 NA 
HETATM    6  C   UNL     1     -11.952  11.895  69.288  1.00  0.00    -0.281 A  
HETATM    7  N   UNL     1     -12.179  13.040  69.970  1.00  0.00    -0.276 NA 
ENDROOT
BRANCH   4   8
HETATM    8  C   UNL     1     -10.906  15.696  67.719  1.00  0.00    -0.307 A  
HETATM    9  C   UNL     1     -10.269  17.135  65.839  1.00  0.00    -0.290 A  
HETATM   10  C   UNL     1     -10.659  15.894  66.343  1.00  0.00    -0.298 A  
HETATM   11  C   UNL     1     -10.799  16.819  68.561  1.00  0.00    -0.345 A  
HETATM   12  C   UNL     1     -10.136  18.219  66.698  1.00  0.00    -0.386 A  
HETATM   13  C   UNL     1     -10.412  18.065  68.055  1.00  0.00    -0.388 A  
ENDBRANCH   4   8
BRANCH   6  14
HETATM   14  N   UNL     1     -12.415  10.660  69.754  1.00  0.00    -0.517 NA 
HETATM   15  H   UNL     1     -12.722   9.924  69.119  1.00  0.00     0.000 HD 
BRANCH  14  16
HETATM   16  C   UNL     1     -12.432  10.487  71.199  1.00  0.00    -0.412 C  
BRANCH  16  17
HETATM   17  C   UNL     1     -12.471   8.979  71.535  1.00  0.00    -0.331 C  
BRANCH  17  18
HETATM   18  N   UNL     1     -11.279   8.457  72.246  1.00  0.00    -0.359 NA 
HETATM   19  C   UNL     1     -11.264   6.979  72.342  1.00  0.00    -0.268 C  
HETATM   20  C   UNL     1     -11.042   6.271  70.994  1.00  0.00    -0.298 C  
HETATM   21  O   UNL     1      -9.827   6.707  70.370  1.00  0.00    -0.175 OA 
HETATM   22  C   UNL     1      -9.812   8.130  70.202  1.00  0.00    -0.184 C  
HETATM   23  C   UNL     1     -10.036   8.862  71.538  1.00  0.00    -0.324 C  
ENDBRANCH  17  18
ENDBRANCH  16  17
ENDBRANCH  14  16
ENDBRANCH   6  14
TORSDOF 5
ENDMDL
MODEL       59
REMARK 921   NORMALIZED FREE ENERGY PREDICTED BY IDOCK:   -5.30 KCAL/MOL
REMARK 922        TOTAL FREE ENERGY PREDICTED BY IDOCK:   -7.56 KCAL/MOL
REMARK 923 INTER-LIGAND FREE ENERGY PREDICTED BY IDOCK:   -7.02 KCAL/MOL
REMARK 924 INTRA-LIGAND FREE ENERGY PREDICTED BY IDOCK:   -0.54 KCAL/MOL
REMARK 927      BINDING AFFINITY PREDICTED BY RF-SCORE:    0.00 PKD
ROOT
HETATM    1  C   UNL     1     -13.351  10.039  71.586  1.00  0.00    -0.468 C  
HETATM    2  C   UNL     1     -11.923   9.747  71.229  1.00  0.00    -0.471 A  
HETATM    3  C   UNL     1     -11.149   8.965  72.091  1.00  0.00    -0.355 A  
HETATM    4  C   UNL     1      -9.845   8.621  71.754  1.00  0.00    -0.295 A  
HETATM    5  N   UNL     1      -9.311   9.089  70.609  1.00  0.00    -0.213 NA 
HETATM    6  C   UNL     1     -11.357  10.184  70.033  1.00  0.00    -0.287 A  
HETATM    7  N   UNL     1     -10.077   9.861  69.744  1.00  0.00    -0.229 NA 
ENDROOT
BRANCH   4   8
HETATM    8  C   UNL     1      -9.016   7.756  72.606  1.00  0.00    -0.224 A  
HETATM    9  C   UNL     1      -8.531   5.542  73.542  1.00  0.00    -0.112 A  
HETATM   10  C   UNL     1      -9.249   6.365  72.674  1.00  0.00    -0.138 A  
HETATM   11  C   UNL     1      -7.986   8.276  73.411  1.00  0.00    -0.215 A  
HETATM   12  C   UNL     1      -7.544   6.089  74.353  1.00  0.00    -0.093 A  
HETATM   13  C   UNL     1      -7.262   7.451  74.279  1.00  0.00    -0.122 A  
ENDBRANCH   4   8
BRANCH   6  14
HETATM   14  N   UNL     1     -12.161  10.876  69.120  1.00  0.00    -0.674 NA 
HETATM   15  H   UNL     1     -13.094  10.552  68.868  1.00  0.00     0.000 HD 
BRANCH  14  16
HETATM   16  C   UNL     1     -11.587  12.088  68.553  1.00  0.00    -0.309 C  
BRANCH  16  17
HETATM   17  C   UNL     1     -11.421  11.909  67.026  1.00  0.00    -0.316 C  
BRANCH  17  18
HETATM   18  N   UNL     1     -12.252  12.807  66.189  1.00  0.00    -0.556 NA 
HETATM   19  C   UNL     1     -12.003  14.243  66.460  1.00  0.00    -0.427 C  
HETATM   20  C   UNL     1     -10.620  14.731  65.998  1.00  0.00    -0.312 C  
HETATM   21  O   UNL     1     -10.418  14.482  64.602  1.00  0.00    -0.388 OA 
HETATM   22  C   UNL     1     -10.592  13.093  64.292  1.00  0.00    -0.412 C  
HETATM   23  C   UNL     1     -11.971  12.580  64.748  1.00  0.00    -0.409 C  
ENDBRANCH  17  18
ENDBRANCH  16  17
ENDBRANCH  14  16
ENDBRANCH   6  14
TORSDOF 5
ENDMDL
MODEL       60
REMARK 921   NORMALIZED FREE ENERGY PREDICTED BY IDOCK:   -5.26 KCAL/MOL
REMARK 922        TOTAL FREE ENERGY PREDICTED BY IDOCK:   -7.51 KCAL/MOL
REMARK 923 INTER-LIGAND FREE ENERGY PREDICTED BY IDOCK:   -7.32 KCAL/MOL
REMARK 924 INTRA-LIGAND FREE ENERGY PREDICTED BY IDOCK:   -0.19 KCAL/MOL
REMARK 927      BINDING AFFINITY PREDICTED BY RF-SCORE:    0.00 PKD
ROOT
HETATM    1  C   UNL     1      -8.521  13.640  67.960  1.00  0.00    -0.174 C  
HETATM    2  C   UNL     1      -9.972  13.993  68.106  1.00  0.00    -0.242 A  
HETATM    3  C   UNL     1     -10.478  14.292  69.375  1.00  0.00    -0.049 A  
HETATM    4  C   UNL     1     -11.801  14.689  69.532  1.00  0.00    -0.330 A  
HETATM    5  N   UNL     1     -12.612  14.735  68.457  1.00  0.00     0.255 NA 
HETATM    6  C   UNL     1     -10.823  14.087  67.007  1.00  0.00    -0.290 A  
HETATM    7  N   UNL     1     -12.113  14.445  67.193  1.00  0.00    -0.394 NA 
ENDROOT
BRANCH   4   8
HETATM    8  C   UNL     1     -12.358  15.066  70.840  1.00  0.00    -0.393 A  
HETATM    9  C   UNL     1     -14.260  15.166  72.383  1.00  0.00    -0.540 A  
HETATM   10  C   UNL     1     -13.687  14.741  71.184  1.00  0.00    -0.413 A  
HETATM   11  C   UNL     1     -11.607  15.791  71.783  1.00  0.00    -0.541 A  
HETATM   12  C   UNL     1     -13.507  15.913  73.281  1.00  0.00    -0.599 A  
HETATM   13  C   UNL     1     -12.179  16.214  72.988  1.00  0.00    -0.641 A  
ENDBRANCH   4   8
BRANCH   6  14
HETATM   14  N   UNL     1     -10.294  13.891  65.727  1.00  0.00    -0.306 NA 
HETATM   15  H   UNL     1     -10.073  12.962  65.370  1.00  0.00     0.000 HD 
BRANCH  14  16
HETATM   16  C   UNL     1     -10.079  15.092  64.933  1.00  0.00    -0.144 C  
BRANCH  16  17
HETATM   17  C   UNL     1     -10.477  16.333  65.764  1.00  0.00    -0.364 C  
BRANCH  17  18
HETATM   18  N   UNL     1      -9.502  17.450  65.740  1.00  0.00    -0.519 NA 
HETATM   19  C   UNL     1     -10.101  18.748  66.129  1.00  0.00    -0.384 C  
HETATM   20  C   UNL     1     -10.493  18.831  67.614  1.00  0.00    -0.435 C  
HETATM   21  O   UNL     1      -9.371  18.564  68.465  1.00  0.00    -0.319 OA 
HETATM   22  C   UNL     1      -8.785  17.291  68.168  1.00  0.00    -0.243 C  
HETATM   23  C   UNL     1      -8.386  17.182  66.685  1.00  0.00    -0.251 C  
ENDBRANCH  17  18
ENDBRANCH  16  17
ENDBRANCH  14  16
ENDBRANCH   6  14
TORSDOF 5
ENDMDL
MODEL       61
REMARK 921   NORMALIZED FREE ENERGY PREDICTED BY IDOCK:   -5.24 KCAL/MOL
REMARK 922        TOTAL FREE ENERGY PREDICTED BY IDOCK:   -7.48 KCAL/MOL
REMARK 923 INTER-LIGAND FREE ENERGY PREDICTED BY IDOCK:   -6.95 KCAL/MOL
REMARK 924 INTRA-LIGAND FREE ENERGY PREDICTED BY IDOCK:   -0.53 KCAL/MOL
REMARK 927      BINDING AFFINITY PREDICTED BY RF-SCORE:    0.00 PKD
ROOT
HETATM    1  C   UNL     1     -10.413   8.442  67.423  1.00  0.00    -0.354 C  
HETATM    2  C   UNL     1     -10.871   9.810  67.834  1.00  0.00    -0.298 A  
HETATM    3  C   UNL     1     -10.829  10.853  66.903  1.00  0.00    -0.307 A  
HETATM    4  C   UNL     1     -11.311  12.114  67.234  1.00  0.00    -0.334 A  
HETATM    5  N   UNL     1     -11.774  12.342  68.478  1.00  0.00    -0.312 NA 
HETATM    6  C   UNL     1     -11.392  10.065  69.101  1.00  0.00    -0.094 A  
HETATM    7  N   UNL     1     -11.824  11.309  69.405  1.00  0.00    -0.327 NA 
ENDROOT
BRANCH   4   8
HETATM    8  C   UNL     1     -11.336  13.223  66.267  1.00  0.00    -0.336 A  
HETATM    9  C   UNL     1     -10.635  15.479  65.613  1.00  0.00    -0.389 A  
HETATM   10  C   UNL     1     -10.558  14.382  66.472  1.00  0.00    -0.296 A  
HETATM   11  C   UNL     1     -12.157  13.191  65.125  1.00  0.00    -0.463 A  
HETATM   12  C   UNL     1     -11.482  15.435  64.512  1.00  0.00    -0.314 A  
HETATM   13  C   UNL     1     -12.232  14.289  64.261  1.00  0.00    -0.451 A  
ENDBRANCH   4   8
BRANCH   6  14
HETATM   14  N   UNL     1     -11.532   9.001  69.998  1.00  0.00    -0.449 NA 
HETATM   15  H   UNL     1     -11.514   8.029  69.691  1.00  0.00     0.000 HD 
BRANCH  14  16
HETATM   16  C   UNL     1     -11.705   9.362  71.398  1.00  0.00    -0.378 C  
BRANCH  16  17
HETATM   17  C   UNL     1     -10.691   8.575  72.259  1.00  0.00    -0.341 C  
BRANCH  17  18
HETATM   18  N   UNL     1     -11.270   7.478  73.073  1.00  0.00    -0.357 NA 
HETATM   19  C   UNL     1     -11.770   6.351  72.251  1.00  0.00    -0.290 C  
HETATM   20  C   UNL     1     -10.657   5.546  71.559  1.00  0.00    -0.237 C  
HETATM   21  O   UNL     1      -9.709   5.043  72.509  1.00  0.00    -0.150 OA 
HETATM   22  C   UNL     1      -9.151   6.102  73.297  1.00  0.00    -0.129 C  
HETATM   23  C   UNL     1     -10.247   6.925  73.998  1.00  0.00    -0.350 C  
ENDBRANCH  17  18
ENDBRANCH  16  17
ENDBRANCH  14  16
ENDBRANCH   6  14
TORSDOF 5
ENDMDL
MODEL       62
REMARK 921   NORMALIZED FREE ENERGY PREDICTED BY IDOCK:   -5.23 KCAL/MOL
REMARK 922        TOTAL FREE ENERGY PREDICTED BY IDOCK:   -7.47 KCAL/MOL
REMARK 923 INTER-LIGAND FREE ENERGY PREDICTED BY IDOCK:   -6.89 KCAL/MOL
REMARK 924 INTRA-LIGAND FREE ENERGY PREDICTED BY IDOCK:   -0.58 KCAL/MOL
REMARK 927      BINDING AFFINITY PREDICTED BY RF-SCORE:    0.00 PKD
ROOT
HETATM    1  C   UNL     1      -8.949   9.349  68.073  1.00  0.00    -0.128 C  
HETATM    2  C   UNL     1      -9.831   9.066  69.254  1.00  0.00    -0.179 A  
HETATM    3  C   UNL     1      -9.823   7.789  69.822  1.00  0.00    -0.178 A  
HETATM    4  C   UNL     1     -10.577   7.516  70.958  1.00  0.00    -0.221 A  
HETATM    5  N   UNL     1     -11.359   8.480  71.482  1.00  0.00    -0.265 NA 
HETATM    6  C   UNL     1     -10.619  10.055  69.841  1.00  0.00    -0.282 A  
HETATM    7  N   UNL     1     -11.366   9.754  70.926  1.00  0.00    -0.336 NA 
ENDROOT
BRANCH   4   8
HETATM    8  C   UNL     1     -10.554   6.203  71.619  1.00  0.00    -0.276 A  
HETATM    9  C   UNL     1      -9.797   3.871  71.672  1.00  0.00    -0.247 A  
HETATM   10  C   UNL     1      -9.764   5.148  71.111  1.00  0.00    -0.235 A  
HETATM   11  C   UNL     1     -11.338   5.932  72.755  1.00  0.00    -0.305 A  
HETATM   12  C   UNL     1     -10.609   3.621  72.772  1.00  0.00    -0.184 A  
HETATM   13  C   UNL     1     -11.368   4.652  73.321  1.00  0.00    -0.393 A  
ENDBRANCH   4   8
BRANCH   6  14
HETATM   14  N   UNL     1     -10.548  11.359  69.339  1.00  0.00    -0.424 NA 
HETATM   15  H   UNL     1      -9.730  11.950  69.484  1.00  0.00     0.000 HD 
BRANCH  14  16
HETATM   16  C   UNL     1     -11.711  11.823  68.597  1.00  0.00    -0.330 C  
BRANCH  16  17
HETATM   17  C   UNL     1     -11.385  11.831  67.086  1.00  0.00    -0.322 C  
BRANCH  17  18
HETATM   18  N   UNL     1     -12.265  12.686  66.253  1.00  0.00    -0.566 NA 
HETATM   19  C   UNL     1     -12.112  14.130  66.546  1.00  0.00    -0.454 C  
HETATM   20  C   UNL     1     -10.759  14.713  66.104  1.00  0.00    -0.314 C  
HETATM   21  O   UNL     1     -10.529  14.496  64.706  1.00  0.00    -0.423 OA 
HETATM   22  C   UNL     1     -10.611  13.104  64.376  1.00  0.00    -0.421 C  
HETATM   23  C   UNL     1     -11.958  12.497  64.812  1.00  0.00    -0.409 C  
ENDBRANCH  17  18
ENDBRANCH  16  17
ENDBRANCH  14  16
ENDBRANCH   6  14
TORSDOF 5
ENDMDL
MODEL       63
REMARK 921   NORMALIZED FREE ENERGY PREDICTED BY IDOCK:   -5.22 KCAL/MOL
REMARK 922        TOTAL FREE ENERGY PREDICTED BY IDOCK:   -7.46 KCAL/MOL
REMARK 923 INTER-LIGAND FREE ENERGY PREDICTED BY IDOCK:   -7.07 KCAL/MOL
REMARK 924 INTRA-LIGAND FREE ENERGY PREDICTED BY IDOCK:   -0.39 KCAL/MOL
REMARK 927      BINDING AFFINITY PREDICTED BY RF-SCORE:    0.00 PKD
ROOT
HETATM    1  C   UNL     1     -12.292  11.931  70.538  1.00  0.00    -0.372 C  
HETATM    2  C   UNL     1     -11.677  10.606  70.191  1.00  0.00    -0.417 A  
HETATM    3  C   UNL     1     -11.500   9.651  71.197  1.00  0.00    -0.456 A  
HETATM    4  C   UNL     1     -10.997   8.391  70.893  1.00  0.00    -0.243 A  
HETATM    5  N   UNL     1     -10.630   8.111  69.628  1.00  0.00    -0.228 NA 
HETATM    6  C   UNL     1     -11.326  10.275  68.884  1.00  0.00    -0.173 A  
HETATM    7  N   UNL     1     -10.810   9.053  68.623  1.00  0.00    -0.087 NA 
ENDROOT
BRANCH   4   8
HETATM    8  C   UNL     1     -10.847   7.340  71.911  1.00  0.00    -0.255 A  
HETATM    9  C   UNL     1     -11.230   5.032  72.644  1.00  0.00    -0.239 A  
HETATM   10  C   UNL     1     -11.284   6.021  71.661  1.00  0.00    -0.328 A  
HETATM   11  C   UNL     1     -10.299   7.608  73.178  1.00  0.00    -0.411 A  
HETATM   12  C   UNL     1     -10.718   5.333  73.900  1.00  0.00    -0.320 A  
HETATM   13  C   UNL     1     -10.241   6.616  74.163  1.00  0.00    -0.390 A  
ENDBRANCH   4   8
BRANCH   6  14
HETATM   14  N   UNL     1     -11.599  11.189  67.861  1.00  0.00    -0.540 NA 
HETATM   15  H   UNL     1     -12.370  11.854  67.922  1.00  0.00     0.000 HD 
BRANCH  14  16
HETATM   16  C   UNL     1     -10.719  11.135  66.703  1.00  0.00    -0.269 C  
BRANCH  16  17
HETATM   17  C   UNL     1     -10.176  12.553  66.406  1.00  0.00    -0.244 C  
BRANCH  17  18
HETATM   18  N   UNL     1     -11.096  13.435  65.648  1.00  0.00    -0.285 NA 
HETATM   19  C   UNL     1     -12.099  14.102  66.511  1.00  0.00    -0.454 C  
HETATM   20  C   UNL     1     -11.502  15.163  67.451  1.00  0.00    -0.277 C  
HETATM   21  O   UNL     1     -10.783  16.163  66.719  1.00  0.00    -0.310 OA 
HETATM   22  C   UNL     1      -9.759  15.576  65.906  1.00  0.00    -0.357 C  
HETATM   23  C   UNL     1     -10.332  14.507  64.958  1.00  0.00    -0.413 C  
ENDBRANCH  17  18
ENDBRANCH  16  17
ENDBRANCH  14  16
ENDBRANCH   6  14
TORSDOF 5
ENDMDL
MODEL       64
REMARK 921   NORMALIZED FREE ENERGY PREDICTED BY IDOCK:   -5.21 KCAL/MOL
REMARK 922        TOTAL FREE ENERGY PREDICTED BY IDOCK:   -7.44 KCAL/MOL
REMARK 923 INTER-LIGAND FREE ENERGY PREDICTED BY IDOCK:   -7.04 KCAL/MOL
REMARK 924 INTRA-LIGAND FREE ENERGY PREDICTED BY IDOCK:   -0.41 KCAL/MOL
REMARK 927      BINDING AFFINITY PREDICTED BY RF-SCORE:    0.00 PKD
ROOT
HETATM    1  C   UNL     1      -8.891  15.015  67.157  1.00  0.00    -0.233 C  
HETATM    2  C   UNL     1      -9.985  13.988  67.179  1.00  0.00    -0.252 A  
HETATM    3  C   UNL     1      -9.660  12.640  66.996  1.00  0.00    -0.219 A  
HETATM    4  C   UNL     1     -10.642  11.660  67.080  1.00  0.00    -0.232 A  
HETATM    5  N   UNL     1     -11.924  12.021  67.289  1.00  0.00    -0.590 NA 
HETATM    6  C   UNL     1     -11.312  14.328  67.433  1.00  0.00    -0.332 A  
HETATM    7  N   UNL     1     -12.251  13.357  67.478  1.00  0.00    -0.265 NA 
ENDROOT
BRANCH   4   8
HETATM    8  C   UNL     1     -10.335  10.228  66.949  1.00  0.00    -0.298 A  
HETATM    9  C   UNL     1     -10.456   7.945  67.836  1.00  0.00    -0.261 A  
HETATM   10  C   UNL     1     -10.810   9.294  67.895  1.00  0.00    -0.181 A  
HETATM   11  C   UNL     1      -9.533   9.735  65.904  1.00  0.00    -0.285 A  
HETATM   12  C   UNL     1      -9.632   7.492  66.814  1.00  0.00    -0.265 A  
HETATM   13  C   UNL     1      -9.181   8.382  65.841  1.00  0.00    -0.217 A  
ENDBRANCH   4   8
BRANCH   6  14
HETATM   14  N   UNL     1     -11.622  15.662  67.721  1.00  0.00    -0.213 NA 
HETATM   15  H   UNL     1     -12.053  16.277  67.031  1.00  0.00     0.000 HD 
BRANCH  14  16
HETATM   16  C   UNL     1     -11.294  16.120  69.063  1.00  0.00    -0.340 C  
BRANCH  16  17
HETATM   17  C   UNL     1     -12.350  15.588  70.059  1.00  0.00    -0.317 C  
BRANCH  17  18
HETATM   18  N   UNL     1     -11.845  14.609  71.052  1.00  0.00    -0.327 NA 
HETATM   19  C   UNL     1     -11.425  15.242  72.324  1.00  0.00    -0.385 C  
HETATM   20  C   UNL     1     -12.592  15.811  73.150  1.00  0.00    -0.494 C  
HETATM   21  O   UNL     1     -13.569  14.803  73.435  1.00  0.00    -0.438 OA 
HETATM   22  C   UNL     1     -14.053  14.193  72.231  1.00  0.00    -0.533 C  
HETATM   23  C   UNL     1     -12.901  13.619  71.385  1.00  0.00    -0.360 C  
ENDBRANCH  17  18
ENDBRANCH  16  17
ENDBRANCH  14  16
ENDBRANCH   6  14
TORSDOF 5
ENDMDL
MODEL       65
REMARK 921   NORMALIZED FREE ENERGY PREDICTED BY IDOCK:   -5.19 KCAL/MOL
REMARK 922        TOTAL FREE ENERGY PREDICTED BY IDOCK:   -7.42 KCAL/MOL
REMARK 923 INTER-LIGAND FREE ENERGY PREDICTED BY IDOCK:   -6.89 KCAL/MOL
REMARK 924 INTRA-LIGAND FREE ENERGY PREDICTED BY IDOCK:   -0.53 KCAL/MOL
REMARK 927      BINDING AFFINITY PREDICTED BY RF-SCORE:    0.00 PKD
ROOT
HETATM    1  C   UNL     1     -10.329   9.428  68.027  1.00  0.00    -0.267 C  
HETATM    2  C   UNL     1     -10.739   9.062  69.423  1.00  0.00    -0.202 A  
HETATM    3  C   UNL     1     -10.567   7.746  69.864  1.00  0.00    -0.239 A  
HETATM    4  C   UNL     1     -10.874   7.393  71.173  1.00  0.00    -0.242 A  
HETATM    5  N   UNL     1     -11.390   8.318  72.005  1.00  0.00    -0.301 NA 
HETATM    6  C   UNL     1     -11.238  10.006  70.318  1.00  0.00    -0.313 A  
HETATM    7  N   UNL     1     -11.557   9.629  71.576  1.00  0.00    -0.387 NA 
ENDROOT
BRANCH   4   8
HETATM    8  C   UNL     1     -10.655   6.035  71.692  1.00  0.00    -0.286 A  
HETATM    9  C   UNL     1      -9.760   3.772  71.393  1.00  0.00    -0.242 A  
HETATM   10  C   UNL     1      -9.904   5.090  70.959  1.00  0.00    -0.266 A  
HETATM   11  C   UNL     1     -11.209   5.610  72.913  1.00  0.00    -0.338 A  
HETATM   12  C   UNL     1     -10.349   3.369  72.586  1.00  0.00    -0.217 A  
HETATM   13  C   UNL     1     -11.062   4.289  73.351  1.00  0.00    -0.371 A  
ENDBRANCH   4   8
BRANCH   6  14
HETATM   14  N   UNL     1     -11.312  11.344  69.914  1.00  0.00    -0.443 NA 
HETATM   15  H   UNL     1     -10.512  11.833  69.514  1.00  0.00     0.000 HD 
BRANCH  14  16
HETATM   16  C   UNL     1     -12.601  11.996  70.096  1.00  0.00     0.072 C  
BRANCH  16  17
HETATM   17  C   UNL     1     -12.457  13.133  71.134  1.00  0.00    -0.287 C  
BRANCH  17  18
HETATM   18  N   UNL     1     -13.431  14.243  70.996  1.00  0.00    -0.285 NA 
HETATM   19  C   UNL     1     -14.088  14.597  72.276  1.00  0.00    -0.491 C  
HETATM   20  C   UNL     1     -13.146  15.258  73.296  1.00  0.00    -0.513 C  
HETATM   21  O   UNL     1     -12.530  16.432  72.751  1.00  0.00    -0.422 OA 
HETATM   22  C   UNL     1     -11.830  16.135  71.536  1.00  0.00    -0.463 C  
HETATM   23  C   UNL     1     -12.753  15.468  70.499  1.00  0.00    -0.388 C  
ENDBRANCH  17  18
ENDBRANCH  16  17
ENDBRANCH  14  16
ENDBRANCH   6  14
TORSDOF 5
ENDMDL
MODEL       66
REMARK 921   NORMALIZED FREE ENERGY PREDICTED BY IDOCK:   -5.19 KCAL/MOL
REMARK 922        TOTAL FREE ENERGY PREDICTED BY IDOCK:   -7.41 KCAL/MOL
REMARK 923 INTER-LIGAND FREE ENERGY PREDICTED BY IDOCK:   -6.68 KCAL/MOL
REMARK 924 INTRA-LIGAND FREE ENERGY PREDICTED BY IDOCK:   -0.73 KCAL/MOL
REMARK 927      BINDING AFFINITY PREDICTED BY RF-SCORE:    0.00 PKD
ROOT
HETATM    1  C   UNL     1     -11.019  10.231  67.882  1.00  0.00    -0.350 C  
HETATM    2  C   UNL     1     -11.291  11.555  68.534  1.00  0.00    -0.337 A  
HETATM    3  C   UNL     1     -10.739  12.714  67.981  1.00  0.00    -0.243 A  
HETATM    4  C   UNL     1     -11.029  13.962  68.522  1.00  0.00    -0.257 A  
HETATM    5  N   UNL     1     -11.809  14.045  69.618  1.00  0.00    -0.309 NA 
HETATM    6  C   UNL     1     -12.126  11.675  69.643  1.00  0.00    -0.280 A  
HETATM    7  N   UNL     1     -12.366  12.897  70.167  1.00  0.00    -0.232 NA 
ENDROOT
BRANCH   4   8
HETATM    8  C   UNL     1     -10.514  15.210  67.938  1.00  0.00    -0.245 A  
HETATM    9  C   UNL     1     -10.594  17.653  67.753  1.00  0.00    -0.380 A  
HETATM   10  C   UNL     1     -11.007  16.465  68.356  1.00  0.00    -0.353 A  
HETATM   11  C   UNL     1      -9.541  15.206  66.923  1.00  0.00    -0.252 A  
HETATM   12  C   UNL     1      -9.658  17.617  66.726  1.00  0.00    -0.297 A  
HETATM   13  C   UNL     1      -9.122  16.397  66.320  1.00  0.00    -0.362 A  
ENDBRANCH   4   8
BRANCH   6  14
HETATM   14  N   UNL     1     -12.764  10.529  70.133  1.00  0.00    -0.508 NA 
HETATM   15  H   UNL     1     -13.352   9.944  69.541  1.00  0.00     0.000 HD 
BRANCH  14  16
HETATM   16  C   UNL     1     -12.537  10.223  71.538  1.00  0.00    -0.440 C  
BRANCH  16  17
HETATM   17  C   UNL     1     -11.427   9.153  71.656  1.00  0.00    -0.381 C  
BRANCH  17  18
HETATM   18  N   UNL     1     -11.646   7.924  70.857  1.00  0.00    -0.284 NA 
HETATM   19  C   UNL     1     -10.405   7.415  70.228  1.00  0.00    -0.212 C  
HETATM   20  C   UNL     1      -9.389   6.845  71.233  1.00  0.00    -0.164 C  
HETATM   21  O   UNL     1      -9.968   5.801  72.025  1.00  0.00    -0.170 OA 
HETATM   22  C   UNL     1     -11.147   6.256  72.702  1.00  0.00    -0.263 C  
HETATM   23  C   UNL     1     -12.179   6.835  71.716  1.00  0.00    -0.358 C  
ENDBRANCH  17  18
ENDBRANCH  16  17
ENDBRANCH  14  16
ENDBRANCH   6  14
TORSDOF 5
ENDMDL
MODEL       67
REMARK 921   NORMALIZED FREE ENERGY PREDICTED BY IDOCK:   -5.18 KCAL/MOL
REMARK 922        TOTAL FREE ENERGY PREDICTED BY IDOCK:   -7.40 KCAL/MOL
REMARK 923 INTER-LIGAND FREE ENERGY PREDICTED BY IDOCK:   -6.82 KCAL/MOL
REMARK 924 INTRA-LIGAND FREE ENERGY PREDICTED BY IDOCK:   -0.58 KCAL/MOL
REMARK 927      BINDING AFFINITY PREDICTED BY RF-SCORE:    0.00 PKD
ROOT
HETATM    1  C   UNL     1     -13.349  10.601  71.936  1.00  0.00    -0.454 C  
HETATM    2  C   UNL     1     -12.247  10.069  71.067  1.00  0.00    -0.462 A  
HETATM    3  C   UNL     1     -11.896   8.719  71.158  1.00  0.00    -0.345 A  
HETATM    4  C   UNL     1     -10.927   8.182  70.319  1.00  0.00    -0.240 A  
HETATM    5  N   UNL     1     -10.287   8.985  69.446  1.00  0.00    -0.208 NA 
HETATM    6  C   UNL     1     -11.596  10.867  70.128  1.00  0.00    -0.338 A  
HETATM    7  N   UNL     1     -10.636  10.326  69.346  1.00  0.00    -0.221 NA 
ENDROOT
BRANCH   4   8
HETATM    8  C   UNL     1     -10.568   6.756  70.344  1.00  0.00    -0.262 A  
HETATM    9  C   UNL     1     -10.206   4.685  71.605  1.00  0.00    -0.233 A  
HETATM   10  C   UNL     1     -10.626   6.014  71.544  1.00  0.00    -0.295 A  
HETATM   11  C   UNL     1     -10.122   6.084  69.192  1.00  0.00    -0.229 A  
HETATM   12  C   UNL     1      -9.735   4.056  70.459  1.00  0.00    -0.258 A  
HETATM   13  C   UNL     1      -9.704   4.750  69.251  1.00  0.00    -0.266 A  
ENDBRANCH   4   8
BRANCH   6  14
HETATM   14  N   UNL     1     -12.018  12.191  69.961  1.00  0.00    -0.361 NA 
HETATM   15  H   UNL     1     -12.773  12.591  70.517  1.00  0.00     0.000 HD 
BRANCH  14  16
HETATM   16  C   UNL     1     -11.313  12.964  68.949  1.00  0.00    -0.288 C  
BRANCH  16  17
HETATM   17  C   UNL     1     -12.140  12.969  67.642  1.00  0.00    -0.209 C  
BRANCH  17  18
HETATM   18  N   UNL     1     -11.603  13.826  66.558  1.00  0.00    -0.348 NA 
HETATM   19  C   UNL     1     -10.237  13.438  66.138  1.00  0.00    -0.301 C  
HETATM   20  C   UNL     1     -10.173  12.088  65.402  1.00  0.00    -0.263 C  
HETATM   21  O   UNL     1     -11.031  12.079  64.254  1.00  0.00    -0.302 OA 
HETATM   22  C   UNL     1     -12.382  12.396  64.613  1.00  0.00    -0.441 C  
HETATM   23  C   UNL     1     -12.471  13.743  65.354  1.00  0.00    -0.500 C  
ENDBRANCH  17  18
ENDBRANCH  16  17
ENDBRANCH  14  16
ENDBRANCH   6  14
TORSDOF 5
ENDMDL
MODEL       68
REMARK 921   NORMALIZED FREE ENERGY PREDICTED BY IDOCK:   -5.17 KCAL/MOL
REMARK 922        TOTAL FREE ENERGY PREDICTED BY IDOCK:   -7.39 KCAL/MOL
REMARK 923 INTER-LIGAND FREE ENERGY PREDICTED BY IDOCK:   -6.94 KCAL/MOL
REMARK 924 INTRA-LIGAND FREE ENERGY PREDICTED BY IDOCK:   -0.45 KCAL/MOL
REMARK 927      BINDING AFFINITY PREDICTED BY RF-SCORE:    0.00 PKD
ROOT
HETATM    1  C   UNL     1     -12.566  13.648  70.507  1.00  0.00    -0.337 C  
HETATM    2  C   UNL     1     -11.877  13.481  69.184  1.00  0.00    -0.386 A  
HETATM    3  C   UNL     1     -11.509  12.199  68.762  1.00  0.00    -0.359 A  
HETATM    4  C   UNL     1     -10.932  12.006  67.513  1.00  0.00    -0.253 A  
HETATM    5  N   UNL     1     -10.680  13.070  66.726  1.00  0.00    -0.261 NA 
HETATM    6  C   UNL     1     -11.640  14.558  68.333  1.00  0.00    -0.326 A  
HETATM    7  N   UNL     1     -11.049  14.345  67.137  1.00  0.00    -0.303 NA 
ENDROOT
BRANCH   4   8
HETATM    8  C   UNL     1     -10.581  10.669  67.008  1.00  0.00    -0.317 A  
HETATM    9  C   UNL     1     -10.450   8.245  67.347  1.00  0.00    -0.353 A  
HETATM   10  C   UNL     1     -10.854   9.512  67.769  1.00  0.00    -0.258 A  
HETATM   11  C   UNL     1      -9.933  10.491  65.773  1.00  0.00    -0.318 A  
HETATM   12  C   UNL     1      -9.779   8.101  66.139  1.00  0.00    -0.154 A  
HETATM   13  C   UNL     1      -9.532   9.220  65.346  1.00  0.00    -0.281 A  
ENDBRANCH   4   8
BRANCH   6  14
HETATM   14  N   UNL     1     -12.102  15.826  68.707  1.00  0.00    -0.545 NA 
HETATM   15  H   UNL     1     -12.990  16.198  68.370  1.00  0.00     0.000 HD 
BRANCH  14  16
HETATM   16  C   UNL     1     -11.240  16.581  69.604  1.00  0.00    -0.154 C  
BRANCH  16  17
HETATM   17  C   UNL     1     -10.072  17.193  68.797  1.00  0.00    -0.329 C  
BRANCH  17  18
HETATM   18  N   UNL     1     -10.433  17.715  67.457  1.00  0.00    -0.364 NA 
HETATM   19  C   UNL     1     -10.697  19.173  67.457  1.00  0.00    -0.458 C  
HETATM   20  C   UNL     1      -9.443  20.031  67.695  1.00  0.00    -0.376 C  
HETATM   21  O   UNL     1      -8.424  19.745  66.729  1.00  0.00    -0.293 OA 
HETATM   22  C   UNL     1      -8.089  18.351  66.725  1.00  0.00    -0.251 C  
HETATM   23  C   UNL     1      -9.331  17.470  66.492  1.00  0.00    -0.265 C  
ENDBRANCH  17  18
ENDBRANCH  16  17
ENDBRANCH  14  16
ENDBRANCH   6  14
TORSDOF 5
ENDMDL
MODEL       69
REMARK 921   NORMALIZED FREE ENERGY PREDICTED BY IDOCK:   -5.15 KCAL/MOL
REMARK 922        TOTAL FREE ENERGY PREDICTED BY IDOCK:   -7.36 KCAL/MOL
REMARK 923 INTER-LIGAND FREE ENERGY PREDICTED BY IDOCK:   -7.00 KCAL/MOL
REMARK 924 INTRA-LIGAND FREE ENERGY PREDICTED BY IDOCK:   -0.37 KCAL/MOL
REMARK 927      BINDING AFFINITY PREDICTED BY RF-SCORE:    0.00 PKD
ROOT
HETATM    1  C   UNL     1     -12.317   8.052  72.138  1.00  0.00    -0.358 C  
HETATM    2  C   UNL     1     -12.013   9.223  71.250  1.00  0.00    -0.414 A  
HETATM    3  C   UNL     1     -12.557  10.473  71.557  1.00  0.00    -0.529 A  
HETATM    4  C   UNL     1     -12.238  11.589  70.792  1.00  0.00    -0.363 A  
HETATM    5  N   UNL     1     -11.438  11.450  69.717  1.00  0.00    -0.298 NA 
HETATM    6  C   UNL     1     -11.157   9.116  70.156  1.00  0.00    -0.222 A  
HETATM    7  N   UNL     1     -10.888  10.211  69.411  1.00  0.00    -0.227 NA 
ENDROOT
BRANCH   4   8
HETATM    8  C   UNL     1     -12.745  12.932  71.113  1.00  0.00    -0.366 A  
HETATM    9  C   UNL     1     -12.760  15.347  70.692  1.00  0.00    -0.490 A  
HETATM   10  C   UNL     1     -12.361  14.055  70.349  1.00  0.00    -0.429 A  
HETATM   11  C   UNL     1     -13.599  13.159  72.208  1.00  0.00    -0.677 A  
HETATM   12  C   UNL     1     -13.575  15.547  71.800  1.00  0.00    -0.578 A  
HETATM   13  C   UNL     1     -14.004  14.454  72.550  1.00  0.00    -0.508 A  
ENDBRANCH   4   8
BRANCH   6  14
HETATM   14  N   UNL     1     -10.528   7.890  69.909  1.00  0.00    -0.225 NA 
HETATM   15  H   UNL     1     -10.198   7.291  70.665  1.00  0.00     0.000 HD 
BRANCH  14  16
HETATM   16  C   UNL     1     -10.373   7.522  68.510  1.00  0.00    -0.199 C  
BRANCH  16  17
HETATM   17  C   UNL     1     -10.592   5.999  68.354  1.00  0.00    -0.261 C  
BRANCH  17  18
HETATM   18  N   UNL     1      -9.375   5.214  68.034  1.00  0.00    -0.116 NA 
HETATM   19  C   UNL     1      -9.665   3.997  67.240  1.00  0.00    -0.153 C  
HETATM   20  C   UNL     1     -10.122   4.289  65.801  1.00  0.00    -0.212 C  
HETATM   21  O   UNL     1      -9.157   5.082  65.098  1.00  0.00    -0.157 OA 
HETATM   22  C   UNL     1      -8.879   6.302  65.797  1.00  0.00    -0.111 C  
HETATM   23  C   UNL     1      -8.423   6.036  67.243  1.00  0.00    -0.104 C  
ENDBRANCH  17  18
ENDBRANCH  16  17
ENDBRANCH  14  16
ENDBRANCH   6  14
TORSDOF 5
ENDMDL
MODEL       70
REMARK 921   NORMALIZED FREE ENERGY PREDICTED BY IDOCK:   -5.15 KCAL/MOL
REMARK 922        TOTAL FREE ENERGY PREDICTED BY IDOCK:   -7.36 KCAL/MOL
REMARK 923 INTER-LIGAND FREE ENERGY PREDICTED BY IDOCK:   -6.90 KCAL/MOL
REMARK 924 INTRA-LIGAND FREE ENERGY PREDICTED BY IDOCK:   -0.47 KCAL/MOL
REMARK 927      BINDING AFFINITY PREDICTED BY RF-SCORE:    0.00 PKD
ROOT
HETATM    1  C   UNL     1     -11.093  11.830  66.494  1.00  0.00    -0.364 C  
HETATM    2  C   UNL     1     -11.352  11.576  67.951  1.00  0.00    -0.372 A  
HETATM    3  C   UNL     1     -11.691  12.648  68.781  1.00  0.00    -0.364 A  
HETATM    4  C   UNL     1     -12.003  12.434  70.119  1.00  0.00    -0.298 A  
HETATM    5  N   UNL     1     -11.927  11.188  70.627  1.00  0.00    -0.362 NA 
HETATM    6  C   UNL     1     -11.320  10.293  68.494  1.00  0.00    -0.168 A  
HETATM    7  N   UNL     1     -11.597  10.117  69.805  1.00  0.00    -0.215 NA 
ENDROOT
BRANCH   4   8
HETATM    8  C   UNL     1     -12.418  13.525  71.013  1.00  0.00    -0.451 A  
HETATM    9  C   UNL     1     -13.844  14.350  72.829  1.00  0.00    -0.368 A  
HETATM   10  C   UNL     1     -13.373  13.308  72.029  1.00  0.00    -0.582 A  
HETATM   11  C   UNL     1     -11.913  14.830  70.873  1.00  0.00    -0.384 A  
HETATM   12  C   UNL     1     -13.354  15.637  72.645  1.00  0.00    -0.623 A  
HETATM   13  C   UNL     1     -12.381  15.875  71.677  1.00  0.00    -0.519 A  
ENDBRANCH   4   8
BRANCH   6  14
HETATM   14  N   UNL     1     -11.084   9.207  67.643  1.00  0.00    -0.441 NA 
HETATM   15  H   UNL     1     -11.845   8.697  67.195  1.00  0.00     0.000 HD 
BRANCH  14  16
HETATM   16  C   UNL     1      -9.689   8.848  67.436  1.00  0.00    -0.176 C  
BRANCH  16  17
HETATM   17  C   UNL     1      -9.412   7.471  68.083  1.00  0.00    -0.143 C  
BRANCH  17  18
HETATM   18  N   UNL     1     -10.326   7.098  69.190  1.00  0.00    -0.194 NA 
HETATM   19  C   UNL     1     -10.876   5.730  69.048  1.00  0.00    -0.260 C  
HETATM   20  C   UNL     1      -9.832   4.617  69.241  1.00  0.00    -0.190 C  
HETATM   21  O   UNL     1      -9.184   4.726  70.515  1.00  0.00    -0.123 OA 
HETATM   22  C   UNL     1      -8.583   6.016  70.683  1.00  0.00    -0.134 C  
HETATM   23  C   UNL     1      -9.610   7.148  70.491  1.00  0.00    -0.169 C  
ENDBRANCH  17  18
ENDBRANCH  16  17
ENDBRANCH  14  16
ENDBRANCH   6  14
TORSDOF 5
ENDMDL
MODEL       71
REMARK 921   NORMALIZED FREE ENERGY PREDICTED BY IDOCK:   -5.13 KCAL/MOL
REMARK 922        TOTAL FREE ENERGY PREDICTED BY IDOCK:   -7.34 KCAL/MOL
REMARK 923 INTER-LIGAND FREE ENERGY PREDICTED BY IDOCK:   -6.78 KCAL/MOL
REMARK 924 INTRA-LIGAND FREE ENERGY PREDICTED BY IDOCK:   -0.56 KCAL/MOL
REMARK 927      BINDING AFFINITY PREDICTED BY RF-SCORE:    0.00 PKD
ROOT
HETATM    1  C   UNL     1     -12.718  12.082  71.289  1.00  0.00    -0.382 C  
HETATM    2  C   UNL     1     -12.061  11.322  70.174  1.00  0.00    -0.448 A  
HETATM    3  C   UNL     1     -12.056  11.866  68.886  1.00  0.00    -0.213 A  
HETATM    4  C   UNL     1     -11.397  11.218  67.848  1.00  0.00    -0.299 A  
HETATM    5  N   UNL     1     -10.803  10.031  68.078  1.00  0.00    -0.260 NA 
HETATM    6  C   UNL     1     -11.404  10.113  70.391  1.00  0.00    -0.326 A  
HETATM    7  N   UNL     1     -10.798   9.488  69.357  1.00  0.00    -0.225 NA 
ENDROOT
BRANCH   4   8
HETATM    8  C   UNL     1     -11.321  11.783  66.492  1.00  0.00    -0.370 A  
HETATM    9  C   UNL     1     -10.277  11.835  64.274  1.00  0.00    -0.344 A  
HETATM   10  C   UNL     1     -10.426  11.257  65.535  1.00  0.00    -0.323 A  
HETATM   11  C   UNL     1     -12.104  12.885  66.104  1.00  0.00    -0.458 A  
HETATM   12  C   UNL     1     -11.037  12.946  63.930  1.00  0.00    -0.454 A  
HETATM   13  C   UNL     1     -11.958  13.463  64.838  1.00  0.00    -0.414 A  
ENDBRANCH   4   8
BRANCH   6  14
HETATM   14  N   UNL     1     -11.317   9.619  71.698  1.00  0.00    -0.347 NA 
HETATM   15  H   UNL     1     -11.969   9.905  72.428  1.00  0.00     0.000 HD 
BRANCH  14  16
HETATM   16  C   UNL     1     -10.242   8.672  71.953  1.00  0.00    -0.334 C  
BRANCH  16  17
HETATM   17  C   UNL     1     -10.740   7.582  72.930  1.00  0.00    -0.358 C  
BRANCH  17  18
HETATM   18  N   UNL     1      -9.718   6.592  73.347  1.00  0.00    -0.160 NA 
HETATM   19  C   UNL     1     -10.281   5.489  74.160  1.00  0.00    -0.265 C  
HETATM   20  C   UNL     1     -11.197   4.539  73.370  1.00  0.00    -0.315 C  
HETATM   21  O   UNL     1     -10.517   3.980  72.239  1.00  0.00    -0.149 OA 
HETATM   22  C   UNL     1      -9.998   5.008  71.385  1.00  0.00    -0.193 C  
HETATM   23  C   UNL     1      -9.079   5.975  72.156  1.00  0.00    -0.142 C  
ENDBRANCH  17  18
ENDBRANCH  16  17
ENDBRANCH  14  16
ENDBRANCH   6  14
TORSDOF 5
ENDMDL
MODEL       72
REMARK 921   NORMALIZED FREE ENERGY PREDICTED BY IDOCK:   -5.10 KCAL/MOL
REMARK 922        TOTAL FREE ENERGY PREDICTED BY IDOCK:   -7.30 KCAL/MOL
REMARK 923 INTER-LIGAND FREE ENERGY PREDICTED BY IDOCK:   -6.64 KCAL/MOL
REMARK 924 INTRA-LIGAND FREE ENERGY PREDICTED BY IDOCK:   -0.65 KCAL/MOL
REMARK 927      BINDING AFFINITY PREDICTED BY RF-SCORE:    0.00 PKD
ROOT
HETATM    1  C   UNL     1     -10.512   7.227  67.640  1.00  0.00    -0.310 C  
HETATM    2  C   UNL     1     -10.200   8.694  67.696  1.00  0.00    -0.300 A  
HETATM    3  C   UNL     1     -10.776   9.551  66.754  1.00  0.00    -0.136 A  
HETATM    4  C   UNL     1     -10.561  10.923  66.822  1.00  0.00    -0.259 A  
HETATM    5  N   UNL     1      -9.748  11.420  67.775  1.00  0.00    -0.172 NA 
HETATM    6  C   UNL     1      -9.396   9.241  68.694  1.00  0.00    -0.139 A  
HETATM    7  N   UNL     1      -9.178  10.574  68.718  1.00  0.00    -0.168 NA 
ENDROOT
BRANCH   4   8
HETATM    8  C   UNL     1     -11.192  11.864  65.885  1.00  0.00    -0.373 A  
HETATM    9  C   UNL     1     -11.623  12.595  63.585  1.00  0.00    -0.575 A  
HETATM   10  C   UNL     1     -11.106  11.667  64.490  1.00  0.00    -0.365 A  
HETATM   11  C   UNL     1     -11.874  13.010  66.333  1.00  0.00    -0.465 A  
HETATM   12  C   UNL     1     -12.259  13.738  64.055  1.00  0.00    -0.429 A  
HETATM   13  C   UNL     1     -12.396  13.939  65.427  1.00  0.00    -0.494 A  
ENDBRANCH   4   8
BRANCH   6  14
HETATM   14  N   UNL     1      -8.904   8.400  69.699  1.00  0.00    -0.140 NA 
HETATM   15  H   UNL     1      -8.598   7.447  69.504  1.00  0.00     0.000 HD 
BRANCH  14  16
HETATM   16  C   UNL     1      -8.854   8.966  71.039  1.00  0.00    -0.230 C  
BRANCH  16  17
HETATM   17  C   UNL     1      -9.051   7.838  72.079  1.00  0.00    -0.137 C  
BRANCH  17  18
HETATM   18  N   UNL     1     -10.213   8.009  72.984  1.00  0.00    -0.322 NA 
HETATM   19  C   UNL     1     -11.465   8.333  72.261  1.00  0.00    -0.384 C  
HETATM   20  C   UNL     1     -12.014   7.171  71.416  1.00  0.00    -0.328 C  
HETATM   21  O   UNL     1     -12.231   6.002  72.216  1.00  0.00    -0.281 OA 
HETATM   22  C   UNL     1     -11.033   5.609  72.897  1.00  0.00    -0.282 C  
HETATM   23  C   UNL     1     -10.461   6.759  73.748  1.00  0.00    -0.354 C  
ENDBRANCH  17  18
ENDBRANCH  16  17
ENDBRANCH  14  16
ENDBRANCH   6  14
TORSDOF 5
ENDMDL
MODEL       73
REMARK 921   NORMALIZED FREE ENERGY PREDICTED BY IDOCK:   -5.09 KCAL/MOL
REMARK 922        TOTAL FREE ENERGY PREDICTED BY IDOCK:   -7.28 KCAL/MOL
REMARK 923 INTER-LIGAND FREE ENERGY PREDICTED BY IDOCK:   -6.60 KCAL/MOL
REMARK 924 INTRA-LIGAND FREE ENERGY PREDICTED BY IDOCK:   -0.69 KCAL/MOL
REMARK 927      BINDING AFFINITY PREDICTED BY RF-SCORE:    0.00 PKD
ROOT
HETATM    1  C   UNL     1     -11.958  10.725  70.775  1.00  0.00    -0.464 C  
HETATM    2  C   UNL     1     -11.091  10.588  69.558  1.00  0.00    -0.320 A  
HETATM    3  C   UNL     1     -11.537  11.111  68.340  1.00  0.00    -0.376 A  
HETATM    4  C   UNL     1     -10.727  11.060  67.211  1.00  0.00    -0.265 A  
HETATM    5  N   UNL     1      -9.525  10.455  67.284  1.00  0.00    -0.153 NA 
HETATM    6  C   UNL     1      -9.828  10.004  69.613  1.00  0.00    -0.235 A  
HETATM    7  N   UNL     1      -9.074   9.939  68.493  1.00  0.00    -0.123 NA 
ENDROOT
BRANCH   4   8
HETATM    8  C   UNL     1     -11.134  11.647  65.926  1.00  0.00    -0.320 A  
HETATM    9  C   UNL     1     -12.614  13.123  64.645  1.00  0.00    -0.384 A  
HETATM   10  C   UNL     1     -12.155  12.620  65.863  1.00  0.00    -0.459 A  
HETATM   11  C   UNL     1     -10.553  11.242  64.710  1.00  0.00    -0.376 A  
HETATM   12  C   UNL     1     -12.048  12.679  63.457  1.00  0.00    -0.648 A  
HETATM   13  C   UNL     1     -11.010  11.750  63.489  1.00  0.00    -0.499 A  
ENDBRANCH   4   8
BRANCH   6  14
HETATM   14  N   UNL     1      -9.337   9.575  70.851  1.00  0.00    -0.273 NA 
HETATM   15  H   UNL     1      -9.608  10.025  71.725  1.00  0.00     0.000 HD 
BRANCH  14  16
HETATM   16  C   UNL     1      -8.417   8.447  70.819  1.00  0.00    -0.139 C  
BRANCH  16  17
HETATM   17  C   UNL     1      -8.916   7.350  71.787  1.00  0.00    -0.122 C  
BRANCH  17  18
HETATM   18  N   UNL     1      -9.486   6.146  71.138  1.00  0.00    -0.167 NA 
HETATM   19  C   UNL     1      -9.766   5.050  72.097  1.00  0.00    -0.161 C  
HETATM   20  C   UNL     1     -10.927   5.350  73.060  1.00  0.00    -0.297 C  
HETATM   21  O   UNL     1     -12.130   5.659  72.347  1.00  0.00    -0.204 OA 
HETATM   22  C   UNL     1     -11.931   6.752  71.442  1.00  0.00    -0.355 C  
HETATM   23  C   UNL     1     -10.770   6.477  70.468  1.00  0.00    -0.254 C  
ENDBRANCH  17  18
ENDBRANCH  16  17
ENDBRANCH  14  16
ENDBRANCH   6  14
TORSDOF 5
ENDMDL
MODEL       74
REMARK 921   NORMALIZED FREE ENERGY PREDICTED BY IDOCK:   -5.09 KCAL/MOL
REMARK 922        TOTAL FREE ENERGY PREDICTED BY IDOCK:   -7.28 KCAL/MOL
REMARK 923 INTER-LIGAND FREE ENERGY PREDICTED BY IDOCK:   -6.40 KCAL/MOL
REMARK 924 INTRA-LIGAND FREE ENERGY PREDICTED BY IDOCK:   -0.89 KCAL/MOL
REMARK 927      BINDING AFFINITY PREDICTED BY RF-SCORE:    0.00 PKD
ROOT
HETATM    1  C   UNL     1      -8.196  10.046  69.590  1.00  0.00    -0.185 C  
HETATM    2  C   UNL     1      -9.610  10.423  69.259  1.00  0.00    -0.226 A  
HETATM    3  C   UNL     1      -9.874  11.113  68.072  1.00  0.00    -0.185 A  
HETATM    4  C   UNL     1     -11.180  11.415  67.706  1.00  0.00    -0.283 A  
HETATM    5  N   UNL     1     -12.194  11.084  68.530  1.00  0.00    -0.522 NA 
HETATM    6  C   UNL     1     -10.681  10.058  70.072  1.00  0.00    -0.299 A  
HETATM    7  N   UNL     1     -11.939  10.393  69.707  1.00  0.00    -0.211 NA 
ENDROOT
BRANCH   4   8
HETATM    8  C   UNL     1     -11.505  12.090  66.440  1.00  0.00    -0.417 A  
HETATM    9  C   UNL     1     -11.358  12.190  63.994  1.00  0.00    -0.468 A  
HETATM   10  C   UNL     1     -11.137  11.524  65.200  1.00  0.00    -0.260 A  
HETATM   11  C   UNL     1     -12.159  13.335  66.410  1.00  0.00    -0.454 A  
HETATM   12  C   UNL     1     -11.974  13.436  63.997  1.00  0.00    -0.520 A  
HETATM   13  C   UNL     1     -12.386  14.002  65.201  1.00  0.00    -0.468 A  
ENDBRANCH   4   8
BRANCH   6  14
HETATM   14  N   UNL     1     -10.431   9.277  71.206  1.00  0.00    -0.325 NA 
HETATM   15  H   UNL     1      -9.809   9.591  71.951  1.00  0.00     0.000 HD 
BRANCH  14  16
HETATM   16  C   UNL     1     -11.109   7.991  71.260  1.00  0.00    -0.247 C  
BRANCH  16  17
HETATM   17  C   UNL     1     -10.161   6.889  70.733  1.00  0.00    -0.194 C  
BRANCH  17  18
HETATM   18  N   UNL     1     -10.758   5.962  69.742  1.00  0.00    -0.309 NA 
HETATM   19  C   UNL     1     -10.942   6.582  68.409  1.00  0.00    -0.281 C  
HETATM   20  C   UNL     1      -9.624   6.872  67.671  1.00  0.00    -0.126 C  
HETATM   21  O   UNL     1      -8.836   5.684  67.524  1.00  0.00    -0.108 OA 
HETATM   22  C   UNL     1      -8.580   5.071  68.794  1.00  0.00    -0.086 C  
HETATM   23  C   UNL     1      -9.886   4.774  69.554  1.00  0.00    -0.222 C  
ENDBRANCH  17  18
ENDBRANCH  16  17
ENDBRANCH  14  16
ENDBRANCH   6  14
TORSDOF 5
ENDMDL
MODEL       75
REMARK 921   NORMALIZED FREE ENERGY PREDICTED BY IDOCK:   -5.09 KCAL/MOL
REMARK 922        TOTAL FREE ENERGY PREDICTED BY IDOCK:   -7.28 KCAL/MOL
REMARK 923 INTER-LIGAND FREE ENERGY PREDICTED BY IDOCK:   -6.69 KCAL/MOL
REMARK 924 INTRA-LIGAND FREE ENERGY PREDICTED BY IDOCK:   -0.59 KCAL/MOL
REMARK 927      BINDING AFFINITY PREDICTED BY RF-SCORE:    0.00 PKD
ROOT
HETATM    1  C   UNL     1     -12.461  12.673  70.901  1.00  0.00    -0.368 C  
HETATM    2  C   UNL     1     -11.981  12.964  69.510  1.00  0.00    -0.346 A  
HETATM    3  C   UNL     1     -11.643  14.276  69.164  1.00  0.00    -0.346 A  
HETATM    4  C   UNL     1     -11.130  14.565  67.905  1.00  0.00    -0.279 A  
HETATM    5  N   UNL     1     -11.007  13.577  66.996  1.00  0.00    -0.285 NA 
HETATM    6  C   UNL     1     -11.806  11.957  68.563  1.00  0.00    -0.297 A  
HETATM    7  N   UNL     1     -11.335  12.271  67.336  1.00  0.00    -0.303 NA 
ENDROOT
BRANCH   4   8
HETATM    8  C   UNL     1     -10.710  15.921  67.520  1.00  0.00    -0.318 A  
HETATM    9  C   UNL     1     -10.189  18.234  68.144  1.00  0.00    -0.406 A  
HETATM   10  C   UNL     1     -10.501  16.920  68.495  1.00  0.00    -0.361 A  
HETATM   11  C   UNL     1     -10.534  16.287  66.173  1.00  0.00    -0.330 A  
HETATM   12  C   UNL     1     -10.057  18.577  66.804  1.00  0.00    -0.406 A  
HETATM   13  C   UNL     1     -10.217  17.604  65.820  1.00  0.00    -0.160 A  
ENDBRANCH   4   8
BRANCH   6  14
HETATM   14  N   UNL     1     -12.043  10.630  68.939  1.00  0.00    -0.756 NA 
HETATM   15  H   UNL     1     -12.955  10.318  69.272  1.00  0.00     0.000 HD 
BRANCH  14  16
HETATM   16  C   UNL     1     -10.911   9.721  68.827  1.00  0.00    -0.148 C  
BRANCH  16  17
HETATM   17  C   UNL     1     -10.493   9.247  70.239  1.00  0.00    -0.228 C  
BRANCH  17  18
HETATM   18  N   UNL     1      -9.711   7.989  70.277  1.00  0.00    -0.175 NA 
HETATM   19  C   UNL     1      -9.647   7.389  71.630  1.00  0.00    -0.150 C  
HETATM   20  C   UNL     1     -10.991   6.826  72.124  1.00  0.00    -0.238 C  
HETATM   21  O   UNL     1     -11.516   5.855  71.211  1.00  0.00    -0.235 OA 
HETATM   22  C   UNL     1     -11.651   6.400  69.893  1.00  0.00    -0.353 C  
HETATM   23  C   UNL     1     -10.318   6.974  69.378  1.00  0.00    -0.207 C  
ENDBRANCH  17  18
ENDBRANCH  16  17
ENDBRANCH  14  16
ENDBRANCH   6  14
TORSDOF 5
ENDMDL
MODEL       76
REMARK 921   NORMALIZED FREE ENERGY PREDICTED BY IDOCK:   -5.07 KCAL/MOL
REMARK 922        TOTAL FREE ENERGY PREDICTED BY IDOCK:   -7.26 KCAL/MOL
REMARK 923 INTER-LIGAND FREE ENERGY PREDICTED BY IDOCK:   -6.54 KCAL/MOL
REMARK 924 INTRA-LIGAND FREE ENERGY PREDICTED BY IDOCK:   -0.72 KCAL/MOL
REMARK 927      BINDING AFFINITY PREDICTED BY RF-SCORE:    0.00 PKD
ROOT
HETATM    1  C   UNL     1      -8.594   7.687  65.625  1.00  0.00    -0.142 C  
HETATM    2  C   UNL     1      -9.470   8.661  66.357  1.00  0.00    -0.295 A  
HETATM    3  C   UNL     1      -9.956   9.784  65.681  1.00  0.00    -0.352 A  
HETATM    4  C   UNL     1     -10.824  10.668  66.313  1.00  0.00    -0.027 A  
HETATM    5  N   UNL     1     -11.157  10.463  67.602  1.00  0.00    -0.319 NA 
HETATM    6  C   UNL     1      -9.863   8.453  67.678  1.00  0.00    -0.173 A  
HETATM    7  N   UNL     1     -10.683   9.345  68.277  1.00  0.00    -0.204 NA 
ENDROOT
BRANCH   4   8
HETATM    8  C   UNL     1     -11.401  11.830  65.621  1.00  0.00    -0.293 A  
HETATM    9  C   UNL     1     -11.839  13.057  63.544  1.00  0.00    -0.582 A  
HETATM   10  C   UNL     1     -11.377  11.923  64.213  1.00  0.00    -0.425 A  
HETATM   11  C   UNL     1     -11.966  12.907  66.328  1.00  0.00    -0.472 A  
HETATM   12  C   UNL     1     -12.359  14.122  64.269  1.00  0.00    -0.398 A  
HETATM   13  C   UNL     1     -12.435  14.043  65.658  1.00  0.00    -0.531 A  
ENDBRANCH   4   8
BRANCH   6  14
HETATM   14  N   UNL     1      -9.464   7.277  68.322  1.00  0.00    -0.141 NA 
HETATM   15  H   UNL     1      -8.482   7.055  68.481  1.00  0.00     0.000 HD 
BRANCH  14  16
HETATM   16  C   UNL     1     -10.534   6.389  68.752  1.00  0.00    -0.221 C  
BRANCH  16  17
HETATM   17  C   UNL     1     -10.340   6.039  70.246  1.00  0.00    -0.222 C  
BRANCH  17  18
HETATM   18  N   UNL     1     -11.579   6.035  71.060  1.00  0.00    -0.184 NA 
HETATM   19  C   UNL     1     -11.350   5.603  72.459  1.00  0.00    -0.294 C  
HETATM   20  C   UNL     1     -10.542   6.609  73.295  1.00  0.00    -0.291 C  
HETATM   21  O   UNL     1     -11.167   7.899  73.305  1.00  0.00    -0.308 OA 
HETATM   22  C   UNL     1     -11.363   8.392  71.974  1.00  0.00    -0.342 C  
HETATM   23  C   UNL     1     -12.168   7.398  71.115  1.00  0.00    -0.324 C  
ENDBRANCH  17  18
ENDBRANCH  16  17
ENDBRANCH  14  16
ENDBRANCH   6  14
TORSDOF 5
ENDMDL
MODEL       77
REMARK 921   NORMALIZED FREE ENERGY PREDICTED BY IDOCK:   -5.06 KCAL/MOL
REMARK 922        TOTAL FREE ENERGY PREDICTED BY IDOCK:   -7.25 KCAL/MOL
REMARK 923 INTER-LIGAND FREE ENERGY PREDICTED BY IDOCK:   -6.68 KCAL/MOL
REMARK 924 INTRA-LIGAND FREE ENERGY PREDICTED BY IDOCK:   -0.57 KCAL/MOL
REMARK 927      BINDING AFFINITY PREDICTED BY RF-SCORE:    0.00 PKD
ROOT
HETATM    1  C   UNL     1     -12.283   8.049  72.395  1.00  0.00    -0.337 C  
HETATM    2  C   UNL     1     -12.030   9.129  71.384  1.00  0.00    -0.410 A  
HETATM    3  C   UNL     1     -12.492  10.424  71.638  1.00  0.00    -0.471 A  
HETATM    4  C   UNL     1     -12.214  11.460  70.753  1.00  0.00    -0.376 A  
HETATM    5  N   UNL     1     -11.538  11.198  69.618  1.00  0.00    -0.295 NA 
HETATM    6  C   UNL     1     -11.299   8.896  70.221  1.00  0.00    -0.159 A  
HETATM    7  N   UNL     1     -11.070   9.914  69.363  1.00  0.00    -0.223 NA 
ENDROOT
BRANCH   4   8
HETATM    8  C   UNL     1     -12.633  12.846  71.010  1.00  0.00    -0.376 A  
HETATM    9  C   UNL     1     -12.496  15.234  70.472  1.00  0.00    -0.454 A  
HETATM   10  C   UNL     1     -12.181  13.904  70.192  1.00  0.00    -0.425 A  
HETATM   11  C   UNL     1     -13.467  13.179  72.092  1.00  0.00    -0.653 A  
HETATM   12  C   UNL     1     -13.292  15.538  71.570  1.00  0.00    -0.593 A  
HETATM   13  C   UNL     1     -13.788  14.512  72.372  1.00  0.00    -0.587 A  
ENDBRANCH   4   8
BRANCH   6  14
HETATM   14  N   UNL     1     -10.747   7.627  70.016  1.00  0.00    -0.239 NA 
HETATM   15  H   UNL     1     -11.287   6.773  70.155  1.00  0.00     0.000 HD 
BRANCH  14  16
HETATM   16  C   UNL     1      -9.355   7.596  69.591  1.00  0.00    -0.156 C  
BRANCH  16  17
HETATM   17  C   UNL     1      -9.062   6.247  68.895  1.00  0.00    -0.124 C  
BRANCH  17  18
HETATM   18  N   UNL     1      -8.121   5.355  69.614  1.00  0.00    -0.098 NA 
HETATM   19  C   UNL     1      -8.516   5.113  71.022  1.00  0.00    -0.120 C  
HETATM   20  C   UNL     1      -9.786   4.259  71.172  1.00  0.00    -0.189 C  
HETATM   21  O   UNL     1      -9.647   2.997  70.507  1.00  0.00    -0.165 OA 
HETATM   22  C   UNL     1      -9.318   3.174  69.123  1.00  0.00    -0.158 C  
HETATM   23  C   UNL     1      -8.050   4.030  68.946  1.00  0.00    -0.070 C  
ENDBRANCH  17  18
ENDBRANCH  16  17
ENDBRANCH  14  16
ENDBRANCH   6  14
TORSDOF 5
ENDMDL
MODEL       78
REMARK 921   NORMALIZED FREE ENERGY PREDICTED BY IDOCK:   -5.05 KCAL/MOL
REMARK 922        TOTAL FREE ENERGY PREDICTED BY IDOCK:   -7.24 KCAL/MOL
REMARK 923 INTER-LIGAND FREE ENERGY PREDICTED BY IDOCK:   -6.81 KCAL/MOL
REMARK 924 INTRA-LIGAND FREE ENERGY PREDICTED BY IDOCK:   -0.43 KCAL/MOL
REMARK 927      BINDING AFFINITY PREDICTED BY RF-SCORE:    0.00 PKD
ROOT
HETATM    1  C   UNL     1     -12.320   8.118  72.137  1.00  0.00    -0.383 C  
HETATM    2  C   UNL     1     -12.091   9.269  71.202  1.00  0.00    -0.389 A  
HETATM    3  C   UNL     1     -12.550  10.541  71.558  1.00  0.00    -0.529 A  
HETATM    4  C   UNL     1     -12.293  11.638  70.744  1.00  0.00    -0.358 A  
HETATM    5  N   UNL     1     -11.640  11.461  69.579  1.00  0.00    -0.300 NA 
HETATM    6  C   UNL     1     -11.385   9.122  70.010  1.00  0.00    -0.090 A  
HETATM    7  N   UNL     1     -11.176  10.201  69.222  1.00  0.00    -0.219 NA 
ENDROOT
BRANCH   4   8
HETATM    8  C   UNL     1     -12.709  13.000  71.109  1.00  0.00    -0.372 A  
HETATM    9  C   UNL     1     -14.019  14.506  72.534  1.00  0.00    -0.510 A  
HETATM   10  C   UNL     1     -13.543  13.231  72.224  1.00  0.00    -0.703 A  
HETATM   11  C   UNL     1     -12.325  14.120  70.349  1.00  0.00    -0.428 A  
HETATM   12  C   UNL     1     -13.654  15.589  71.744  1.00  0.00    -0.578 A  
HETATM   13  C   UNL     1     -12.798  15.400  70.661  1.00  0.00    -0.484 A  
ENDBRANCH   4   8
BRANCH   6  14
HETATM   14  N   UNL     1     -10.834   7.873  69.702  1.00  0.00    -0.369 NA 
HETATM   15  H   UNL     1     -11.416   7.069  69.469  1.00  0.00     0.000 HD 
BRANCH  14  16
HETATM   16  C   UNL     1      -9.381   7.789  69.733  1.00  0.00    -0.153 C  
BRANCH  16  17
HETATM   17  C   UNL     1      -8.960   6.418  70.310  1.00  0.00    -0.154 C  
BRANCH  17  18
HETATM   18  N   UNL     1      -7.920   6.469  71.366  1.00  0.00    -0.107 NA 
HETATM   19  C   UNL     1      -8.078   7.627  72.277  1.00  0.00    -0.107 C  
HETATM   20  C   UNL     1      -9.312   7.536  73.190  1.00  0.00    -0.206 C  
HETATM   21  O   UNL     1      -9.297   6.333  73.968  1.00  0.00    -0.131 OA 
HETATM   22  C   UNL     1      -9.202   5.173  73.131  1.00  0.00    -0.126 C  
HETATM   23  C   UNL     1      -7.973   5.243  72.204  1.00  0.00    -0.110 C  
ENDBRANCH  17  18
ENDBRANCH  16  17
ENDBRANCH  14  16
ENDBRANCH   6  14
TORSDOF 5
ENDMDL
MODEL       79
REMARK 921   NORMALIZED FREE ENERGY PREDICTED BY IDOCK:   -5.03 KCAL/MOL
REMARK 922        TOTAL FREE ENERGY PREDICTED BY IDOCK:   -7.21 KCAL/MOL
REMARK 923 INTER-LIGAND FREE ENERGY PREDICTED BY IDOCK:   -6.65 KCAL/MOL
REMARK 924 INTRA-LIGAND FREE ENERGY PREDICTED BY IDOCK:   -0.56 KCAL/MOL
REMARK 927      BINDING AFFINITY PREDICTED BY RF-SCORE:    0.00 PKD
ROOT
HETATM    1  C   UNL     1      -8.990   8.301  67.693  1.00  0.00    -0.140 C  
HETATM    2  C   UNL     1      -9.981   9.404  67.925  1.00  0.00    -0.220 A  
HETATM    3  C   UNL     1     -10.284  10.281  66.879  1.00  0.00    -0.286 A  
HETATM    4  C   UNL     1     -11.248  11.269  67.044  1.00  0.00    -0.255 A  
HETATM    5  N   UNL     1     -11.855  11.412  68.238  1.00  0.00    -0.567 NA 
HETATM    6  C   UNL     1     -10.653   9.550  69.137  1.00  0.00    -0.222 A  
HETATM    7  N   UNL     1     -11.563  10.540  69.279  1.00  0.00    -0.256 NA 
ENDROOT
BRANCH   4   8
HETATM    8  C   UNL     1     -11.637  12.176  65.953  1.00  0.00    -0.425 A  
HETATM    9  C   UNL     1     -11.689  12.712  63.561  1.00  0.00    -0.604 A  
HETATM   10  C   UNL     1     -11.408  11.829  64.604  1.00  0.00    -0.320 A  
HETATM   11  C   UNL     1     -12.217  13.432  66.205  1.00  0.00    -0.456 A  
HETATM   12  C   UNL     1     -12.228  13.962  63.841  1.00  0.00    -0.375 A  
HETATM   13  C   UNL     1     -12.503  14.317  65.160  1.00  0.00    -0.423 A  
ENDBRANCH   4   8
BRANCH   6  14
HETATM   14  N   UNL     1     -10.428   8.610  70.149  1.00  0.00    -0.211 NA 
HETATM   15  H   UNL     1     -10.030   7.692  69.955  1.00  0.00     0.000 HD 
BRANCH  14  16
HETATM   16  C   UNL     1     -10.797   9.021  71.496  1.00  0.00    -0.346 C  
BRANCH  16  17
HETATM   17  C   UNL     1     -11.057   7.766  72.361  1.00  0.00    -0.323 C  
BRANCH  17  18
HETATM   18  N   UNL     1     -10.209   7.645  73.571  1.00  0.00    -0.323 NA 
HETATM   19  C   UNL     1     -10.290   6.306  74.201  1.00  0.00    -0.304 C  
HETATM   20  C   UNL     1      -9.642   5.187  73.368  1.00  0.00    -0.140 C  
HETATM   21  O   UNL     1      -8.270   5.481  73.077  1.00  0.00    -0.117 OA 
HETATM   22  C   UNL     1      -8.138   6.745  72.415  1.00  0.00    -0.102 C  
HETATM   23  C   UNL     1      -8.783   7.882  73.230  1.00  0.00    -0.236 C  
ENDBRANCH  17  18
ENDBRANCH  16  17
ENDBRANCH  14  16
ENDBRANCH   6  14
TORSDOF 5
ENDMDL
MODEL       80
REMARK 921   NORMALIZED FREE ENERGY PREDICTED BY IDOCK:   -5.03 KCAL/MOL
REMARK 922        TOTAL FREE ENERGY PREDICTED BY IDOCK:   -7.21 KCAL/MOL
REMARK 923 INTER-LIGAND FREE ENERGY PREDICTED BY IDOCK:   -6.74 KCAL/MOL
REMARK 924 INTRA-LIGAND FREE ENERGY PREDICTED BY IDOCK:   -0.46 KCAL/MOL
REMARK 927      BINDING AFFINITY PREDICTED BY RF-SCORE:    0.00 PKD
ROOT
HETATM    1  C   UNL     1     -13.633   8.768  72.476  1.00  0.00    -0.416 C  
HETATM    2  C   UNL     1     -12.255   9.023  71.938  1.00  0.00    -0.451 A  
HETATM    3  C   UNL     1     -11.256   8.065  72.137  1.00  0.00    -0.380 A  
HETATM    4  C   UNL     1      -9.990   8.242  71.592  1.00  0.00    -0.212 A  
HETATM    5  N   UNL     1      -9.713   9.371  70.909  1.00  0.00    -0.273 NA 
HETATM    6  C   UNL     1     -11.952  10.161  71.194  1.00  0.00    -0.386 A  
HETATM    7  N   UNL     1     -10.703  10.323  70.702  1.00  0.00    -0.181 NA 
ENDROOT
BRANCH   4   8
HETATM    8  C   UNL     1      -8.927   7.235  71.731  1.00  0.00    -0.136 A  
HETATM    9  C   UNL     1      -7.878   5.146  70.990  1.00  0.00    -0.097 A  
HETATM   10  C   UNL     1      -8.824   6.159  70.823  1.00  0.00    -0.140 A  
HETATM   11  C   UNL     1      -7.997   7.280  72.785  1.00  0.00    -0.116 A  
HETATM   12  C   UNL     1      -6.995   5.197  72.061  1.00  0.00    -0.073 A  
HETATM   13  C   UNL     1      -7.045   6.268  72.950  1.00  0.00    -0.079 A  
ENDBRANCH   4   8
BRANCH   6  14
HETATM   14  N   UNL     1     -12.976  11.069  70.904  1.00  0.00    -0.284 NA 
HETATM   15  H   UNL     1     -13.940  10.769  70.761  1.00  0.00     0.000 HD 
BRANCH  14  16
HETATM   16  C   UNL     1     -12.586  12.469  70.818  1.00  0.00    -0.212 C  
BRANCH  16  17
HETATM   17  C   UNL     1     -13.391  13.290  71.851  1.00  0.00    -0.451 C  
BRANCH  17  18
HETATM   18  N   UNL     1     -13.771  14.655  71.416  1.00  0.00    -0.394 NA 
HETATM   19  C   UNL     1     -14.102  15.552  72.549  1.00  0.00    -0.506 C  
HETATM   20  C   UNL     1     -12.890  15.928  73.418  1.00  0.00    -0.576 C  
HETATM   21  O   UNL     1     -11.855  16.535  72.634  1.00  0.00    -0.541 OA 
HETATM   22  C   UNL     1     -11.456  15.684  71.552  1.00  0.00    -0.422 C  
HETATM   23  C   UNL     1     -12.655  15.290  70.669  1.00  0.00    -0.417 C  
ENDBRANCH  17  18
ENDBRANCH  16  17
ENDBRANCH  14  16
ENDBRANCH   6  14
TORSDOF 5
ENDMDL
MODEL       81
REMARK 921   NORMALIZED FREE ENERGY PREDICTED BY IDOCK:   -4.96 KCAL/MOL
REMARK 922        TOTAL FREE ENERGY PREDICTED BY IDOCK:   -7.12 KCAL/MOL
REMARK 923 INTER-LIGAND FREE ENERGY PREDICTED BY IDOCK:   -6.57 KCAL/MOL
REMARK 924 INTRA-LIGAND FREE ENERGY PREDICTED BY IDOCK:   -0.56 KCAL/MOL
REMARK 927      BINDING AFFINITY PREDICTED BY RF-SCORE:    0.00 PKD
ROOT
HETATM    1  C   UNL     1      -7.923  12.728  67.000  1.00  0.00    -0.045 C  
HETATM    2  C   UNL     1      -9.314  13.160  67.362  1.00  0.00    -0.213 A  
HETATM    3  C   UNL     1      -9.999  12.479  68.373  1.00  0.00    -0.212 A  
HETATM    4  C   UNL     1     -11.261  12.899  68.777  1.00  0.00    -0.279 A  
HETATM    5  N   UNL     1     -11.846  13.940  68.153  1.00  0.00    -0.358 NA 
HETATM    6  C   UNL     1      -9.927  14.258  66.761  1.00  0.00    -0.265 A  
HETATM    7  N   UNL     1     -11.167  14.625  67.152  1.00  0.00    -0.333 NA 
ENDROOT
BRANCH   4   8
HETATM    8  C   UNL     1     -11.992  12.245  69.873  1.00  0.00    -0.377 A  
HETATM    9  C   UNL     1     -13.180  12.395  72.013  1.00  0.00    -0.514 A  
HETATM   10  C   UNL     1     -12.559  13.002  70.921  1.00  0.00    -0.364 A  
HETATM   11  C   UNL     1     -12.128  10.847  69.943  1.00  0.00    -0.428 A  
HETATM   12  C   UNL     1     -13.267  11.009  72.075  1.00  0.00    -0.447 A  
HETATM   13  C   UNL     1     -12.754  10.237  71.035  1.00  0.00    -0.491 A  
ENDBRANCH   4   8
BRANCH   6  14
HETATM   14  N   UNL     1      -9.203  15.004  65.825  1.00  0.00    -0.468 NA 
HETATM   15  H   UNL     1      -8.967  14.634  64.905  1.00  0.00     0.000 HD 
BRANCH  14  16
HETATM   16  C   UNL     1      -8.806  16.341  66.242  1.00  0.00    -0.331 C  
BRANCH  16  17
HETATM   17  C   UNL     1      -7.398  16.283  66.879  1.00  0.00    -0.231 C  
BRANCH  17  18
HETATM   18  N   UNL     1      -6.372  17.129  66.223  1.00  0.00    -0.217 NA 
HETATM   19  C   UNL     1      -6.868  18.484  65.888  1.00  0.00    -0.283 C  
HETATM   20  C   UNL     1      -7.131  19.371  67.117  1.00  0.00    -0.199 C  
HETATM   21  O   UNL     1      -5.957  19.495  67.930  1.00  0.00    -0.205 OA 
HETATM   22  C   UNL     1      -5.464  18.211  68.330  1.00  0.00    -0.163 C  
HETATM   23  C   UNL     1      -5.197  17.302  67.115  1.00  0.00    -0.143 C  
ENDBRANCH  17  18
ENDBRANCH  16  17
ENDBRANCH  14  16
ENDBRANCH   6  14
TORSDOF 5
ENDMDL
MODEL       82
REMARK 921   NORMALIZED FREE ENERGY PREDICTED BY IDOCK:   -4.94 KCAL/MOL
REMARK 922        TOTAL FREE ENERGY PREDICTED BY IDOCK:   -7.10 KCAL/MOL
REMARK 923 INTER-LIGAND FREE ENERGY PREDICTED BY IDOCK:   -6.47 KCAL/MOL
REMARK 924 INTRA-LIGAND FREE ENERGY PREDICTED BY IDOCK:   -0.63 KCAL/MOL
REMARK 927      BINDING AFFINITY PREDICTED BY RF-SCORE:    0.00 PKD
ROOT
HETATM    1  C   UNL     1      -8.320  13.542  68.174  1.00  0.00    -0.167 C  
HETATM    2  C   UNL     1      -9.590  12.751  68.058  1.00  0.00    -0.217 A  
HETATM    3  C   UNL     1      -9.583  11.395  68.398  1.00  0.00    -0.197 A  
HETATM    4  C   UNL     1     -10.758  10.653  68.367  1.00  0.00    -0.222 A  
HETATM    5  N   UNL     1     -11.900  11.237  67.955  1.00  0.00    -0.634 NA 
HETATM    6  C   UNL     1     -10.793  13.338  67.673  1.00  0.00    -0.258 A  
HETATM    7  N   UNL     1     -11.915  12.585  67.621  1.00  0.00    -0.452 NA 
ENDROOT
BRANCH   4   8
HETATM    8  C   UNL     1     -10.805   9.239  68.770  1.00  0.00    -0.123 A  
HETATM    9  C   UNL     1     -10.716   6.863  68.175  1.00  0.00    -0.260 A  
HETATM   10  C   UNL     1     -10.589   8.209  67.830  1.00  0.00    -0.212 A  
HETATM   11  C   UNL     1     -11.100   8.856  70.091  1.00  0.00    -0.217 A  
HETATM   12  C   UNL     1     -11.044   6.512  69.479  1.00  0.00    -0.425 A  
HETATM   13  C   UNL     1     -11.223   7.506  70.439  1.00  0.00    -0.270 A  
ENDBRANCH   4   8
BRANCH   6  14
HETATM   14  N   UNL     1     -10.824  14.716  67.434  1.00  0.00    -0.291 NA 
HETATM   15  H   UNL     1     -10.796  15.397  68.192  1.00  0.00     0.000 HD 
BRANCH  14  16
HETATM   16  C   UNL     1     -10.899  15.122  66.038  1.00  0.00    -0.335 C  
BRANCH  16  17
HETATM   17  C   UNL     1     -10.281  16.530  65.879  1.00  0.00    -0.349 C  
BRANCH  17  18
HETATM   18  N   UNL     1      -9.741  17.127  67.124  1.00  0.00    -0.254 NA 
HETATM   19  C   UNL     1      -8.282  17.376  67.060  1.00  0.00    -0.217 C  
HETATM   20  C   UNL     1      -7.886  18.501  66.088  1.00  0.00    -0.204 C  
HETATM   21  O   UNL     1      -8.552  19.728  66.412  1.00  0.00    -0.335 OA 
HETATM   22  C   UNL     1      -9.975  19.557  66.434  1.00  0.00    -0.438 C  
HETATM   23  C   UNL     1     -10.395  18.433  67.398  1.00  0.00    -0.391 C  
ENDBRANCH  17  18
ENDBRANCH  16  17
ENDBRANCH  14  16
ENDBRANCH   6  14
TORSDOF 5
ENDMDL
MODEL       83
REMARK 921   NORMALIZED FREE ENERGY PREDICTED BY IDOCK:   -4.90 KCAL/MOL
REMARK 922        TOTAL FREE ENERGY PREDICTED BY IDOCK:   -7.04 KCAL/MOL
REMARK 923 INTER-LIGAND FREE ENERGY PREDICTED BY IDOCK:   -6.40 KCAL/MOL
REMARK 924 INTRA-LIGAND FREE ENERGY PREDICTED BY IDOCK:   -0.64 KCAL/MOL
REMARK 927      BINDING AFFINITY PREDICTED BY RF-SCORE:    0.00 PKD
ROOT
HETATM    1  C   UNL     1     -12.320   8.118  72.137  1.00  0.00    -0.383 C  
HETATM    2  C   UNL     1     -12.091   9.269  71.202  1.00  0.00    -0.389 A  
HETATM    3  C   UNL     1     -12.550  10.541  71.558  1.00  0.00    -0.529 A  
HETATM    4  C   UNL     1     -12.293  11.638  70.744  1.00  0.00    -0.358 A  
HETATM    5  N   UNL     1     -11.640  11.461  69.579  1.00  0.00    -0.300 NA 
HETATM    6  C   UNL     1     -11.385   9.122  70.010  1.00  0.00    -0.090 A  
HETATM    7  N   UNL     1     -11.176  10.201  69.222  1.00  0.00    -0.219 NA 
ENDROOT
BRANCH   4   8
HETATM    8  C   UNL     1     -12.709  13.000  71.109  1.00  0.00    -0.372 A  
HETATM    9  C   UNL     1     -14.019  14.506  72.534  1.00  0.00    -0.510 A  
HETATM   10  C   UNL     1     -13.543  13.231  72.224  1.00  0.00    -0.703 A  
HETATM   11  C   UNL     1     -12.325  14.120  70.349  1.00  0.00    -0.428 A  
HETATM   12  C   UNL     1     -13.654  15.589  71.744  1.00  0.00    -0.578 A  
HETATM   13  C   UNL     1     -12.798  15.400  70.661  1.00  0.00    -0.484 A  
ENDBRANCH   4   8
BRANCH   6  14
HETATM   14  N   UNL     1     -10.834   7.873  69.702  1.00  0.00    -0.369 NA 
HETATM   15  H   UNL     1     -10.945   7.068  70.317  1.00  0.00     0.000 HD 
BRANCH  14  16
HETATM   16  C   UNL     1     -10.093   7.791  68.452  1.00  0.00    -0.192 C  
BRANCH  16  17
HETATM   17  C   UNL     1      -8.866   6.870  68.643  1.00  0.00    -0.124 C  
BRANCH  17  18
HETATM   18  N   UNL     1      -7.583   7.413  68.136  1.00  0.00    -0.112 NA 
HETATM   19  C   UNL     1      -7.444   8.871  68.361  1.00  0.00    -0.086 C  
HETATM   20  C   UNL     1      -7.276   9.258  69.840  1.00  0.00    -0.071 C  
HETATM   21  O   UNL     1      -6.155   8.589  70.431  1.00  0.00    -0.031 OA 
HETATM   22  C   UNL     1      -6.266   7.167  70.290  1.00  0.00    -0.030 C  
HETATM   23  C   UNL     1      -6.438   6.755  68.816  1.00  0.00    -0.040 C  
ENDBRANCH  17  18
ENDBRANCH  16  17
ENDBRANCH  14  16
ENDBRANCH   6  14
TORSDOF 5
ENDMDL
MODEL       84
REMARK 921   NORMALIZED FREE ENERGY PREDICTED BY IDOCK:   -4.86 KCAL/MOL
REMARK 922        TOTAL FREE ENERGY PREDICTED BY IDOCK:   -6.99 KCAL/MOL
REMARK 923 INTER-LIGAND FREE ENERGY PREDICTED BY IDOCK:   -6.32 KCAL/MOL
REMARK 924 INTRA-LIGAND FREE ENERGY PREDICTED BY IDOCK:   -0.66 KCAL/MOL
REMARK 927      BINDING AFFINITY PREDICTED BY RF-SCORE:    0.00 PKD
ROOT
HETATM    1  C   UNL     1      -9.725   7.205  67.617  1.00  0.00    -0.172 C  
HETATM    2  C   UNL     1      -9.720   8.701  67.737  1.00  0.00    -0.202 A  
HETATM    3  C   UNL     1     -10.243   9.472  66.695  1.00  0.00    -0.310 A  
HETATM    4  C   UNL     1     -10.314  10.856  66.807  1.00  0.00    -0.241 A  
HETATM    5  N   UNL     1      -9.827  11.458  67.909  1.00  0.00    -0.175 NA 
HETATM    6  C   UNL     1      -9.259   9.348  68.882  1.00  0.00    -0.140 A  
HETATM    7  N   UNL     1      -9.312  10.697  68.951  1.00  0.00    -0.180 NA 
ENDROOT
BRANCH   4   8
HETATM    8  C   UNL     1     -10.907  11.699  65.758  1.00  0.00    -0.334 A  
HETATM    9  C   UNL     1     -12.518  13.418  65.081  1.00  0.00    -0.509 A  
HETATM   10  C   UNL     1     -11.881  12.671  66.072  1.00  0.00    -0.492 A  
HETATM   11  C   UNL     1     -10.558  11.551  64.403  1.00  0.00    -0.392 A  
HETATM   12  C   UNL     1     -12.180  13.226  63.747  1.00  0.00    -0.508 A  
HETATM   13  C   UNL     1     -11.193  12.303  63.409  1.00  0.00    -0.497 A  
ENDBRANCH   4   8
BRANCH   6  14
HETATM   14  N   UNL     1      -8.833   8.575  69.968  1.00  0.00    -0.138 NA 
HETATM   15  H   UNL     1      -8.263   7.739  69.845  1.00  0.00     0.000 HD 
BRANCH  14  16
HETATM   16  C   UNL     1      -9.253   9.034  71.284  1.00  0.00    -0.244 C  
BRANCH  16  17
HETATM   17  C   UNL     1     -10.559   8.311  71.686  1.00  0.00    -0.242 C  
BRANCH  17  18
HETATM   18  N   UNL     1     -11.677   8.440  70.721  1.00  0.00    -0.248 NA 
HETATM   19  C   UNL     1     -12.694   7.372  70.869  1.00  0.00    -0.118 C  
HETATM   20  C   UNL     1     -13.513   7.471  72.167  1.00  0.00    -0.019 C  
HETATM   21  O   UNL     1     -14.159   8.745  72.280  1.00  0.00    -0.439 OA 
HETATM   22  C   UNL     1     -13.211   9.817  72.199  1.00  0.00    -0.436 C  
HETATM   23  C   UNL     1     -12.375   9.738  70.908  1.00  0.00    -0.290 C  
ENDBRANCH  17  18
ENDBRANCH  16  17
ENDBRANCH  14  16
ENDBRANCH   6  14
TORSDOF 5
ENDMDL
MODEL       85
REMARK 921   NORMALIZED FREE ENERGY PREDICTED BY IDOCK:   -4.83 KCAL/MOL
REMARK 922        TOTAL FREE ENERGY PREDICTED BY IDOCK:   -6.95 KCAL/MOL
REMARK 923 INTER-LIGAND FREE ENERGY PREDICTED BY IDOCK:   -6.35 KCAL/MOL
REMARK 924 INTRA-LIGAND FREE ENERGY PREDICTED BY IDOCK:   -0.60 KCAL/MOL
REMARK 927      BINDING AFFINITY PREDICTED BY RF-SCORE:    0.00 PKD
ROOT
HETATM    1  C   UNL     1      -7.570  11.410  68.976  1.00  0.00    -0.084 C  
HETATM    2  C   UNL     1      -9.027  11.260  68.647  1.00  0.00    -0.148 A  
HETATM    3  C   UNL     1      -9.546  11.917  67.527  1.00  0.00    -0.175 A  
HETATM    4  C   UNL     1     -10.875  11.743  67.158  1.00  0.00    -0.258 A  
HETATM    5  N   UNL     1     -11.678  10.972  67.918  1.00  0.00    -0.592 NA 
HETATM    6  C   UNL     1      -9.871  10.438  69.390  1.00  0.00    -0.213 A  
HETATM    7  N   UNL     1     -11.167  10.310  69.027  1.00  0.00    -0.226 NA 
ENDROOT
BRANCH   4   8
HETATM    8  C   UNL     1     -11.445  12.372  65.958  1.00  0.00    -0.431 A  
HETATM    9  C   UNL     1     -11.813  12.364  63.534  1.00  0.00    -0.605 A  
HETATM   10  C   UNL     1     -11.356  11.744  64.697  1.00  0.00    -0.320 A  
HETATM   11  C   UNL     1     -12.069  13.631  66.007  1.00  0.00    -0.480 A  
HETATM   12  C   UNL     1     -12.392  13.625  63.606  1.00  0.00    -0.328 A  
HETATM   13  C   UNL     1     -12.532  14.253  64.842  1.00  0.00    -0.403 A  
ENDBRANCH   4   8
BRANCH   6  14
HETATM   14  N   UNL     1      -9.331   9.696  70.447  1.00  0.00    -0.309 NA 
HETATM   15  H   UNL     1      -9.224  10.088  71.382  1.00  0.00     0.000 HD 
BRANCH  14  16
HETATM   16  C   UNL     1      -8.930   8.333  70.133  1.00  0.00    -0.142 C  
BRANCH  16  17
HETATM   17  C   UNL     1      -9.518   7.370  71.190  1.00  0.00    -0.155 C  
BRANCH  17  18
HETATM   18  N   UNL     1     -10.320   6.247  70.647  1.00  0.00    -0.196 NA 
HETATM   19  C   UNL     1     -10.536   5.162  71.631  1.00  0.00    -0.156 C  
HETATM   20  C   UNL     1     -11.465   5.553  72.793  1.00  0.00    -0.280 C  
HETATM   21  O   UNL     1     -12.738   6.003  72.313  1.00  0.00    -0.088 OA 
HETATM   22  C   UNL     1     -12.591   7.094  71.395  1.00  0.00    -0.394 C  
HETATM   23  C   UNL     1     -11.661   6.727  70.224  1.00  0.00    -0.362 C  
ENDBRANCH  17  18
ENDBRANCH  16  17
ENDBRANCH  14  16
ENDBRANCH   6  14
TORSDOF 5
ENDMDL
MODEL       86
REMARK 921   NORMALIZED FREE ENERGY PREDICTED BY IDOCK:   -4.79 KCAL/MOL
REMARK 922        TOTAL FREE ENERGY PREDICTED BY IDOCK:   -6.90 KCAL/MOL
REMARK 923 INTER-LIGAND FREE ENERGY PREDICTED BY IDOCK:   -6.33 KCAL/MOL
REMARK 924 INTRA-LIGAND FREE ENERGY PREDICTED BY IDOCK:   -0.57 KCAL/MOL
REMARK 927      BINDING AFFINITY PREDICTED BY RF-SCORE:    0.00 PKD
ROOT
HETATM    1  C   UNL     1     -12.076   8.163  71.899  1.00  0.00    -0.368 C  
HETATM    2  C   UNL     1     -11.962   9.361  71.002  1.00  0.00    -0.389 A  
HETATM    3  C   UNL     1     -12.438  10.598  71.450  1.00  0.00    -0.496 A  
HETATM    4  C   UNL     1     -12.285  11.738  70.670  1.00  0.00    -0.349 A  
HETATM    5  N   UNL     1     -11.719  11.637  69.451  1.00  0.00    -0.311 NA 
HETATM    6  C   UNL     1     -11.346   9.294  69.755  1.00  0.00    -0.005 A  
HETATM    7  N   UNL     1     -11.238  10.413  69.003  1.00  0.00    -0.238 NA 
ENDROOT
BRANCH   4   8
HETATM    8  C   UNL     1     -12.720  13.066  71.127  1.00  0.00    -0.372 A  
HETATM    9  C   UNL     1     -14.006  14.453  72.687  1.00  0.00    -0.392 A  
HETATM   10  C   UNL     1     -13.510  13.212  72.288  1.00  0.00    -0.665 A  
HETATM   11  C   UNL     1     -12.401  14.236  70.414  1.00  0.00    -0.419 A  
HETATM   12  C   UNL     1     -13.705  15.588  71.944  1.00  0.00    -0.593 A  
HETATM   13  C   UNL     1     -12.894  15.482  70.816  1.00  0.00    -0.513 A  
ENDBRANCH   4   8
BRANCH   6  14
HETATM   14  N   UNL     1     -10.776   8.082  69.349  1.00  0.00    -0.349 NA 
HETATM   15  H   UNL     1     -11.323   7.354  68.891  1.00  0.00     0.000 HD 
BRANCH  14  16
HETATM   16  C   UNL     1      -9.355   7.921  69.621  1.00  0.00    -0.153 C  
BRANCH  16  17
HETATM   17  C   UNL     1      -8.538   8.571  68.480  1.00  0.00    -0.138 C  
BRANCH  17  18
HETATM   18  N   UNL     1      -7.388   9.398  68.917  1.00  0.00    -0.072 NA 
HETATM   19  C   UNL     1      -6.185   9.208  68.074  1.00  0.00    -0.051 C  
HETATM   20  C   UNL     1      -6.330   9.769  66.649  1.00  0.00    -0.066 C  
HETATM   21  O   UNL     1      -6.665  11.162  66.670  1.00  0.00    -0.122 OA 
HETATM   22  C   UNL     1      -7.857  11.399  67.429  1.00  0.00    -0.135 C  
HETATM   23  C   UNL     1      -7.738  10.842  68.860  1.00  0.00    -0.129 C  
ENDBRANCH  17  18
ENDBRANCH  16  17
ENDBRANCH  14  16
ENDBRANCH   6  14
TORSDOF 5
ENDMDL
MODEL       87
REMARK 921   NORMALIZED FREE ENERGY PREDICTED BY IDOCK:   -4.78 KCAL/MOL
REMARK 922        TOTAL FREE ENERGY PREDICTED BY IDOCK:   -6.89 KCAL/MOL
REMARK 923 INTER-LIGAND FREE ENERGY PREDICTED BY IDOCK:   -6.20 KCAL/MOL
REMARK 924 INTRA-LIGAND FREE ENERGY PREDICTED BY IDOCK:   -0.69 KCAL/MOL
REMARK 927      BINDING AFFINITY PREDICTED BY RF-SCORE:    0.00 PKD
ROOT
HETATM    1  C   UNL     1      -8.813   9.478  70.326  1.00  0.00    -0.281 C  
HETATM    2  C   UNL     1      -9.963   8.681  70.867  1.00  0.00    -0.257 A  
HETATM    3  C   UNL     1      -9.767   7.337  71.199  1.00  0.00    -0.171 A  
HETATM    4  C   UNL     1     -10.795   6.592  71.766  1.00  0.00    -0.238 A  
HETATM    5  N   UNL     1     -12.003   7.160  71.947  1.00  0.00    -0.295 NA 
HETATM    6  C   UNL     1     -11.212   9.252  71.103  1.00  0.00    -0.343 A  
HETATM    7  N   UNL     1     -12.203   8.497  71.626  1.00  0.00    -0.306 NA 
ENDROOT
BRANCH   4   8
HETATM    8  C   UNL     1     -10.614   5.193  72.181  1.00  0.00    -0.273 A  
HETATM    9  C   UNL     1      -9.720   2.952  71.743  1.00  0.00    -0.224 A  
HETATM   10  C   UNL     1      -9.831   4.303  71.414  1.00  0.00    -0.260 A  
HETATM   11  C   UNL     1     -11.237   4.675  73.331  1.00  0.00    -0.423 A  
HETATM   12  C   UNL     1     -10.375   2.459  72.865  1.00  0.00    -0.239 A  
HETATM   13  C   UNL     1     -11.123   3.321  73.665  1.00  0.00    -0.316 A  
ENDBRANCH   4   8
BRANCH   6  14
HETATM   14  N   UNL     1     -11.380  10.622  70.870  1.00  0.00    -0.330 NA 
HETATM   15  H   UNL     1     -10.891  11.328  71.420  1.00  0.00     0.000 HD 
BRANCH  14  16
HETATM   16  C   UNL     1     -12.295  10.981  69.796  1.00  0.00    -0.262 C  
BRANCH  16  17
HETATM   17  C   UNL     1     -11.518  11.044  68.461  1.00  0.00    -0.309 C  
BRANCH  17  18
HETATM   18  N   UNL     1     -10.494  12.113  68.376  1.00  0.00    -0.226 NA 
HETATM   19  C   UNL     1      -9.821  12.164  67.057  1.00  0.00    -0.203 C  
HETATM   20  C   UNL     1     -10.731  12.641  65.913  1.00  0.00    -0.266 C  
HETATM   21  O   UNL     1     -11.293  13.929  66.196  1.00  0.00    -0.310 OA 
HETATM   22  C   UNL     1     -12.006  13.922  67.440  1.00  0.00    -0.401 C  
HETATM   23  C   UNL     1     -11.115  13.444  68.601  1.00  0.00    -0.263 C  
ENDBRANCH  17  18
ENDBRANCH  16  17
ENDBRANCH  14  16
ENDBRANCH   6  14
TORSDOF 5
ENDMDL
MODEL       88
REMARK 921   NORMALIZED FREE ENERGY PREDICTED BY IDOCK:   -4.77 KCAL/MOL
REMARK 922        TOTAL FREE ENERGY PREDICTED BY IDOCK:   -6.87 KCAL/MOL
REMARK 923 INTER-LIGAND FREE ENERGY PREDICTED BY IDOCK:   -6.29 KCAL/MOL
REMARK 924 INTRA-LIGAND FREE ENERGY PREDICTED BY IDOCK:   -0.58 KCAL/MOL
REMARK 927      BINDING AFFINITY PREDICTED BY RF-SCORE:    0.00 PKD
ROOT
HETATM    1  C   UNL     1     -12.269  13.417  70.003  1.00  0.00    -0.367 C  
HETATM    2  C   UNL     1     -11.793  13.994  68.702  1.00  0.00    -0.396 A  
HETATM    3  C   UNL     1     -11.499  15.359  68.626  1.00  0.00    -0.357 A  
HETATM    4  C   UNL     1     -10.992  15.908  67.455  1.00  0.00    -0.257 A  
HETATM    5  N   UNL     1     -10.831  15.125  66.370  1.00  0.00    -0.324 NA 
HETATM    6  C   UNL     1     -11.579  13.200  67.576  1.00  0.00    -0.352 A  
HETATM    7  N   UNL     1     -11.114  13.767  66.440  1.00  0.00    -0.305 NA 
ENDROOT
BRANCH   4   8
HETATM    8  C   UNL     1     -10.618  17.327  67.350  1.00  0.00    -0.303 A  
HETATM    9  C   UNL     1     -10.257  19.506  68.414  1.00  0.00    -0.536 A  
HETATM   10  C   UNL     1     -10.524  18.139  68.501  1.00  0.00    -0.267 A  
HETATM   11  C   UNL     1     -10.374  17.939  66.107  1.00  0.00    -0.352 A  
HETATM   12  C   UNL     1     -10.056  20.093  67.170  1.00  0.00    -0.590 A  
HETATM   13  C   UNL     1     -10.102  19.309  66.020  1.00  0.00    -0.459 A  
ENDBRANCH   4   8
BRANCH   6  14
HETATM   14  N   UNL     1     -11.772  11.818  67.680  1.00  0.00    -0.553 NA 
HETATM   15  H   UNL     1     -12.686  11.413  67.879  1.00  0.00     0.000 HD 
BRANCH  14  16
HETATM   16  C   UNL     1     -10.589  10.991  67.487  1.00  0.00    -0.227 C  
BRANCH  16  17
HETATM   17  C   UNL     1      -9.379  11.659  68.179  1.00  0.00    -0.188 C  
BRANCH  17  18
HETATM   18  N   UNL     1      -8.091  11.542  67.453  1.00  0.00    -0.139 NA 
HETATM   19  C   UNL     1      -7.585  12.844  66.961  1.00  0.00     0.070 C  
HETATM   20  C   UNL     1      -7.120  13.793  68.079  1.00  0.00    -0.133 C  
HETATM   21  O   UNL     1      -6.113  13.183  68.895  1.00  0.00    -0.074 OA 
HETATM   22  C   UNL     1      -6.571  11.941  69.445  1.00  0.00    -0.108 C  
HETATM   23  C   UNL     1      -7.045  10.975  68.343  1.00  0.00    -0.074 C  
ENDBRANCH  17  18
ENDBRANCH  16  17
ENDBRANCH  14  16
ENDBRANCH   6  14
TORSDOF 5
ENDMDL
MODEL       89
REMARK 921   NORMALIZED FREE ENERGY PREDICTED BY IDOCK:   -4.76 KCAL/MOL
REMARK 922        TOTAL FREE ENERGY PREDICTED BY IDOCK:   -6.86 KCAL/MOL
REMARK 923 INTER-LIGAND FREE ENERGY PREDICTED BY IDOCK:   -6.41 KCAL/MOL
REMARK 924 INTRA-LIGAND FREE ENERGY PREDICTED BY IDOCK:   -0.46 KCAL/MOL
REMARK 927      BINDING AFFINITY PREDICTED BY RF-SCORE:    0.00 PKD
ROOT
HETATM    1  C   UNL     1     -12.358  12.525  70.698  1.00  0.00    -0.369 C  
HETATM    2  C   UNL     1     -11.934  12.860  69.298  1.00  0.00    -0.313 A  
HETATM    3  C   UNL     1     -11.631  14.186  68.974  1.00  0.00    -0.342 A  
HETATM    4  C   UNL     1     -11.171  14.515  67.704  1.00  0.00    -0.322 A  
HETATM    5  N   UNL     1     -11.065  13.553  66.767  1.00  0.00    -0.295 NA 
HETATM    6  C   UNL     1     -11.778  11.880  68.320  1.00  0.00    -0.321 A  
HETATM    7  N   UNL     1     -11.358  12.232  67.085  1.00  0.00    -0.313 NA 
ENDROOT
BRANCH   4   8
HETATM    8  C   UNL     1     -10.789  15.887  67.339  1.00  0.00    -0.291 A  
HETATM    9  C   UNL     1     -10.508  18.243  67.957  1.00  0.00    -0.387 A  
HETATM   10  C   UNL     1     -10.782  16.920  68.302  1.00  0.00    -0.377 A  
HETATM   11  C   UNL     1     -10.450  16.235  66.019  1.00  0.00    -0.342 A  
HETATM   12  C   UNL     1     -10.212  18.566  66.638  1.00  0.00    -0.429 A  
HETATM   13  C   UNL     1     -10.171  17.562  65.672  1.00  0.00    -0.093 A  
ENDBRANCH   4   8
BRANCH   6  14
HETATM   14  N   UNL     1     -11.978  10.540  68.671  1.00  0.00    -0.769 NA 
HETATM   15  H   UNL     1     -12.893  10.095  68.605  1.00  0.00     0.000 HD 
BRANCH  14  16
HETATM   16  C   UNL     1     -10.803   9.817  69.135  1.00  0.00    -0.207 C  
BRANCH  16  17
HETATM   17  C   UNL     1     -10.581   8.574  68.243  1.00  0.00    -0.119 C  
BRANCH  17  18
HETATM   18  N   UNL     1     -10.277   7.319  68.972  1.00  0.00    -0.191 NA 
HETATM   19  C   UNL     1     -10.915   6.128  68.364  1.00  0.00    -0.305 C  
HETATM   20  C   UNL     1     -10.324   5.737  66.999  1.00  0.00    -0.250 C  
HETATM   21  O   UNL     1      -8.912   5.511  67.087  1.00  0.00    -0.114 OA 
HETATM   22  C   UNL     1      -8.235   6.657  67.621  1.00  0.00    -0.122 C  
HETATM   23  C   UNL     1      -8.813   7.070  68.987  1.00  0.00    -0.134 C  
ENDBRANCH  17  18
ENDBRANCH  16  17
ENDBRANCH  14  16
ENDBRANCH   6  14
TORSDOF 5
ENDMDL
MODEL       90
REMARK 921   NORMALIZED FREE ENERGY PREDICTED BY IDOCK:   -4.70 KCAL/MOL
REMARK 922        TOTAL FREE ENERGY PREDICTED BY IDOCK:   -6.78 KCAL/MOL
REMARK 923 INTER-LIGAND FREE ENERGY PREDICTED BY IDOCK:   -6.14 KCAL/MOL
REMARK 924 INTRA-LIGAND FREE ENERGY PREDICTED BY IDOCK:   -0.64 KCAL/MOL
REMARK 927      BINDING AFFINITY PREDICTED BY RF-SCORE:    0.00 PKD
ROOT
HETATM    1  C   UNL     1      -8.114   8.083  65.544  1.00  0.00    -0.128 C  
HETATM    2  C   UNL     1      -9.161   8.950  66.180  1.00  0.00    -0.251 A  
HETATM    3  C   UNL     1      -9.632  10.070  65.489  1.00  0.00    -0.328 A  
HETATM    4  C   UNL     1     -10.650  10.853  66.022  1.00  0.00    -0.189 A  
HETATM    5  N   UNL     1     -11.147  10.555  67.238  1.00  0.00    -0.276 NA 
HETATM    6  C   UNL     1      -9.722   8.643  67.418  1.00  0.00    -0.175 A  
HETATM    7  N   UNL     1     -10.688   9.439  67.927  1.00  0.00    -0.238 NA 
ENDROOT
BRANCH   4   8
HETATM    8  C   UNL     1     -11.212  12.007  65.304  1.00  0.00    -0.374 A  
HETATM    9  C   UNL     1     -12.217  14.242  65.344  1.00  0.00    -0.408 A  
HETATM   10  C   UNL     1     -11.602  13.173  65.996  1.00  0.00    -0.393 A  
HETATM   11  C   UNL     1     -11.415  11.985  63.912  1.00  0.00    -0.518 A  
HETATM   12  C   UNL     1     -12.440  14.179  63.973  1.00  0.00    -0.206 A  
HETATM   13  C   UNL     1     -12.028  13.058  63.256  1.00  0.00    -0.493 A  
ENDBRANCH   4   8
BRANCH   6  14
HETATM   14  N   UNL     1      -9.328   7.465  68.063  1.00  0.00    -0.135 NA 
HETATM   15  H   UNL     1      -9.611   6.545  67.727  1.00  0.00     0.000 HD 
BRANCH  14  16
HETATM   16  C   UNL     1      -8.490   7.631  69.241  1.00  0.00    -0.138 C  
BRANCH  16  17
HETATM   17  C   UNL     1      -9.328   7.349  70.510  1.00  0.00    -0.157 C  
BRANCH  17  18
HETATM   18  N   UNL     1      -9.388   8.460  71.489  1.00  0.00    -0.179 NA 
HETATM   19  C   UNL     1     -10.625   9.266  71.374  1.00  0.00    -0.347 C  
HETATM   20  C   UNL     1     -11.896   8.519  71.814  1.00  0.00    -0.331 C  
HETATM   21  O   UNL     1     -11.780   8.039  73.159  1.00  0.00    -0.268 OA 
HETATM   22  C   UNL     1     -10.625   7.205  73.314  1.00  0.00    -0.364 C  
HETATM   23  C   UNL     1      -9.338   7.930  72.877  1.00  0.00    -0.246 C  
ENDBRANCH  17  18
ENDBRANCH  16  17
ENDBRANCH  14  16
ENDBRANCH   6  14
TORSDOF 5
ENDMDL
MODEL       91
REMARK 921   NORMALIZED FREE ENERGY PREDICTED BY IDOCK:   -4.69 KCAL/MOL
REMARK 922        TOTAL FREE ENERGY PREDICTED BY IDOCK:   -6.77 KCAL/MOL
REMARK 923 INTER-LIGAND FREE ENERGY PREDICTED BY IDOCK:   -6.21 KCAL/MOL
REMARK 924 INTRA-LIGAND FREE ENERGY PREDICTED BY IDOCK:   -0.56 KCAL/MOL
REMARK 927      BINDING AFFINITY PREDICTED BY RF-SCORE:    0.00 PKD
ROOT
HETATM    1  C   UNL     1     -10.774  10.913  66.520  1.00  0.00    -0.270 C  
HETATM    2  C   UNL     1     -11.222  10.797  67.947  1.00  0.00    -0.386 A  
HETATM    3  C   UNL     1     -11.000   9.602  68.638  1.00  0.00    -0.152 A  
HETATM    4  C   UNL     1     -11.343   9.488  69.981  1.00  0.00    -0.166 A  
HETATM    5  N   UNL     1     -11.939  10.524  70.603  1.00  0.00    -0.326 NA 
HETATM    6  C   UNL     1     -11.804  11.865  68.628  1.00  0.00    -0.308 A  
HETATM    7  N   UNL     1     -12.156  11.716  69.924  1.00  0.00    -0.310 NA 
ENDROOT
BRANCH   4   8
HETATM    8  C   UNL     1     -11.076   8.269  70.758  1.00  0.00    -0.280 A  
HETATM    9  C   UNL     1     -10.648   5.856  70.833  1.00  0.00    -0.319 A  
HETATM   10  C   UNL     1     -10.816   7.040  70.114  1.00  0.00    -0.285 A  
HETATM   11  C   UNL     1     -11.103   8.266  72.165  1.00  0.00    -0.397 A  
HETATM   12  C   UNL     1     -10.716   5.876  72.221  1.00  0.00    -0.279 A  
HETATM   13  C   UNL     1     -10.930   7.081  72.887  1.00  0.00    -0.337 A  
ENDBRANCH   4   8
BRANCH   6  14
HETATM   14  N   UNL     1     -11.931  13.094  67.971  1.00  0.00    -0.342 NA 
HETATM   15  H   UNL     1     -12.147  13.155  66.976  1.00  0.00     0.000 HD 
BRANCH  14  16
HETATM   16  C   UNL     1     -11.735  14.281  68.790  1.00  0.00    -0.343 C  
BRANCH  16  17
HETATM   17  C   UNL     1     -10.608  15.145  68.180  1.00  0.00    -0.246 C  
BRANCH  17  18
HETATM   18  N   UNL     1     -11.029  16.050  67.083  1.00  0.00    -0.244 NA 
HETATM   19  C   UNL     1     -10.558  17.443  67.271  1.00  0.00    -0.284 C  
HETATM   20  C   UNL     1      -9.036  17.609  67.120  1.00  0.00    -0.244 C  
HETATM   21  O   UNL     1      -8.583  17.135  65.847  1.00  0.00    -0.522 OA 
HETATM   22  C   UNL     1      -8.965  15.769  65.635  1.00  0.00     0.195 C  
HETATM   23  C   UNL     1     -10.485  15.577  65.784  1.00  0.00    -0.361 C  
ENDBRANCH  17  18
ENDBRANCH  16  17
ENDBRANCH  14  16
ENDBRANCH   6  14
TORSDOF 5
ENDMDL
MODEL       92
REMARK 921   NORMALIZED FREE ENERGY PREDICTED BY IDOCK:   -4.60 KCAL/MOL
REMARK 922        TOTAL FREE ENERGY PREDICTED BY IDOCK:   -6.65 KCAL/MOL
REMARK 923 INTER-LIGAND FREE ENERGY PREDICTED BY IDOCK:   -5.96 KCAL/MOL
REMARK 924 INTRA-LIGAND FREE ENERGY PREDICTED BY IDOCK:   -0.69 KCAL/MOL
REMARK 927      BINDING AFFINITY PREDICTED BY RF-SCORE:    0.00 PKD
ROOT
HETATM    1  C   UNL     1     -12.285  11.640  70.620  1.00  0.00    -0.461 C  
HETATM    2  C   UNL     1     -11.246  10.604  70.307  1.00  0.00    -0.365 A  
HETATM    3  C   UNL     1     -11.334   9.345  70.908  1.00  0.00    -0.386 A  
HETATM    4  C   UNL     1     -10.425   8.344  70.585  1.00  0.00    -0.200 A  
HETATM    5  N   UNL     1      -9.424   8.609  69.724  1.00  0.00    -0.164 NA 
HETATM    6  C   UNL     1     -10.223  10.838  69.389  1.00  0.00    -0.160 A  
HETATM    7  N   UNL     1      -9.335   9.856  69.118  1.00  0.00    -0.181 NA 
ENDROOT
BRANCH   4   8
HETATM    8  C   UNL     1     -10.515   6.990  71.153  1.00  0.00    -0.229 A  
HETATM    9  C   UNL     1     -11.214   5.494  72.965  1.00  0.00    -0.346 A  
HETATM   10  C   UNL     1     -11.194   6.755  72.368  1.00  0.00    -0.300 A  
HETATM   11  C   UNL     1      -9.903   5.885  70.533  1.00  0.00    -0.231 A  
HETATM   12  C   UNL     1     -10.571   4.428  72.350  1.00  0.00    -0.172 A  
HETATM   13  C   UNL     1      -9.927   4.619  71.129  1.00  0.00    -0.265 A  
ENDBRANCH   4   8
BRANCH   6  14
HETATM   14  N   UNL     1     -10.196  12.060  68.708  1.00  0.00    -0.366 NA 
HETATM   15  H   UNL     1     -10.784  12.845  68.984  1.00  0.00     0.000 HD 
BRANCH  14  16
HETATM   16  C   UNL     1      -9.277  12.144  67.582  1.00  0.00    -0.181 C  
BRANCH  16  17
HETATM   17  C   UNL     1     -10.045  12.621  66.328  1.00  0.00    -0.253 C  
BRANCH  17  18
HETATM   18  N   UNL     1     -10.850  11.579  65.646  1.00  0.00    -0.272 NA 
HETATM   19  C   UNL     1     -11.318  11.998  64.304  1.00  0.00    -0.364 C  
HETATM   20  C   UNL     1     -10.191  12.121  63.264  1.00  0.00    -0.301 C  
HETATM   21  O   UNL     1      -9.461  10.894  63.138  1.00  0.00    -0.269 OA 
HETATM   22  C   UNL     1      -8.937  10.469  64.403  1.00  0.00    -0.211 C  
HETATM   23  C   UNL     1     -10.047  10.342  65.463  1.00  0.00    -0.283 C  
ENDBRANCH  17  18
ENDBRANCH  16  17
ENDBRANCH  14  16
ENDBRANCH   6  14
TORSDOF 5
ENDMDL
MODEL       93
REMARK 921   NORMALIZED FREE ENERGY PREDICTED BY IDOCK:   -4.58 KCAL/MOL
REMARK 922        TOTAL FREE ENERGY PREDICTED BY IDOCK:   -6.63 KCAL/MOL
REMARK 923 INTER-LIGAND FREE ENERGY PREDICTED BY IDOCK:   -6.10 KCAL/MOL
REMARK 924 INTRA-LIGAND FREE ENERGY PREDICTED BY IDOCK:   -0.53 KCAL/MOL
REMARK 927      BINDING AFFINITY PREDICTED BY RF-SCORE:    0.00 PKD
ROOT
HETATM    1  C   UNL     1      -8.574   9.642  69.789  1.00  0.00    -0.211 C  
HETATM    2  C   UNL     1      -9.760   8.947  70.390  1.00  0.00    -0.226 A  
HETATM    3  C   UNL     1      -9.631   7.622  70.819  1.00  0.00    -0.166 A  
HETATM    4  C   UNL     1     -10.692   6.975  71.442  1.00  0.00    -0.219 A  
HETATM    5  N   UNL     1     -11.868   7.616  71.585  1.00  0.00    -0.280 NA 
HETATM    6  C   UNL     1     -10.976   9.598  70.588  1.00  0.00    -0.320 A  
HETATM    7  N   UNL     1     -12.001   8.935  71.168  1.00  0.00    -0.294 NA 
ENDROOT
BRANCH   4   8
HETATM    8  C   UNL     1     -10.580   5.602  71.956  1.00  0.00    -0.283 A  
HETATM    9  C   UNL     1     -10.880   3.993  73.782  1.00  0.00    -0.333 A  
HETATM   10  C   UNL     1     -11.056   5.268  73.243  1.00  0.00    -0.376 A  
HETATM   11  C   UNL     1      -9.969   4.578  71.210  1.00  0.00    -0.258 A  
HETATM   12  C   UNL     1     -10.240   3.011  73.037  1.00  0.00    -0.229 A  
HETATM   13  C   UNL     1      -9.796   3.298  71.748  1.00  0.00    -0.229 A  
ENDBRANCH   4   8
BRANCH   6  14
HETATM   14  N   UNL     1     -11.075  10.954  70.257  1.00  0.00    -0.467 NA 
HETATM   15  H   UNL     1     -10.641  11.682  70.824  1.00  0.00     0.000 HD 
BRANCH  14  16
HETATM   16  C   UNL     1     -11.835  11.265  69.055  1.00  0.00    -0.352 C  
BRANCH  16  17
HETATM   17  C   UNL     1     -11.903  12.799  68.875  1.00  0.00    -0.308 C  
BRANCH  17  18
HETATM   18  N   UNL     1     -11.423  13.304  67.566  1.00  0.00    -0.303 NA 
HETATM   19  C   UNL     1     -11.981  14.632  67.218  1.00  0.00    -0.284 C  
HETATM   20  C   UNL     1     -11.457  15.777  68.101  1.00  0.00    -0.302 C  
HETATM   21  O   UNL     1     -10.026  15.852  68.062  1.00  0.00    -0.218 OA 
HETATM   22  C   UNL     1      -9.430  14.606  68.445  1.00  0.00    -0.209 C  
HETATM   23  C   UNL     1      -9.943  13.442  67.576  1.00  0.00    -0.230 C  
ENDBRANCH  17  18
ENDBRANCH  16  17
ENDBRANCH  14  16
ENDBRANCH   6  14
TORSDOF 5
ENDMDL
MODEL       94
REMARK 921   NORMALIZED FREE ENERGY PREDICTED BY IDOCK:   -4.57 KCAL/MOL
REMARK 922        TOTAL FREE ENERGY PREDICTED BY IDOCK:   -6.61 KCAL/MOL
REMARK 923 INTER-LIGAND FREE ENERGY PREDICTED BY IDOCK:   -6.12 KCAL/MOL
REMARK 924 INTRA-LIGAND FREE ENERGY PREDICTED BY IDOCK:   -0.49 KCAL/MOL
REMARK 927      BINDING AFFINITY PREDICTED BY RF-SCORE:    0.00 PKD
ROOT
HETATM    1  C   UNL     1     -10.379  10.305  66.100  1.00  0.00    -0.253 C  
HETATM    2  C   UNL     1     -10.661   9.732  67.458  1.00  0.00    -0.335 A  
HETATM    3  C   UNL     1     -10.332   8.398  67.718  1.00  0.00    -0.297 A  
HETATM    4  C   UNL     1     -10.518   7.859  68.986  1.00  0.00    -0.198 A  
HETATM    5  N   UNL     1     -11.067   8.617  69.955  1.00  0.00    -0.206 NA 
HETATM    6  C   UNL     1     -11.190  10.504  68.491  1.00  0.00    -0.274 A  
HETATM    7  N   UNL     1     -11.389   9.945  69.705  1.00  0.00    -0.223 NA 
ENDROOT
BRANCH   4   8
HETATM    8  C   UNL     1     -10.135   6.478  69.316  1.00  0.00    -0.192 A  
HETATM    9  C   UNL     1      -9.197   4.318  68.632  1.00  0.00    -0.197 A  
HETATM   10  C   UNL     1      -9.489   5.657  68.367  1.00  0.00    -0.142 A  
HETATM   11  C   UNL     1     -10.424   5.908  70.570  1.00  0.00    -0.319 A  
HETATM   12  C   UNL     1      -9.527   3.771  69.866  1.00  0.00    -0.267 A  
HETATM   13  C   UNL     1     -10.128   4.567  70.838  1.00  0.00    -0.228 A  
ENDBRANCH   4   8
BRANCH   6  14
HETATM   14  N   UNL     1     -11.421  11.865  68.264  1.00  0.00    -0.286 NA 
HETATM   15  H   UNL     1     -12.276  12.201  67.822  1.00  0.00     0.000 HD 
BRANCH  14  16
HETATM   16  C   UNL     1     -10.368  12.773  68.694  1.00  0.00    -0.179 C  
BRANCH  16  17
HETATM   17  C   UNL     1     -10.095  13.807  67.578  1.00  0.00    -0.241 C  
BRANCH  17  18
HETATM   18  N   UNL     1     -11.216  14.734  67.287  1.00  0.00    -0.336 NA 
HETATM   19  C   UNL     1     -10.782  16.146  67.169  1.00  0.00    -0.262 C  
HETATM   20  C   UNL     1      -9.931  16.432  65.920  1.00  0.00    -0.332 C  
HETATM   21  O   UNL     1     -10.622  16.058  64.722  1.00  0.00    -0.600 OA 
HETATM   22  C   UNL     1     -11.017  14.681  64.758  1.00  0.00    -0.386 C  
HETATM   23  C   UNL     1     -11.869  14.369  66.003  1.00  0.00    -0.372 C  
ENDBRANCH  17  18
ENDBRANCH  16  17
ENDBRANCH  14  16
ENDBRANCH   6  14
TORSDOF 5
ENDMDL
MODEL       95
REMARK 921   NORMALIZED FREE ENERGY PREDICTED BY IDOCK:   -4.56 KCAL/MOL
REMARK 922        TOTAL FREE ENERGY PREDICTED BY IDOCK:   -6.61 KCAL/MOL
REMARK 923 INTER-LIGAND FREE ENERGY PREDICTED BY IDOCK:   -5.80 KCAL/MOL
REMARK 924 INTRA-LIGAND FREE ENERGY PREDICTED BY IDOCK:   -0.81 KCAL/MOL
REMARK 927      BINDING AFFINITY PREDICTED BY RF-SCORE:    0.00 PKD
ROOT
HETATM    1  C   UNL     1     -10.314   9.277  67.166  1.00  0.00    -0.330 C  
HETATM    2  C   UNL     1     -10.812   9.603  68.543  1.00  0.00    -0.202 A  
HETATM    3  C   UNL     1     -10.461   8.771  69.611  1.00  0.00    -0.220 A  
HETATM    4  C   UNL     1     -10.850   9.085  70.908  1.00  0.00    -0.258 A  
HETATM    5  N   UNL     1     -11.615  10.172  71.127  1.00  0.00    -0.364 NA 
HETATM    6  C   UNL     1     -11.570  10.742  68.805  1.00  0.00    -0.280 A  
HETATM    7  N   UNL     1     -11.962  11.006  70.071  1.00  0.00    -0.320 NA 
ENDROOT
BRANCH   4   8
HETATM    8  C   UNL     1     -10.456   8.267  72.065  1.00  0.00    -0.350 A  
HETATM    9  C   UNL     1      -8.781   7.637  73.741  1.00  0.00    -0.290 A  
HETATM   10  C   UNL     1      -9.209   8.460  72.699  1.00  0.00    -0.325 A  
HETATM   11  C   UNL     1     -11.281   7.244  72.565  1.00  0.00    -0.342 A  
HETATM   12  C   UNL     1      -9.601   6.610  74.191  1.00  0.00    -0.281 A  
HETATM   13  C   UNL     1     -10.855   6.421  73.614  1.00  0.00    -0.139 A  
ENDBRANCH   4   8
BRANCH   6  14
HETATM   14  N   UNL     1     -11.834  11.631  67.756  1.00  0.00    -0.611 NA 
HETATM   15  H   UNL     1     -12.077  11.306  66.821  1.00  0.00     0.000 HD 
BRANCH  14  16
HETATM   16  C   UNL     1     -11.741  13.047  68.080  1.00  0.00    -0.355 C  
BRANCH  16  17
HETATM   17  C   UNL     1     -10.367  13.588  67.620  1.00  0.00    -0.239 C  
BRANCH  17  18
HETATM   18  N   UNL     1      -9.297  13.549  68.646  1.00  0.00    -0.101 NA 
HETATM   19  C   UNL     1      -8.306  12.474  68.406  1.00  0.00    -0.132 C  
HETATM   20  C   UNL     1      -7.419  12.711  67.173  1.00  0.00    -0.050 C  
HETATM   21  O   UNL     1      -6.730  13.964  67.259  1.00  0.00    -0.237 OA 
HETATM   22  C   UNL     1      -7.648  15.050  67.436  1.00  0.00    -0.205 C  
HETATM   23  C   UNL     1      -8.551  14.834  68.665  1.00  0.00    -0.169 C  
ENDBRANCH  17  18
ENDBRANCH  16  17
ENDBRANCH  14  16
ENDBRANCH   6  14
TORSDOF 5
ENDMDL
MODEL       96
REMARK 921   NORMALIZED FREE ENERGY PREDICTED BY IDOCK:   -4.55 KCAL/MOL
REMARK 922        TOTAL FREE ENERGY PREDICTED BY IDOCK:   -6.59 KCAL/MOL
REMARK 923 INTER-LIGAND FREE ENERGY PREDICTED BY IDOCK:   -6.04 KCAL/MOL
REMARK 924 INTRA-LIGAND FREE ENERGY PREDICTED BY IDOCK:   -0.55 KCAL/MOL
REMARK 927      BINDING AFFINITY PREDICTED BY RF-SCORE:    0.00 PKD
ROOT
HETATM    1  C   UNL     1      -8.352   7.552  66.005  1.00  0.00    -0.136 C  
HETATM    2  C   UNL     1      -8.858   8.563  66.991  1.00  0.00    -0.144 A  
HETATM    3  C   UNL     1      -9.256   8.139  68.263  1.00  0.00    -0.134 A  
HETATM    4  C   UNL     1      -9.665   9.061  69.220  1.00  0.00    -0.168 A  
HETATM    5  N   UNL     1      -9.724  10.368  68.898  1.00  0.00    -0.188 NA 
HETATM    6  C   UNL     1      -8.892   9.926  66.700  1.00  0.00    -0.135 A  
HETATM    7  N   UNL     1      -9.323  10.797  67.639  1.00  0.00    -0.147 NA 
ENDROOT
BRANCH   4   8
HETATM    8  C   UNL     1     -10.038   8.662  70.585  1.00  0.00    -0.237 A  
HETATM    9  C   UNL     1      -9.386   8.087  72.877  1.00  0.00    -0.338 A  
HETATM   10  C   UNL     1      -9.065   8.548  71.600  1.00  0.00    -0.296 A  
HETATM   11  C   UNL     1     -11.366   8.345  70.927  1.00  0.00    -0.298 A  
HETATM   12  C   UNL     1     -10.700   7.746  73.178  1.00  0.00    -0.414 A  
HETATM   13  C   UNL     1     -11.691   7.887  72.208  1.00  0.00    -0.408 A  
ENDBRANCH   4   8
BRANCH   6  14
HETATM   14  N   UNL     1      -8.395  10.364  65.468  1.00  0.00    -0.164 NA 
HETATM   15  H   UNL     1      -7.417  10.623  65.341  1.00  0.00     0.000 HD 
BRANCH  14  16
HETATM   16  C   UNL     1      -9.356  10.427  64.377  1.00  0.00    -0.272 C  
BRANCH  16  17
HETATM   17  C   UNL     1     -10.031  11.818  64.368  1.00  0.00    -0.251 C  
BRANCH  17  18
HETATM   18  N   UNL     1     -11.400  11.860  64.937  1.00  0.00    -0.303 NA 
HETATM   19  C   UNL     1     -11.593  12.973  65.896  1.00  0.00    -0.363 C  
HETATM   20  C   UNL     1     -11.584  14.365  65.243  1.00  0.00    -0.353 C  
HETATM   21  O   UNL     1     -12.576  14.464  64.214  1.00  0.00    -0.676 OA 
HETATM   22  C   UNL     1     -12.402  13.442  63.225  1.00  0.00    -0.169 C  
HETATM   23  C   UNL     1     -12.404  12.037  63.856  1.00  0.00    -0.450 C  
ENDBRANCH  17  18
ENDBRANCH  16  17
ENDBRANCH  14  16
ENDBRANCH   6  14
TORSDOF 5
ENDMDL
MODEL       97
REMARK 921   NORMALIZED FREE ENERGY PREDICTED BY IDOCK:   -4.53 KCAL/MOL
REMARK 922        TOTAL FREE ENERGY PREDICTED BY IDOCK:   -6.56 KCAL/MOL
REMARK 923 INTER-LIGAND FREE ENERGY PREDICTED BY IDOCK:   -5.80 KCAL/MOL
REMARK 924 INTRA-LIGAND FREE ENERGY PREDICTED BY IDOCK:   -0.76 KCAL/MOL
REMARK 927      BINDING AFFINITY PREDICTED BY RF-SCORE:    0.00 PKD
ROOT
HETATM    1  C   UNL     1      -8.126  10.106  65.363  1.00  0.00    -0.149 C  
HETATM    2  C   UNL     1      -8.590  10.087  66.791  1.00  0.00    -0.129 A  
HETATM    3  C   UNL     1      -8.932   8.867  67.382  1.00  0.00    -0.143 A  
HETATM    4  C   UNL     1      -9.299   8.810  68.721  1.00  0.00    -0.141 A  
HETATM    5  N   UNL     1      -9.372   9.948  69.438  1.00  0.00    -0.200 NA 
HETATM    6  C   UNL     1      -8.636  11.243  67.568  1.00  0.00    -0.134 A  
HETATM    7  N   UNL     1      -9.027  11.162  68.859  1.00  0.00    -0.128 NA 
ENDROOT
BRANCH   4   8
HETATM    8  C   UNL     1      -9.613   7.541  69.395  1.00  0.00    -0.155 A  
HETATM    9  C   UNL     1     -11.240   6.072  70.494  1.00  0.00    -0.363 A  
HETATM   10  C   UNL     1     -10.936   7.229  69.776  1.00  0.00    -0.235 A  
HETATM   11  C   UNL     1      -8.613   6.606  69.718  1.00  0.00    -0.136 A  
HETATM   12  C   UNL     1     -10.226   5.183  70.832  1.00  0.00    -0.299 A  
HETATM   13  C   UNL     1      -8.917   5.443  70.434  1.00  0.00    -0.155 A  
ENDBRANCH   4   8
BRANCH   6  14
HETATM   14  N   UNL     1      -8.194  12.448  67.010  1.00  0.00    -0.280 NA 
HETATM   15  H   UNL     1      -7.308  12.518  66.510  1.00  0.00     0.000 HD 
BRANCH  14  16
HETATM   16  C   UNL     1      -9.072  13.595  67.186  1.00  0.00    -0.239 C  
BRANCH  16  17
HETATM   17  C   UNL     1      -9.936  13.778  65.916  1.00  0.00    -0.293 C  
BRANCH  17  18
HETATM   18  N   UNL     1     -11.313  13.235  66.004  1.00  0.00    -0.299 NA 
HETATM   19  C   UNL     1     -12.353  14.248  65.710  1.00  0.00    -0.405 C  
HETATM   20  C   UNL     1     -12.387  14.694  64.239  1.00  0.00    -0.349 C  
HETATM   21  O   UNL     1     -12.567  13.577  63.359  1.00  0.00    -0.740 OA 
HETATM   22  C   UNL     1     -11.551  12.588  63.562  1.00  0.00    -0.508 C  
HETATM   23  C   UNL     1     -11.495  12.126  65.031  1.00  0.00    -0.323 C  
ENDBRANCH  17  18
ENDBRANCH  16  17
ENDBRANCH  14  16
ENDBRANCH   6  14
TORSDOF 5
ENDMDL
MODEL       98
REMARK 921   NORMALIZED FREE ENERGY PREDICTED BY IDOCK:   -4.51 KCAL/MOL
REMARK 922        TOTAL FREE ENERGY PREDICTED BY IDOCK:   -6.54 KCAL/MOL
REMARK 923 INTER-LIGAND FREE ENERGY PREDICTED BY IDOCK:   -6.46 KCAL/MOL
REMARK 924 INTRA-LIGAND FREE ENERGY PREDICTED BY IDOCK:   -0.09 KCAL/MOL
REMARK 927      BINDING AFFINITY PREDICTED BY RF-SCORE:    0.00 PKD
ROOT
HETATM    1  C   UNL     1     -11.150  12.741  63.848  1.00  0.00    -0.477 C  
HETATM    2  C   UNL     1     -11.253  12.006  65.153  1.00  0.00    -0.368 A  
HETATM    3  C   UNL     1     -10.703  10.726  65.260  1.00  0.00    -0.153 A  
HETATM    4  C   UNL     1     -10.722  10.048  66.474  1.00  0.00    -0.024 A  
HETATM    5  N   UNL     1     -11.323  10.614  67.540  1.00  0.00    -0.441 NA 
HETATM    6  C   UNL     1     -11.833  12.582  66.281  1.00  0.00    -0.390 A  
HETATM    7  N   UNL     1     -11.866  11.889  67.441  1.00  0.00    -0.611 NA 
ENDROOT
BRANCH   4   8
HETATM    8  C   UNL     1     -10.106   8.724  66.645  1.00  0.00    -0.358 A  
HETATM    9  C   UNL     1      -8.345   7.117  66.070  1.00  0.00    -0.134 A  
HETATM   10  C   UNL     1      -8.899   8.396  65.991  1.00  0.00    -0.202 A  
HETATM   11  C   UNL     1     -10.705   7.724  67.431  1.00  0.00    -0.300 A  
HETATM   12  C   UNL     1      -8.978   6.137  66.825  1.00  0.00    -0.125 A  
HETATM   13  C   UNL     1     -10.149   6.443  67.515  1.00  0.00    -0.190 A  
ENDBRANCH   4   8
BRANCH   6  14
HETATM   14  N   UNL     1     -12.290  13.903  66.204  1.00  0.00    -0.467 NA 
HETATM   15  H   UNL     1     -13.270  14.145  66.350  1.00  0.00     0.000 HD 
BRANCH  14  16
HETATM   16  C   UNL     1     -11.285  14.911  65.904  1.00  0.00    -0.328 C  
BRANCH  16  17
HETATM   17  C   UNL     1     -10.449  15.196  67.173  1.00  0.00    -0.280 C  
BRANCH  17  18
HETATM   18  N   UNL     1     -10.753  16.475  67.857  1.00  0.00    -0.335 NA 
HETATM   19  C   UNL     1      -9.898  16.714  69.043  1.00  0.00    -0.267 C  
HETATM   20  C   UNL     1      -8.425  16.994  68.701  1.00  0.00    -0.262 C  
HETATM   21  O   UNL     1      -8.300  18.108  67.808  1.00  0.00    -0.243 OA 
HETATM   22  C   UNL     1      -9.066  17.904  66.614  1.00  0.00    -0.267 C  
HETATM   23  C   UNL     1     -10.545  17.619  66.931  1.00  0.00    -0.235 C  
ENDBRANCH  17  18
ENDBRANCH  16  17
ENDBRANCH  14  16
ENDBRANCH   6  14
TORSDOF 5
ENDMDL
MODEL       99
REMARK 921   NORMALIZED FREE ENERGY PREDICTED BY IDOCK:   -4.48 KCAL/MOL
REMARK 922        TOTAL FREE ENERGY PREDICTED BY IDOCK:   -6.50 KCAL/MOL
REMARK 923 INTER-LIGAND FREE ENERGY PREDICTED BY IDOCK:   -6.02 KCAL/MOL
REMARK 924 INTRA-LIGAND FREE ENERGY PREDICTED BY IDOCK:   -0.47 KCAL/MOL
REMARK 927      BINDING AFFINITY PREDICTED BY RF-SCORE:    0.00 PKD
ROOT
HETATM    1  C   UNL     1      -6.901  12.303  68.861  1.00  0.00    -0.096 C  
HETATM    2  C   UNL     1      -8.248  11.755  68.490  1.00  0.00    -0.134 A  
HETATM    3  C   UNL     1      -8.905  12.260  67.364  1.00  0.00    -0.185 A  
HETATM    4  C   UNL     1     -10.122  11.726  66.957  1.00  0.00    -0.209 A  
HETATM    5  N   UNL     1     -10.693  10.747  67.686  1.00  0.00    -0.238 NA 
HETATM    6  C   UNL     1      -8.844  10.715  69.202  1.00  0.00    -0.122 A  
HETATM    7  N   UNL     1     -10.043  10.236  68.801  1.00  0.00    -0.178 NA 
ENDROOT
BRANCH   4   8
HETATM    8  C   UNL     1     -10.819  12.191  65.748  1.00  0.00    -0.319 A  
HETATM    9  C   UNL     1     -12.104  13.919  64.576  1.00  0.00    -0.473 A  
HETATM   10  C   UNL     1     -11.364  13.491  65.679  1.00  0.00    -0.312 A  
HETATM   11  C   UNL     1     -11.000  11.356  64.631  1.00  0.00    -0.324 A  
HETATM   12  C   UNL     1     -12.299  13.060  63.501  1.00  0.00    -0.500 A  
HETATM   13  C   UNL     1     -11.738  11.785  63.522  1.00  0.00    -0.485 A  
ENDBRANCH   4   8
BRANCH   6  14
HETATM   14  N   UNL     1      -8.141  10.137  70.265  1.00  0.00    -0.403 NA 
HETATM   15  H   UNL     1      -7.438  10.654  70.792  1.00  0.00     0.000 HD 
BRANCH  14  16
HETATM   16  C   UNL     1      -8.473   8.754  70.573  1.00  0.00    -0.166 C  
BRANCH  16  17
HETATM   17  C   UNL     1      -9.374   8.711  71.829  1.00  0.00    -0.273 C  
BRANCH  17  18
HETATM   18  N   UNL     1      -9.787   7.355  72.265  1.00  0.00    -0.163 NA 
HETATM   19  C   UNL     1     -10.992   7.368  73.127  1.00  0.00    -0.359 C  
HETATM   20  C   UNL     1     -12.281   7.762  72.386  1.00  0.00    -0.207 C  
HETATM   21  O   UNL     1     -12.523   6.903  71.266  1.00  0.00    -0.367 OA 
HETATM   22  C   UNL     1     -11.406   6.895  70.367  1.00  0.00    -0.328 C  
HETATM   23  C   UNL     1     -10.102   6.506  71.087  1.00  0.00    -0.183 C  
ENDBRANCH  17  18
ENDBRANCH  16  17
ENDBRANCH  14  16
ENDBRANCH   6  14
TORSDOF 5
ENDMDL
MODEL      100
REMARK 921   NORMALIZED FREE ENERGY PREDICTED BY IDOCK:   -4.42 KCAL/MOL
REMARK 922        TOTAL FREE ENERGY PREDICTED BY IDOCK:   -6.43 KCAL/MOL
REMARK 923 INTER-LIGAND FREE ENERGY PREDICTED BY IDOCK:   -5.85 KCAL/MOL
REMARK 924 INTRA-LIGAND FREE ENERGY PREDICTED BY IDOCK:   -0.58 KCAL/MOL
REMARK 927      BINDING AFFINITY PREDICTED BY RF-SCORE:    0.00 PKD
ROOT
HETATM    1  C   UNL     1      -8.670  12.329  67.644  1.00  0.00    -0.175 C  
HETATM    2  C   UNL     1      -9.706  11.600  68.448  1.00  0.00    -0.199 A  
HETATM    3  C   UNL     1      -9.638  10.207  68.547  1.00  0.00    -0.158 A  
HETATM    4  C   UNL     1     -10.543   9.510  69.340  1.00  0.00    -0.219 A  
HETATM    5  N   UNL     1     -11.522  10.182  69.976  1.00  0.00    -0.270 NA 
HETATM    6  C   UNL     1     -10.705  12.272  69.149  1.00  0.00    -0.043 A  
HETATM    7  N   UNL     1     -11.591  11.567  69.887  1.00  0.00    -0.312 NA 
ENDROOT
BRANCH   4   8
HETATM    8  C   UNL     1     -10.473   8.052  69.515  1.00  0.00    -0.226 A  
HETATM    9  C   UNL     1      -9.565   5.878  68.837  1.00  0.00    -0.158 A  
HETATM   10  C   UNL     1      -9.584   7.270  68.747  1.00  0.00    -0.142 A  
HETATM   11  C   UNL     1     -11.306   7.374  70.424  1.00  0.00    -0.273 A  
HETATM   12  C   UNL     1     -10.425   5.231  69.716  1.00  0.00    -0.340 A  
HETATM   13  C   UNL     1     -11.286   5.978  70.518  1.00  0.00    -0.363 A  
ENDBRANCH   4   8
BRANCH   6  14
HETATM   14  N   UNL     1     -10.711  13.671  69.137  1.00  0.00    -0.416 NA 
HETATM   15  H   UNL     1     -10.031  14.219  69.663  1.00  0.00     0.000 HD 
BRANCH  14  16
HETATM   16  C   UNL     1     -11.746  14.300  68.328  1.00  0.00    -0.342 C  
BRANCH  16  17
HETATM   17  C   UNL     1     -11.376  15.781  68.083  1.00  0.00    -0.337 C  
BRANCH  17  18
HETATM   18  N   UNL     1      -9.987  16.017  67.620  1.00  0.00    -0.236 NA 
HETATM   19  C   UNL     1      -9.923  16.688  66.301  1.00  0.00    -0.320 C  
HETATM   20  C   UNL     1     -10.398  18.151  66.325  1.00  0.00    -0.397 C  
HETATM   21  O   UNL     1      -9.654  18.925  67.275  1.00  0.00    -0.299 OA 
HETATM   22  C   UNL     1      -9.728  18.349  68.585  1.00  0.00    -0.361 C  
HETATM   23  C   UNL     1      -9.260  16.881  68.586  1.00  0.00    -0.265 C  
ENDBRANCH  17  18
ENDBRANCH  16  17
ENDBRANCH  14  16
ENDBRANCH   6  14
TORSDOF 5
ENDMDL
MODEL      101
REMARK 921   NORMALIZED FREE ENERGY PREDICTED BY IDOCK:   -4.42 KCAL/MOL
REMARK 922        TOTAL FREE ENERGY PREDICTED BY IDOCK:   -6.42 KCAL/MOL
REMARK 923 INTER-LIGAND FREE ENERGY PREDICTED BY IDOCK:   -5.86 KCAL/MOL
REMARK 924 INTRA-LIGAND FREE ENERGY PREDICTED BY IDOCK:   -0.57 KCAL/MOL
REMARK 927      BINDING AFFINITY PREDICTED BY RF-SCORE:    0.00 PKD
ROOT
HETATM    1  C   UNL     1     -12.755  11.268  71.207  1.00  0.00    -0.510 C  
HETATM    2  C   UNL     1     -12.024  10.915  69.945  1.00  0.00    -0.430 A  
HETATM    3  C   UNL     1     -12.222  11.694  68.801  1.00  0.00    -0.048 A  
HETATM    4  C   UNL     1     -11.508  11.434  67.637  1.00  0.00    -0.273 A  
HETATM    5  N   UNL     1     -10.656  10.390  67.601  1.00  0.00    -0.236 NA 
HETATM    6  C   UNL     1     -11.108   9.867  69.890  1.00  0.00    -0.275 A  
HETATM    7  N   UNL     1     -10.450   9.617  68.737  1.00  0.00    -0.209 NA 
ENDROOT
BRANCH   4   8
HETATM    8  C   UNL     1     -11.645  12.262  66.430  1.00  0.00    -0.445 A  
HETATM    9  C   UNL     1     -11.181  12.633  64.051  1.00  0.00    -0.459 A  
HETATM   10  C   UNL     1     -11.138  11.824  65.187  1.00  0.00    -0.341 A  
HETATM   11  C   UNL     1     -12.252  13.530  66.467  1.00  0.00    -0.433 A  
HETATM   12  C   UNL     1     -11.753  13.897  64.125  1.00  0.00    -0.369 A  
HETATM   13  C   UNL     1     -12.300  14.341  65.327  1.00  0.00    -0.427 A  
ENDBRANCH   4   8
BRANCH   6  14
HETATM   14  N   UNL     1     -10.830   9.153  71.062  1.00  0.00    -0.264 NA 
HETATM   15  H   UNL     1     -10.600   9.621  71.938  1.00  0.00     0.000 HD 
BRANCH  14  16
HETATM   16  C   UNL     1     -10.888   7.703  70.956  1.00  0.00    -0.242 C  
BRANCH  16  17
HETATM   17  C   UNL     1      -9.451   7.132  70.935  1.00  0.00    -0.160 C  
BRANCH  17  18
HETATM   18  N   UNL     1      -9.226   5.953  71.805  1.00  0.00    -0.148 NA 
HETATM   19  C   UNL     1      -7.810   5.517  71.830  1.00  0.00    -0.109 C  
HETATM   20  C   UNL     1      -6.870   6.500  72.547  1.00  0.00    -0.069 C  
HETATM   21  O   UNL     1      -7.302   6.751  73.890  1.00  0.00    -0.083 OA 
HETATM   22  C   UNL     1      -8.652   7.230  73.921  1.00  0.00    -0.180 C  
HETATM   23  C   UNL     1      -9.613   6.262  73.206  1.00  0.00    -0.147 C  
ENDBRANCH  17  18
ENDBRANCH  16  17
ENDBRANCH  14  16
ENDBRANCH   6  14
TORSDOF 5
ENDMDL
MODEL      102
REMARK 921   NORMALIZED FREE ENERGY PREDICTED BY IDOCK:   -4.39 KCAL/MOL
REMARK 922        TOTAL FREE ENERGY PREDICTED BY IDOCK:   -6.39 KCAL/MOL
REMARK 923 INTER-LIGAND FREE ENERGY PREDICTED BY IDOCK:   -5.82 KCAL/MOL
REMARK 924 INTRA-LIGAND FREE ENERGY PREDICTED BY IDOCK:   -0.57 KCAL/MOL
REMARK 927      BINDING AFFINITY PREDICTED BY RF-SCORE:    0.00 PKD
ROOT
HETATM    1  C   UNL     1     -11.112   9.258  70.363  1.00  0.00    -0.300 C  
HETATM    2  C   UNL     1     -10.849   9.729  68.963  1.00  0.00    -0.223 A  
HETATM    3  C   UNL     1      -9.946   9.021  68.163  1.00  0.00    -0.206 A  
HETATM    4  C   UNL     1      -9.733   9.392  66.840  1.00  0.00    -0.186 A  
HETATM    5  N   UNL     1     -10.365  10.474  66.345  1.00  0.00    -0.234 NA 
HETATM    6  C   UNL     1     -11.518  10.819  68.412  1.00  0.00    -0.288 A  
HETATM    7  N   UNL     1     -11.268  11.177  67.133  1.00  0.00    -0.371 NA 
ENDROOT
BRANCH   4   8
HETATM    8  C   UNL     1      -8.835   8.642  65.949  1.00  0.00    -0.221 A  
HETATM    9  C   UNL     1      -7.032   7.009  65.645  1.00  0.00    -0.056 A  
HETATM   10  C   UNL     1      -7.952   7.667  66.461  1.00  0.00    -0.106 A  
HETATM   11  C   UNL     1      -8.793   8.886  64.565  1.00  0.00    -0.069 A  
HETATM   12  C   UNL     1      -6.987   7.296  64.286  1.00  0.00    -0.056 A  
HETATM   13  C   UNL     1      -7.874   8.223  63.744  1.00  0.00    -0.152 A  
ENDBRANCH   4   8
BRANCH   6  14
HETATM   14  N   UNL     1     -12.498  11.464  69.175  1.00  0.00    -0.277 NA 
HETATM   15  H   UNL     1     -13.328  10.977  69.512  1.00  0.00     0.000 HD 
BRANCH  14  16
HETATM   16  C   UNL     1     -12.263  12.872  69.460  1.00  0.00    -0.119 C  
BRANCH  16  17
HETATM   17  C   UNL     1     -12.636  13.166  70.932  1.00  0.00    -0.295 C  
BRANCH  17  18
HETATM   18  N   UNL     1     -13.480  14.367  71.143  1.00  0.00    -0.341 NA 
HETATM   19  C   UNL     1     -13.889  14.544  72.556  1.00  0.00    -0.452 C  
HETATM   20  C   UNL     1     -12.731  14.922  73.495  1.00  0.00    -0.499 C  
HETATM   21  O   UNL     1     -12.068  16.113  73.052  1.00  0.00    -0.478 OA 
HETATM   22  C   UNL     1     -11.600  15.975  71.704  1.00  0.00    -0.459 C  
HETATM   23  C   UNL     1     -12.743  15.593  70.744  1.00  0.00    -0.431 C  
ENDBRANCH  17  18
ENDBRANCH  16  17
ENDBRANCH  14  16
ENDBRANCH   6  14
TORSDOF 5
ENDMDL
MODEL      103
REMARK 921   NORMALIZED FREE ENERGY PREDICTED BY IDOCK:   -4.39 KCAL/MOL
REMARK 922        TOTAL FREE ENERGY PREDICTED BY IDOCK:   -6.38 KCAL/MOL
REMARK 923 INTER-LIGAND FREE ENERGY PREDICTED BY IDOCK:   -5.88 KCAL/MOL
REMARK 924 INTRA-LIGAND FREE ENERGY PREDICTED BY IDOCK:   -0.49 KCAL/MOL
REMARK 927      BINDING AFFINITY PREDICTED BY RF-SCORE:    0.00 PKD
ROOT
HETATM    1  C   UNL     1     -10.380   6.667  66.846  1.00  0.00    -0.324 C  
HETATM    2  C   UNL     1     -10.471   7.392  68.157  1.00  0.00    -0.241 A  
HETATM    3  C   UNL     1     -10.503   6.655  69.344  1.00  0.00    -0.254 A  
HETATM    4  C   UNL     1     -10.518   7.301  70.576  1.00  0.00    -0.217 A  
HETATM    5  N   UNL     1     -10.553   8.647  70.618  1.00  0.00    -0.204 NA 
HETATM    6  C   UNL     1     -10.467   8.783  68.232  1.00  0.00    -0.187 A  
HETATM    7  N   UNL     1     -10.514   9.385  69.442  1.00  0.00    -0.213 NA 
ENDROOT
BRANCH   4   8
HETATM    8  C   UNL     1     -10.497   6.565  71.848  1.00  0.00    -0.233 A  
HETATM    9  C   UNL     1     -10.173   6.544  74.279  1.00  0.00    -0.373 A  
HETATM   10  C   UNL     1     -10.284   7.235  73.072  1.00  0.00    -0.313 A  
HETATM   11  C   UNL     1     -10.653   5.167  71.898  1.00  0.00    -0.256 A  
HETATM   12  C   UNL     1     -10.294   5.159  74.294  1.00  0.00    -0.314 A  
HETATM   13  C   UNL     1     -10.546   4.473  73.108  1.00  0.00    -0.284 A  
ENDBRANCH   4   8
BRANCH   6  14
HETATM   14  N   UNL     1     -10.328   9.522  67.052  1.00  0.00    -0.250 NA 
HETATM   15  H   UNL     1      -9.712   9.222  66.296  1.00  0.00     0.000 HD 
BRANCH  14  16
HETATM   16  C   UNL     1     -11.114  10.744  66.965  1.00  0.00    -0.174 C  
BRANCH  16  17
HETATM   17  C   UNL     1     -10.217  11.896  66.457  1.00  0.00    -0.203 C  
BRANCH  17  18
HETATM   18  N   UNL     1     -10.941  13.057  65.887  1.00  0.00    -0.269 NA 
HETATM   19  C   UNL     1     -12.160  13.410  66.651  1.00  0.00    -0.373 C  
HETATM   20  C   UNL     1     -11.872  13.995  68.044  1.00  0.00    -0.368 C  
HETATM   21  O   UNL     1     -11.027  15.149  67.961  1.00  0.00    -0.274 OA 
HETATM   22  C   UNL     1      -9.804  14.849  67.277  1.00  0.00    -0.229 C  
HETATM   23  C   UNL     1     -10.067  14.259  65.879  1.00  0.00    -0.326 C  
ENDBRANCH  17  18
ENDBRANCH  16  17
ENDBRANCH  14  16
ENDBRANCH   6  14
TORSDOF 5
ENDMDL
MODEL      104
REMARK 921   NORMALIZED FREE ENERGY PREDICTED BY IDOCK:   -4.38 KCAL/MOL
REMARK 922        TOTAL FREE ENERGY PREDICTED BY IDOCK:   -6.37 KCAL/MOL
REMARK 923 INTER-LIGAND FREE ENERGY PREDICTED BY IDOCK:   -6.05 KCAL/MOL
REMARK 924 INTRA-LIGAND FREE ENERGY PREDICTED BY IDOCK:   -0.32 KCAL/MOL
REMARK 927      BINDING AFFINITY PREDICTED BY RF-SCORE:    0.00 PKD
ROOT
HETATM    1  C   UNL     1     -11.013   9.788  70.826  1.00  0.00    -0.406 C  
HETATM    2  C   UNL     1     -10.459   9.724  69.432  1.00  0.00    -0.241 A  
HETATM    3  C   UNL     1     -10.315   8.480  68.811  1.00  0.00    -0.233 A  
HETATM    4  C   UNL     1      -9.869   8.394  67.497  1.00  0.00    -0.181 A  
HETATM    5  N   UNL     1      -9.528   9.518  66.838  1.00  0.00    -0.151 NA 
HETATM    6  C   UNL     1     -10.136  10.873  68.712  1.00  0.00    -0.194 A  
HETATM    7  N   UNL     1      -9.676  10.758  67.447  1.00  0.00    -0.169 NA 
ENDROOT
BRANCH   4   8
HETATM    8  C   UNL     1      -9.756   7.110  66.789  1.00  0.00    -0.252 A  
HETATM    9  C   UNL     1      -8.624   5.694  65.138  1.00  0.00    -0.130 A  
HETATM   10  C   UNL     1      -8.699   6.871  65.884  1.00  0.00    -0.146 A  
HETATM   11  C   UNL     1     -10.705   6.086  66.956  1.00  0.00    -0.412 A  
HETATM   12  C   UNL     1      -9.596   4.714  65.296  1.00  0.00    -0.161 A  
HETATM   13  C   UNL     1     -10.629   4.903  66.212  1.00  0.00    -0.307 A  
ENDBRANCH   4   8
BRANCH   6  14
HETATM   14  N   UNL     1     -10.379  12.122  69.293  1.00  0.00    -0.411 NA 
HETATM   15  H   UNL     1      -9.660  12.626  69.812  1.00  0.00     0.000 HD 
BRANCH  14  16
HETATM   16  C   UNL     1     -11.719  12.662  69.112  1.00  0.00    -0.321 C  
BRANCH  16  17
HETATM   17  C   UNL     1     -12.031  12.762  67.601  1.00  0.00    -0.273 C  
BRANCH  17  18
HETATM   18  N   UNL     1     -11.920  14.122  67.022  1.00  0.00    -0.428 NA 
HETATM   19  C   UNL     1     -10.521  14.510  66.723  1.00  0.00    -0.270 C  
HETATM   20  C   UNL     1      -9.894  13.723  65.559  1.00  0.00    -0.163 C  
HETATM   21  O   UNL     1     -10.675  13.849  64.364  1.00  0.00    -0.394 OA 
HETATM   22  C   UNL     1     -12.029  13.433  64.582  1.00  0.00    -0.399 C  
HETATM   23  C   UNL     1     -12.678  14.205  65.746  1.00  0.00    -0.413 C  
ENDBRANCH  17  18
ENDBRANCH  16  17
ENDBRANCH  14  16
ENDBRANCH   6  14
TORSDOF 5
ENDMDL
MODEL      105
REMARK 921   NORMALIZED FREE ENERGY PREDICTED BY IDOCK:   -4.38 KCAL/MOL
REMARK 922        TOTAL FREE ENERGY PREDICTED BY IDOCK:   -6.37 KCAL/MOL
REMARK 923 INTER-LIGAND FREE ENERGY PREDICTED BY IDOCK:   -5.95 KCAL/MOL
REMARK 924 INTRA-LIGAND FREE ENERGY PREDICTED BY IDOCK:   -0.42 KCAL/MOL
REMARK 927      BINDING AFFINITY PREDICTED BY RF-SCORE:    0.00 PKD
ROOT
HETATM    1  C   UNL     1     -10.139  11.032  65.345  1.00  0.00    -0.326 C  
HETATM    2  C   UNL     1     -10.790  11.138  66.693  1.00  0.00    -0.308 A  
HETATM    3  C   UNL     1     -10.539  10.151  67.652  1.00  0.00    -0.316 A  
HETATM    4  C   UNL     1     -11.072  10.258  68.931  1.00  0.00    -0.231 A  
HETATM    5  N   UNL     1     -11.878  11.296  69.229  1.00  0.00    -0.329 NA 
HETATM    6  C   UNL     1     -11.594  12.221  67.042  1.00  0.00    -0.349 A  
HETATM    7  N   UNL     1     -12.125  12.283  68.284  1.00  0.00    -0.345 NA 
ENDROOT
BRANCH   4   8
HETATM    8  C   UNL     1     -10.789   9.272  69.985  1.00  0.00    -0.264 A  
HETATM    9  C   UNL     1     -10.116   7.007  70.641  1.00  0.00    -0.201 A  
HETATM   10  C   UNL     1     -10.308   7.984  69.663  1.00  0.00    -0.220 A  
HETATM   11  C   UNL     1     -11.015   9.554  71.344  1.00  0.00    -0.415 A  
HETATM   12  C   UNL     1     -10.383   7.302  71.972  1.00  0.00    -0.217 A  
HETATM   13  C   UNL     1     -10.819   8.577  72.326  1.00  0.00    -0.418 A  
ENDBRANCH   4   8
BRANCH   6  14
HETATM   14  N   UNL     1     -11.760  13.261  66.121  1.00  0.00    -0.356 NA 
HETATM   15  H   UNL     1     -12.145  13.102  65.190  1.00  0.00     0.000 HD 
BRANCH  14  16
HETATM   16  C   UNL     1     -11.353  14.584  66.570  1.00  0.00    -0.352 C  
BRANCH  16  17
HETATM   17  C   UNL     1     -10.131  14.453  67.508  1.00  0.00    -0.232 C  
BRANCH  17  18
HETATM   18  N   UNL     1      -8.813  14.433  66.830  1.00  0.00    -0.228 NA 
HETATM   19  C   UNL     1      -8.256  15.788  66.607  1.00  0.00    -0.270 C  
HETATM   20  C   UNL     1      -7.826  16.503  67.899  1.00  0.00    -0.154 C  
HETATM   21  O   UNL     1      -6.872  15.725  68.632  1.00  0.00    -0.115 OA 
HETATM   22  C   UNL     1      -7.382  14.418  68.925  1.00  0.00    -0.127 C  
HETATM   23  C   UNL     1      -7.823  13.683  67.645  1.00  0.00    -0.174 C  
ENDBRANCH  17  18
ENDBRANCH  16  17
ENDBRANCH  14  16
ENDBRANCH   6  14
TORSDOF 5
ENDMDL
MODEL      106
REMARK 921   NORMALIZED FREE ENERGY PREDICTED BY IDOCK:   -4.37 KCAL/MOL
REMARK 922        TOTAL FREE ENERGY PREDICTED BY IDOCK:   -6.36 KCAL/MOL
REMARK 923 INTER-LIGAND FREE ENERGY PREDICTED BY IDOCK:   -5.73 KCAL/MOL
REMARK 924 INTRA-LIGAND FREE ENERGY PREDICTED BY IDOCK:   -0.63 KCAL/MOL
REMARK 927      BINDING AFFINITY PREDICTED BY RF-SCORE:    0.00 PKD
ROOT
HETATM    1  C   UNL     1      -8.305   9.869  69.767  1.00  0.00    -0.196 C  
HETATM    2  C   UNL     1      -9.516   9.187  70.335  1.00  0.00    -0.269 A  
HETATM    3  C   UNL     1      -9.421   7.852  70.739  1.00  0.00    -0.163 A  
HETATM    4  C   UNL     1     -10.506   7.215  71.331  1.00  0.00    -0.204 A  
HETATM    5  N   UNL     1     -11.670   7.878  71.469  1.00  0.00    -0.274 NA 
HETATM    6  C   UNL     1     -10.721   9.860  70.526  1.00  0.00    -0.317 A  
HETATM    7  N   UNL     1     -11.768   9.207  71.076  1.00  0.00    -0.289 NA 
ENDROOT
BRANCH   4   8
HETATM    8  C   UNL     1     -10.431   5.830  71.820  1.00  0.00    -0.281 A  
HETATM    9  C   UNL     1     -10.971   4.154  73.527  1.00  0.00    -0.360 A  
HETATM   10  C   UNL     1     -11.101   5.440  73.000  1.00  0.00    -0.368 A  
HETATM   11  C   UNL     1      -9.669   4.851  71.158  1.00  0.00    -0.245 A  
HETATM   12  C   UNL     1     -10.181   3.217  72.872  1.00  0.00    -0.237 A  
HETATM   13  C   UNL     1      -9.541   3.560  71.683  1.00  0.00    -0.228 A  
ENDBRANCH   4   8
BRANCH   6  14
HETATM   14  N   UNL     1     -10.786  11.224  70.221  1.00  0.00    -0.289 NA 
HETATM   15  H   UNL     1     -10.207  11.913  70.700  1.00  0.00     0.000 HD 
BRANCH  14  16
HETATM   16  C   UNL     1     -11.730  11.602  69.179  1.00  0.00    -0.326 C  
BRANCH  16  17
HETATM   17  C   UNL     1     -11.219  11.086  67.814  1.00  0.00    -0.308 C  
BRANCH  17  18
HETATM   18  N   UNL     1     -10.619  12.116  66.933  1.00  0.00    -0.225 NA 
HETATM   19  C   UNL     1      -9.428  11.627  66.199  1.00  0.00    -0.224 C  
HETATM   20  C   UNL     1      -9.750  10.578  65.122  1.00  0.00    -0.282 C  
HETATM   21  O   UNL     1     -10.703  11.078  64.176  1.00  0.00    -0.378 OA 
HETATM   22  C   UNL     1     -11.902  11.515  64.828  1.00  0.00     0.138 C  
HETATM   23  C   UNL     1     -11.604  12.565  65.915  1.00  0.00    -0.405 C  
ENDBRANCH  17  18
ENDBRANCH  16  17
ENDBRANCH  14  16
ENDBRANCH   6  14
TORSDOF 5
ENDMDL
MODEL      107
REMARK 921   NORMALIZED FREE ENERGY PREDICTED BY IDOCK:   -4.28 KCAL/MOL
REMARK 922        TOTAL FREE ENERGY PREDICTED BY IDOCK:   -6.24 KCAL/MOL
REMARK 923 INTER-LIGAND FREE ENERGY PREDICTED BY IDOCK:   -5.81 KCAL/MOL
REMARK 924 INTRA-LIGAND FREE ENERGY PREDICTED BY IDOCK:   -0.43 KCAL/MOL
REMARK 927      BINDING AFFINITY PREDICTED BY RF-SCORE:    0.00 PKD
ROOT
HETATM    1  C   UNL     1      -9.792   5.070  66.431  1.00  0.00    -0.218 C  
HETATM    2  C   UNL     1     -10.056   5.964  67.608  1.00  0.00    -0.194 A  
HETATM    3  C   UNL     1     -10.154   5.401  68.884  1.00  0.00    -0.265 A  
HETATM    4  C   UNL     1     -10.330   6.210  70.001  1.00  0.00    -0.209 A  
HETATM    5  N   UNL     1     -10.457   7.542  69.842  1.00  0.00    -0.224 NA 
HETATM    6  C   UNL     1     -10.152   7.348  67.478  1.00  0.00    -0.192 A  
HETATM    7  N   UNL     1     -10.354   8.108  68.577  1.00  0.00    -0.208 NA 
ENDROOT
BRANCH   4   8
HETATM    8  C   UNL     1     -10.382   5.664  71.365  1.00  0.00    -0.287 A  
HETATM    9  C   UNL     1     -10.334   3.736  72.879  1.00  0.00    -0.241 A  
HETATM   10  C   UNL     1     -10.201   4.284  71.603  1.00  0.00    -0.160 A  
HETATM   11  C   UNL     1     -10.646   6.481  72.480  1.00  0.00    -0.240 A  
HETATM   12  C   UNL     1     -10.632   4.560  73.957  1.00  0.00    -0.338 A  
HETATM   13  C   UNL     1     -10.775   5.932  73.761  1.00  0.00    -0.219 A  
ENDBRANCH   4   8
BRANCH   6  14
HETATM   14  N   UNL     1      -9.950   7.921  66.217  1.00  0.00    -0.476 NA 
HETATM   15  H   UNL     1     -10.243   7.456  65.359  1.00  0.00     0.000 HD 
BRANCH  14  16
HETATM   16  C   UNL     1      -9.297   9.222  66.204  1.00  0.00    -0.212 C  
BRANCH  16  17
HETATM   17  C   UNL     1     -10.366  10.331  66.071  1.00  0.00    -0.178 C  
BRANCH  17  18
HETATM   18  N   UNL     1      -9.925  11.552  65.355  1.00  0.00    -0.238 NA 
HETATM   19  C   UNL     1     -10.683  11.795  64.105  1.00  0.00    -0.357 C  
HETATM   20  C   UNL     1     -12.150  12.194  64.336  1.00  0.00    -0.357 C  
HETATM   21  O   UNL     1     -12.249  13.355  65.170  1.00  0.00    -0.385 OA 
HETATM   22  C   UNL     1     -11.577  13.155  66.421  1.00  0.00    -0.349 C  
HETATM   23  C   UNL     1     -10.106  12.750  66.215  1.00  0.00    -0.259 C  
ENDBRANCH  17  18
ENDBRANCH  16  17
ENDBRANCH  14  16
ENDBRANCH   6  14
TORSDOF 5
ENDMDL
MODEL      108
REMARK 921   NORMALIZED FREE ENERGY PREDICTED BY IDOCK:   -4.27 KCAL/MOL
REMARK 922        TOTAL FREE ENERGY PREDICTED BY IDOCK:   -6.23 KCAL/MOL
REMARK 923 INTER-LIGAND FREE ENERGY PREDICTED BY IDOCK:   -5.62 KCAL/MOL
REMARK 924 INTRA-LIGAND FREE ENERGY PREDICTED BY IDOCK:   -0.61 KCAL/MOL
REMARK 927      BINDING AFFINITY PREDICTED BY RF-SCORE:    0.00 PKD
ROOT
HETATM    1  C   UNL     1     -10.121  10.437  66.024  1.00  0.00    -0.307 C  
HETATM    2  C   UNL     1     -10.369  11.532  67.020  1.00  0.00    -0.254 A  
HETATM    3  C   UNL     1      -9.957  12.834  66.720  1.00  0.00    -0.237 A  
HETATM    4  C   UNL     1     -10.234  13.880  67.592  1.00  0.00    -0.242 A  
HETATM    5  N   UNL     1     -10.859  13.625  68.758  1.00  0.00    -0.253 NA 
HETATM    6  C   UNL     1     -11.049  11.304  68.215  1.00  0.00    -0.240 A  
HETATM    7  N   UNL     1     -11.277  12.334  69.059  1.00  0.00    -0.256 NA 
ENDROOT
BRANCH   4   8
HETATM    8  C   UNL     1      -9.868  15.272  67.290  1.00  0.00    -0.220 A  
HETATM    9  C   UNL     1     -10.394  17.666  67.365  1.00  0.00    -0.360 A  
HETATM   10  C   UNL     1     -10.678  16.346  67.718  1.00  0.00    -0.328 A  
HETATM   11  C   UNL     1      -8.722  15.590  66.537  1.00  0.00    -0.340 A  
HETATM   12  C   UNL     1      -9.276  17.948  66.590  1.00  0.00    -0.288 A  
HETATM   13  C   UNL     1      -8.434  16.914  66.187  1.00  0.00    -0.281 A  
ENDBRANCH   4   8
BRANCH   6  14
HETATM   14  N   UNL     1     -11.554  10.023  68.468  1.00  0.00    -0.565 NA 
HETATM   15  H   UNL     1     -12.289   9.610  67.895  1.00  0.00     0.000 HD 
BRANCH  14  16
HETATM   16  C   UNL     1     -10.968   9.317  69.598  1.00  0.00    -0.175 C  
BRANCH  16  17
HETATM   17  C   UNL     1     -10.024   8.209  69.076  1.00  0.00    -0.189 C  
BRANCH  17  18
HETATM   18  N   UNL     1      -9.261   7.485  70.120  1.00  0.00    -0.154 NA 
HETATM   19  C   UNL     1     -10.127   6.916  71.179  1.00  0.00    -0.191 C  
HETATM   20  C   UNL     1     -11.006   5.748  70.701  1.00  0.00    -0.249 C  
HETATM   21  O   UNL     1     -10.214   4.696  70.136  1.00  0.00    -0.240 OA 
HETATM   22  C   UNL     1      -9.394   5.181  69.066  1.00  0.00    -0.121 C  
HETATM   23  C   UNL     1      -8.506   6.355  69.519  1.00  0.00    -0.133 C  
ENDBRANCH  17  18
ENDBRANCH  16  17
ENDBRANCH  14  16
ENDBRANCH   6  14
TORSDOF 5
ENDMDL
MODEL      109
REMARK 921   NORMALIZED FREE ENERGY PREDICTED BY IDOCK:   -4.26 KCAL/MOL
REMARK 922        TOTAL FREE ENERGY PREDICTED BY IDOCK:   -6.22 KCAL/MOL
REMARK 923 INTER-LIGAND FREE ENERGY PREDICTED BY IDOCK:   -5.74 KCAL/MOL
REMARK 924 INTRA-LIGAND FREE ENERGY PREDICTED BY IDOCK:   -0.48 KCAL/MOL
REMARK 927      BINDING AFFINITY PREDICTED BY RF-SCORE:    0.00 PKD
ROOT
HETATM    1  C   UNL     1      -7.772  14.324  68.470  1.00  0.00    -0.137 C  
HETATM    2  C   UNL     1      -8.962  13.444  68.223  1.00  0.00    -0.176 A  
HETATM    3  C   UNL     1      -8.767  12.165  67.693  1.00  0.00    -0.172 A  
HETATM    4  C   UNL     1      -9.842  11.302  67.517  1.00  0.00    -0.178 A  
HETATM    5  N   UNL     1     -11.087  11.724  67.814  1.00  0.00    -0.227 NA 
HETATM    6  C   UNL     1     -10.255  13.839  68.558  1.00  0.00    -0.235 A  
HETATM    7  N   UNL     1     -11.286  12.991  68.347  1.00  0.00    -0.270 NA 
ENDROOT
BRANCH   4   8
HETATM    8  C   UNL     1      -9.674   9.930  67.015  1.00  0.00    -0.230 A  
HETATM    9  C   UNL     1     -10.292   7.558  67.083  1.00  0.00    -0.384 A  
HETATM   10  C   UNL     1     -10.494   8.880  67.481  1.00  0.00    -0.337 A  
HETATM   11  C   UNL     1      -8.675   9.600  66.081  1.00  0.00    -0.152 A  
HETATM   12  C   UNL     1      -9.274   7.255  66.187  1.00  0.00    -0.136 A  
HETATM   13  C   UNL     1      -8.474   8.276  65.677  1.00  0.00    -0.173 A  
ENDBRANCH   4   8
BRANCH   6  14
HETATM   14  N   UNL     1     -10.440  15.076  69.186  1.00  0.00    -0.240 NA 
HETATM   15  H   UNL     1     -10.340  15.190  70.194  1.00  0.00     0.000 HD 
BRANCH  14  16
HETATM   16  C   UNL     1     -10.783  16.190  68.314  1.00  0.00    -0.307 C  
BRANCH  16  17
HETATM   17  C   UNL     1     -10.036  17.458  68.786  1.00  0.00    -0.329 C  
BRANCH  17  18
HETATM   18  N   UNL     1      -8.924  17.899  67.911  1.00  0.00    -0.259 NA 
HETATM   19  C   UNL     1      -9.174  17.626  66.476  1.00  0.00    -0.269 C  
HETATM   20  C   UNL     1     -10.290  18.490  65.865  1.00  0.00    -0.315 C  
HETATM   21  O   UNL     1     -10.017  19.887  66.029  1.00  0.00    -0.449 OA 
HETATM   22  C   UNL     1      -9.820  20.219  67.410  1.00  0.00    -0.446 C  
HETATM   23  C   UNL     1      -8.708  19.363  68.045  1.00  0.00    -0.320 C  
ENDBRANCH  17  18
ENDBRANCH  16  17
ENDBRANCH  14  16
ENDBRANCH   6  14
TORSDOF 5
ENDMDL
MODEL      110
REMARK 921   NORMALIZED FREE ENERGY PREDICTED BY IDOCK:   -4.24 KCAL/MOL
REMARK 922        TOTAL FREE ENERGY PREDICTED BY IDOCK:   -6.19 KCAL/MOL
REMARK 923 INTER-LIGAND FREE ENERGY PREDICTED BY IDOCK:   -5.48 KCAL/MOL
REMARK 924 INTRA-LIGAND FREE ENERGY PREDICTED BY IDOCK:   -0.71 KCAL/MOL
REMARK 927      BINDING AFFINITY PREDICTED BY RF-SCORE:    0.00 PKD
ROOT
HETATM    1  C   UNL     1      -7.782   8.777  66.748  1.00  0.00    -0.094 C  
HETATM    2  C   UNL     1      -9.070   9.454  67.118  1.00  0.00    -0.148 A  
HETATM    3  C   UNL     1      -9.570  10.467  66.294  1.00  0.00    -0.230 A  
HETATM    4  C   UNL     1     -10.793  11.065  66.573  1.00  0.00    -0.209 A  
HETATM    5  N   UNL     1     -11.475  10.698  67.676  1.00  0.00    -0.479 NA 
HETATM    6  C   UNL     1      -9.815   9.068  68.230  1.00  0.00    -0.166 A  
HETATM    7  N   UNL     1     -10.986   9.687  68.495  1.00  0.00    -0.158 NA 
ENDROOT
BRANCH   4   8
HETATM    8  C   UNL     1     -11.381  12.094  65.702  1.00  0.00    -0.395 A  
HETATM    9  C   UNL     1     -11.704  13.044  63.465  1.00  0.00    -0.532 A  
HETATM   10  C   UNL     1     -11.229  12.032  64.300  1.00  0.00    -0.421 A  
HETATM   11  C   UNL     1     -12.085  13.193  66.226  1.00  0.00    -0.460 A  
HETATM   12  C   UNL     1     -12.364  14.137  64.012  1.00  0.00    -0.315 A  
HETATM   13  C   UNL     1     -12.566  14.207  65.389  1.00  0.00    -0.485 A  
ENDBRANCH   4   8
BRANCH   6  14
HETATM   14  N   UNL     1      -9.369   7.984  68.996  1.00  0.00    -0.148 NA 
HETATM   15  H   UNL     1      -8.385   7.858  69.232  1.00  0.00     0.000 HD 
BRANCH  14  16
HETATM   16  C   UNL     1     -10.393   7.048  69.436  1.00  0.00    -0.207 C  
BRANCH  16  17
HETATM   17  C   UNL     1     -10.144   5.671  68.780  1.00  0.00    -0.186 C  
BRANCH  17  18
HETATM   18  N   UNL     1      -9.060   5.639  67.769  1.00  0.00    -0.108 NA 
HETATM   19  C   UNL     1      -8.229   4.414  67.851  1.00  0.00    -0.095 C  
HETATM   20  C   UNL     1      -8.966   3.134  67.422  1.00  0.00    -0.158 C  
HETATM   21  O   UNL     1      -9.486   3.253  66.092  1.00  0.00    -0.157 OA 
HETATM   22  C   UNL     1     -10.344   4.394  65.970  1.00  0.00    -0.178 C  
HETATM   23  C   UNL     1      -9.629   5.689  66.398  1.00  0.00    -0.157 C  
ENDBRANCH  17  18
ENDBRANCH  16  17
ENDBRANCH  14  16
ENDBRANCH   6  14
TORSDOF 5
ENDMDL
MODEL      111
REMARK 921   NORMALIZED FREE ENERGY PREDICTED BY IDOCK:   -4.20 KCAL/MOL
REMARK 922        TOTAL FREE ENERGY PREDICTED BY IDOCK:   -6.14 KCAL/MOL
REMARK 923 INTER-LIGAND FREE ENERGY PREDICTED BY IDOCK:   -5.47 KCAL/MOL
REMARK 924 INTRA-LIGAND FREE ENERGY PREDICTED BY IDOCK:   -0.67 KCAL/MOL
REMARK 927      BINDING AFFINITY PREDICTED BY RF-SCORE:    0.00 PKD
ROOT
HETATM    1  C   UNL     1     -11.592   9.471  71.642  1.00  0.00    -0.451 C  
HETATM    2  C   UNL     1     -11.312   9.593  70.173  1.00  0.00    -0.275 A  
HETATM    3  C   UNL     1     -11.606  10.793  69.519  1.00  0.00    -0.375 A  
HETATM    4  C   UNL     1     -11.294  10.960  68.174  1.00  0.00    -0.315 A  
HETATM    5  N   UNL     1     -10.750   9.936  67.488  1.00  0.00    -0.274 NA 
HETATM    6  C   UNL     1     -10.712   8.565  69.447  1.00  0.00    -0.156 A  
HETATM    7  N   UNL     1     -10.448   8.743  68.134  1.00  0.00    -0.212 NA 
ENDROOT
BRANCH   4   8
HETATM    8  C   UNL     1     -11.537  12.224  67.463  1.00  0.00    -0.422 A  
HETATM    9  C   UNL     1     -11.879  14.651  67.513  1.00  0.00    -0.375 A  
HETATM   10  C   UNL     1     -11.564  13.453  68.156  1.00  0.00    -0.376 A  
HETATM   11  C   UNL     1     -11.784  12.259  66.078  1.00  0.00    -0.451 A  
HETATM   12  C   UNL     1     -12.155  14.652  66.151  1.00  0.00    -0.213 A  
HETATM   13  C   UNL     1     -12.096  13.460  65.432  1.00  0.00    -0.457 A  
ENDBRANCH   4   8
BRANCH   6  14
HETATM   14  N   UNL     1     -10.320   7.404  70.122  1.00  0.00    -0.210 NA 
HETATM   15  H   UNL     1     -10.995   6.703  70.427  1.00  0.00     0.000 HD 
BRANCH  14  16
HETATM   16  C   UNL     1      -8.893   7.255  70.364  1.00  0.00    -0.150 C  
BRANCH  16  17
HETATM   17  C   UNL     1      -8.331   6.146  69.445  1.00  0.00    -0.116 C  
BRANCH  17  18
HETATM   18  N   UNL     1      -9.332   5.467  68.588  1.00  0.00    -0.122 NA 
HETATM   19  C   UNL     1      -9.065   5.639  67.140  1.00  0.00    -0.111 C  
HETATM   20  C   UNL     1      -7.814   4.893  66.647  1.00  0.00    -0.099 C  
HETATM   21  O   UNL     1      -7.892   3.493  66.941  1.00  0.00    -0.079 OA 
HETATM   22  C   UNL     1      -8.095   3.266  68.341  1.00  0.00    -0.068 C  
HETATM   23  C   UNL     1      -9.342   4.006  68.860  1.00  0.00    -0.164 C  
ENDBRANCH  17  18
ENDBRANCH  16  17
ENDBRANCH  14  16
ENDBRANCH   6  14
TORSDOF 5
ENDMDL
MODEL      112
REMARK 921   NORMALIZED FREE ENERGY PREDICTED BY IDOCK:   -4.19 KCAL/MOL
REMARK 922        TOTAL FREE ENERGY PREDICTED BY IDOCK:   -6.12 KCAL/MOL
REMARK 923 INTER-LIGAND FREE ENERGY PREDICTED BY IDOCK:   -5.48 KCAL/MOL
REMARK 924 INTRA-LIGAND FREE ENERGY PREDICTED BY IDOCK:   -0.64 KCAL/MOL
REMARK 927      BINDING AFFINITY PREDICTED BY RF-SCORE:    0.00 PKD
ROOT
HETATM    1  C   UNL     1     -11.392   9.201  71.612  1.00  0.00    -0.446 C  
HETATM    2  C   UNL     1     -11.104   9.246  70.140  1.00  0.00    -0.260 A  
HETATM    3  C   UNL     1     -11.407  10.406  69.419  1.00  0.00    -0.310 A  
HETATM    4  C   UNL     1     -11.089  10.501  68.069  1.00  0.00    -0.300 A  
HETATM    5  N   UNL     1     -10.532   9.447  67.443  1.00  0.00    -0.269 NA 
HETATM    6  C   UNL     1     -10.491   8.186  69.474  1.00  0.00    -0.227 A  
HETATM    7  N   UNL     1     -10.222   8.295  68.154  1.00  0.00    -0.204 NA 
ENDROOT
BRANCH   4   8
HETATM    8  C   UNL     1     -11.340  11.722  67.289  1.00  0.00    -0.379 A  
HETATM    9  C   UNL     1     -12.077  14.058  67.188  1.00  0.00    -0.436 A  
HETATM   10  C   UNL     1     -11.750  12.916  67.920  1.00  0.00    -0.405 A  
HETATM   11  C   UNL     1     -11.216  11.744  65.888  1.00  0.00    -0.345 A  
HETATM   12  C   UNL     1     -11.981  14.041  65.802  1.00  0.00    -0.417 A  
HETATM   13  C   UNL     1     -11.540  12.890  65.153  1.00  0.00    -0.367 A  
ENDBRANCH   4   8
BRANCH   6  14
HETATM   14  N   UNL     1     -10.092   7.067  70.214  1.00  0.00    -0.187 NA 
HETATM   15  H   UNL     1     -10.753   6.521  70.766  1.00  0.00     0.000 HD 
BRANCH  14  16
HETATM   16  C   UNL     1      -8.678   6.729  70.149  1.00  0.00    -0.141 C  
BRANCH  16  17
HETATM   17  C   UNL     1      -8.227   6.148  71.509  1.00  0.00    -0.118 C  
BRANCH  17  18
HETATM   18  N   UNL     1      -9.325   5.741  72.418  1.00  0.00    -0.144 NA 
HETATM   19  C   UNL     1      -9.509   4.273  72.481  1.00  0.00    -0.130 C  
HETATM   20  C   UNL     1      -8.358   3.532  73.183  1.00  0.00    -0.079 C  
HETATM   21  O   UNL     1      -8.151   4.030  74.511  1.00  0.00    -0.088 OA 
HETATM   22  C   UNL     1      -7.912   5.443  74.504  1.00  0.00    -0.104 C  
HETATM   23  C   UNL     1      -9.050   6.207  73.802  1.00  0.00    -0.128 C  
ENDBRANCH  17  18
ENDBRANCH  16  17
ENDBRANCH  14  16
ENDBRANCH   6  14
TORSDOF 5
ENDMDL
MODEL      113
REMARK 921   NORMALIZED FREE ENERGY PREDICTED BY IDOCK:   -4.17 KCAL/MOL
REMARK 922        TOTAL FREE ENERGY PREDICTED BY IDOCK:   -6.10 KCAL/MOL
REMARK 923 INTER-LIGAND FREE ENERGY PREDICTED BY IDOCK:   -5.61 KCAL/MOL
REMARK 924 INTRA-LIGAND FREE ENERGY PREDICTED BY IDOCK:   -0.48 KCAL/MOL
REMARK 927      BINDING AFFINITY PREDICTED BY RF-SCORE:    0.00 PKD
ROOT
HETATM    1  C   UNL     1     -10.627   8.851  67.435  1.00  0.00    -0.305 C  
HETATM    2  C   UNL     1      -9.777   9.067  68.653  1.00  0.00    -0.168 A  
HETATM    3  C   UNL     1      -9.928   8.217  69.752  1.00  0.00    -0.191 A  
HETATM    4  C   UNL     1      -9.108   8.350  70.867  1.00  0.00    -0.160 A  
HETATM    5  N   UNL     1      -8.195   9.340  70.904  1.00  0.00    -0.268 NA 
HETATM    6  C   UNL     1      -8.798  10.058  68.704  1.00  0.00    -0.132 A  
HETATM    7  N   UNL     1      -8.035  10.185  69.812  1.00  0.00    -0.171 NA 
ENDROOT
BRANCH   4   8
HETATM    8  C   UNL     1      -9.197   7.442  72.020  1.00  0.00    -0.155 A  
HETATM    9  C   UNL     1      -8.456   5.413  73.181  1.00  0.00    -0.118 A  
HETATM   10  C   UNL     1      -8.330   6.334  72.141  1.00  0.00    -0.109 A  
HETATM   11  C   UNL     1     -10.164   7.615  73.026  1.00  0.00    -0.379 A  
HETATM   12  C   UNL     1      -9.445   5.588  74.142  1.00  0.00    -0.140 A  
HETATM   13  C   UNL     1     -10.289   6.694  74.072  1.00  0.00    -0.377 A  
ENDBRANCH   4   8
BRANCH   6  14
HETATM   14  N   UNL     1      -8.573  10.842  67.566  1.00  0.00    -0.125 NA 
HETATM   15  H   UNL     1      -7.931  10.552  66.829  1.00  0.00     0.000 HD 
BRANCH  14  16
HETATM   16  C   UNL     1      -9.310  12.095  67.497  1.00  0.00    -0.181 C  
BRANCH  16  17
HETATM   17  C   UNL     1      -9.957  12.232  66.099  1.00  0.00    -0.243 C  
BRANCH  17  18
HETATM   18  N   UNL     1     -10.151  13.623  65.626  1.00  0.00    -0.297 NA 
HETATM   19  C   UNL     1     -10.743  13.695  64.269  1.00  0.00    -0.262 C  
HETATM   20  C   UNL     1     -12.210  13.236  64.208  1.00  0.00    -0.392 C  
HETATM   21  O   UNL     1     -13.029  13.988  65.111  1.00  0.00    -0.744 OA 
HETATM   22  C   UNL     1     -12.532  13.908  66.453  1.00  0.00    -0.370 C  
HETATM   23  C   UNL     1     -11.062  14.359  66.540  1.00  0.00    -0.331 C  
ENDBRANCH  17  18
ENDBRANCH  16  17
ENDBRANCH  14  16
ENDBRANCH   6  14
TORSDOF 5
ENDMDL
MODEL      114
REMARK 921   NORMALIZED FREE ENERGY PREDICTED BY IDOCK:   -4.14 KCAL/MOL
REMARK 922        TOTAL FREE ENERGY PREDICTED BY IDOCK:   -6.06 KCAL/MOL
REMARK 923 INTER-LIGAND FREE ENERGY PREDICTED BY IDOCK:   -6.07 KCAL/MOL
REMARK 924 INTRA-LIGAND FREE ENERGY PREDICTED BY IDOCK:    0.01 KCAL/MOL
REMARK 927      BINDING AFFINITY PREDICTED BY RF-SCORE:    0.00 PKD
ROOT
HETATM    1  C   UNL     1      -8.118  13.040  68.238  1.00  0.00    -0.151 C  
HETATM    2  C   UNL     1      -9.075  14.183  68.065  1.00  0.00    -0.191 A  
HETATM    3  C   UNL     1      -8.584  15.492  68.076  1.00  0.00    -0.155 A  
HETATM    4  C   UNL     1      -9.436  16.568  67.851  1.00  0.00    -0.220 A  
HETATM    5  N   UNL     1     -10.752  16.345  67.671  1.00  0.00    -0.326 NA 
HETATM    6  C   UNL     1     -10.435  13.980  67.837  1.00  0.00    -0.241 A  
HETATM    7  N   UNL     1     -11.245  15.046  67.651  1.00  0.00    -0.317 NA 
ENDROOT
BRANCH   4   8
HETATM    8  C   UNL     1      -8.951  17.955  67.799  1.00  0.00    -0.254 A  
HETATM    9  C   UNL     1      -9.352  20.322  67.300  1.00  0.00    -0.538 A  
HETATM   10  C   UNL     1      -9.814  19.013  67.440  1.00  0.00    -0.386 A  
HETATM   11  C   UNL     1      -7.610  18.282  68.071  1.00  0.00    -0.257 A  
HETATM   12  C   UNL     1      -8.014  20.611  67.539  1.00  0.00    -0.274 A  
HETATM   13  C   UNL     1      -7.147  19.595  67.936  1.00  0.00    -0.301 A  
ENDBRANCH   4   8
BRANCH   6  14
HETATM   14  N   UNL     1     -10.910  12.669  67.720  1.00  0.00    -0.216 NA 
HETATM   15  H   UNL     1     -10.579  12.038  66.992  1.00  0.00     0.000 HD 
BRANCH  14  16
HETATM   16  C   UNL     1     -11.906  12.261  68.700  1.00  0.00    -0.305 C  
BRANCH  16  17
HETATM   17  C   UNL     1     -12.374  13.497  69.501  1.00  0.00    -0.147 C  
BRANCH  17  18
HETATM   18  N   UNL     1     -11.900  13.558  70.905  1.00  0.00    -0.086 NA 
HETATM   19  C   UNL     1     -11.211  14.829  71.228  1.00  0.00    -0.003 C  
HETATM   20  C   UNL     1     -12.145  16.051  71.260  1.00  0.00    -0.391 C  
HETATM   21  O   UNL     1     -13.223  15.859  72.185  1.00  0.00    -0.451 OA 
HETATM   22  C   UNL     1     -13.960  14.668  71.884  1.00  0.00    -0.481 C  
HETATM   23  C   UNL     1     -13.045  13.430  71.844  1.00  0.00    -0.383 C  
ENDBRANCH  17  18
ENDBRANCH  16  17
ENDBRANCH  14  16
ENDBRANCH   6  14
TORSDOF 5
ENDMDL
MODEL      115
REMARK 921   NORMALIZED FREE ENERGY PREDICTED BY IDOCK:   -4.11 KCAL/MOL
REMARK 922        TOTAL FREE ENERGY PREDICTED BY IDOCK:   -6.03 KCAL/MOL
REMARK 923 INTER-LIGAND FREE ENERGY PREDICTED BY IDOCK:   -6.61 KCAL/MOL
REMARK 924 INTRA-LIGAND FREE ENERGY PREDICTED BY IDOCK:    0.58 KCAL/MOL
REMARK 927      BINDING AFFINITY PREDICTED BY RF-SCORE:    0.00 PKD
ROOT
HETATM    1  C   UNL     1      -9.618  17.470  66.820  1.00  0.00    -0.286 C  
HETATM    2  C   UNL     1     -10.392  16.190  66.936  1.00  0.00    -0.297 A  
HETATM    3  C   UNL     1     -10.167  15.169  66.007  1.00  0.00    -0.325 A  
HETATM    4  C   UNL     1     -10.818  13.947  66.130  1.00  0.00    -0.290 A  
HETATM    5  N   UNL     1     -11.710  13.768  67.123  1.00  0.00    -0.362 NA 
HETATM    6  C   UNL     1     -11.290  15.962  67.976  1.00  0.00    -0.284 A  
HETATM    7  N   UNL     1     -11.933  14.775  68.053  1.00  0.00    -0.284 NA 
ENDROOT
BRANCH   4   8
HETATM    8  C   UNL     1     -10.569  12.829  65.207  1.00  0.00    -0.312 A  
HETATM    9  C   UNL     1      -9.615  10.612  64.774  1.00  0.00    -0.334 A  
HETATM   10  C   UNL     1      -9.938  11.647  65.652  1.00  0.00    -0.274 A  
HETATM   11  C   UNL     1     -10.915  12.901  63.846  1.00  0.00    -0.422 A  
HETATM   12  C   UNL     1      -9.935  10.725  63.427  1.00  0.00    -0.385 A  
HETATM   13  C   UNL     1     -10.595  11.862  62.965  1.00  0.00    -0.154 A  
ENDBRANCH   4   8
BRANCH   6  14
HETATM   14  N   UNL     1     -11.438  16.941  68.966  1.00  0.00    -0.104 NA 
HETATM   15  H   UNL     1     -11.514  17.931  68.738  1.00  0.00     0.000 HD 
BRANCH  14  16
HETATM   16  C   UNL     1     -11.476  16.461  70.339  1.00  0.00    -0.130 C  
BRANCH  16  17
HETATM   17  C   UNL     1     -12.540  15.346  70.463  1.00  0.00    -0.423 C  
BRANCH  17  18
HETATM   18  N   UNL     1     -13.568  15.566  71.508  1.00  0.00    -0.500 NA 
HETATM   19  C   UNL     1     -14.204  14.309  71.967  1.00  0.00    -0.542 C  
HETATM   20  C   UNL     1     -13.264  13.397  72.774  1.00  0.00    -0.160 C  
HETATM   21  O   UNL     1     -12.719  14.082  73.909  1.00  0.00     0.040 OA 
HETATM   22  C   UNL     1     -12.042  15.282  73.515  1.00  0.00    -0.489 C  
HETATM   23  C   UNL     1     -12.963  16.211  72.702  1.00  0.00    -0.291 C  
ENDBRANCH  17  18
ENDBRANCH  16  17
ENDBRANCH  14  16
ENDBRANCH   6  14
TORSDOF 5
ENDMDL
MODEL      116
REMARK 921   NORMALIZED FREE ENERGY PREDICTED BY IDOCK:   -4.08 KCAL/MOL
REMARK 922        TOTAL FREE ENERGY PREDICTED BY IDOCK:   -5.98 KCAL/MOL
REMARK 923 INTER-LIGAND FREE ENERGY PREDICTED BY IDOCK:   -5.71 KCAL/MOL
REMARK 924 INTRA-LIGAND FREE ENERGY PREDICTED BY IDOCK:   -0.26 KCAL/MOL
REMARK 927      BINDING AFFINITY PREDICTED BY RF-SCORE:    0.00 PKD
ROOT
HETATM    1  C   UNL     1      -9.986  11.319  64.739  1.00  0.00    -0.327 C  
HETATM    2  C   UNL     1     -10.347  10.885  66.130  1.00  0.00    -0.305 A  
HETATM    3  C   UNL     1     -10.255   9.531  66.468  1.00  0.00    -0.307 A  
HETATM    4  C   UNL     1     -10.516   9.109  67.767  1.00  0.00    -0.247 A  
HETATM    5  N   UNL     1     -10.911  10.007  68.690  1.00  0.00    -0.231 NA 
HETATM    6  C   UNL     1     -10.719  11.797  67.115  1.00  0.00    -0.241 A  
HETATM    7  N   UNL     1     -10.998  11.354  68.362  1.00  0.00    -0.199 NA 
ENDROOT
BRANCH   4   8
HETATM    8  C   UNL     1     -10.377   7.704  68.178  1.00  0.00    -0.250 A  
HETATM    9  C   UNL     1     -10.382   5.319  67.607  1.00  0.00    -0.208 A  
HETATM   10  C   UNL     1     -10.424   6.661  67.227  1.00  0.00    -0.342 A  
HETATM   11  C   UNL     1     -10.228   7.338  69.528  1.00  0.00    -0.200 A  
HETATM   12  C   UNL     1     -10.271   4.985  68.952  1.00  0.00    -0.184 A  
HETATM   13  C   UNL     1     -10.182   5.993  69.910  1.00  0.00    -0.265 A  
ENDBRANCH   4   8
BRANCH   6  14
HETATM   14  N   UNL     1     -10.710  13.162  66.808  1.00  0.00    -0.266 NA 
HETATM   15  H   UNL     1     -11.449  13.596  66.255  1.00  0.00     0.000 HD 
BRANCH  14  16
HETATM   16  C   UNL     1      -9.584  13.926  67.323  1.00  0.00    -0.243 C  
BRANCH  16  17
HETATM   17  C   UNL     1      -9.942  14.489  68.718  1.00  0.00    -0.232 C  
BRANCH  17  18
HETATM   18  N   UNL     1     -11.180  15.303  68.773  1.00  0.00    -0.269 NA 
HETATM   19  C   UNL     1     -12.394  14.492  69.022  1.00  0.00    -0.086 C  
HETATM   20  C   UNL     1     -12.463  13.894  70.437  1.00  0.00    -0.334 C  
HETATM   21  O   UNL     1     -12.375  14.915  71.439  1.00  0.00    -0.297 OA 
HETATM   22  C   UNL     1     -11.185  15.698  71.279  1.00  0.00    -0.331 C  
HETATM   23  C   UNL     1     -11.092  16.305  69.867  1.00  0.00    -0.347 C  
ENDBRANCH  17  18
ENDBRANCH  16  17
ENDBRANCH  14  16
ENDBRANCH   6  14
TORSDOF 5
ENDMDL
MODEL      117
REMARK 921   NORMALIZED FREE ENERGY PREDICTED BY IDOCK:   -4.05 KCAL/MOL
REMARK 922        TOTAL FREE ENERGY PREDICTED BY IDOCK:   -5.94 KCAL/MOL
REMARK 923 INTER-LIGAND FREE ENERGY PREDICTED BY IDOCK:   -5.41 KCAL/MOL
REMARK 924 INTRA-LIGAND FREE ENERGY PREDICTED BY IDOCK:   -0.53 KCAL/MOL
REMARK 927      BINDING AFFINITY PREDICTED BY RF-SCORE:    0.00 PKD
ROOT
HETATM    1  C   UNL     1      -6.997   7.931  68.751  1.00  0.00    -0.066 C  
HETATM    2  C   UNL     1      -8.393   7.462  69.036  1.00  0.00    -0.126 A  
HETATM    3  C   UNL     1      -8.593   6.444  69.974  1.00  0.00    -0.135 A  
HETATM    4  C   UNL     1      -9.879   6.036  70.309  1.00  0.00    -0.178 A  
HETATM    5  N   UNL     1     -10.936   6.592  69.685  1.00  0.00    -0.285 NA 
HETATM    6  C   UNL     1      -9.506   8.047  68.436  1.00  0.00    -0.145 A  
HETATM    7  N   UNL     1     -10.744   7.609  68.758  1.00  0.00    -0.135 NA 
ENDROOT
BRANCH   4   8
HETATM    8  C   UNL     1     -10.136   5.008  71.330  1.00  0.00    -0.276 A  
HETATM    9  C   UNL     1     -11.232   4.317  73.411  1.00  0.00    -0.361 A  
HETATM   10  C   UNL     1     -11.042   5.245  72.386  1.00  0.00    -0.260 A  
HETATM   11  C   UNL     1      -9.470   3.769  71.317  1.00  0.00    -0.229 A  
HETATM   12  C   UNL     1     -10.533   3.116  73.394  1.00  0.00    -0.252 A  
HETATM   13  C   UNL     1      -9.663   2.837  72.342  1.00  0.00    -0.213 A  
ENDBRANCH   4   8
BRANCH   6  14
HETATM   14  N   UNL     1      -9.314   9.135  67.578  1.00  0.00    -0.134 NA 
HETATM   15  H   UNL     1      -8.894   9.028  66.655  1.00  0.00     0.000 HD 
BRANCH  14  16
HETATM   16  C   UNL     1      -9.750  10.430  68.079  1.00  0.00    -0.150 C  
BRANCH  16  17
HETATM   17  C   UNL     1     -10.153  11.331  66.889  1.00  0.00    -0.212 C  
BRANCH  17  18
HETATM   18  N   UNL     1     -11.569  11.770  66.879  1.00  0.00    -0.548 NA 
HETATM   19  C   UNL     1     -11.906  12.661  68.013  1.00  0.00    -0.323 C  
HETATM   20  C   UNL     1     -11.246  14.049  67.931  1.00  0.00    -0.273 C  
HETATM   21  O   UNL     1     -11.580  14.712  66.706  1.00  0.00    -0.365 OA 
HETATM   22  C   UNL     1     -11.223  13.915  65.569  1.00  0.00    -0.307 C  
HETATM   23  C   UNL     1     -11.869  12.519  65.631  1.00  0.00    -0.438 C  
ENDBRANCH  17  18
ENDBRANCH  16  17
ENDBRANCH  14  16
ENDBRANCH   6  14
TORSDOF 5
ENDMDL
MODEL      118
REMARK 921   NORMALIZED FREE ENERGY PREDICTED BY IDOCK:   -4.03 KCAL/MOL
REMARK 922        TOTAL FREE ENERGY PREDICTED BY IDOCK:   -5.92 KCAL/MOL
REMARK 923 INTER-LIGAND FREE ENERGY PREDICTED BY IDOCK:   -5.35 KCAL/MOL
REMARK 924 INTRA-LIGAND FREE ENERGY PREDICTED BY IDOCK:   -0.57 KCAL/MOL
REMARK 927      BINDING AFFINITY PREDICTED BY RF-SCORE:    0.00 PKD
ROOT
HETATM    1  C   UNL     1     -12.145  13.897  63.655  1.00  0.00    -0.247 C  
HETATM    2  C   UNL     1     -11.621  13.700  65.047  1.00  0.00    -0.345 A  
HETATM    3  C   UNL     1     -11.350  12.404  65.498  1.00  0.00    -0.387 A  
HETATM    4  C   UNL     1     -10.800  12.195  66.757  1.00  0.00    -0.248 A  
HETATM    5  N   UNL     1     -10.575  13.249  67.566  1.00  0.00    -0.244 NA 
HETATM    6  C   UNL     1     -11.341  14.773  65.890  1.00  0.00    -0.331 A  
HETATM    7  N   UNL     1     -10.836  14.539  67.121  1.00  0.00    -0.290 NA 
ENDROOT
BRANCH   4   8
HETATM    8  C   UNL     1     -10.449  10.854  67.248  1.00  0.00    -0.275 A  
HETATM    9  C   UNL     1      -9.950   8.496  66.796  1.00  0.00    -0.351 A  
HETATM   10  C   UNL     1     -10.198   9.795  66.350  1.00  0.00    -0.288 A  
HETATM   11  C   UNL     1     -10.383  10.562  68.623  1.00  0.00    -0.201 A  
HETATM   12  C   UNL     1      -9.927   8.228  68.160  1.00  0.00    -0.224 A  
HETATM   13  C   UNL     1     -10.130   9.261  69.072  1.00  0.00    -0.207 A  
ENDBRANCH   4   8
BRANCH   6  14
HETATM   14  N   UNL     1     -11.512  16.074  65.403  1.00  0.00     0.109 NA 
HETATM   15  H   UNL     1     -12.433  16.503  65.321  1.00  0.00     0.000 HD 
BRANCH  14  16
HETATM   16  C   UNL     1     -10.297  16.779  65.021  1.00  0.00     0.252 C  
BRANCH  16  17
HETATM   17  C   UNL     1     -10.093  17.992  65.958  1.00  0.00    -0.266 C  
BRANCH  17  18
HETATM   18  N   UNL     1      -8.682  18.391  66.177  1.00  0.00    -0.493 NA 
HETATM   19  C   UNL     1      -8.490  19.860  66.176  1.00  0.00    -0.319 C  
HETATM   20  C   UNL     1      -9.110  20.568  67.394  1.00  0.00    -0.327 C  
HETATM   21  O   UNL     1      -8.599  20.035  68.622  1.00  0.00    -0.143 OA 
HETATM   22  C   UNL     1      -8.808  18.620  68.701  1.00  0.00    -0.302 C  
HETATM   23  C   UNL     1      -8.199  17.889  67.490  1.00  0.00    -0.227 C  
ENDBRANCH  17  18
ENDBRANCH  16  17
ENDBRANCH  14  16
ENDBRANCH   6  14
TORSDOF 5
ENDMDL
MODEL      119
REMARK 921   NORMALIZED FREE ENERGY PREDICTED BY IDOCK:   -4.02 KCAL/MOL
REMARK 922        TOTAL FREE ENERGY PREDICTED BY IDOCK:   -5.90 KCAL/MOL
REMARK 923 INTER-LIGAND FREE ENERGY PREDICTED BY IDOCK:   -5.52 KCAL/MOL
REMARK 924 INTRA-LIGAND FREE ENERGY PREDICTED BY IDOCK:   -0.39 KCAL/MOL
REMARK 927      BINDING AFFINITY PREDICTED BY RF-SCORE:    0.00 PKD
ROOT
HETATM    1  C   UNL     1     -12.232  13.694  65.847  1.00  0.00    -0.502 C  
HETATM    2  C   UNL     1     -11.070  13.409  66.752  1.00  0.00    -0.308 A  
HETATM    3  C   UNL     1     -10.303  12.259  66.538  1.00  0.00    -0.250 A  
HETATM    4  C   UNL     1      -9.180  12.004  67.316  1.00  0.00    -0.182 A  
HETATM    5  N   UNL     1      -8.862  12.847  68.318  1.00  0.00    -0.186 NA 
HETATM    6  C   UNL     1     -10.693  14.283  67.769  1.00  0.00    -0.251 A  
HETATM    7  N   UNL     1      -9.615  13.995  68.531  1.00  0.00    -0.216 NA 
ENDROOT
BRANCH   4   8
HETATM    8  C   UNL     1      -8.315  10.837  67.088  1.00  0.00    -0.126 A  
HETATM    9  C   UNL     1      -6.434   9.791  65.914  1.00  0.00    -0.082 A  
HETATM   10  C   UNL     1      -7.212  10.910  66.210  1.00  0.00    -0.126 A  
HETATM   11  C   UNL     1      -8.568   9.596  67.702  1.00  0.00    -0.126 A  
HETATM   12  C   UNL     1      -6.728   8.569  66.507  1.00  0.00    -0.067 A  
HETATM   13  C   UNL     1      -7.785   8.474  67.409  1.00  0.00    -0.098 A  
ENDBRANCH   4   8
BRANCH   6  14
HETATM   14  N   UNL     1     -11.395  15.485  67.918  1.00  0.00    -0.330 NA 
HETATM   15  H   UNL     1     -12.069  15.807  67.223  1.00  0.00     0.000 HD 
BRANCH  14  16
HETATM   16  C   UNL     1     -11.107  16.249  69.123  1.00  0.00    -0.322 C  
BRANCH  16  17
HETATM   17  C   UNL     1     -10.144  17.409  68.776  1.00  0.00    -0.346 C  
BRANCH  17  18
HETATM   18  N   UNL     1     -10.605  18.310  67.692  1.00  0.00    -0.419 NA 
HETATM   19  C   UNL     1     -10.295  19.735  67.954  1.00  0.00    -0.433 C  
HETATM   20  C   UNL     1      -8.794  20.066  67.891  1.00  0.00    -0.263 C  
HETATM   21  O   UNL     1      -8.231  19.694  66.627  1.00  0.00    -0.286 OA 
HETATM   22  C   UNL     1      -8.454  18.307  66.347  1.00  0.00    -0.244 C  
HETATM   23  C   UNL     1      -9.951  17.950  66.407  1.00  0.00    -0.358 C  
ENDBRANCH  17  18
ENDBRANCH  16  17
ENDBRANCH  14  16
ENDBRANCH   6  14
TORSDOF 5
ENDMDL
MODEL      120
REMARK 921   NORMALIZED FREE ENERGY PREDICTED BY IDOCK:   -4.02 KCAL/MOL
REMARK 922        TOTAL FREE ENERGY PREDICTED BY IDOCK:   -5.90 KCAL/MOL
REMARK 923 INTER-LIGAND FREE ENERGY PREDICTED BY IDOCK:   -5.86 KCAL/MOL
REMARK 924 INTRA-LIGAND FREE ENERGY PREDICTED BY IDOCK:   -0.04 KCAL/MOL
REMARK 927      BINDING AFFINITY PREDICTED BY RF-SCORE:    0.00 PKD
ROOT
HETATM    1  C   UNL     1     -12.512  14.099  65.781  1.00  0.00    -0.490 C  
HETATM    2  C   UNL     1     -11.228  13.448  66.204  1.00  0.00    -0.311 A  
HETATM    3  C   UNL     1     -10.668  12.453  65.397  1.00  0.00    -0.317 A  
HETATM    4  C   UNL     1      -9.445  11.881  65.728  1.00  0.00    -0.196 A  
HETATM    5  N   UNL     1      -8.823  12.254  66.864  1.00  0.00    -0.204 NA 
HETATM    6  C   UNL     1     -10.544  13.842  67.352  1.00  0.00    -0.267 A  
HETATM    7  N   UNL     1      -9.372  13.246  67.667  1.00  0.00    -0.203 NA 
ENDROOT
BRANCH   4   8
HETATM    8  C   UNL     1      -8.794  10.872  64.878  1.00  0.00    -0.127 A  
HETATM    9  C   UNL     1      -8.854   9.390  62.925  1.00  0.00    -0.216 A  
HETATM   10  C   UNL     1      -9.414  10.409  63.697  1.00  0.00    -0.353 A  
HETATM   11  C   UNL     1      -7.553  10.305  65.219  1.00  0.00    -0.143 A  
HETATM   12  C   UNL     1      -7.644   8.822  63.306  1.00  0.00    -0.113 A  
HETATM   13  C   UNL     1      -6.988   9.287  64.443  1.00  0.00    -0.093 A  
ENDBRANCH   4   8
BRANCH   6  14
HETATM   14  N   UNL     1     -11.048  14.909  68.105  1.00  0.00    -0.272 NA 
HETATM   15  H   UNL     1     -11.491  14.767  69.012  1.00  0.00     0.000 HD 
BRANCH  14  16
HETATM   16  C   UNL     1     -10.904  16.232  67.516  1.00  0.00    -0.268 C  
BRANCH  16  17
HETATM   17  C   UNL     1      -9.412  16.638  67.528  1.00  0.00    -0.229 C  
BRANCH  17  18
HETATM   18  N   UNL     1      -9.075  17.781  68.410  1.00  0.00    -0.273 NA 
HETATM   19  C   UNL     1      -7.949  18.595  67.895  1.00  0.00    -0.259 C  
HETATM   20  C   UNL     1      -8.290  19.392  66.624  1.00  0.00    -0.310 C  
HETATM   21  O   UNL     1      -9.422  20.245  66.831  1.00  0.00    -0.377 OA 
HETATM   22  C   UNL     1     -10.560  19.498  67.279  1.00  0.00    -0.490 C  
HETATM   23  C   UNL     1     -10.243  18.689  68.550  1.00  0.00    -0.353 C  
ENDBRANCH  17  18
ENDBRANCH  16  17
ENDBRANCH  14  16
ENDBRANCH   6  14
TORSDOF 5
ENDMDL
MODEL      121
REMARK 921   NORMALIZED FREE ENERGY PREDICTED BY IDOCK:   -4.02 KCAL/MOL
REMARK 922        TOTAL FREE ENERGY PREDICTED BY IDOCK:   -5.90 KCAL/MOL
REMARK 923 INTER-LIGAND FREE ENERGY PREDICTED BY IDOCK:   -5.32 KCAL/MOL
REMARK 924 INTRA-LIGAND FREE ENERGY PREDICTED BY IDOCK:   -0.58 KCAL/MOL
REMARK 927      BINDING AFFINITY PREDICTED BY RF-SCORE:    0.00 PKD
ROOT
HETATM    1  C   UNL     1     -11.174   9.430  70.957  1.00  0.00    -0.412 C  
HETATM    2  C   UNL     1     -10.472   9.132  69.664  1.00  0.00    -0.230 A  
HETATM    3  C   UNL     1      -9.474   8.154  69.639  1.00  0.00    -0.159 A  
HETATM    4  C   UNL     1      -8.854   7.808  68.444  1.00  0.00    -0.130 A  
HETATM    5  N   UNL     1      -9.185   8.460  67.312  1.00  0.00    -0.135 NA 
HETATM    6  C   UNL     1     -10.822   9.762  68.472  1.00  0.00    -0.188 A  
HETATM    7  N   UNL     1     -10.181   9.428  67.329  1.00  0.00    -0.228 NA 
ENDROOT
BRANCH   4   8
HETATM    8  C   UNL     1      -7.839   6.747  68.364  1.00  0.00    -0.114 A  
HETATM    9  C   UNL     1      -6.307   5.192  69.481  1.00  0.00    -0.034 A  
HETATM   10  C   UNL     1      -7.332   6.138  69.532  1.00  0.00    -0.080 A  
HETATM   11  C   UNL     1      -7.309   6.320  67.133  1.00  0.00    -0.083 A  
HETATM   12  C   UNL     1      -5.776   4.816  68.253  1.00  0.00    -0.017 A  
HETATM   13  C   UNL     1      -6.285   5.368  67.080  1.00  0.00    -0.031 A  
ENDBRANCH   4   8
BRANCH   6  14
HETATM   14  N   UNL     1     -11.892  10.664  68.475  1.00  0.00    -0.741 NA 
HETATM   15  H   UNL     1     -12.854  10.361  68.627  1.00  0.00     0.000 HD 
BRANCH  14  16
HETATM   16  C   UNL     1     -11.551  12.061  68.249  1.00  0.00    -0.334 C  
BRANCH  16  17
HETATM   17  C   UNL     1     -11.844  12.428  66.775  1.00  0.00    -0.315 C  
BRANCH  17  18
HETATM   18  N   UNL     1     -10.707  13.026  66.035  1.00  0.00    -0.272 NA 
HETATM   19  C   UNL     1      -9.912  12.023  65.288  1.00  0.00    -0.247 C  
HETATM   20  C   UNL     1     -10.655  11.409  64.090  1.00  0.00    -0.369 C  
HETATM   21  O   UNL     1     -11.099  12.420  63.177  1.00  0.00    -0.379 OA 
HETATM   22  C   UNL     1     -11.921  13.391  63.838  1.00  0.00    -0.465 C  
HETATM   23  C   UNL     1     -11.199  14.018  65.045  1.00  0.00    -0.352 C  
ENDBRANCH  17  18
ENDBRANCH  16  17
ENDBRANCH  14  16
ENDBRANCH   6  14
TORSDOF 5
ENDMDL
MODEL      122
REMARK 921   NORMALIZED FREE ENERGY PREDICTED BY IDOCK:   -4.00 KCAL/MOL
REMARK 922        TOTAL FREE ENERGY PREDICTED BY IDOCK:   -5.87 KCAL/MOL
REMARK 923 INTER-LIGAND FREE ENERGY PREDICTED BY IDOCK:   -5.29 KCAL/MOL
REMARK 924 INTRA-LIGAND FREE ENERGY PREDICTED BY IDOCK:   -0.58 KCAL/MOL
REMARK 927      BINDING AFFINITY PREDICTED BY RF-SCORE:    0.00 PKD
ROOT
HETATM    1  C   UNL     1      -9.921   8.624  69.145  1.00  0.00    -0.193 C  
HETATM    2  C   UNL     1      -9.904   9.043  67.703  1.00  0.00    -0.220 A  
HETATM    3  C   UNL     1     -10.631  10.170  67.311  1.00  0.00    -0.321 A  
HETATM    4  C   UNL     1     -10.580  10.621  65.997  1.00  0.00    -0.125 A  
HETATM    5  N   UNL     1      -9.863   9.933  65.087  1.00  0.00    -0.313 NA 
HETATM    6  C   UNL     1      -9.139   8.374  66.749  1.00  0.00    -0.157 A  
HETATM    7  N   UNL     1      -9.132   8.817  65.472  1.00  0.00    -0.192 NA 
ENDROOT
BRANCH   4   8
HETATM    8  C   UNL     1     -11.285  11.834  65.555  1.00  0.00    -0.316 A  
HETATM    9  C   UNL     1     -12.028  13.312  63.745  1.00  0.00    -0.551 A  
HETATM   10  C   UNL     1     -11.440  12.124  64.182  1.00  0.00    -0.460 A  
HETATM   11  C   UNL     1     -11.802  12.766  66.473  1.00  0.00    -0.471 A  
HETATM   12  C   UNL     1     -12.497  14.232  64.674  1.00  0.00    -0.371 A  
HETATM   13  C   UNL     1     -12.397  13.955  66.035  1.00  0.00    -0.511 A  
ENDBRANCH   4   8
BRANCH   6  14
HETATM   14  N   UNL     1      -8.328   7.311  67.161  1.00  0.00    -0.117 NA 
HETATM   15  H   UNL     1      -7.729   7.375  67.983  1.00  0.00     0.000 HD 
BRANCH  14  16
HETATM   16  C   UNL     1      -8.390   6.107  66.345  1.00  0.00    -0.120 C  
BRANCH  16  17
HETATM   17  C   UNL     1      -8.213   4.865  67.250  1.00  0.00    -0.106 C  
BRANCH  17  18
HETATM   18  N   UNL     1      -9.473   4.243  67.723  1.00  0.00    -0.160 NA 
HETATM   19  C   UNL     1      -9.393   2.765  67.804  1.00  0.00    -0.190 C  
HETATM   20  C   UNL     1      -8.464   2.254  68.919  1.00  0.00    -0.059 C  
HETATM   21  O   UNL     1      -8.855   2.768  70.198  1.00  0.00    -0.069 OA 
HETATM   22  C   UNL     1      -8.896   4.200  70.193  1.00  0.00    -0.082 C  
HETATM   23  C   UNL     1      -9.817   4.737  69.081  1.00  0.00    -0.184 C  
ENDBRANCH  17  18
ENDBRANCH  16  17
ENDBRANCH  14  16
ENDBRANCH   6  14
TORSDOF 5
ENDMDL
MODEL      123
REMARK 921   NORMALIZED FREE ENERGY PREDICTED BY IDOCK:   -3.96 KCAL/MOL
REMARK 922        TOTAL FREE ENERGY PREDICTED BY IDOCK:   -5.83 KCAL/MOL
REMARK 923 INTER-LIGAND FREE ENERGY PREDICTED BY IDOCK:   -5.28 KCAL/MOL
REMARK 924 INTRA-LIGAND FREE ENERGY PREDICTED BY IDOCK:   -0.55 KCAL/MOL
REMARK 927      BINDING AFFINITY PREDICTED BY RF-SCORE:    0.00 PKD
ROOT
HETATM    1  C   UNL     1     -13.229  11.405  71.106  1.00  0.00    -0.049 C  
HETATM    2  C   UNL     1     -11.915  11.022  70.491  1.00  0.00    -0.474 A  
HETATM    3  C   UNL     1     -11.228   9.909  70.984  1.00  0.00    -0.435 A  
HETATM    4  C   UNL     1     -10.043   9.490  70.390  1.00  0.00    -0.271 A  
HETATM    5  N   UNL     1      -9.530  10.195  69.363  1.00  0.00    -0.216 NA 
HETATM    6  C   UNL     1     -11.381  11.709  69.403  1.00  0.00    -0.278 A  
HETATM    7  N   UNL     1     -10.212  11.298  68.864  1.00  0.00    -0.199 NA 
ENDROOT
BRANCH   4   8
HETATM    8  C   UNL     1      -9.319   8.292  70.842  1.00  0.00    -0.187 A  
HETATM    9  C   UNL     1      -8.905   5.881  70.683  1.00  0.00    -0.144 A  
HETATM   10  C   UNL     1      -9.516   7.044  70.213  1.00  0.00    -0.165 A  
HETATM   11  C   UNL     1      -8.433   8.331  71.934  1.00  0.00    -0.214 A  
HETATM   12  C   UNL     1      -8.063   5.941  71.787  1.00  0.00    -0.118 A  
HETATM   13  C   UNL     1      -7.816   7.166  72.404  1.00  0.00    -0.096 A  
ENDBRANCH   4   8
BRANCH   6  14
HETATM   14  N   UNL     1     -12.118  12.758  68.841  1.00  0.00    -0.218 NA 
HETATM   15  H   UNL     1     -12.828  12.598  68.127  1.00  0.00     0.000 HD 
BRANCH  14  16
HETATM   16  C   UNL     1     -11.810  14.092  69.335  1.00  0.00    -0.330 C  
BRANCH  16  17
HETATM   17  C   UNL     1     -11.756  15.079  68.146  1.00  0.00    -0.312 C  
BRANCH  17  18
HETATM   18  N   UNL     1     -10.496  15.060  67.365  1.00  0.00    -0.254 NA 
HETATM   19  C   UNL     1     -10.360  16.226  66.460  1.00  0.00    -0.307 C  
HETATM   20  C   UNL     1     -10.142  17.560  67.194  1.00  0.00    -0.321 C  
HETATM   21  O   UNL     1      -8.996  17.502  68.052  1.00  0.00    -0.245 OA 
HETATM   22  C   UNL     1      -9.101  16.422  68.988  1.00  0.00    -0.252 C  
HETATM   23  C   UNL     1      -9.323  15.074  68.276  1.00  0.00    -0.192 C  
ENDBRANCH  17  18
ENDBRANCH  16  17
ENDBRANCH  14  16
ENDBRANCH   6  14
TORSDOF 5
ENDMDL
MODEL      124
REMARK 921   NORMALIZED FREE ENERGY PREDICTED BY IDOCK:   -3.93 KCAL/MOL
REMARK 922        TOTAL FREE ENERGY PREDICTED BY IDOCK:   -5.79 KCAL/MOL
REMARK 923 INTER-LIGAND FREE ENERGY PREDICTED BY IDOCK:   -5.37 KCAL/MOL
REMARK 924 INTRA-LIGAND FREE ENERGY PREDICTED BY IDOCK:   -0.43 KCAL/MOL
REMARK 927      BINDING AFFINITY PREDICTED BY RF-SCORE:    0.00 PKD
ROOT
HETATM    1  C   UNL     1     -11.104   8.694  71.794  1.00  0.00    -0.396 C  
HETATM    2  C   UNL     1     -10.721   8.147  70.450  1.00  0.00    -0.234 A  
HETATM    3  C   UNL     1     -10.349   6.804  70.340  1.00  0.00    -0.223 A  
HETATM    4  C   UNL     1     -10.056   6.251  69.098  1.00  0.00    -0.168 A  
HETATM    5  N   UNL     1     -10.083   7.034  68.001  1.00  0.00    -0.161 NA 
HETATM    6  C   UNL     1     -10.779   8.922  69.293  1.00  0.00    -0.162 A  
HETATM    7  N   UNL     1     -10.459   8.367  68.103  1.00  0.00    -0.201 NA 
ENDROOT
BRANCH   4   8
HETATM    8  C   UNL     1      -9.714   4.831  68.932  1.00  0.00    -0.244 A  
HETATM    9  C   UNL     1      -9.337   2.900  67.468  1.00  0.00    -0.218 A  
HETATM   10  C   UNL     1      -9.574   4.263  67.647  1.00  0.00    -0.215 A  
HETATM   11  C   UNL     1      -9.547   3.975  70.035  1.00  0.00    -0.274 A  
HETATM   12  C   UNL     1      -9.213   2.070  68.576  1.00  0.00    -0.231 A  
HETATM   13  C   UNL     1      -9.305   2.608  69.858  1.00  0.00    -0.191 A  
ENDBRANCH   4   8
BRANCH   6  14
HETATM   14  N   UNL     1     -11.253  10.235  69.386  1.00  0.00    -0.255 NA 
HETATM   15  H   UNL     1     -11.972  10.504  70.056  1.00  0.00     0.000 HD 
BRANCH  14  16
HETATM   16  C   UNL     1     -10.656  11.196  68.469  1.00  0.00    -0.191 C  
BRANCH  16  17
HETATM   17  C   UNL     1     -11.695  12.289  68.126  1.00  0.00    -0.349 C  
BRANCH  17  18
HETATM   18  N   UNL     1     -11.279  13.249  67.076  1.00  0.00    -0.283 NA 
HETATM   19  C   UNL     1     -11.982  14.550  67.170  1.00  0.00    -0.345 C  
HETATM   20  C   UNL     1     -11.583  15.384  68.399  1.00  0.00    -0.354 C  
HETATM   21  O   UNL     1     -10.170  15.618  68.433  1.00  0.00    -0.217 OA 
HETATM   22  C   UNL     1      -9.438  14.387  68.400  1.00  0.00    -0.207 C  
HETATM   23  C   UNL     1      -9.824  13.531  67.179  1.00  0.00    -0.245 C  
ENDBRANCH  17  18
ENDBRANCH  16  17
ENDBRANCH  14  16
ENDBRANCH   6  14
TORSDOF 5
ENDMDL
MODEL      125
REMARK 921   NORMALIZED FREE ENERGY PREDICTED BY IDOCK:   -3.90 KCAL/MOL
REMARK 922        TOTAL FREE ENERGY PREDICTED BY IDOCK:   -5.75 KCAL/MOL
REMARK 923 INTER-LIGAND FREE ENERGY PREDICTED BY IDOCK:   -5.00 KCAL/MOL
REMARK 924 INTRA-LIGAND FREE ENERGY PREDICTED BY IDOCK:   -0.75 KCAL/MOL
REMARK 927      BINDING AFFINITY PREDICTED BY RF-SCORE:    0.00 PKD
ROOT
HETATM    1  C   UNL     1     -11.141  11.601  66.227  1.00  0.00    -0.345 C  
HETATM    2  C   UNL     1     -11.075  12.715  67.231  1.00  0.00    -0.320 A  
HETATM    3  C   UNL     1     -10.335  13.863  66.932  1.00  0.00    -0.266 A  
HETATM    4  C   UNL     1     -10.312  14.938  67.812  1.00  0.00    -0.244 A  
HETATM    5  N   UNL     1     -10.968  14.848  68.986  1.00  0.00    -0.235 NA 
HETATM    6  C   UNL     1     -11.776  12.666  68.435  1.00  0.00    -0.333 A  
HETATM    7  N   UNL     1     -11.711  13.714  69.287  1.00  0.00    -0.304 NA 
ENDROOT
BRANCH   4   8
HETATM    8  C   UNL     1      -9.592  16.184  67.511  1.00  0.00    -0.229 A  
HETATM    9  C   UNL     1      -8.952  18.466  68.139  1.00  0.00    -0.325 A  
HETATM   10  C   UNL     1      -9.555  17.245  68.442  1.00  0.00    -0.285 A  
HETATM   11  C   UNL     1      -8.945  16.386  66.278  1.00  0.00    -0.368 A  
HETATM   12  C   UNL     1      -8.351  18.651  66.900  1.00  0.00    -0.269 A  
HETATM   13  C   UNL     1      -8.336  17.609  65.975  1.00  0.00    -0.099 A  
ENDBRANCH   4   8
BRANCH   6  14
HETATM   14  N   UNL     1     -12.601  11.565  68.690  1.00  0.00     0.039 NA 
HETATM   15  H   UNL     1     -13.440  11.380  68.141  1.00  0.00     0.000 HD 
BRANCH  14  16
HETATM   16  C   UNL     1     -12.191  10.699  69.786  1.00  0.00    -0.247 C  
BRANCH  16  17
HETATM   17  C   UNL     1     -10.975   9.853  69.342  1.00  0.00    -0.230 C  
BRANCH  17  18
HETATM   18  N   UNL     1      -9.689  10.207  69.989  1.00  0.00    -0.171 NA 
HETATM   19  C   UNL     1      -9.217   9.174  70.940  1.00  0.00    -0.261 C  
HETATM   20  C   UNL     1      -8.770   7.866  70.265  1.00  0.00    -0.138 C  
HETATM   21  O   UNL     1      -7.744   8.104  69.294  1.00  0.00    -0.099 OA 
HETATM   22  C   UNL     1      -8.169   9.059  68.313  1.00  0.00    -0.116 C  
HETATM   23  C   UNL     1      -8.625  10.377  68.965  1.00  0.00    -0.157 C  
ENDBRANCH  17  18
ENDBRANCH  16  17
ENDBRANCH  14  16
ENDBRANCH   6  14
TORSDOF 5
ENDMDL
MODEL      126
REMARK 921   NORMALIZED FREE ENERGY PREDICTED BY IDOCK:   -3.90 KCAL/MOL
REMARK 922        TOTAL FREE ENERGY PREDICTED BY IDOCK:   -5.75 KCAL/MOL
REMARK 923 INTER-LIGAND FREE ENERGY PREDICTED BY IDOCK:   -5.06 KCAL/MOL
REMARK 924 INTRA-LIGAND FREE ENERGY PREDICTED BY IDOCK:   -0.69 KCAL/MOL
REMARK 927      BINDING AFFINITY PREDICTED BY RF-SCORE:    0.00 PKD
ROOT
HETATM    1  C   UNL     1      -5.435  13.777  69.613  1.00  0.00    -0.089 C  
HETATM    2  C   UNL     1      -6.802  13.707  68.998  1.00  0.00    -0.110 A  
HETATM    3  C   UNL     1      -7.285  12.475  68.545  1.00  0.00    -0.110 A  
HETATM    4  C   UNL     1      -8.573  12.367  68.034  1.00  0.00    -0.180 A  
HETATM    5  N   UNL     1      -9.340  13.470  67.928  1.00  0.00    -0.206 NA 
HETATM    6  C   UNL     1      -7.632  14.823  68.912  1.00  0.00    -0.144 A  
HETATM    7  N   UNL     1      -8.868  14.695  68.382  1.00  0.00    -0.175 NA 
ENDROOT
BRANCH   4   8
HETATM    8  C   UNL     1      -9.140  11.081  67.598  1.00  0.00    -0.145 A  
HETATM    9  C   UNL     1      -9.114   9.164  66.071  1.00  0.00    -0.245 A  
HETATM   10  C   UNL     1      -8.543  10.341  66.556  1.00  0.00    -0.136 A  
HETATM   11  C   UNL     1     -10.310  10.555  68.174  1.00  0.00    -0.201 A  
HETATM   12  C   UNL     1     -10.292   8.686  66.633  1.00  0.00    -0.303 A  
HETATM   13  C   UNL     1     -10.882   9.373  67.691  1.00  0.00    -0.222 A  
ENDBRANCH   4   8
BRANCH   6  14
HETATM   14  N   UNL     1      -7.191  16.033  69.460  1.00  0.00    -0.203 NA 
HETATM   15  H   UNL     1      -7.205  16.208  70.464  1.00  0.00     0.000 HD 
BRANCH  14  16
HETATM   16  C   UNL     1      -6.712  17.028  68.512  1.00  0.00    -0.172 C  
BRANCH  16  17
HETATM   17  C   UNL     1      -7.679  18.234  68.501  1.00  0.00    -0.305 C  
BRANCH  17  18
HETATM   18  N   UNL     1      -8.121  18.679  67.158  1.00  0.00    -0.243 NA 
HETATM   19  C   UNL     1      -9.143  17.787  66.561  1.00  0.00    -0.264 C  
HETATM   20  C   UNL     1     -10.506  17.843  67.270  1.00  0.00    -0.366 C  
HETATM   21  O   UNL     1     -11.021  19.180  67.304  1.00  0.00    -0.478 OA 
HETATM   22  C   UNL     1     -10.093  20.079  67.924  1.00  0.00    -0.420 C  
HETATM   23  C   UNL     1      -8.717  20.038  67.233  1.00  0.00    -0.343 C  
ENDBRANCH  17  18
ENDBRANCH  16  17
ENDBRANCH  14  16
ENDBRANCH   6  14
TORSDOF 5
ENDMDL
MODEL      127
REMARK 921   NORMALIZED FREE ENERGY PREDICTED BY IDOCK:   -3.89 KCAL/MOL
REMARK 922        TOTAL FREE ENERGY PREDICTED BY IDOCK:   -5.74 KCAL/MOL
REMARK 923 INTER-LIGAND FREE ENERGY PREDICTED BY IDOCK:   -5.26 KCAL/MOL
REMARK 924 INTRA-LIGAND FREE ENERGY PREDICTED BY IDOCK:   -0.47 KCAL/MOL
REMARK 927      BINDING AFFINITY PREDICTED BY RF-SCORE:    0.00 PKD
ROOT
HETATM    1  C   UNL     1     -11.457  11.496  67.366  1.00  0.00    -0.349 C  
HETATM    2  C   UNL     1     -10.278  12.419  67.263  1.00  0.00    -0.224 A  
HETATM    3  C   UNL     1     -10.493  13.799  67.204  1.00  0.00    -0.272 A  
HETATM    4  C   UNL     1      -9.419  14.681  67.177  1.00  0.00    -0.229 A  
HETATM    5  N   UNL     1      -8.163  14.196  67.156  1.00  0.00    -0.178 NA 
HETATM    6  C   UNL     1      -8.967  11.947  67.280  1.00  0.00    -0.176 A  
HETATM    7  N   UNL     1      -7.942  12.826  67.221  1.00  0.00    -0.173 NA 
ENDROOT
BRANCH   4   8
HETATM    8  C   UNL     1      -9.602  16.141  67.170  1.00  0.00    -0.235 A  
HETATM    9  C   UNL     1      -9.444  18.300  68.320  1.00  0.00    -0.320 A  
HETATM   10  C   UNL     1      -9.199  16.927  68.271  1.00  0.00    -0.241 A  
HETATM   11  C   UNL     1     -10.212  16.806  66.092  1.00  0.00    -0.363 A  
HETATM   12  C   UNL     1     -10.081  18.926  67.256  1.00  0.00    -0.414 A  
HETATM   13  C   UNL     1     -10.453  18.183  66.138  1.00  0.00    -0.377 A  
ENDBRANCH   4   8
BRANCH   6  14
HETATM   14  N   UNL     1      -8.747  10.575  67.445  1.00  0.00    -0.126 NA 
HETATM   15  H   UNL     1      -8.869   9.912  66.680  1.00  0.00     0.000 HD 
BRANCH  14  16
HETATM   16  C   UNL     1      -8.334  10.149  68.774  1.00  0.00    -0.122 C  
BRANCH  16  17
HETATM   17  C   UNL     1      -8.739   8.672  68.987  1.00  0.00    -0.134 C  
BRANCH  17  18
HETATM   18  N   UNL     1      -8.799   8.231  70.402  1.00  0.00    -0.138 NA 
HETATM   19  C   UNL     1      -9.322   9.276  71.312  1.00  0.00    -0.130 C  
HETATM   20  C   UNL     1     -10.817   9.581  71.114  1.00  0.00    -0.355 C  
HETATM   21  O   UNL     1     -11.613   8.398  71.260  1.00  0.00    -0.269 OA 
HETATM   22  C   UNL     1     -11.185   7.368  70.361  1.00  0.00    -0.262 C  
HETATM   23  C   UNL     1      -9.688   7.048  70.538  1.00  0.00    -0.176 C  
ENDBRANCH  17  18
ENDBRANCH  16  17
ENDBRANCH  14  16
ENDBRANCH   6  14
TORSDOF 5
ENDMDL
MODEL      128
REMARK 921   NORMALIZED FREE ENERGY PREDICTED BY IDOCK:   -3.85 KCAL/MOL
REMARK 922        TOTAL FREE ENERGY PREDICTED BY IDOCK:   -5.69 KCAL/MOL
REMARK 923 INTER-LIGAND FREE ENERGY PREDICTED BY IDOCK:   -5.70 KCAL/MOL
REMARK 924 INTRA-LIGAND FREE ENERGY PREDICTED BY IDOCK:    0.01 KCAL/MOL
REMARK 927      BINDING AFFINITY PREDICTED BY RF-SCORE:    0.00 PKD
ROOT
HETATM    1  C   UNL     1      -8.117  13.601  68.545  1.00  0.00    -0.118 C  
HETATM    2  C   UNL     1      -9.135  12.509  68.393  1.00  0.00    -0.135 A  
HETATM    3  C   UNL     1      -8.712  11.227  68.030  1.00  0.00    -0.144 A  
HETATM    4  C   UNL     1      -9.623  10.180  67.948  1.00  0.00    -0.148 A  
HETATM    5  N   UNL     1     -10.930  10.418  68.172  1.00  0.00    -0.264 NA 
HETATM    6  C   UNL     1     -10.487  12.717  68.658  1.00  0.00    -0.211 A  
HETATM    7  N   UNL     1     -11.356  11.688  68.541  1.00  0.00    -0.248 NA 
ENDROOT
BRANCH   4   8
HETATM    8  C   UNL     1      -9.212   8.806  67.623  1.00  0.00    -0.148 A  
HETATM    9  C   UNL     1      -7.594   6.975  67.825  1.00  0.00    -0.111 A  
HETATM   10  C   UNL     1      -8.047   8.243  68.188  1.00  0.00    -0.124 A  
HETATM   11  C   UNL     1      -9.936   8.011  66.715  1.00  0.00    -0.344 A  
HETATM   12  C   UNL     1      -8.309   6.226  66.898  1.00  0.00    -0.109 A  
HETATM   13  C   UNL     1      -9.485   6.737  66.353  1.00  0.00    -0.166 A  
ENDBRANCH   4   8
BRANCH   6  14
HETATM   14  N   UNL     1     -10.897  13.972  69.124  1.00  0.00    -0.332 NA 
HETATM   15  H   UNL     1     -10.929  14.195  70.119  1.00  0.00     0.000 HD 
BRANCH  14  16
HETATM   16  C   UNL     1     -11.275  14.940  68.106  1.00  0.00    -0.299 C  
BRANCH  16  17
HETATM   17  C   UNL     1     -11.883  14.197  66.893  1.00  0.00    -0.431 C  
BRANCH  17  18
HETATM   18  N   UNL     1     -11.007  14.112  65.700  1.00  0.00    -0.300 NA 
HETATM   19  C   UNL     1     -11.759  14.184  64.425  1.00  0.00    -0.392 C  
HETATM   20  C   UNL     1     -12.375  15.565  64.145  1.00  0.00     0.066 C  
HETATM   21  O   UNL     1     -11.377  16.593  64.154  1.00  0.00    -1.141 OA 
HETATM   22  C   UNL     1     -10.654  16.605  65.391  1.00  0.00    -0.237 C  
HETATM   23  C   UNL     1     -10.029  15.230  65.695  1.00  0.00    -0.364 C  
ENDBRANCH  17  18
ENDBRANCH  16  17
ENDBRANCH  14  16
ENDBRANCH   6  14
TORSDOF 5
ENDMDL
MODEL      129
REMARK 921   NORMALIZED FREE ENERGY PREDICTED BY IDOCK:   -3.85 KCAL/MOL
REMARK 922        TOTAL FREE ENERGY PREDICTED BY IDOCK:   -5.68 KCAL/MOL
REMARK 923 INTER-LIGAND FREE ENERGY PREDICTED BY IDOCK:   -5.35 KCAL/MOL
REMARK 924 INTRA-LIGAND FREE ENERGY PREDICTED BY IDOCK:   -0.33 KCAL/MOL
REMARK 927      BINDING AFFINITY PREDICTED BY RF-SCORE:    0.00 PKD
ROOT
HETATM    1  C   UNL     1      -8.676   6.896  65.469  1.00  0.00    -0.041 C  
HETATM    2  C   UNL     1      -9.329   7.676  66.572  1.00  0.00    -0.241 A  
HETATM    3  C   UNL     1      -9.846   6.995  67.677  1.00  0.00    -0.180 A  
HETATM    4  C   UNL     1     -10.396   7.695  68.745  1.00  0.00    -0.204 A  
HETATM    5  N   UNL     1     -10.474   9.039  68.687  1.00  0.00    -0.214 NA 
HETATM    6  C   UNL     1      -9.388   9.069  66.557  1.00  0.00    -0.191 A  
HETATM    7  N   UNL     1      -9.956   9.723  67.594  1.00  0.00    -0.165 NA 
ENDROOT
BRANCH   4   8
HETATM    8  C   UNL     1     -10.900   7.020  69.951  1.00  0.00    -0.280 A  
HETATM    9  C   UNL     1     -12.438   6.963  71.860  1.00  0.00    -0.350 A  
HETATM   10  C   UNL     1     -12.001   7.539  70.667  1.00  0.00    -0.161 A  
HETATM   11  C   UNL     1     -10.292   5.858  70.458  1.00  0.00    -0.297 A  
HETATM   12  C   UNL     1     -11.795   5.836  72.358  1.00  0.00    -0.227 A  
HETATM   13  C   UNL     1     -10.732   5.276  71.652  1.00  0.00    -0.227 A  
ENDBRANCH   4   8
BRANCH   6  14
HETATM   14  N   UNL     1      -8.778   9.757  65.502  1.00  0.00    -0.142 NA 
HETATM   15  H   UNL     1      -7.766   9.868  65.443  1.00  0.00     0.000 HD 
BRANCH  14  16
HETATM   16  C   UNL     1      -9.673  10.305  64.493  1.00  0.00    -0.329 C  
BRANCH  16  17
HETATM   17  C   UNL     1     -10.311  11.608  65.029  1.00  0.00    -0.281 C  
BRANCH  17  18
HETATM   18  N   UNL     1     -10.391  12.721  64.052  1.00  0.00    -0.412 NA 
HETATM   19  C   UNL     1     -11.723  12.832  63.411  1.00  0.00    -0.488 C  
HETATM   20  C   UNL     1     -12.834  13.299  64.367  1.00  0.00     0.006 C  
HETATM   21  O   UNL     1     -12.506  14.554  64.975  1.00  0.00    -0.401 OA 
HETATM   22  C   UNL     1     -11.249  14.487  65.659  1.00  0.00    -0.335 C  
HETATM   23  C   UNL     1     -10.119  14.019  64.723  1.00  0.00    -0.190 C  
ENDBRANCH  17  18
ENDBRANCH  16  17
ENDBRANCH  14  16
ENDBRANCH   6  14
TORSDOF 5
ENDMDL
MODEL      130
REMARK 921   NORMALIZED FREE ENERGY PREDICTED BY IDOCK:   -3.84 KCAL/MOL
REMARK 922        TOTAL FREE ENERGY PREDICTED BY IDOCK:   -5.67 KCAL/MOL
REMARK 923 INTER-LIGAND FREE ENERGY PREDICTED BY IDOCK:   -5.25 KCAL/MOL
REMARK 924 INTRA-LIGAND FREE ENERGY PREDICTED BY IDOCK:   -0.43 KCAL/MOL
REMARK 927      BINDING AFFINITY PREDICTED BY RF-SCORE:    0.00 PKD
ROOT
HETATM    1  C   UNL     1      -7.892  16.542  67.126  1.00  0.00    -0.215 C  
HETATM    2  C   UNL     1      -9.103  15.769  66.693  1.00  0.00    -0.298 A  
HETATM    3  C   UNL     1      -8.945  14.465  66.212  1.00  0.00    -0.031 A  
HETATM    4  C   UNL     1     -10.054  13.700  65.869  1.00  0.00    -0.310 A  
HETATM    5  N   UNL     1     -11.285  14.241  65.954  1.00  0.00    -0.313 NA 
HETATM    6  C   UNL     1     -10.391  16.288  66.808  1.00  0.00    -0.296 A  
HETATM    7  N   UNL     1     -11.449  15.533  66.437  1.00  0.00    -0.013 NA 
ENDROOT
BRANCH   4   8
HETATM    8  C   UNL     1      -9.936  12.308  65.412  1.00  0.00    -0.264 A  
HETATM    9  C   UNL     1      -9.485   9.948  65.902  1.00  0.00    -0.272 A  
HETATM   10  C   UNL     1      -9.687  11.262  66.326  1.00  0.00    -0.246 A  
HETATM   11  C   UNL     1     -10.030  11.964  64.051  1.00  0.00    -0.318 A  
HETATM   12  C   UNL     1      -9.547   9.643  64.548  1.00  0.00    -0.094 A  
HETATM   13  C   UNL     1      -9.832  10.646  63.624  1.00  0.00    -0.392 A  
ENDBRANCH   4   8
BRANCH   6  14
HETATM   14  N   UNL     1     -10.559  17.551  67.387  1.00  0.00    -0.340 NA 
HETATM   15  H   UNL     1     -10.658  18.395  66.823  1.00  0.00     0.000 HD 
BRANCH  14  16
HETATM   16  C   UNL     1     -10.583  17.590  68.842  1.00  0.00    -0.193 C  
BRANCH  16  17
HETATM   17  C   UNL     1     -11.395  16.385  69.372  1.00  0.00    -0.213 C  
BRANCH  17  18
HETATM   18  N   UNL     1     -10.655  15.472  70.275  1.00  0.00    -0.317 NA 
HETATM   19  C   UNL     1     -11.214  15.435  71.646  1.00  0.00    -0.315 C  
HETATM   20  C   UNL     1     -12.594  14.761  71.736  1.00  0.00    -0.334 C  
HETATM   21  O   UNL     1     -12.557  13.427  71.216  1.00  0.00    -0.354 OA 
HETATM   22  C   UNL     1     -12.074  13.409  69.867  1.00  0.00    -0.322 C  
HETATM   23  C   UNL     1     -10.693  14.082  69.750  1.00  0.00     0.203 C  
ENDBRANCH  17  18
ENDBRANCH  16  17
ENDBRANCH  14  16
ENDBRANCH   6  14
TORSDOF 5
ENDMDL
MODEL      131
REMARK 921   NORMALIZED FREE ENERGY PREDICTED BY IDOCK:   -3.83 KCAL/MOL
REMARK 922        TOTAL FREE ENERGY PREDICTED BY IDOCK:   -5.66 KCAL/MOL
REMARK 923 INTER-LIGAND FREE ENERGY PREDICTED BY IDOCK:   -5.31 KCAL/MOL
REMARK 924 INTRA-LIGAND FREE ENERGY PREDICTED BY IDOCK:   -0.35 KCAL/MOL
REMARK 927      BINDING AFFINITY PREDICTED BY RF-SCORE:    0.00 PKD
ROOT
HETATM    1  C   UNL     1      -7.642   6.246  66.278  1.00  0.00    -0.090 C  
HETATM    2  C   UNL     1      -8.797   7.147  66.601  1.00  0.00    -0.142 A  
HETATM    3  C   UNL     1      -8.854   8.419  66.023  1.00  0.00    -0.202 A  
HETATM    4  C   UNL     1      -9.946   9.250  66.250  1.00  0.00    -0.286 A  
HETATM    5  N   UNL     1     -10.930   8.842  67.075  1.00  0.00     0.054 NA 
HETATM    6  C   UNL     1      -9.848   6.736  67.418  1.00  0.00    -0.137 A  
HETATM    7  N   UNL     1     -10.882   7.577  67.647  1.00  0.00    -0.175 NA 
ENDROOT
BRANCH   4   8
HETATM    8  C   UNL     1     -10.071  10.571  65.617  1.00  0.00    -0.333 A  
HETATM    9  C   UNL     1     -10.779  12.916  65.732  1.00  0.00    -0.293 A  
HETATM   10  C   UNL     1     -10.571  11.677  66.339  1.00  0.00    -0.299 A  
HETATM   11  C   UNL     1      -9.734  10.782  64.268  1.00  0.00    -0.357 A  
HETATM   12  C   UNL     1     -10.472  13.086  64.387  1.00  0.00    -0.426 A  
HETATM   13  C   UNL     1      -9.939  12.025  63.659  1.00  0.00    -0.387 A  
ENDBRANCH   4   8
BRANCH   6  14
HETATM   14  N   UNL     1      -9.845   5.427  67.913  1.00  0.00    -0.136 NA 
HETATM   15  H   UNL     1     -10.301   4.662  67.417  1.00  0.00     0.000 HD 
BRANCH  14  16
HETATM   16  C   UNL     1      -9.152   5.222  69.176  1.00  0.00    -0.108 C  
BRANCH  16  17
HETATM   17  C   UNL     1      -9.640   6.269  70.204  1.00  0.00    -0.162 C  
BRANCH  17  18
HETATM   18  N   UNL     1     -10.762   5.831  71.069  1.00  0.00    -0.259 NA 
HETATM   19  C   UNL     1     -10.487   6.023  72.512  1.00  0.00    -0.202 C  
HETATM   20  C   UNL     1     -10.440   7.498  72.945  1.00  0.00    -0.318 C  
HETATM   21  O   UNL     1     -11.657   8.178  72.611  1.00  0.00    -0.397 OA 
HETATM   22  C   UNL     1     -11.943   8.071  71.211  1.00  0.00    -0.296 C  
HETATM   23  C   UNL     1     -11.992   6.602  70.752  1.00  0.00    -0.353 C  
ENDBRANCH  17  18
ENDBRANCH  16  17
ENDBRANCH  14  16
ENDBRANCH   6  14
TORSDOF 5
ENDMDL
MODEL      132
REMARK 921   NORMALIZED FREE ENERGY PREDICTED BY IDOCK:   -3.81 KCAL/MOL
REMARK 922        TOTAL FREE ENERGY PREDICTED BY IDOCK:   -5.64 KCAL/MOL
REMARK 923 INTER-LIGAND FREE ENERGY PREDICTED BY IDOCK:   -5.04 KCAL/MOL
REMARK 924 INTRA-LIGAND FREE ENERGY PREDICTED BY IDOCK:   -0.60 KCAL/MOL
REMARK 927      BINDING AFFINITY PREDICTED BY RF-SCORE:    0.00 PKD
ROOT
HETATM    1  C   UNL     1      -9.888   8.304  69.195  1.00  0.00    -0.179 C  
HETATM    2  C   UNL     1      -9.870   8.812  67.783  1.00  0.00    -0.217 A  
HETATM    3  C   UNL     1     -10.589   9.969  67.464  1.00  0.00    -0.336 A  
HETATM    4  C   UNL     1     -10.536  10.501  66.181  1.00  0.00    -0.112 A  
HETATM    5  N   UNL     1      -9.828   9.865  65.227  1.00  0.00    -0.317 NA 
HETATM    6  C   UNL     1      -9.114   8.198  66.786  1.00  0.00    -0.157 A  
HETATM    7  N   UNL     1      -9.107   8.720  65.540  1.00  0.00    -0.192 NA 
ENDROOT
BRANCH   4   8
HETATM    8  C   UNL     1     -11.232  11.745  65.819  1.00  0.00    -0.337 A  
HETATM    9  C   UNL     1     -12.130  13.247  64.101  1.00  0.00    -0.494 A  
HETATM   10  C   UNL     1     -11.550  12.034  64.474  1.00  0.00    -0.387 A  
HETATM   11  C   UNL     1     -11.576  12.709  66.783  1.00  0.00    -0.438 A  
HETATM   12  C   UNL     1     -12.426  14.197  65.071  1.00  0.00    -0.434 A  
HETATM   13  C   UNL     1     -12.162  13.924  66.411  1.00  0.00    -0.487 A  
ENDBRANCH   4   8
BRANCH   6  14
HETATM   14  N   UNL     1      -8.312   7.103  67.127  1.00  0.00    -0.117 NA 
HETATM   15  H   UNL     1      -8.170   6.819  68.096  1.00  0.00     0.000 HD 
BRANCH  14  16
HETATM   16  C   UNL     1      -7.693   6.394  66.018  1.00  0.00    -0.093 C  
BRANCH  16  17
HETATM   17  C   UNL     1      -7.853   4.871  66.230  1.00  0.00    -0.096 C  
BRANCH  17  18
HETATM   18  N   UNL     1      -9.075   4.275  65.639  1.00  0.00    -0.129 NA 
HETATM   19  C   UNL     1      -9.135   4.422  64.166  1.00  0.00    -0.149 C  
HETATM   20  C   UNL     1      -8.093   3.575  63.414  1.00  0.00    -0.088 C  
HETATM   21  O   UNL     1      -8.212   2.186  63.747  1.00  0.00    -0.079 OA 
HETATM   22  C   UNL     1      -8.105   1.980  65.161  1.00  0.00    -0.079 C  
HETATM   23  C   UNL     1      -9.137   2.820  65.936  1.00  0.00    -0.121 C  
ENDBRANCH  17  18
ENDBRANCH  16  17
ENDBRANCH  14  16
ENDBRANCH   6  14
TORSDOF 5
ENDMDL
MODEL      133
REMARK 921   NORMALIZED FREE ENERGY PREDICTED BY IDOCK:   -3.73 KCAL/MOL
REMARK 922        TOTAL FREE ENERGY PREDICTED BY IDOCK:   -5.53 KCAL/MOL
REMARK 923 INTER-LIGAND FREE ENERGY PREDICTED BY IDOCK:   -5.03 KCAL/MOL
REMARK 924 INTRA-LIGAND FREE ENERGY PREDICTED BY IDOCK:   -0.50 KCAL/MOL
REMARK 927      BINDING AFFINITY PREDICTED BY RF-SCORE:    0.00 PKD
ROOT
HETATM    1  C   UNL     1      -7.117   8.769  71.758  1.00  0.00    -0.077 C  
HETATM    2  C   UNL     1      -8.362   8.045  71.337  1.00  0.00    -0.131 A  
HETATM    3  C   UNL     1      -8.590   6.748  71.805  1.00  0.00    -0.121 A  
HETATM    4  C   UNL     1      -9.766   6.078  71.488  1.00  0.00    -0.163 A  
HETATM    5  N   UNL     1     -10.669   6.669  70.680  1.00  0.00    -0.230 NA 
HETATM    6  C   UNL     1      -9.331   8.647  70.536  1.00  0.00    -0.175 A  
HETATM    7  N   UNL     1     -10.451   7.961  70.217  1.00  0.00    -0.220 NA 
ENDROOT
BRANCH   4   8
HETATM    8  C   UNL     1     -10.070   4.735  72.005  1.00  0.00    -0.258 A  
HETATM    9  C   UNL     1     -10.014   2.299  71.734  1.00  0.00    -0.201 A  
HETATM   10  C   UNL     1      -9.661   3.579  71.306  1.00  0.00    -0.242 A  
HETATM   11  C   UNL     1     -10.804   4.546  73.189  1.00  0.00    -0.331 A  
HETATM   12  C   UNL     1     -10.772   2.142  72.889  1.00  0.00    -0.224 A  
HETATM   13  C   UNL     1     -11.156   3.263  73.623  1.00  0.00    -0.316 A  
ENDBRANCH   4   8
BRANCH   6  14
HETATM   14  N   UNL     1      -9.155   9.981  70.153  1.00  0.00    -0.379 NA 
HETATM   15  H   UNL     1      -8.836  10.693  70.809  1.00  0.00     0.000 HD 
BRANCH  14  16
HETATM   16  C   UNL     1      -9.454  10.292  68.763  1.00  0.00    -0.176 C  
BRANCH  16  17
HETATM   17  C   UNL     1     -10.347  11.553  68.701  1.00  0.00    -0.210 C  
BRANCH  17  18
HETATM   18  N   UNL     1     -10.537  12.128  67.348  1.00  0.00    -0.222 NA 
HETATM   19  C   UNL     1     -11.691  13.054  67.270  1.00  0.00    -0.375 C  
HETATM   20  C   UNL     1     -11.484  14.370  68.039  1.00  0.00    -0.310 C  
HETATM   21  O   UNL     1     -10.309  15.056  67.591  1.00  0.00    -0.240 OA 
HETATM   22  C   UNL     1      -9.148  14.222  67.696  1.00  0.00    -0.192 C  
HETATM   23  C   UNL     1      -9.333  12.895  66.936  1.00  0.00    -0.240 C  
ENDBRANCH  17  18
ENDBRANCH  16  17
ENDBRANCH  14  16
ENDBRANCH   6  14
TORSDOF 5
ENDMDL
MODEL      134
REMARK 921   NORMALIZED FREE ENERGY PREDICTED BY IDOCK:   -3.71 KCAL/MOL
REMARK 922        TOTAL FREE ENERGY PREDICTED BY IDOCK:   -5.50 KCAL/MOL
REMARK 923 INTER-LIGAND FREE ENERGY PREDICTED BY IDOCK:   -5.05 KCAL/MOL
REMARK 924 INTRA-LIGAND FREE ENERGY PREDICTED BY IDOCK:   -0.45 KCAL/MOL
REMARK 927      BINDING AFFINITY PREDICTED BY RF-SCORE:    0.00 PKD
ROOT
HETATM    1  C   UNL     1      -9.767   5.042  67.424  1.00  0.00    -0.183 C  
HETATM    2  C   UNL     1     -10.280   5.420  68.783  1.00  0.00    -0.252 A  
HETATM    3  C   UNL     1      -9.945   4.626  69.885  1.00  0.00    -0.296 A  
HETATM    4  C   UNL     1     -10.348   4.989  71.165  1.00  0.00    -0.184 A  
HETATM    5  N   UNL     1     -11.109   6.087  71.335  1.00  0.00    -0.281 NA 
HETATM    6  C   UNL     1     -11.034   6.572  68.994  1.00  0.00    -0.321 A  
HETATM    7  N   UNL     1     -11.439   6.884  70.245  1.00  0.00    -0.325 NA 
ENDROOT
BRANCH   4   8
HETATM    8  C   UNL     1      -9.971   4.212  72.356  1.00  0.00    -0.229 A  
HETATM    9  C   UNL     1      -8.235   3.269  73.808  1.00  0.00    -0.074 A  
HETATM   10  C   UNL     1      -8.618   4.073  72.734  1.00  0.00    -0.101 A  
HETATM   11  C   UNL     1     -10.931   3.552  73.143  1.00  0.00    -0.221 A  
HETATM   12  C   UNL     1      -9.202   2.598  74.547  1.00  0.00    -0.099 A  
HETATM   13  C   UNL     1     -10.549   2.748  74.224  1.00  0.00    -0.223 A  
ENDBRANCH   4   8
BRANCH   6  14
HETATM   14  N   UNL     1     -11.281   7.424  67.911  1.00  0.00    -0.423 NA 
HETATM   15  H   UNL     1     -12.127   7.349  67.347  1.00  0.00     0.000 HD 
BRANCH  14  16
HETATM   16  C   UNL     1     -10.258   8.422  67.637  1.00  0.00    -0.236 C  
BRANCH  16  17
HETATM   17  C   UNL     1     -10.881   9.834  67.736  1.00  0.00    -0.246 C  
BRANCH  17  18
HETATM   18  N   UNL     1     -10.591  10.566  68.992  1.00  0.00    -0.207 NA 
HETATM   19  C   UNL     1      -9.333  11.345  68.930  1.00  0.00    -0.032 C  
HETATM   20  C   UNL     1      -9.397  12.554  67.981  1.00  0.00    -0.205 C  
HETATM   21  O   UNL     1     -10.470  13.436  68.333  1.00  0.00    -0.239 OA 
HETATM   22  C   UNL     1     -11.725  12.744  68.355  1.00  0.00    -0.339 C  
HETATM   23  C   UNL     1     -11.684  11.526  69.296  1.00  0.00    -0.330 C  
ENDBRANCH  17  18
ENDBRANCH  16  17
ENDBRANCH  14  16
ENDBRANCH   6  14
TORSDOF 5
ENDMDL
MODEL      135
REMARK 921   NORMALIZED FREE ENERGY PREDICTED BY IDOCK:   -3.68 KCAL/MOL
REMARK 922        TOTAL FREE ENERGY PREDICTED BY IDOCK:   -5.46 KCAL/MOL
REMARK 923 INTER-LIGAND FREE ENERGY PREDICTED BY IDOCK:   -5.31 KCAL/MOL
REMARK 924 INTRA-LIGAND FREE ENERGY PREDICTED BY IDOCK:   -0.15 KCAL/MOL
REMARK 927      BINDING AFFINITY PREDICTED BY RF-SCORE:    0.00 PKD
ROOT
HETATM    1  C   UNL     1     -12.343  13.490  65.758  1.00  0.00    -0.516 C  
HETATM    2  C   UNL     1     -11.830  12.858  67.018  1.00  0.00    -0.437 A  
HETATM    3  C   UNL     1     -11.454  11.512  67.004  1.00  0.00    -0.290 A  
HETATM    4  C   UNL     1     -10.911  10.918  68.137  1.00  0.00    -0.249 A  
HETATM    5  N   UNL     1     -10.796  11.635  69.271  1.00  0.00    -0.194 NA 
HETATM    6  C   UNL     1     -11.662  13.587  68.194  1.00  0.00    -0.361 A  
HETATM    7  N   UNL     1     -11.161  12.976  69.291  1.00  0.00    -0.185 NA 
ENDROOT
BRANCH   4   8
HETATM    8  C   UNL     1     -10.452   9.520  68.148  1.00  0.00    -0.268 A  
HETATM    9  C   UNL     1      -9.915   7.458  66.936  1.00  0.00    -0.307 A  
HETATM   10  C   UNL     1     -10.265   8.808  66.943  1.00  0.00    -0.357 A  
HETATM   11  C   UNL     1     -10.215   8.828  69.349  1.00  0.00    -0.210 A  
HETATM   12  C   UNL     1      -9.723   6.788  68.138  1.00  0.00    -0.129 A  
HETATM   13  C   UNL     1      -9.860   7.474  69.343  1.00  0.00    -0.166 A  
ENDBRANCH   4   8
BRANCH   6  14
HETATM   14  N   UNL     1     -11.938  14.959  68.182  1.00  0.00    -0.545 NA 
HETATM   15  H   UNL     1     -12.553  15.380  67.487  1.00  0.00     0.000 HD 
BRANCH  14  16
HETATM   16  C   UNL     1     -11.294  15.750  69.221  1.00  0.00    -0.350 C  
BRANCH  16  17
HETATM   17  C   UNL     1      -9.770  15.490  69.192  1.00  0.00    -0.252 C  
BRANCH  17  18
HETATM   18  N   UNL     1      -8.979  16.456  68.392  1.00  0.00    -0.207 NA 
HETATM   19  C   UNL     1      -7.519  16.325  68.608  1.00  0.00    -0.185 C  
HETATM   20  C   UNL     1      -6.921  15.028  68.039  1.00  0.00    -0.137 C  
HETATM   21  O   UNL     1      -7.195  14.897  66.638  1.00  0.00     0.234 OA 
HETATM   22  C   UNL     1      -8.603  14.961  66.377  1.00  0.00     0.017 C  
HETATM   23  C   UNL     1      -9.226  16.252  66.941  1.00  0.00    -0.218 C  
ENDBRANCH  17  18
ENDBRANCH  16  17
ENDBRANCH  14  16
ENDBRANCH   6  14
TORSDOF 5
ENDMDL
MODEL      136
REMARK 921   NORMALIZED FREE ENERGY PREDICTED BY IDOCK:   -3.58 KCAL/MOL
REMARK 922        TOTAL FREE ENERGY PREDICTED BY IDOCK:   -5.33 KCAL/MOL
REMARK 923 INTER-LIGAND FREE ENERGY PREDICTED BY IDOCK:   -4.74 KCAL/MOL
REMARK 924 INTRA-LIGAND FREE ENERGY PREDICTED BY IDOCK:   -0.60 KCAL/MOL
REMARK 927      BINDING AFFINITY PREDICTED BY RF-SCORE:    0.00 PKD
ROOT
HETATM    1  C   UNL     1      -8.759   4.773  66.882  1.00  0.00    -0.107 C  
HETATM    2  C   UNL     1      -9.615   5.237  68.024  1.00  0.00    -0.163 A  
HETATM    3  C   UNL     1      -9.484   4.619  69.271  1.00  0.00    -0.231 A  
HETATM    4  C   UNL     1     -10.213   5.072  70.365  1.00  0.00    -0.254 A  
HETATM    5  N   UNL     1     -11.089   6.083  70.205  1.00  0.00    -0.361 NA 
HETATM    6  C   UNL     1     -10.500   6.306  67.898  1.00  0.00    -0.230 A  
HETATM    7  N   UNL     1     -11.219   6.706  68.970  1.00  0.00    -0.252 NA 
ENDROOT
BRANCH   4   8
HETATM    8  C   UNL     1     -10.063   4.486  71.705  1.00  0.00    -0.254 A  
HETATM    9  C   UNL     1      -9.162   2.732  73.163  1.00  0.00    -0.108 A  
HETATM   10  C   UNL     1      -9.247   3.354  71.916  1.00  0.00    -0.179 A  
HETATM   11  C   UNL     1     -10.750   5.002  72.820  1.00  0.00    -0.292 A  
HETATM   12  C   UNL     1      -9.879   3.241  74.238  1.00  0.00    -0.160 A  
HETATM   13  C   UNL     1     -10.662   4.382  74.071  1.00  0.00    -0.334 A  
ENDBRANCH   4   8
BRANCH   6  14
HETATM   14  N   UNL     1     -10.555   6.994  66.680  1.00  0.00    -0.523 NA 
HETATM   15  H   UNL     1     -10.642   6.507  65.788  1.00  0.00     0.000 HD 
BRANCH  14  16
HETATM   16  C   UNL     1     -10.483   8.445  66.761  1.00  0.00    -0.245 C  
BRANCH  16  17
HETATM   17  C   UNL     1      -9.041   8.866  67.129  1.00  0.00    -0.138 C  
BRANCH  17  18
HETATM   18  N   UNL     1      -8.435   9.888  66.242  1.00  0.00    -0.127 NA 
HETATM   19  C   UNL     1      -9.391  10.948  65.844  1.00  0.00    -0.200 C  
HETATM   20  C   UNL     1      -9.804  11.877  66.998  1.00  0.00    -0.192 C  
HETATM   21  O   UNL     1      -8.662  12.489  67.609  1.00  0.00    -0.158 OA 
HETATM   22  C   UNL     1      -7.726  11.504  68.065  1.00  0.00    -0.119 C  
HETATM   23  C   UNL     1      -7.299  10.559  66.926  1.00  0.00    -0.110 C  
ENDBRANCH  17  18
ENDBRANCH  16  17
ENDBRANCH  14  16
ENDBRANCH   6  14
TORSDOF 5
ENDMDL
MODEL      137
REMARK 921   NORMALIZED FREE ENERGY PREDICTED BY IDOCK:   -3.57 KCAL/MOL
REMARK 922        TOTAL FREE ENERGY PREDICTED BY IDOCK:   -5.32 KCAL/MOL
REMARK 923 INTER-LIGAND FREE ENERGY PREDICTED BY IDOCK:   -4.98 KCAL/MOL
REMARK 924 INTRA-LIGAND FREE ENERGY PREDICTED BY IDOCK:   -0.34 KCAL/MOL
REMARK 927      BINDING AFFINITY PREDICTED BY RF-SCORE:    0.00 PKD
ROOT
HETATM    1  C   UNL     1     -11.423   9.779  71.074  1.00  0.00    -0.458 C  
HETATM    2  C   UNL     1     -10.606   9.471  69.854  1.00  0.00    -0.269 A  
HETATM    3  C   UNL     1     -10.479   8.143  69.434  1.00  0.00    -0.223 A  
HETATM    4  C   UNL     1      -9.786   7.833  68.270  1.00  0.00    -0.159 A  
HETATM    5  N   UNL     1      -9.190   8.819  67.571  1.00  0.00    -0.136 NA 
HETATM    6  C   UNL     1     -10.013  10.473  69.089  1.00  0.00    -0.220 A  
HETATM    7  N   UNL     1      -9.318  10.141  67.979  1.00  0.00    -0.141 NA 
ENDROOT
BRANCH   4   8
HETATM    8  C   UNL     1      -9.676   6.457  67.764  1.00  0.00    -0.127 A  
HETATM    9  C   UNL     1     -10.297   4.749  66.118  1.00  0.00    -0.337 A  
HETATM   10  C   UNL     1     -10.317   6.070  66.567  1.00  0.00    -0.209 A  
HETATM   11  C   UNL     1      -8.962   5.466  68.462  1.00  0.00    -0.114 A  
HETATM   12  C   UNL     1      -9.615   3.782  66.847  1.00  0.00    -0.207 A  
HETATM   13  C   UNL     1      -8.938   4.142  68.010  1.00  0.00    -0.150 A  
ENDBRANCH   4   8
BRANCH   6  14
HETATM   14  N   UNL     1     -10.226  11.809  69.448  1.00  0.00    -0.396 NA 
HETATM   15  H   UNL     1      -9.522  12.354  69.945  1.00  0.00     0.000 HD 
BRANCH  14  16
HETATM   16  C   UNL     1     -11.512  12.375  69.069  1.00  0.00    -0.300 C  
BRANCH  16  17
HETATM   17  C   UNL     1     -11.671  13.768  69.722  1.00  0.00    -0.302 C  
BRANCH  17  18
HETATM   18  N   UNL     1     -12.997  14.033  70.331  1.00  0.00    -0.175 NA 
HETATM   19  C   UNL     1     -13.200  13.314  71.610  1.00  0.00    -0.359 C  
HETATM   20  C   UNL     1     -12.323  13.834  72.761  1.00  0.00     0.398 C  
HETATM   21  O   UNL     1     -12.527  15.235  72.980  1.00  0.00    -0.351 OA 
HETATM   22  C   UNL     1     -12.289  15.988  71.784  1.00  0.00    -0.435 C  
HETATM   23  C   UNL     1     -13.155  15.483  70.615  1.00  0.00    -0.310 C  
ENDBRANCH  17  18
ENDBRANCH  16  17
ENDBRANCH  14  16
ENDBRANCH   6  14
TORSDOF 5
ENDMDL
MODEL      138
REMARK 921   NORMALIZED FREE ENERGY PREDICTED BY IDOCK:   -3.48 KCAL/MOL
REMARK 922        TOTAL FREE ENERGY PREDICTED BY IDOCK:   -5.20 KCAL/MOL
REMARK 923 INTER-LIGAND FREE ENERGY PREDICTED BY IDOCK:   -5.21 KCAL/MOL
REMARK 924 INTRA-LIGAND FREE ENERGY PREDICTED BY IDOCK:    0.01 KCAL/MOL
REMARK 927      BINDING AFFINITY PREDICTED BY RF-SCORE:    0.00 PKD
ROOT
HETATM    1  C   UNL     1      -7.558  11.636  68.195  1.00  0.00    -0.115 C  
HETATM    2  C   UNL     1      -9.046  11.634  68.390  1.00  0.00    -0.180 A  
HETATM    3  C   UNL     1      -9.610  10.768  69.332  1.00  0.00    -0.056 A  
HETATM    4  C   UNL     1     -10.977  10.791  69.583  1.00  0.00    -0.264 A  
HETATM    5  N   UNL     1     -11.768  11.621  68.875  1.00  0.00    -0.309 NA 
HETATM    6  C   UNL     1      -9.883  12.510  67.701  1.00  0.00    -0.202 A  
HETATM    7  N   UNL     1     -11.213  12.489  67.943  1.00  0.00    -0.246 NA 
ENDROOT
BRANCH   4   8
HETATM    8  C   UNL     1     -11.603   9.936  70.604  1.00  0.00    -0.413 A  
HETATM    9  C   UNL     1     -13.567   9.315  71.933  1.00  0.00    -0.494 A  
HETATM   10  C   UNL     1     -12.976  10.055  70.908  1.00  0.00    -0.397 A  
HETATM   11  C   UNL     1     -10.859   8.996  71.339  1.00  0.00    -0.400 A  
HETATM   12  C   UNL     1     -12.801   8.419  72.668  1.00  0.00    -0.171 A  
HETATM   13  C   UNL     1     -11.452   8.250  72.364  1.00  0.00    -0.463 A  
ENDBRANCH   4   8
BRANCH   6  14
HETATM   14  N   UNL     1      -9.310  13.449  66.837  1.00  0.00    -0.245 NA 
HETATM   15  H   UNL     1      -8.301  13.515  66.703  1.00  0.00     0.000 HD 
BRANCH  14  16
HETATM   16  C   UNL     1     -10.239  14.327  66.140  1.00  0.00    -0.307 C  
BRANCH  16  17
HETATM   17  C   UNL     1     -10.097  14.116  64.615  1.00  0.00    -0.012 C  
BRANCH  17  18
HETATM   18  N   UNL     1     -11.309  14.423  63.819  1.00  0.00     0.409 NA 
HETATM   19  C   UNL     1     -11.747  13.289  62.972  1.00  0.00     0.407 C  
HETATM   20  C   UNL     1     -12.306  12.099  63.771  1.00  0.00    -0.532 C  
HETATM   21  O   UNL     1     -13.396  12.499  64.610  1.00  0.00    -0.804 OA 
HETATM   22  C   UNL     1     -13.010  13.561  65.491  1.00  0.00    -0.209 C  
HETATM   23  C   UNL     1     -12.444  14.765  64.714  1.00  0.00    -0.210 C  
ENDBRANCH  17  18
ENDBRANCH  16  17
ENDBRANCH  14  16
ENDBRANCH   6  14
TORSDOF 5
ENDMDL
MODEL      139
REMARK 921   NORMALIZED FREE ENERGY PREDICTED BY IDOCK:   -3.47 KCAL/MOL
REMARK 922        TOTAL FREE ENERGY PREDICTED BY IDOCK:   -5.19 KCAL/MOL
REMARK 923 INTER-LIGAND FREE ENERGY PREDICTED BY IDOCK:   -4.51 KCAL/MOL
REMARK 924 INTRA-LIGAND FREE ENERGY PREDICTED BY IDOCK:   -0.69 KCAL/MOL
REMARK 927      BINDING AFFINITY PREDICTED BY RF-SCORE:    0.00 PKD
ROOT
HETATM    1  C   UNL     1      -6.247  12.146  68.189  1.00  0.00    -0.055 C  
HETATM    2  C   UNL     1      -7.744  12.040  68.212  1.00  0.00    -0.127 A  
HETATM    3  C   UNL     1      -8.497  12.824  67.333  1.00  0.00    -0.191 A  
HETATM    4  C   UNL     1      -9.881  12.699  67.284  1.00  0.00    -0.206 A  
HETATM    5  N   UNL     1     -10.500  11.851  68.128  1.00  0.00    -0.200 NA 
HETATM    6  C   UNL     1      -8.408  11.143  69.045  1.00  0.00    -0.049 A  
HETATM    7  N   UNL     1      -9.757  11.064  68.999  1.00  0.00    -0.174 NA 
ENDROOT
BRANCH   4   8
HETATM    8  C   UNL     1     -10.705  13.463  66.336  1.00  0.00    -0.289 A  
HETATM    9  C   UNL     1     -12.713  13.643  64.940  1.00  0.00    -0.320 A  
HETATM   10  C   UNL     1     -11.957  12.975  65.904  1.00  0.00    -0.491 A  
HETATM   11  C   UNL     1     -10.270  14.687  65.796  1.00  0.00    -0.360 A  
HETATM   12  C   UNL     1     -12.242  14.832  64.396  1.00  0.00    -0.447 A  
HETATM   13  C   UNL     1     -11.029  15.361  64.832  1.00  0.00    -0.453 A  
ENDBRANCH   4   8
BRANCH   6  14
HETATM   14  N   UNL     1      -7.652  10.283  69.850  1.00  0.00    -0.236 NA 
HETATM   15  H   UNL     1      -6.902  10.626  70.449  1.00  0.00     0.000 HD 
BRANCH  14  16
HETATM   16  C   UNL     1      -7.999   8.872  69.780  1.00  0.00    -0.100 C  
BRANCH  16  17
HETATM   17  C   UNL     1      -7.606   8.315  68.392  1.00  0.00    -0.101 C  
BRANCH  17  18
HETATM   18  N   UNL     1      -7.467   6.841  68.318  1.00  0.00    -0.096 NA 
HETATM   19  C   UNL     1      -8.679   6.123  68.776  1.00  0.00    -0.119 C  
HETATM   20  C   UNL     1      -9.885   6.276  67.834  1.00  0.00    -0.124 C  
HETATM   21  O   UNL     1      -9.566   5.847  66.504  1.00  0.00    -0.151 OA 
HETATM   22  C   UNL     1      -8.430   6.552  65.989  1.00  0.00    -0.145 C  
HETATM   23  C   UNL     1      -7.209   6.415  66.918  1.00  0.00    -0.074 C  
ENDBRANCH  17  18
ENDBRANCH  16  17
ENDBRANCH  14  16
ENDBRANCH   6  14
TORSDOF 5
ENDMDL
MODEL      140
REMARK 921   NORMALIZED FREE ENERGY PREDICTED BY IDOCK:   -3.46 KCAL/MOL
REMARK 922        TOTAL FREE ENERGY PREDICTED BY IDOCK:   -5.19 KCAL/MOL
REMARK 923 INTER-LIGAND FREE ENERGY PREDICTED BY IDOCK:   -4.50 KCAL/MOL
REMARK 924 INTRA-LIGAND FREE ENERGY PREDICTED BY IDOCK:   -0.69 KCAL/MOL
REMARK 927      BINDING AFFINITY PREDICTED BY RF-SCORE:    0.00 PKD
ROOT
HETATM    1  C   UNL     1      -9.002   7.989  66.535  1.00  0.00    -0.188 C  
HETATM    2  C   UNL     1      -8.727   9.426  66.870  1.00  0.00    -0.137 A  
HETATM    3  C   UNL     1      -9.501  10.426  66.275  1.00  0.00    -0.215 A  
HETATM    4  C   UNL     1      -9.315  11.761  66.617  1.00  0.00    -0.198 A  
HETATM    5  N   UNL     1      -8.346  12.093  67.492  1.00  0.00    -0.156 NA 
HETATM    6  C   UNL     1      -7.758   9.795  67.801  1.00  0.00    -0.091 A  
HETATM    7  N   UNL     1      -7.577  11.103  68.091  1.00  0.00    -0.098 NA 
ENDROOT
BRANCH   4   8
HETATM    8  C   UNL     1     -10.145  12.838  66.057  1.00  0.00    -0.277 A  
HETATM    9  C   UNL     1     -10.465  15.212  65.534  1.00  0.00    -0.400 A  
HETATM   10  C   UNL     1      -9.662  14.162  65.981  1.00  0.00    -0.297 A  
HETATM   11  C   UNL     1     -11.458  12.605  65.607  1.00  0.00    -0.387 A  
HETATM   12  C   UNL     1     -11.771  14.959  65.130  1.00  0.00    -0.295 A  
HETATM   13  C   UNL     1     -12.263  13.656  65.155  1.00  0.00    -0.461 A  
ENDBRANCH   4   8
BRANCH   6  14
HETATM   14  N   UNL     1      -7.054   8.791  68.475  1.00  0.00    -0.072 NA 
HETATM   15  H   UNL     1      -6.767   7.929  68.013  1.00  0.00     0.000 HD 
BRANCH  14  16
HETATM   16  C   UNL     1      -6.756   9.049  69.876  1.00  0.00    -0.046 C  
BRANCH  16  17
HETATM   17  C   UNL     1      -8.024   8.801  70.724  1.00  0.00    -0.127 C  
BRANCH  17  18
HETATM   18  N   UNL     1      -8.954   7.777  70.188  1.00  0.00    -0.145 NA 
HETATM   19  C   UNL     1      -8.659   6.413  70.684  1.00  0.00    -0.139 C  
HETATM   20  C   UNL     1      -8.960   6.218  72.180  1.00  0.00    -0.137 C  
HETATM   21  O   UNL     1     -10.323   6.537  72.484  1.00  0.00    -0.188 OA 
HETATM   22  C   UNL     1     -10.648   7.872  72.074  1.00  0.00    -0.238 C  
HETATM   23  C   UNL     1     -10.352   8.092  70.578  1.00  0.00    -0.202 C  
ENDBRANCH  17  18
ENDBRANCH  16  17
ENDBRANCH  14  16
ENDBRANCH   6  14
TORSDOF 5
ENDMDL
MODEL      141
REMARK 921   NORMALIZED FREE ENERGY PREDICTED BY IDOCK:   -3.46 KCAL/MOL
REMARK 922        TOTAL FREE ENERGY PREDICTED BY IDOCK:   -5.19 KCAL/MOL
REMARK 923 INTER-LIGAND FREE ENERGY PREDICTED BY IDOCK:   -4.53 KCAL/MOL
REMARK 924 INTRA-LIGAND FREE ENERGY PREDICTED BY IDOCK:   -0.66 KCAL/MOL
REMARK 927      BINDING AFFINITY PREDICTED BY RF-SCORE:    0.00 PKD
ROOT
HETATM    1  C   UNL     1      -8.759   4.773  66.882  1.00  0.00    -0.107 C  
HETATM    2  C   UNL     1      -9.615   5.237  68.024  1.00  0.00    -0.163 A  
HETATM    3  C   UNL     1      -9.484   4.619  69.271  1.00  0.00    -0.231 A  
HETATM    4  C   UNL     1     -10.213   5.072  70.365  1.00  0.00    -0.254 A  
HETATM    5  N   UNL     1     -11.089   6.083  70.205  1.00  0.00    -0.361 NA 
HETATM    6  C   UNL     1     -10.500   6.306  67.898  1.00  0.00    -0.230 A  
HETATM    7  N   UNL     1     -11.219   6.706  68.970  1.00  0.00    -0.252 NA 
ENDROOT
BRANCH   4   8
HETATM    8  C   UNL     1     -10.063   4.486  71.705  1.00  0.00    -0.254 A  
HETATM    9  C   UNL     1      -9.162   2.732  73.163  1.00  0.00    -0.108 A  
HETATM   10  C   UNL     1      -9.247   3.354  71.916  1.00  0.00    -0.179 A  
HETATM   11  C   UNL     1     -10.750   5.002  72.820  1.00  0.00    -0.292 A  
HETATM   12  C   UNL     1      -9.879   3.241  74.238  1.00  0.00    -0.160 A  
HETATM   13  C   UNL     1     -10.662   4.382  74.071  1.00  0.00    -0.334 A  
ENDBRANCH   4   8
BRANCH   6  14
HETATM   14  N   UNL     1     -10.555   6.994  66.680  1.00  0.00    -0.523 NA 
HETATM   15  H   UNL     1     -10.642   6.507  65.788  1.00  0.00     0.000 HD 
BRANCH  14  16
HETATM   16  C   UNL     1     -10.483   8.445  66.761  1.00  0.00    -0.245 C  
BRANCH  16  17
HETATM   17  C   UNL     1      -9.041   8.866  67.129  1.00  0.00    -0.138 C  
BRANCH  17  18
HETATM   18  N   UNL     1      -8.435   9.888  66.242  1.00  0.00    -0.127 NA 
HETATM   19  C   UNL     1      -6.964   9.981  66.389  1.00  0.00    -0.101 C  
HETATM   20  C   UNL     1      -6.208   8.752  65.855  1.00  0.00    -0.056 C  
HETATM   21  O   UNL     1      -6.521   8.504  64.479  1.00  0.00    -0.065 OA 
HETATM   22  C   UNL     1      -7.933   8.350  64.288  1.00  0.00    -0.149 C  
HETATM   23  C   UNL     1      -8.713   9.568  64.818  1.00  0.00    -0.197 C  
ENDBRANCH  17  18
ENDBRANCH  16  17
ENDBRANCH  14  16
ENDBRANCH   6  14
TORSDOF 5
ENDMDL
MODEL      142
REMARK 921   NORMALIZED FREE ENERGY PREDICTED BY IDOCK:   -3.38 KCAL/MOL
REMARK 922        TOTAL FREE ENERGY PREDICTED BY IDOCK:   -5.08 KCAL/MOL
REMARK 923 INTER-LIGAND FREE ENERGY PREDICTED BY IDOCK:   -4.10 KCAL/MOL
REMARK 924 INTRA-LIGAND FREE ENERGY PREDICTED BY IDOCK:   -0.97 KCAL/MOL
REMARK 927      BINDING AFFINITY PREDICTED BY RF-SCORE:    0.00 PKD
ROOT
HETATM    1  C   UNL     1      -6.951   8.313  69.495  1.00  0.00    -0.046 C  
HETATM    2  C   UNL     1      -8.027   8.048  68.483  1.00  0.00    -0.120 A  
HETATM    3  C   UNL     1      -7.959   6.892  67.701  1.00  0.00    -0.113 A  
HETATM    4  C   UNL     1      -8.976   6.585  66.804  1.00  0.00    -0.131 A  
HETATM    5  N   UNL     1     -10.008   7.438  66.655  1.00  0.00    -0.215 NA 
HETATM    6  C   UNL     1      -9.126   8.892  68.336  1.00  0.00    -0.137 A  
HETATM    7  N   UNL     1     -10.085   8.585  67.434  1.00  0.00    -0.213 NA 
ENDROOT
BRANCH   4   8
HETATM    8  C   UNL     1      -8.970   5.352  66.002  1.00  0.00    -0.147 A  
HETATM    9  C   UNL     1      -7.739   3.673  64.707  1.00  0.00    -0.081 A  
HETATM   10  C   UNL     1      -7.759   4.791  65.541  1.00  0.00    -0.086 A  
HETATM   11  C   UNL     1     -10.162   4.703  65.634  1.00  0.00    -0.255 A  
HETATM   12  C   UNL     1      -8.934   3.073  64.328  1.00  0.00    -0.110 A  
HETATM   13  C   UNL     1     -10.143   3.578  64.801  1.00  0.00    -0.087 A  
ENDBRANCH   4   8
BRANCH   6  14
HETATM   14  N   UNL     1      -9.250   9.992  69.191  1.00  0.00    -0.179 NA 
HETATM   15  H   UNL     1      -8.526  10.708  69.259  1.00  0.00     0.000 HD 
BRANCH  14  16
HETATM   16  C   UNL     1     -10.473  10.057  69.978  1.00  0.00    -0.287 C  
BRANCH  16  17
HETATM   17  C   UNL     1     -10.368   9.077  71.169  1.00  0.00    -0.291 C  
BRANCH  17  18
HETATM   18  N   UNL     1     -11.526   8.167  71.343  1.00  0.00    -0.256 NA 
HETATM   19  C   UNL     1     -11.434   6.948  70.506  1.00  0.00    -0.342 C  
HETATM   20  C   UNL     1     -10.325   5.976  70.944  1.00  0.00    -0.222 C  
HETATM   21  O   UNL     1     -10.484   5.587  72.314  1.00  0.00    -0.202 OA 
HETATM   22  C   UNL     1     -10.524   6.730  73.178  1.00  0.00    -0.270 C  
HETATM   23  C   UNL     1     -11.626   7.721  72.757  1.00  0.00    -0.314 C  
ENDBRANCH  17  18
ENDBRANCH  16  17
ENDBRANCH  14  16
ENDBRANCH   6  14
TORSDOF 5
ENDMDL
MODEL      143
REMARK 921   NORMALIZED FREE ENERGY PREDICTED BY IDOCK:   -3.36 KCAL/MOL
REMARK 922        TOTAL FREE ENERGY PREDICTED BY IDOCK:   -5.05 KCAL/MOL
REMARK 923 INTER-LIGAND FREE ENERGY PREDICTED BY IDOCK:   -5.08 KCAL/MOL
REMARK 924 INTRA-LIGAND FREE ENERGY PREDICTED BY IDOCK:    0.03 KCAL/MOL
REMARK 927      BINDING AFFINITY PREDICTED BY RF-SCORE:    0.00 PKD
ROOT
HETATM    1  C   UNL     1     -10.856   6.622  66.964  1.00  0.00    -0.467 C  
HETATM    2  C   UNL     1     -10.881   6.813  68.453  1.00  0.00    -0.284 A  
HETATM    3  C   UNL     1     -10.761   5.698  69.287  1.00  0.00    -0.350 A  
HETATM    4  C   UNL     1     -10.712   5.851  70.668  1.00  0.00    -0.285 A  
HETATM    5  N   UNL     1     -10.832   7.082  71.203  1.00  0.00    -0.234 NA 
HETATM    6  C   UNL     1     -10.963   8.077  69.033  1.00  0.00     0.114 A  
HETATM    7  N   UNL     1     -10.944   8.194  70.380  1.00  0.00    -0.248 NA 
ENDROOT
BRANCH   4   8
HETATM    8  C   UNL     1     -10.531   4.710  71.578  1.00  0.00    -0.102 A  
HETATM    9  C   UNL     1      -9.646   2.466  72.012  1.00  0.00    -0.200 A  
HETATM   10  C   UNL     1      -9.756   3.594  71.198  1.00  0.00    -0.245 A  
HETATM   11  C   UNL     1     -11.146   4.667  72.843  1.00  0.00    -0.273 A  
HETATM   12  C   UNL     1     -10.294   2.435  73.241  1.00  0.00    -0.214 A  
HETATM   13  C   UNL     1     -11.033   3.539  73.662  1.00  0.00    -0.329 A  
ENDBRANCH   4   8
BRANCH   6  14
HETATM   14  N   UNL     1     -10.977   9.202  68.200  1.00  0.00    -0.484 NA 
HETATM   15  H   UNL     1     -10.597   9.178  67.254  1.00  0.00     0.000 HD 
BRANCH  14  16
HETATM   16  C   UNL     1     -11.565  10.408  68.764  1.00  0.00    -0.119 C  
BRANCH  16  17
HETATM   17  C   UNL     1     -10.529  11.555  68.712  1.00  0.00    -0.204 C  
BRANCH  17  18
HETATM   18  N   UNL     1     -10.712  12.523  67.603  1.00  0.00    -0.214 NA 
HETATM   19  C   UNL     1      -9.448  13.182  67.198  1.00  0.00    -0.239 C  
HETATM   20  C   UNL     1      -8.451  12.239  66.503  1.00  0.00     0.015 C  
HETATM   21  O   UNL     1      -9.038  11.615  65.354  1.00  0.00    -0.136 OA 
HETATM   22  C   UNL     1     -10.238  10.913  65.701  1.00  0.00    -0.263 C  
HETATM   23  C   UNL     1     -11.252  11.837  66.401  1.00  0.00    -0.323 C  
ENDBRANCH  17  18
ENDBRANCH  16  17
ENDBRANCH  14  16
ENDBRANCH   6  14
TORSDOF 5
ENDMDL
MODEL      144
REMARK 921   NORMALIZED FREE ENERGY PREDICTED BY IDOCK:   -3.35 KCAL/MOL
REMARK 922        TOTAL FREE ENERGY PREDICTED BY IDOCK:   -5.04 KCAL/MOL
REMARK 923 INTER-LIGAND FREE ENERGY PREDICTED BY IDOCK:   -4.41 KCAL/MOL
REMARK 924 INTRA-LIGAND FREE ENERGY PREDICTED BY IDOCK:   -0.64 KCAL/MOL
REMARK 927      BINDING AFFINITY PREDICTED BY RF-SCORE:    0.00 PKD
ROOT
HETATM    1  C   UNL     1      -8.940   7.685  69.849  1.00  0.00    -0.144 C  
HETATM    2  C   UNL     1      -9.516   8.324  68.620  1.00  0.00    -0.147 A  
HETATM    3  C   UNL     1     -10.077   9.601  68.713  1.00  0.00    -0.193 A  
HETATM    4  C   UNL     1     -10.557  10.246  67.579  1.00  0.00    -0.268 A  
HETATM    5  N   UNL     1     -10.526   9.611  66.391  1.00  0.00    -0.164 NA 
HETATM    6  C   UNL     1      -9.461   7.707  67.371  1.00  0.00    -0.143 A  
HETATM    7  N   UNL     1      -9.963   8.345  66.291  1.00  0.00    -0.213 NA 
ENDROOT
BRANCH   4   8
HETATM    8  C   UNL     1     -11.104  11.611  67.625  1.00  0.00    -0.314 A  
HETATM    9  C   UNL     1     -11.667  13.706  66.483  1.00  0.00    -0.414 A  
HETATM   10  C   UNL     1     -11.234  12.381  66.449  1.00  0.00    -0.365 A  
HETATM   11  C   UNL     1     -11.486  12.216  68.836  1.00  0.00    -0.350 A  
HETATM   12  C   UNL     1     -12.004  14.291  67.698  1.00  0.00    -0.400 A  
HETATM   13  C   UNL     1     -11.926  13.544  68.871  1.00  0.00    -0.378 A  
ENDBRANCH   4   8
BRANCH   6  14
HETATM   14  N   UNL     1      -8.806   6.476  67.256  1.00  0.00    -0.112 NA 
HETATM   15  H   UNL     1      -7.824   6.361  67.505  1.00  0.00     0.000 HD 
BRANCH  14  16
HETATM   16  C   UNL     1      -9.610   5.368  66.761  1.00  0.00    -0.147 C  
BRANCH  16  17
HETATM   17  C   UNL     1      -9.512   4.183  67.750  1.00  0.00    -0.175 C  
BRANCH  17  18
HETATM   18  N   UNL     1      -9.083   2.895  67.153  1.00  0.00    -0.161 NA 
HETATM   19  C   UNL     1      -7.777   2.987  66.459  1.00  0.00    -0.077 C  
HETATM   20  C   UNL     1      -6.584   3.198  67.407  1.00  0.00    -0.037 C  
HETATM   21  O   UNL     1      -6.512   2.162  68.394  1.00  0.00    -0.028 OA 
HETATM   22  C   UNL     1      -7.734   2.065  69.135  1.00  0.00    -0.042 C  
HETATM   23  C   UNL     1      -8.945   1.857  68.207  1.00  0.00    -0.136 C  
ENDBRANCH  17  18
ENDBRANCH  16  17
ENDBRANCH  14  16
ENDBRANCH   6  14
TORSDOF 5
ENDMDL
MODEL      145
REMARK 921   NORMALIZED FREE ENERGY PREDICTED BY IDOCK:   -3.35 KCAL/MOL
REMARK 922        TOTAL FREE ENERGY PREDICTED BY IDOCK:   -5.03 KCAL/MOL
REMARK 923 INTER-LIGAND FREE ENERGY PREDICTED BY IDOCK:   -4.54 KCAL/MOL
REMARK 924 INTRA-LIGAND FREE ENERGY PREDICTED BY IDOCK:   -0.49 KCAL/MOL
REMARK 927      BINDING AFFINITY PREDICTED BY RF-SCORE:    0.00 PKD
ROOT
HETATM    1  C   UNL     1     -10.113   9.249  71.326  1.00  0.00    -0.361 C  
HETATM    2  C   UNL     1      -9.587   8.603  70.078  1.00  0.00    -0.175 A  
HETATM    3  C   UNL     1      -9.272   7.241  70.094  1.00  0.00    -0.152 A  
HETATM    4  C   UNL     1      -8.848   6.600  68.936  1.00  0.00    -0.131 A  
HETATM    5  N   UNL     1      -8.692   7.312  67.803  1.00  0.00    -0.126 NA 
HETATM    6  C   UNL     1      -9.455   9.306  68.882  1.00  0.00    -0.154 A  
HETATM    7  N   UNL     1      -9.010   8.664  67.778  1.00  0.00    -0.136 NA 
ENDROOT
BRANCH   4   8
HETATM    8  C   UNL     1      -8.560   5.159  68.897  1.00  0.00    -0.092 A  
HETATM    9  C   UNL     1      -7.008   3.298  69.273  1.00  0.00    -0.041 A  
HETATM   10  C   UNL     1      -7.335   4.650  69.381  1.00  0.00    -0.052 A  
HETATM   11  C   UNL     1      -9.469   4.236  68.349  1.00  0.00    -0.215 A  
HETATM   12  C   UNL     1      -7.910   2.414  68.693  1.00  0.00    -0.058 A  
HETATM   13  C   UNL     1      -9.144   2.879  68.243  1.00  0.00    -0.221 A  
ENDBRANCH   4   8
BRANCH   6  14
HETATM   14  N   UNL     1      -9.869  10.642  68.836  1.00  0.00    -0.194 NA 
HETATM   15  H   UNL     1      -9.247  11.409  69.090  1.00  0.00     0.000 HD 
BRANCH  14  16
HETATM   16  C   UNL     1     -11.239  10.872  68.403  1.00  0.00    -0.285 C  
BRANCH  16  17
HETATM   17  C   UNL     1     -11.255  11.164  66.885  1.00  0.00    -0.186 C  
BRANCH  17  18
HETATM   18  N   UNL     1     -10.512  12.378  66.467  1.00  0.00    -0.228 NA 
HETATM   19  C   UNL     1     -10.552  12.604  65.003  1.00  0.00    -0.303 C  
HETATM   20  C   UNL     1     -11.940  13.004  64.475  1.00  0.00    -0.394 C  
HETATM   21  O   UNL     1     -12.433  14.175  65.138  1.00  0.00    -0.436 OA 
HETATM   22  C   UNL     1     -12.468  13.991  66.559  1.00  0.00    -0.311 C  
HETATM   23  C   UNL     1     -11.089  13.586  67.112  1.00  0.00    -0.293 C  
ENDBRANCH  17  18
ENDBRANCH  16  17
ENDBRANCH  14  16
ENDBRANCH   6  14
TORSDOF 5
ENDMDL
MODEL      146
REMARK 921   NORMALIZED FREE ENERGY PREDICTED BY IDOCK:   -3.30 KCAL/MOL
REMARK 922        TOTAL FREE ENERGY PREDICTED BY IDOCK:   -4.98 KCAL/MOL
REMARK 923 INTER-LIGAND FREE ENERGY PREDICTED BY IDOCK:   -4.41 KCAL/MOL
REMARK 924 INTRA-LIGAND FREE ENERGY PREDICTED BY IDOCK:   -0.57 KCAL/MOL
REMARK 927      BINDING AFFINITY PREDICTED BY RF-SCORE:    0.00 PKD
ROOT
HETATM    1  C   UNL     1     -10.141   8.842  66.193  1.00  0.00    -0.154 C  
HETATM    2  C   UNL     1      -9.495   9.883  67.059  1.00  0.00    -0.196 A  
HETATM    3  C   UNL     1     -10.125  11.120  67.225  1.00  0.00    -0.218 A  
HETATM    4  C   UNL     1      -9.586  12.078  68.076  1.00  0.00    -0.199 A  
HETATM    5  N   UNL     1      -8.420  11.828  68.703  1.00  0.00    -0.114 NA 
HETATM    6  C   UNL     1      -8.311   9.637  67.751  1.00  0.00    -0.121 A  
HETATM    7  N   UNL     1      -7.793  10.598  68.547  1.00  0.00    -0.108 NA 
ENDROOT
BRANCH   4   8
HETATM    8  C   UNL     1     -10.245  13.370  68.321  1.00  0.00    -0.250 A  
HETATM    9  C   UNL     1     -12.046  14.664  69.367  1.00  0.00    -0.317 A  
HETATM   10  C   UNL     1     -11.354  13.466  69.190  1.00  0.00    -0.333 A  
HETATM   11  C   UNL     1      -9.825  14.549  67.681  1.00  0.00    -0.223 A  
HETATM   12  C   UNL     1     -11.631  15.807  68.693  1.00  0.00    -0.392 A  
HETATM   13  C   UNL     1     -10.515  15.753  67.861  1.00  0.00    -0.270 A  
ENDBRANCH   4   8
BRANCH   6  14
HETATM   14  N   UNL     1      -7.735   8.364  67.670  1.00  0.00    -0.098 NA 
HETATM   15  H   UNL     1      -7.380   7.987  66.791  1.00  0.00     0.000 HD 
BRANCH  14  16
HETATM   16  C   UNL     1      -7.672   7.609  68.913  1.00  0.00    -0.117 C  
BRANCH  16  17
HETATM   17  C   UNL     1      -9.089   7.508  69.523  1.00  0.00    -0.143 C  
BRANCH  17  18
HETATM   18  N   UNL     1      -9.911   6.378  69.029  1.00  0.00    -0.144 NA 
HETATM   19  C   UNL     1      -9.150   5.110  68.930  1.00  0.00    -0.107 C  
HETATM   20  C   UNL     1      -8.754   4.515  70.292  1.00  0.00    -0.081 C  
HETATM   21  O   UNL     1      -9.903   4.301  71.121  1.00  0.00    -0.175 OA 
HETATM   22  C   UNL     1     -10.649   5.513  71.297  1.00  0.00    -0.236 C  
HETATM   23  C   UNL     1     -11.054   6.130  69.946  1.00  0.00    -0.410 C  
ENDBRANCH  17  18
ENDBRANCH  16  17
ENDBRANCH  14  16
ENDBRANCH   6  14
TORSDOF 5
ENDMDL
MODEL      147
REMARK 921   NORMALIZED FREE ENERGY PREDICTED BY IDOCK:   -2.98 KCAL/MOL
REMARK 922        TOTAL FREE ENERGY PREDICTED BY IDOCK:   -4.56 KCAL/MOL
REMARK 923 INTER-LIGAND FREE ENERGY PREDICTED BY IDOCK:   -3.98 KCAL/MOL
REMARK 924 INTRA-LIGAND FREE ENERGY PREDICTED BY IDOCK:   -0.58 KCAL/MOL
REMARK 927      BINDING AFFINITY PREDICTED BY RF-SCORE:    0.00 PKD
ROOT
HETATM    1  C   UNL     1      -6.309   6.432  68.025  1.00  0.00    -0.036 C  
HETATM    2  C   UNL     1      -7.750   6.600  67.642  1.00  0.00    -0.107 A  
HETATM    3  C   UNL     1      -8.262   7.888  67.457  1.00  0.00    -0.124 A  
HETATM    4  C   UNL     1      -9.574   8.073  67.036  1.00  0.00    -0.196 A  
HETATM    5  N   UNL     1     -10.369   7.001  66.854  1.00  0.00    -0.264 NA 
HETATM    6  C   UNL     1      -8.584   5.509  67.408  1.00  0.00    -0.108 A  
HETATM    7  N   UNL     1      -9.865   5.718  67.029  1.00  0.00    -0.139 NA 
ENDROOT
BRANCH   4   8
HETATM    8  C   UNL     1     -10.134   9.408  66.777  1.00  0.00    -0.325 A  
HETATM    9  C   UNL     1     -10.413  11.336  65.289  1.00  0.00    -0.341 A  
HETATM   10  C   UNL     1      -9.965  10.036  65.525  1.00  0.00    -0.367 A  
HETATM   11  C   UNL     1     -10.828  10.125  67.769  1.00  0.00    -0.346 A  
HETATM   12  C   UNL     1     -11.063  12.036  66.299  1.00  0.00    -0.363 A  
HETATM   13  C   UNL     1     -11.281  11.427  67.533  1.00  0.00    -0.356 A  
ENDBRANCH   4   8
BRANCH   6  14
HETATM   14  N   UNL     1      -8.046   4.220  67.489  1.00  0.00    -0.098 NA 
HETATM   15  H   UNL     1      -8.067   3.679  68.353  1.00  0.00     0.000 HD 
BRANCH  14  16
HETATM   16  C   UNL     1      -7.454   3.696  66.267  1.00  0.00    -0.080 C  
BRANCH  16  17
HETATM   17  C   UNL     1      -8.419   2.669  65.629  1.00  0.00    -0.103 C  
BRANCH  17  18
HETATM   18  N   UNL     1      -8.242   2.455  64.173  1.00  0.00    -0.081 NA 
HETATM   19  C   UNL     1      -9.308   1.614  63.579  1.00  0.00    -0.098 C  
HETATM   20  C   UNL     1     -10.686   2.298  63.535  1.00  0.00    -0.153 C  
HETATM   21  O   UNL     1     -10.628   3.541  62.826  1.00  0.00    -0.181 OA 
HETATM   22  C   UNL     1      -9.647   4.418  63.394  1.00  0.00    -0.027 C  
HETATM   23  C   UNL     1      -8.259   3.754  63.453  1.00  0.00    -0.089 C  
ENDBRANCH  17  18
ENDBRANCH  16  17
ENDBRANCH  14  16
ENDBRANCH   6  14
TORSDOF 5
ENDMDL
MODEL      148
REMARK 921   NORMALIZED FREE ENERGY PREDICTED BY IDOCK:   -2.95 KCAL/MOL
REMARK 922        TOTAL FREE ENERGY PREDICTED BY IDOCK:   -4.52 KCAL/MOL
REMARK 923 INTER-LIGAND FREE ENERGY PREDICTED BY IDOCK:   -5.05 KCAL/MOL
REMARK 924 INTRA-LIGAND FREE ENERGY PREDICTED BY IDOCK:    0.53 KCAL/MOL
REMARK 927      BINDING AFFINITY PREDICTED BY RF-SCORE:    0.00 PKD
ROOT
HETATM    1  C   UNL     1      -6.624  11.201  68.831  1.00  0.00    -0.065 C  
HETATM    2  C   UNL     1      -8.010  10.997  68.294  1.00  0.00    -0.124 A  
HETATM    3  C   UNL     1      -8.610  12.015  67.546  1.00  0.00    -0.167 A  
HETATM    4  C   UNL     1      -9.865  11.828  66.979  1.00  0.00    -0.197 A  
HETATM    5  N   UNL     1     -10.527  10.675  67.195  1.00  0.00    -0.231 NA 
HETATM    6  C   UNL     1      -8.701   9.799  68.468  1.00  0.00    -0.120 A  
HETATM    7  N   UNL     1      -9.933   9.657  67.931  1.00  0.00    -0.158 NA 
ENDROOT
BRANCH   4   8
HETATM    8  C   UNL     1     -10.508  12.852  66.140  1.00  0.00    -0.283 A  
HETATM    9  C   UNL     1     -10.499  15.100  65.162  1.00  0.00    -0.437 A  
HETATM   10  C   UNL     1      -9.869  14.084  65.881  1.00  0.00    -0.302 A  
HETATM   11  C   UNL     1     -11.790  12.663  65.593  1.00  0.00    -0.488 A  
HETATM   12  C   UNL     1     -11.781  14.901  64.664  1.00  0.00    -0.406 A  
HETATM   13  C   UNL     1     -12.421  13.680  64.868  1.00  0.00    -0.423 A  
ENDBRANCH   4   8
BRANCH   6  14
HETATM   14  N   UNL     1      -8.061   8.742  69.125  1.00  0.00    -0.116 NA 
HETATM   15  H   UNL     1      -7.084   8.796  69.411  1.00  0.00     0.000 HD 
BRANCH  14  16
HETATM   16  C   UNL     1      -8.872   7.560  69.375  1.00  0.00    -0.136 C  
BRANCH  16  17
HETATM   17  C   UNL     1      -9.309   7.543  70.858  1.00  0.00    -0.154 C  
BRANCH  17  18
HETATM   18  N   UNL     1     -10.334   6.529  71.205  1.00  0.00    -0.203 NA 
HETATM   19  C   UNL     1     -11.207   6.177  70.061  1.00  0.00    -0.401 C  
HETATM   20  C   UNL     1     -10.489   5.392  68.950  1.00  0.00    -0.168 C  
HETATM   21  O   UNL     1      -9.890   4.195  69.461  1.00  0.00    -0.206 OA 
HETATM   22  C   UNL     1      -8.989   4.483  70.537  1.00  0.00    -0.105 C  
HETATM   23  C   UNL     1      -9.685   5.273  71.662  1.00  0.00    -0.160 C  
ENDBRANCH  17  18
ENDBRANCH  16  17
ENDBRANCH  14  16
ENDBRANCH   6  14
TORSDOF 5
ENDMDL
MODEL      149
REMARK 921   NORMALIZED FREE ENERGY PREDICTED BY IDOCK:   -2.86 KCAL/MOL
REMARK 922        TOTAL FREE ENERGY PREDICTED BY IDOCK:   -4.40 KCAL/MOL
REMARK 923 INTER-LIGAND FREE ENERGY PREDICTED BY IDOCK:   -3.75 KCAL/MOL
REMARK 924 INTRA-LIGAND FREE ENERGY PREDICTED BY IDOCK:   -0.65 KCAL/MOL
REMARK 927      BINDING AFFINITY PREDICTED BY RF-SCORE:    0.00 PKD
ROOT
HETATM    1  C   UNL     1      -6.995   6.356  69.349  1.00  0.00    -0.071 C  
HETATM    2  C   UNL     1      -7.631   6.704  68.035  1.00  0.00    -0.107 A  
HETATM    3  C   UNL     1      -7.788   5.707  67.067  1.00  0.00    -0.101 A  
HETATM    4  C   UNL     1      -8.434   5.983  65.868  1.00  0.00    -0.143 A  
HETATM    5  N   UNL     1      -8.865   7.235  65.619  1.00  0.00    -0.075 NA 
HETATM    6  C   UNL     1      -8.122   7.980  67.767  1.00  0.00    -0.128 A  
HETATM    7  N   UNL     1      -8.718   8.229  66.579  1.00  0.00    -0.134 NA 
ENDROOT
BRANCH   4   8
HETATM    8  C   UNL     1      -8.670   4.951  64.847  1.00  0.00    -0.150 A  
HETATM    9  C   UNL     1      -9.913   2.987  64.068  1.00  0.00    -0.162 A  
HETATM   10  C   UNL     1      -9.728   4.026  64.980  1.00  0.00    -0.195 A  
HETATM   11  C   UNL     1      -7.837   4.819  63.721  1.00  0.00    -0.085 A  
HETATM   12  C   UNL     1      -9.053   2.857  62.985  1.00  0.00    -0.091 A  
HETATM   13  C   UNL     1      -8.024   3.779  62.804  1.00  0.00    -0.071 A  
ENDBRANCH   4   8
BRANCH   6  14
HETATM   14  N   UNL     1      -8.060   8.951  68.773  1.00  0.00    -0.112 NA 
HETATM   15  H   UNL     1      -8.137   8.711  69.761  1.00  0.00     0.000 HD 
BRANCH  14  16
HETATM   16  C   UNL     1      -7.879  10.324  68.326  1.00  0.00    -0.101 C  
BRANCH  16  17
HETATM   17  C   UNL     1      -9.092  11.173  68.774  1.00  0.00    -0.139 C  
BRANCH  17  18
HETATM   18  N   UNL     1      -9.315  12.416  67.999  1.00  0.00    -0.198 NA 
HETATM   19  C   UNL     1      -9.472  12.171  66.546  1.00  0.00    -0.231 C  
HETATM   20  C   UNL     1     -10.777  11.446  66.177  1.00  0.00    -0.267 C  
HETATM   21  O   UNL     1     -11.924  12.161  66.652  1.00  0.00    -0.616 OA 
HETATM   22  C   UNL     1     -11.851  12.378  68.067  1.00  0.00    -0.316 C  
HETATM   23  C   UNL     1     -10.549  13.101  68.462  1.00  0.00    -0.259 C  
ENDBRANCH  17  18
ENDBRANCH  16  17
ENDBRANCH  14  16
ENDBRANCH   6  14
TORSDOF 5
ENDMDL
MODEL      150
REMARK 921   NORMALIZED FREE ENERGY PREDICTED BY IDOCK:   -2.69 KCAL/MOL
REMARK 922        TOTAL FREE ENERGY PREDICTED BY IDOCK:   -4.18 KCAL/MOL
REMARK 923 INTER-LIGAND FREE ENERGY PREDICTED BY IDOCK:   -3.97 KCAL/MOL
REMARK 924 INTRA-LIGAND FREE ENERGY PREDICTED BY IDOCK:   -0.21 KCAL/MOL
REMARK 927      BINDING AFFINITY PREDICTED BY RF-SCORE:    0.00 PKD
ROOT
HETATM    1  C   UNL     1      -7.034   4.931  67.399  1.00  0.00    -0.061 C  
HETATM    2  C   UNL     1      -8.317   5.702  67.515  1.00  0.00    -0.100 A  
HETATM    3  C   UNL     1      -8.367   7.019  67.048  1.00  0.00    -0.121 A  
HETATM    4  C   UNL     1      -9.558   7.734  67.080  1.00  0.00    -0.184 A  
HETATM    5  N   UNL     1     -10.659   7.167  67.612  1.00  0.00    -0.236 NA 
HETATM    6  C   UNL     1      -9.480   5.128  68.024  1.00  0.00    -0.127 A  
HETATM    7  N   UNL     1     -10.617   5.857  68.072  1.00  0.00    -0.243 NA 
ENDROOT
BRANCH   4   8
HETATM    8  C   UNL     1      -9.667   9.101  66.549  1.00  0.00    -0.306 A  
HETATM    9  C   UNL     1     -10.931  11.190  66.317  1.00  0.00    -0.227 A  
HETATM   10  C   UNL     1     -10.766   9.924  66.880  1.00  0.00    -0.195 A  
HETATM   11  C   UNL     1      -8.708   9.632  65.667  1.00  0.00    -0.163 A  
HETATM   12  C   UNL     1      -9.987  11.675  65.420  1.00  0.00    -0.287 A  
HETATM   13  C   UNL     1      -8.870  10.903  65.106  1.00  0.00    -0.167 A  
ENDBRANCH   4   8
BRANCH   6  14
HETATM   14  N   UNL     1      -9.460   3.778  68.394  1.00  0.00    -0.164 NA 
HETATM   15  H   UNL     1      -9.670   3.033  67.730  1.00  0.00     0.000 HD 
BRANCH  14  16
HETATM   16  C   UNL     1      -9.120   3.500  69.782  1.00  0.00    -0.127 C  
BRANCH  16  17
HETATM   17  C   UNL     1      -9.887   4.478  70.702  1.00  0.00    -0.222 C  
BRANCH  17  18
HETATM   18  N   UNL     1      -9.258   4.731  72.020  1.00  0.00    -0.134 NA 
HETATM   19  C   UNL     1     -10.118   5.525  72.929  1.00  0.00    -0.176 C  
HETATM   20  C   UNL     1     -11.364   4.769  73.422  1.00  0.00    -0.312 C  
HETATM   21  O   UNL     1     -11.006   3.545  74.076  1.00  0.00    -0.205 OA 
HETATM   22  C   UNL     1     -10.216   2.711  73.219  1.00  0.00    -0.127 C  
HETATM   23  C   UNL     1      -8.963   3.447  72.709  1.00  0.00    -0.088 C  
ENDBRANCH  17  18
ENDBRANCH  16  17
ENDBRANCH  14  16
ENDBRANCH   6  14
TORSDOF 5
ENDMDL
MODEL      151
REMARK 921   NORMALIZED FREE ENERGY PREDICTED BY IDOCK:   -2.61 KCAL/MOL
REMARK 922        TOTAL FREE ENERGY PREDICTED BY IDOCK:   -4.08 KCAL/MOL
REMARK 923 INTER-LIGAND FREE ENERGY PREDICTED BY IDOCK:   -3.34 KCAL/MOL
REMARK 924 INTRA-LIGAND FREE ENERGY PREDICTED BY IDOCK:   -0.74 KCAL/MOL
REMARK 927      BINDING AFFINITY PREDICTED BY RF-SCORE:    0.00 PKD
ROOT
HETATM    1  C   UNL     1      -5.544  11.200  69.005  1.00  0.00    -0.040 C  
HETATM    2  C   UNL     1      -6.795  10.942  68.216  1.00  0.00    -0.067 A  
HETATM    3  C   UNL     1      -7.756  11.952  68.110  1.00  0.00    -0.126 A  
HETATM    4  C   UNL     1      -8.891  11.767  67.330  1.00  0.00    -0.167 A  
HETATM    5  N   UNL     1      -9.088  10.584  66.714  1.00  0.00    -0.150 NA 
HETATM    6  C   UNL     1      -7.005   9.744  67.536  1.00  0.00    -0.083 A  
HETATM    7  N   UNL     1      -8.134   9.580  66.811  1.00  0.00    -0.109 NA 
ENDROOT
BRANCH   4   8
HETATM    8  C   UNL     1      -9.899  12.823  67.147  1.00  0.00    -0.216 A  
HETATM    9  C   UNL     1     -11.196  14.694  68.057  1.00  0.00    -0.307 A  
HETATM   10  C   UNL     1     -10.183  13.742  68.180  1.00  0.00    -0.253 A  
HETATM   11  C   UNL     1     -10.641  12.940  65.958  1.00  0.00    -0.287 A  
HETATM   12  C   UNL     1     -11.939  14.764  66.885  1.00  0.00    -0.212 A  
HETATM   13  C   UNL     1     -11.654  13.897  65.832  1.00  0.00    -0.348 A  
ENDBRANCH   4   8
BRANCH   6  14
HETATM   14  N   UNL     1      -5.998   8.773  67.555  1.00  0.00    -0.047 NA 
HETATM   15  H   UNL     1      -5.009   9.019  67.512  1.00  0.00     0.000 HD 
BRANCH  14  16
HETATM   16  C   UNL     1      -6.444   7.390  67.639  1.00  0.00    -0.056 C  
BRANCH  16  17
HETATM   17  C   UNL     1      -6.952   7.102  69.071  1.00  0.00    -0.075 C  
BRANCH  17  18
HETATM   18  N   UNL     1      -8.426   7.021  69.214  1.00  0.00    -0.132 NA 
HETATM   19  C   UNL     1      -8.877   5.754  69.836  1.00  0.00    -0.127 C  
HETATM   20  C   UNL     1      -8.504   5.625  71.323  1.00  0.00    -0.128 C  
HETATM   21  O   UNL     1      -9.018   6.725  72.086  1.00  0.00    -0.134 OA 
HETATM   22  C   UNL     1      -8.566   7.978  71.559  1.00  0.00    -0.128 C  
HETATM   23  C   UNL     1      -8.925   8.129  70.069  1.00  0.00    -0.143 C  
ENDBRANCH  17  18
ENDBRANCH  16  17
ENDBRANCH  14  16
ENDBRANCH   6  14
TORSDOF 5
ENDMDL
MODEL      152
REMARK 921   NORMALIZED FREE ENERGY PREDICTED BY IDOCK:   -2.59 KCAL/MOL
REMARK 922        TOTAL FREE ENERGY PREDICTED BY IDOCK:   -4.06 KCAL/MOL
REMARK 923 INTER-LIGAND FREE ENERGY PREDICTED BY IDOCK:   -3.55 KCAL/MOL
REMARK 924 INTRA-LIGAND FREE ENERGY PREDICTED BY IDOCK:   -0.51 KCAL/MOL
REMARK 927      BINDING AFFINITY PREDICTED BY RF-SCORE:    0.00 PKD
ROOT
HETATM    1  C   UNL     1      -6.848   8.517  73.418  1.00  0.00    -0.076 C  
HETATM    2  C   UNL     1      -7.773   7.593  72.682  1.00  0.00    -0.116 A  
HETATM    3  C   UNL     1      -7.942   6.284  73.144  1.00  0.00    -0.106 A  
HETATM    4  C   UNL     1      -8.844   5.427  72.523  1.00  0.00    -0.130 A  
HETATM    5  N   UNL     1      -9.520   5.848  71.437  1.00  0.00    -0.150 NA 
HETATM    6  C   UNL     1      -8.516   8.014  71.580  1.00  0.00    -0.125 A  
HETATM    7  N   UNL     1      -9.362   7.150  70.977  1.00  0.00    -0.159 NA 
ENDROOT
BRANCH   4   8
HETATM    8  C   UNL     1      -9.092   4.062  73.011  1.00  0.00    -0.123 A  
HETATM    9  C   UNL     1     -10.354   2.519  74.439  1.00  0.00    -0.196 A  
HETATM   10  C   UNL     1     -10.156   3.790  73.898  1.00  0.00    -0.187 A  
HETATM   11  C   UNL     1      -8.266   2.983  72.646  1.00  0.00    -0.071 A  
HETATM   12  C   UNL     1      -9.500   1.479  74.090  1.00  0.00    -0.079 A  
HETATM   13  C   UNL     1      -8.466   1.707  73.185  1.00  0.00    -0.057 A  
ENDBRANCH   4   8
BRANCH   6  14
HETATM   14  N   UNL     1      -8.428   9.352  71.181  1.00  0.00    -0.300 NA 
HETATM   15  H   UNL     1      -7.708   9.978  71.543  1.00  0.00     0.000 HD 
BRANCH  14  16
HETATM   16  C   UNL     1      -9.423   9.799  70.218  1.00  0.00    -0.195 C  
BRANCH  16  17
HETATM   17  C   UNL     1      -8.714  10.255  68.922  1.00  0.00    -0.152 C  
BRANCH  17  18
HETATM   18  N   UNL     1      -9.080  11.610  68.444  1.00  0.00    -0.185 NA 
HETATM   19  C   UNL     1      -8.607  11.885  67.067  1.00  0.00    -0.176 C  
HETATM   20  C   UNL     1      -9.333  11.067  65.986  1.00  0.00    -0.201 C  
HETATM   21  O   UNL     1     -10.750  11.276  66.038  1.00  0.00    -0.267 OA 
HETATM   22  C   UNL     1     -11.272  10.971  67.337  1.00  0.00    -0.285 C  
HETATM   23  C   UNL     1     -10.557  11.776  68.439  1.00  0.00    -0.216 C  
ENDBRANCH  17  18
ENDBRANCH  16  17
ENDBRANCH  14  16
ENDBRANCH   6  14
TORSDOF 5
ENDMDL
MODEL      153
REMARK 921   NORMALIZED FREE ENERGY PREDICTED BY IDOCK:   -2.38 KCAL/MOL
REMARK 922        TOTAL FREE ENERGY PREDICTED BY IDOCK:   -3.79 KCAL/MOL
REMARK 923 INTER-LIGAND FREE ENERGY PREDICTED BY IDOCK:   -4.49 KCAL/MOL
REMARK 924 INTRA-LIGAND FREE ENERGY PREDICTED BY IDOCK:    0.70 KCAL/MOL
REMARK 927      BINDING AFFINITY PREDICTED BY RF-SCORE:    0.00 PKD
ROOT
HETATM    1  C   UNL     1      -7.053  15.260  67.807  1.00  0.00    -0.180 C  
HETATM    2  C   UNL     1      -7.765  13.945  67.678  1.00  0.00    -0.193 A  
HETATM    3  C   UNL     1      -7.429  12.899  68.542  1.00  0.00    -0.123 A  
HETATM    4  C   UNL     1      -8.118  11.693  68.492  1.00  0.00    -0.145 A  
HETATM    5  N   UNL     1      -9.082  11.517  67.567  1.00  0.00    -0.163 NA 
HETATM    6  C   UNL     1      -8.793  13.749  66.758  1.00  0.00    -0.138 A  
HETATM    7  N   UNL     1      -9.425  12.555  66.709  1.00  0.00    -0.225 NA 
ENDROOT
BRANCH   4   8
HETATM    8  C   UNL     1      -7.834  10.587  69.419  1.00  0.00    -0.151 A  
HETATM    9  C   UNL     1      -8.596   8.617  70.664  1.00  0.00    -0.183 A  
HETATM   10  C   UNL     1      -8.818   9.621  69.721  1.00  0.00    -0.224 A  
HETATM   11  C   UNL     1      -6.591  10.465  70.067  1.00  0.00    -0.137 A  
HETATM   12  C   UNL     1      -7.372   8.541  71.316  1.00  0.00    -0.095 A  
HETATM   13  C   UNL     1      -6.366   9.455  71.009  1.00  0.00    -0.082 A  
ENDBRANCH   4   8
BRANCH   6  14
HETATM   14  N   UNL     1      -9.202  14.827  65.964  1.00  0.00    -0.504 NA 
HETATM   15  H   UNL     1      -8.911  15.784  66.161  1.00  0.00     0.000 HD 
BRANCH  14  16
HETATM   16  C   UNL     1     -10.067  14.502  64.840  1.00  0.00    -0.210 C  
BRANCH  16  17
HETATM   17  C   UNL     1     -11.329  15.394  64.889  1.00  0.00    -0.363 C  
BRANCH  17  18
HETATM   18  N   UNL     1     -12.584  14.740  64.447  1.00  0.00    -0.632 NA 
HETATM   19  C   UNL     1     -12.370  13.754  63.362  1.00  0.00     0.001 C  
HETATM   20  C   UNL     1     -11.612  12.493  63.809  1.00  0.00    -0.475 C  
HETATM   21  O   UNL     1     -12.277  11.844  64.900  1.00  0.00    -0.280 OA 
HETATM   22  C   UNL     1     -12.461  12.740  66.003  1.00  0.00    -0.005 C  
HETATM   23  C   UNL     1     -13.216  14.014  65.579  1.00  0.00     0.019 C  
ENDBRANCH  17  18
ENDBRANCH  16  17
ENDBRANCH  14  16
ENDBRANCH   6  14
TORSDOF 5
ENDMDL
MODEL      154
REMARK 921   NORMALIZED FREE ENERGY PREDICTED BY IDOCK:   -2.37 KCAL/MOL
REMARK 922        TOTAL FREE ENERGY PREDICTED BY IDOCK:   -3.77 KCAL/MOL
REMARK 923 INTER-LIGAND FREE ENERGY PREDICTED BY IDOCK:   -3.81 KCAL/MOL
REMARK 924 INTRA-LIGAND FREE ENERGY PREDICTED BY IDOCK:    0.04 KCAL/MOL
REMARK 927      BINDING AFFINITY PREDICTED BY RF-SCORE:    0.00 PKD
ROOT
HETATM    1  C   UNL     1      -7.199  16.977  68.457  1.00  0.00    -0.209 C  
HETATM    2  C   UNL     1      -7.823  15.624  68.273  1.00  0.00    -0.128 A  
HETATM    3  C   UNL     1      -7.000  14.494  68.222  1.00  0.00    -0.111 A  
HETATM    4  C   UNL     1      -7.553  13.223  68.122  1.00  0.00    -0.141 A  
HETATM    5  N   UNL     1      -8.890  13.086  68.022  1.00  0.00    -0.185 NA 
HETATM    6  C   UNL     1      -9.204  15.450  68.208  1.00  0.00    -0.188 A  
HETATM    7  N   UNL     1      -9.712  14.204  68.079  1.00  0.00    -0.219 NA 
ENDROOT
BRANCH   4   8
HETATM    8  C   UNL     1      -6.727  12.006  68.121  1.00  0.00    -0.064 A  
HETATM    9  C   UNL     1      -5.918   9.996  66.973  1.00  0.00    -0.051 A  
HETATM   10  C   UNL     1      -6.624  11.199  66.967  1.00  0.00    -0.108 A  
HETATM   11  C   UNL     1      -6.038  11.577  69.270  1.00  0.00    -0.068 A  
HETATM   12  C   UNL     1      -5.276   9.578  68.133  1.00  0.00    -0.036 A  
HETATM   13  C   UNL     1      -5.325  10.373  69.276  1.00  0.00    -0.038 A  
ENDBRANCH   4   8
BRANCH   6  14
HETATM   14  N   UNL     1     -10.032  16.567  68.364  1.00  0.00    -0.240 NA 
HETATM   15  H   UNL     1      -9.658  17.489  68.590  1.00  0.00     0.000 HD 
BRANCH  14  16
HETATM   16  C   UNL     1     -11.458  16.336  68.186  1.00  0.00    -0.173 C  
BRANCH  16  17
HETATM   17  C   UNL     1     -11.960  15.367  69.281  1.00  0.00    -0.310 C  
BRANCH  17  18
HETATM   18  N   UNL     1     -12.712  16.001  70.391  1.00  0.00    -0.209 NA 
HETATM   19  C   UNL     1     -13.725  15.101  70.991  1.00  0.00    -0.382 C  
HETATM   20  C   UNL     1     -13.122  13.925  71.778  1.00  0.00    -0.377 C  
HETATM   21  O   UNL     1     -12.242  14.386  72.811  1.00  0.00    -0.144 OA 
HETATM   22  C   UNL     1     -11.205  15.219  72.277  1.00  0.00    -0.150 C  
HETATM   23  C   UNL     1     -11.785  16.403  71.480  1.00  0.00    -0.277 C  
ENDBRANCH  17  18
ENDBRANCH  16  17
ENDBRANCH  14  16
ENDBRANCH   6  14
TORSDOF 5
ENDMDL
MODEL      155
REMARK 921   NORMALIZED FREE ENERGY PREDICTED BY IDOCK:   -2.09 KCAL/MOL
REMARK 922        TOTAL FREE ENERGY PREDICTED BY IDOCK:   -3.42 KCAL/MOL
REMARK 923 INTER-LIGAND FREE ENERGY PREDICTED BY IDOCK:   -2.85 KCAL/MOL
REMARK 924 INTRA-LIGAND FREE ENERGY PREDICTED BY IDOCK:   -0.57 KCAL/MOL
REMARK 927      BINDING AFFINITY PREDICTED BY RF-SCORE:    0.00 PKD
ROOT
HETATM    1  C   UNL     1      -9.560  10.558  68.642  1.00  0.00    -0.171 C  
HETATM    2  C   UNL     1      -8.185  11.033  68.274  1.00  0.00    -0.130 A  
HETATM    3  C   UNL     1      -7.888  12.397  68.357  1.00  0.00    -0.142 A  
HETATM    4  C   UNL     1      -6.604  12.858  68.088  1.00  0.00    -0.093 A  
HETATM    5  N   UNL     1      -5.655  11.986  67.696  1.00  0.00    -0.074 NA 
HETATM    6  C   UNL     1      -7.173  10.149  67.904  1.00  0.00    -0.086 A  
HETATM    7  N   UNL     1      -5.942  10.628  67.618  1.00  0.00    -0.044 NA 
ENDROOT
BRANCH   4   8
HETATM    8  C   UNL     1      -6.236  14.276  68.217  1.00  0.00    -0.117 A  
HETATM    9  C   UNL     1      -5.221  16.091  69.515  1.00  0.00    -0.111 A  
HETATM   10  C   UNL     1      -5.504  14.737  69.332  1.00  0.00    -0.093 A  
HETATM   11  C   UNL     1      -6.625  15.231  67.261  1.00  0.00    -0.010 A  
HETATM   12  C   UNL     1      -5.649  17.019  68.573  1.00  0.00    -0.135 A  
HETATM   13  C   UNL     1      -6.339  16.589  67.441  1.00  0.00    -0.199 A  
ENDBRANCH   4   8
BRANCH   6  14
HETATM   14  N   UNL     1      -7.438   8.775  67.922  1.00  0.00    -0.092 NA 
HETATM   15  H   UNL     1      -7.895   8.303  67.143  1.00  0.00     0.000 HD 
BRANCH  14  16
HETATM   16  C   UNL     1      -7.023   8.060  69.120  1.00  0.00    -0.057 C  
BRANCH  16  17
HETATM   17  C   UNL     1      -8.238   7.311  69.716  1.00  0.00    -0.130 C  
BRANCH  17  18
HETATM   18  N   UNL     1      -8.103   6.918  71.139  1.00  0.00    -0.109 NA 
HETATM   19  C   UNL     1      -8.341   8.043  72.074  1.00  0.00    -0.139 C  
HETATM   20  C   UNL     1      -9.803   8.518  72.115  1.00  0.00    -0.318 C  
HETATM   21  O   UNL     1     -10.691   7.443  72.449  1.00  0.00    -0.225 OA 
HETATM   22  C   UNL     1     -10.542   6.346  71.539  1.00  0.00    -0.231 C  
HETATM   23  C   UNL     1      -9.083   5.854  71.478  1.00  0.00    -0.143 C  
ENDBRANCH  17  18
ENDBRANCH  16  17
ENDBRANCH  14  16
ENDBRANCH   6  14
TORSDOF 5
ENDMDL
MODEL      156
REMARK 921   NORMALIZED FREE ENERGY PREDICTED BY IDOCK:   -1.94 KCAL/MOL
REMARK 922        TOTAL FREE ENERGY PREDICTED BY IDOCK:   -3.21 KCAL/MOL
REMARK 923 INTER-LIGAND FREE ENERGY PREDICTED BY IDOCK:   -2.65 KCAL/MOL
REMARK 924 INTRA-LIGAND FREE ENERGY PREDICTED BY IDOCK:   -0.56 KCAL/MOL
REMARK 927      BINDING AFFINITY PREDICTED BY RF-SCORE:    0.00 PKD
ROOT
HETATM    1  C   UNL     1      -9.826  10.610  68.533  1.00  0.00    -0.175 C  
HETATM    2  C   UNL     1      -8.828  11.612  68.030  1.00  0.00    -0.162 A  
HETATM    3  C   UNL     1      -9.180  12.965  67.988  1.00  0.00    -0.212 A  
HETATM    4  C   UNL     1      -8.254  13.923  67.592  1.00  0.00    -0.177 A  
HETATM    5  N   UNL     1      -7.025  13.535  67.197  1.00  0.00    -0.042 NA 
HETATM    6  C   UNL     1      -7.538  11.244  67.654  1.00  0.00    -0.106 A  
HETATM    7  N   UNL     1      -6.668  12.194  67.243  1.00  0.00    -0.143 NA 
ENDROOT
BRANCH   4   8
HETATM    8  C   UNL     1      -8.565  15.360  67.586  1.00  0.00    -0.176 A  
HETATM    9  C   UNL     1      -8.433  17.561  68.659  1.00  0.00    -0.258 A  
HETATM   10  C   UNL     1      -8.077  16.213  68.599  1.00  0.00    -0.203 A  
HETATM   11  C   UNL     1      -9.385  15.937  66.599  1.00  0.00    -0.274 A  
HETATM   12  C   UNL     1      -9.274  18.096  67.691  1.00  0.00    -0.259 A  
HETATM   13  C   UNL     1      -9.740  17.289  66.655  1.00  0.00    -0.295 A  
ENDBRANCH   4   8
BRANCH   6  14
HETATM   14  N   UNL     1      -7.150   9.907  67.796  1.00  0.00    -0.086 NA 
HETATM   15  H   UNL     1      -7.613   9.154  67.287  1.00  0.00     0.000 HD 
BRANCH  14  16
HETATM   16  C   UNL     1      -6.047   9.654  68.711  1.00  0.00    -0.042 C  
BRANCH  16  17
HETATM   17  C   UNL     1      -6.403   8.457  69.622  1.00  0.00    -0.036 C  
BRANCH  17  18
HETATM   18  N   UNL     1      -5.718   8.438  70.938  1.00  0.00    -0.032 NA 
HETATM   19  C   UNL     1      -6.382   9.297  71.946  1.00  0.00     0.087 C  
HETATM   20  C   UNL     1      -7.753   8.769  72.405  1.00  0.00     0.133 C  
HETATM   21  O   UNL     1      -7.652   7.438  72.924  1.00  0.00    -0.077 OA 
HETATM   22  C   UNL     1      -7.064   6.549  71.965  1.00  0.00    -0.081 C  
HETATM   23  C   UNL     1      -5.691   7.059  71.488  1.00  0.00    -0.036 C  
ENDBRANCH  17  18
ENDBRANCH  16  17
ENDBRANCH  14  16
ENDBRANCH   6  14
TORSDOF 5
ENDMDL
MODEL      157
REMARK 921   NORMALIZED FREE ENERGY PREDICTED BY IDOCK:   -1.60 KCAL/MOL
REMARK 922        TOTAL FREE ENERGY PREDICTED BY IDOCK:   -2.78 KCAL/MOL
REMARK 923 INTER-LIGAND FREE ENERGY PREDICTED BY IDOCK:   -3.69 KCAL/MOL
REMARK 924 INTRA-LIGAND FREE ENERGY PREDICTED BY IDOCK:    0.91 KCAL/MOL
REMARK 927      BINDING AFFINITY PREDICTED BY RF-SCORE:    0.00 PKD
ROOT
HETATM    1  C   UNL     1     -10.463  11.866  67.238  1.00  0.00    -0.248 C  
HETATM    2  C   UNL     1     -10.162  10.418  66.986  1.00  0.00    -0.277 A  
HETATM    3  C   UNL     1      -9.355  10.067  65.899  1.00  0.00    -0.236 A  
HETATM    4  C   UNL     1      -9.002   8.740  65.680  1.00  0.00    -0.200 A  
HETATM    5  N   UNL     1      -9.487   7.782  66.495  1.00  0.00    -0.200 NA 
HETATM    6  C   UNL     1     -10.615   9.410  67.835  1.00  0.00    -0.237 A  
HETATM    7  N   UNL     1     -10.283   8.125  67.580  1.00  0.00    -0.217 NA 
ENDROOT
BRANCH   4   8
HETATM    8  C   UNL     1      -8.111   8.335  64.583  1.00  0.00    -0.150 A  
HETATM    9  C   UNL     1      -6.319   8.877  63.000  1.00  0.00    -0.090 A  
HETATM   10  C   UNL     1      -7.115   9.209  64.097  1.00  0.00    -0.095 A  
HETATM   11  C   UNL     1      -8.234   7.084  63.952  1.00  0.00     0.087 A  
HETATM   12  C   UNL     1      -6.487   7.649  62.372  1.00  0.00    -0.072 A  
HETATM   13  C   UNL     1      -7.434   6.748  62.854  1.00  0.00    -0.080 A  
ENDBRANCH   4   8
BRANCH   6  14
HETATM   14  N   UNL     1     -11.334   9.768  68.981  1.00  0.00    -0.464 NA 
HETATM   15  H   UNL     1     -12.318  10.033  68.940  1.00  0.00     0.000 HD 
BRANCH  14  16
HETATM   16  C   UNL     1     -10.596   9.738  70.235  1.00  0.00    -0.292 C  
BRANCH  16  17
HETATM   17  C   UNL     1     -10.191   8.281  70.556  1.00  0.00    -0.198 C  
BRANCH  17  18
HETATM   18  N   UNL     1     -11.320   7.346  70.782  1.00  0.00    -0.275 NA 
HETATM   19  C   UNL     1     -11.190   6.576  72.041  1.00  0.00    -0.273 C  
HETATM   20  C   UNL     1     -11.356   7.430  73.310  1.00  0.00    -0.029 C  
HETATM   21  O   UNL     1     -12.613   8.118  73.315  1.00  0.00     0.206 OA 
HETATM   22  C   UNL     1     -12.768   8.924  72.141  1.00  0.00    -0.405 C  
HETATM   23  C   UNL     1     -12.603   8.092  70.855  1.00  0.00     0.053 C  
ENDBRANCH  17  18
ENDBRANCH  16  17
ENDBRANCH  14  16
ENDBRANCH   6  14
TORSDOF 5
ENDMDL
