MODEL        1
REMARK 921   NORMALIZED FREE ENERGY PREDICTED BY IDOCK:   -6.45 KCAL/MOL
REMARK 922        TOTAL FREE ENERGY PREDICTED BY IDOCK:   -7.10 KCAL/MOL
REMARK 923 INTER-LIGAND FREE ENERGY PREDICTED BY IDOCK:   -6.82 KCAL/MOL
REMARK 924 INTRA-LIGAND FREE ENERGY PREDICTED BY IDOCK:   -0.27 KCAL/MOL
REMARK 927      BINDING AFFINITY PREDICTED BY RF-SCORE:    0.00 PKD
ROOT
HETATM    1  N   UNL     1     -13.188  11.866  64.427  1.00  0.00    -0.407 NA 
HETATM    2  H1  UNL     1     -13.390  11.794  63.430  1.00  0.00     0.000 HD 
HETATM    3  C   UNL     1     -12.621  13.048  64.969  1.00  0.00    -0.454 A  
HETATM    4  H2  UNL     1     -14.045  11.660  64.940  1.00  0.00     0.000 HD 
HETATM    5  C   UNL     1     -12.347  13.146  66.325  1.00  0.00    -0.346 A  
HETATM    6  C   UNL     1     -11.822  14.327  66.831  1.00  0.00    -0.433 A  
HETATM    7  N   UNL     1     -11.528  15.366  66.021  1.00  0.00    -0.098 NA 
HETATM    8  O   UNL     1     -12.559  14.029  62.862  1.00  0.00    -0.523 OA 
HETATM    9  C   UNL     1     -11.774  15.281  64.688  1.00  0.00    -0.308 A  
HETATM   10  H2  UNL     1     -10.493  16.627  64.010  1.00  0.00     0.000 HD 
HETATM   11  N   UNL     1     -12.321  14.121  64.128  1.00  0.00    -0.678 NA 
HETATM   12  N   UNL     1     -11.471  16.375  63.872  1.00  0.00    -1.618 NA 
HETATM   13  H1  UNL     1     -11.656  16.312  62.871  1.00  0.00     0.000 HD 
ENDROOT
BRANCH   6  14
HETATM   14  N   UNL     1     -11.733  14.480  68.208  1.00  0.00    -0.328 NA 
HETATM   15  C   UNL     1     -10.920  15.597  68.694  1.00  0.00    -0.294 C  
HETATM   16  C   UNL     1     -11.501  14.819  71.030  1.00  0.00    -0.263 C  
HETATM   17  C   UNL     1     -11.481  16.002  70.060  1.00  0.00    -0.334 C  
HETATM   18  C   UNL     1     -12.182  13.592  70.415  1.00  0.00    -0.426 C  
HETATM   19  C   UNL     1     -11.633  13.270  69.024  1.00  0.00    -0.312 C  
ENDBRANCH   6  14
TORSDOF 1
ENDMDL
MODEL        2
REMARK 921   NORMALIZED FREE ENERGY PREDICTED BY IDOCK:   -6.28 KCAL/MOL
REMARK 922        TOTAL FREE ENERGY PREDICTED BY IDOCK:   -6.92 KCAL/MOL
REMARK 923 INTER-LIGAND FREE ENERGY PREDICTED BY IDOCK:   -6.64 KCAL/MOL
REMARK 924 INTRA-LIGAND FREE ENERGY PREDICTED BY IDOCK:   -0.27 KCAL/MOL
REMARK 927      BINDING AFFINITY PREDICTED BY RF-SCORE:    0.00 PKD
ROOT
HETATM    1  N   UNL     1     -10.955   8.979  69.444  1.00  0.00    -0.408 NA 
HETATM    2  H1  UNL     1     -10.880   7.962  69.429  1.00  0.00     0.000 HD 
HETATM    3  C   UNL     1     -11.806   9.631  70.373  1.00  0.00    -0.155 A  
HETATM    4  H2  UNL     1     -10.017   9.365  69.547  1.00  0.00     0.000 HD 
HETATM    5  C   UNL     1     -11.908  11.014  70.394  1.00  0.00    -0.460 A  
HETATM    6  C   UNL     1     -12.724  11.624  71.335  1.00  0.00    -0.339 A  
HETATM    7  N   UNL     1     -13.460  10.894  72.202  1.00  0.00    -0.269 NA 
HETATM    8  O   UNL     1     -12.484   7.583  71.243  1.00  0.00    -0.328 OA 
HETATM    9  C   UNL     1     -13.386   9.538  72.184  1.00  0.00    -0.461 A  
HETATM   10  H2  UNL     1     -15.126   9.083  73.008  1.00  0.00     0.000 HD 
HETATM   11  N   UNL     1     -12.563   8.872  71.269  1.00  0.00    -0.295 NA 
HETATM   12  N   UNL     1     -14.148   8.806  73.099  1.00  0.00    -1.183 NA 
HETATM   13  H1  UNL     1     -14.093   7.788  73.086  1.00  0.00     0.000 HD 
ENDROOT
BRANCH   6  14
HETATM   14  N   UNL     1     -12.670  13.004  71.471  1.00  0.00    -0.301 NA 
HETATM   15  C   UNL     1     -13.753  13.634  72.227  1.00  0.00    -0.589 C  
HETATM   16  C   UNL     1     -12.611  15.841  71.754  1.00  0.00    -0.524 C  
HETATM   17  C   UNL     1     -13.191  14.924  72.831  1.00  0.00    -0.590 C  
HETATM   18  C   UNL     1     -11.627  15.098  70.844  1.00  0.00    -0.380 C  
HETATM   19  C   UNL     1     -12.212  13.784  70.321  1.00  0.00    -0.359 C  
ENDBRANCH   6  14
TORSDOF 1
ENDMDL
MODEL        3
REMARK 921   NORMALIZED FREE ENERGY PREDICTED BY IDOCK:   -6.24 KCAL/MOL
REMARK 922        TOTAL FREE ENERGY PREDICTED BY IDOCK:   -6.88 KCAL/MOL
REMARK 923 INTER-LIGAND FREE ENERGY PREDICTED BY IDOCK:   -6.62 KCAL/MOL
REMARK 924 INTRA-LIGAND FREE ENERGY PREDICTED BY IDOCK:   -0.27 KCAL/MOL
REMARK 927      BINDING AFFINITY PREDICTED BY RF-SCORE:    0.00 PKD
ROOT
HETATM    1  N   UNL     1     -12.622  13.959  63.471  1.00  0.00    -0.991 NA 
HETATM    2  H1  UNL     1     -12.601  14.553  62.643  1.00  0.00     0.000 HD 
HETATM    3  C   UNL     1     -12.045  14.395  64.692  1.00  0.00    -0.471 A  
HETATM    4  H2  UNL     1     -13.591  13.700  63.652  1.00  0.00     0.000 HD 
HETATM    5  C   UNL     1     -12.073  13.586  65.819  1.00  0.00    -0.473 A  
HETATM    6  C   UNL     1     -11.530  14.052  67.006  1.00  0.00    -0.351 A  
HETATM    7  N   UNL     1     -10.930  15.260  67.075  1.00  0.00    -0.326 NA 
HETATM    8  O   UNL     1     -11.385  16.396  63.708  1.00  0.00    -0.899 OA 
HETATM    9  C   UNL     1     -10.878  16.058  65.977  1.00  0.00    -0.190 A  
HETATM   10  H2  UNL     1      -9.316  17.182  66.436  1.00  0.00     0.000 HD 
HETATM   11  N   UNL     1     -11.428  15.646  64.759  1.00  0.00    -0.338 NA 
HETATM   12  N   UNL     1     -10.262  17.309  66.078  1.00  0.00    -0.475 NA 
HETATM   13  H1  UNL     1     -10.223  17.909  65.254  1.00  0.00     0.000 HD 
ENDROOT
BRANCH   6  14
HETATM   14  N   UNL     1     -11.734  13.318  68.167  1.00  0.00    -0.342 NA 
HETATM   15  C   UNL     1     -11.511  14.016  69.434  1.00  0.00    -0.290 C  
HETATM   16  C   UNL     1     -12.118  11.841  70.575  1.00  0.00    -0.439 C  
HETATM   17  C   UNL     1     -12.401  13.341  70.482  1.00  0.00    -0.389 C  
HETATM   18  C   UNL     1     -12.157  11.169  69.199  1.00  0.00    -0.352 C  
HETATM   19  C   UNL     1     -11.306  11.919  68.171  1.00  0.00    -0.288 C  
ENDBRANCH   6  14
TORSDOF 1
ENDMDL
MODEL        4
REMARK 921   NORMALIZED FREE ENERGY PREDICTED BY IDOCK:   -6.22 KCAL/MOL
REMARK 922        TOTAL FREE ENERGY PREDICTED BY IDOCK:   -6.85 KCAL/MOL
REMARK 923 INTER-LIGAND FREE ENERGY PREDICTED BY IDOCK:   -6.58 KCAL/MOL
REMARK 924 INTRA-LIGAND FREE ENERGY PREDICTED BY IDOCK:   -0.27 KCAL/MOL
REMARK 927      BINDING AFFINITY PREDICTED BY RF-SCORE:    0.00 PKD
ROOT
HETATM    1  N   UNL     1     -11.750  10.232  68.421  1.00  0.00    -0.698 NA 
HETATM    2  H1  UNL     1     -11.679   9.710  67.548  1.00  0.00     0.000 HD 
HETATM    3  C   UNL     1     -11.840  11.648  68.415  1.00  0.00    -0.278 A  
HETATM    4  H2  UNL     1     -12.543   9.866  68.947  1.00  0.00     0.000 HD 
HETATM    5  C   UNL     1     -11.937  12.359  69.602  1.00  0.00    -0.341 A  
HETATM    6  C   UNL     1     -12.056  13.740  69.562  1.00  0.00    -0.334 A  
HETATM    7  N   UNL     1     -12.031  14.412  68.391  1.00  0.00    -0.321 NA 
HETATM    8  O   UNL     1     -11.710  11.682  66.093  1.00  0.00    -0.415 OA 
HETATM    9  C   UNL     1     -11.919  13.734  67.220  1.00  0.00    -0.401 A  
HETATM   10  H2  UNL     1     -11.169  15.153  66.064  1.00  0.00     0.000 HD 
HETATM   11  N   UNL     1     -11.816  12.338  67.201  1.00  0.00    -0.566 NA 
HETATM   12  N   UNL     1     -11.908  14.451  66.020  1.00  0.00    -0.380 NA 
HETATM   13  H1  UNL     1     -11.824  13.942  65.140  1.00  0.00     0.000 HD 
ENDROOT
BRANCH   6  14
HETATM   14  N   UNL     1     -12.344  14.419  70.738  1.00  0.00    -0.323 NA 
HETATM   15  C   UNL     1     -13.526  13.977  71.481  1.00  0.00    -0.328 C  
HETATM   16  C   UNL     1     -12.986  15.801  73.149  1.00  0.00    -0.651 C  
HETATM   17  C   UNL     1     -13.284  14.314  72.955  1.00  0.00    -0.593 C  
HETATM   18  C   UNL     1     -11.876  16.285  72.209  1.00  0.00    -0.601 C  
HETATM   19  C   UNL     1     -12.131  15.867  70.759  1.00  0.00    -0.355 C  
ENDBRANCH   6  14
TORSDOF 1
ENDMDL
MODEL        5
REMARK 921   NORMALIZED FREE ENERGY PREDICTED BY IDOCK:   -6.15 KCAL/MOL
REMARK 922        TOTAL FREE ENERGY PREDICTED BY IDOCK:   -6.79 KCAL/MOL
REMARK 923 INTER-LIGAND FREE ENERGY PREDICTED BY IDOCK:   -6.55 KCAL/MOL
REMARK 924 INTRA-LIGAND FREE ENERGY PREDICTED BY IDOCK:   -0.24 KCAL/MOL
REMARK 927      BINDING AFFINITY PREDICTED BY RF-SCORE:    0.00 PKD
ROOT
HETATM    1  N   UNL     1     -11.630  13.670  68.240  1.00  0.00    -0.316 NA 
HETATM    2  H1  UNL     1     -12.228  12.846  68.183  1.00  0.00     0.000 HD 
HETATM    3  C   UNL     1     -11.376  14.464  67.092  1.00  0.00    -0.343 A  
HETATM    4  H2  UNL     1     -11.997  14.279  68.972  1.00  0.00     0.000 HD 
HETATM    5  C   UNL     1     -10.563  15.585  67.169  1.00  0.00    -0.300 A  
HETATM    6  C   UNL     1     -10.359  16.358  66.036  1.00  0.00    -0.352 A  
HETATM    7  N   UNL     1     -10.897  16.014  64.847  1.00  0.00    -0.611 NA 
HETATM    8  O   UNL     1     -12.682  13.053  65.784  1.00  0.00    -0.476 OA 
HETATM    9  C   UNL     1     -11.682  14.910  64.749  1.00  0.00    -0.402 A  
HETATM   10  H2  UNL     1     -11.489  14.514  62.820  1.00  0.00     0.000 HD 
HETATM   11  N   UNL     1     -11.938  14.105  65.865  1.00  0.00    -0.392 NA 
HETATM   12  N   UNL     1     -12.238  14.582  63.509  1.00  0.00    -1.046 NA 
HETATM   13  H1  UNL     1     -12.828  13.753  63.435  1.00  0.00     0.000 HD 
ENDROOT
BRANCH   6  14
HETATM   14  N   UNL     1      -9.704  17.575  66.169  1.00  0.00    -0.465 NA 
HETATM   15  C   UNL     1      -8.301  17.526  66.582  1.00  0.00    -0.261 C  
HETATM   16  C   UNL     1      -8.328  20.054  66.478  1.00  0.00    -0.353 C  
HETATM   17  C   UNL     1      -7.621  18.777  66.019  1.00  0.00    -0.251 C  
HETATM   18  C   UNL     1      -9.837  19.993  66.217  1.00  0.00    -0.576 C  
HETATM   19  C   UNL     1     -10.456  18.695  66.739  1.00  0.00    -0.408 C  
ENDBRANCH   6  14
TORSDOF 1
ENDMDL
MODEL        6
REMARK 921   NORMALIZED FREE ENERGY PREDICTED BY IDOCK:   -6.09 KCAL/MOL
REMARK 922        TOTAL FREE ENERGY PREDICTED BY IDOCK:   -6.73 KCAL/MOL
REMARK 923 INTER-LIGAND FREE ENERGY PREDICTED BY IDOCK:   -6.47 KCAL/MOL
REMARK 924 INTRA-LIGAND FREE ENERGY PREDICTED BY IDOCK:   -0.26 KCAL/MOL
REMARK 927      BINDING AFFINITY PREDICTED BY RF-SCORE:    0.00 PKD
ROOT
HETATM    1  N   UNL     1     -10.331  17.219  66.298  1.00  0.00    -0.339 NA 
HETATM    2  H1  UNL     1     -10.272  17.915  65.556  1.00  0.00     0.000 HD 
HETATM    3  C   UNL     1     -10.913  15.947  66.057  1.00  0.00    -0.139 A  
HETATM    4  H2  UNL     1      -9.393  17.073  66.672  1.00  0.00     0.000 HD 
HETATM    5  C   UNL     1     -10.993  15.000  67.068  1.00  0.00    -0.318 A  
HETATM    6  C   UNL     1     -11.538  13.755  66.793  1.00  0.00    -0.370 A  
HETATM    7  N   UNL     1     -12.038  13.462  65.573  1.00  0.00    -0.401 NA 
HETATM    8  O   UNL     1     -11.369  16.533  63.854  1.00  0.00    -1.057 OA 
HETATM    9  C   UNL     1     -11.984  14.384  64.577  1.00  0.00    -0.472 A  
HETATM   10  H2  UNL     1     -13.463  13.745  63.429  1.00  0.00     0.000 HD 
HETATM   11  N   UNL     1     -11.426  15.649  64.793  1.00  0.00    -0.338 NA 
HETATM   12  N   UNL     1     -12.497  14.053  63.319  1.00  0.00    -1.112 NA 
HETATM   13  H1  UNL     1     -12.457  14.745  62.571  1.00  0.00     0.000 HD 
ENDROOT
BRANCH   6  14
HETATM   14  N   UNL     1     -11.437  12.756  67.752  1.00  0.00    -0.304 NA 
HETATM   15  C   UNL     1     -11.432  13.187  69.151  1.00  0.00    -0.305 C  
HETATM   16  C   UNL     1     -11.208  10.741  69.757  1.00  0.00    -0.365 C  
HETATM   17  C   UNL     1     -11.998  12.031  69.981  1.00  0.00    -0.400 C  
HETATM   18  C   UNL     1     -11.054  10.421  68.266  1.00  0.00    -0.338 C  
HETATM   19  C   UNL     1     -10.549  11.628  67.471  1.00  0.00    -0.209 C  
ENDBRANCH   6  14
TORSDOF 1
ENDMDL
MODEL        7
REMARK 921   NORMALIZED FREE ENERGY PREDICTED BY IDOCK:   -6.03 KCAL/MOL
REMARK 922        TOTAL FREE ENERGY PREDICTED BY IDOCK:   -6.66 KCAL/MOL
REMARK 923 INTER-LIGAND FREE ENERGY PREDICTED BY IDOCK:   -6.41 KCAL/MOL
REMARK 924 INTRA-LIGAND FREE ENERGY PREDICTED BY IDOCK:   -0.25 KCAL/MOL
REMARK 927      BINDING AFFINITY PREDICTED BY RF-SCORE:    0.00 PKD
ROOT
HETATM    1  N   UNL     1     -12.034  12.119  67.544  1.00  0.00    -0.553 NA 
HETATM    2  H1  UNL     1     -12.631  11.358  67.220  1.00  0.00     0.000 HD 
HETATM    3  C   UNL     1     -11.697  13.195  66.683  1.00  0.00    -0.375 A  
HETATM    4  H2  UNL     1     -12.446  12.507  68.392  1.00  0.00     0.000 HD 
HETATM    5  C   UNL     1     -10.885  14.229  67.124  1.00  0.00    -0.296 A  
HETATM    6  C   UNL     1     -10.600  15.284  66.269  1.00  0.00    -0.309 A  
HETATM    7  N   UNL     1     -11.058  15.299  64.998  1.00  0.00    -0.408 NA 
HETATM    8  O   UNL     1     -12.919  12.238  64.951  1.00  0.00    -0.662 OA 
HETATM    9  C   UNL     1     -11.840  14.286  64.545  1.00  0.00    -0.442 A  
HETATM   10  H2  UNL     1     -11.518  14.440  62.599  1.00  0.00     0.000 HD 
HETATM   11  N   UNL     1     -12.176  13.207  65.371  1.00  0.00    -0.435 NA 
HETATM   12  N   UNL     1     -12.312  14.331  63.229  1.00  0.00    -1.092 NA 
HETATM   13  H1  UNL     1     -12.900  13.570  62.888  1.00  0.00     0.000 HD 
ENDROOT
BRANCH   6  14
HETATM   14  N   UNL     1      -9.950  16.399  66.779  1.00  0.00    -0.261 NA 
HETATM   15  C   UNL     1      -8.586  16.639  66.306  1.00  0.00    -0.324 C  
HETATM   16  C   UNL     1      -8.568  18.666  67.821  1.00  0.00    -0.294 C  
HETATM   17  C   UNL     1      -8.334  18.146  66.401  1.00  0.00    -0.272 C  
HETATM   18  C   UNL     1      -9.929  18.225  68.370  1.00  0.00    -0.401 C  
HETATM   19  C   UNL     1     -10.159  16.723  68.191  1.00  0.00    -0.282 C  
ENDBRANCH   6  14
TORSDOF 1
ENDMDL
MODEL        8
REMARK 921   NORMALIZED FREE ENERGY PREDICTED BY IDOCK:   -6.02 KCAL/MOL
REMARK 922        TOTAL FREE ENERGY PREDICTED BY IDOCK:   -6.65 KCAL/MOL
REMARK 923 INTER-LIGAND FREE ENERGY PREDICTED BY IDOCK:   -6.40 KCAL/MOL
REMARK 924 INTRA-LIGAND FREE ENERGY PREDICTED BY IDOCK:   -0.25 KCAL/MOL
REMARK 927      BINDING AFFINITY PREDICTED BY RF-SCORE:    0.00 PKD
ROOT
HETATM    1  N   UNL     1     -12.292  14.295  63.332  1.00  0.00    -1.126 NA 
HETATM    2  H1  UNL     1     -12.785  13.413  63.195  1.00  0.00     0.000 HD 
HETATM    3  C   UNL     1     -11.793  14.658  64.610  1.00  0.00    -0.452 A  
HETATM    4  H2  UNL     1     -11.519  14.332  62.667  1.00  0.00     0.000 HD 
HETATM    5  C   UNL     1     -11.122  15.857  64.796  1.00  0.00    -0.397 A  
HETATM    6  C   UNL     1     -10.618  16.169  66.050  1.00  0.00    -0.295 A  
HETATM    7  N   UNL     1     -10.812  15.350  67.106  1.00  0.00    -0.319 NA 
HETATM    8  O   UNL     1     -12.633  12.696  65.534  1.00  0.00    -0.634 OA 
HETATM    9  C   UNL     1     -11.482  14.180  66.946  1.00  0.00    -0.357 A  
HETATM   10  H2  UNL     1     -12.103  13.877  68.800  1.00  0.00     0.000 HD 
HETATM   11  N   UNL     1     -11.994  13.806  65.698  1.00  0.00    -0.366 NA 
HETATM   12  N   UNL     1     -11.659  13.344  68.052  1.00  0.00    -0.313 NA 
HETATM   13  H1  UNL     1     -12.162  12.465  67.933  1.00  0.00     0.000 HD 
ENDROOT
BRANCH   6  14
HETATM   14  N   UNL     1      -9.787  17.274  66.178  1.00  0.00    -0.431 NA 
HETATM   15  C   UNL     1      -8.445  17.029  66.709  1.00  0.00    -0.234 C  
HETATM   16  C   UNL     1      -8.054  19.518  66.482  1.00  0.00    -0.325 C  
HETATM   17  C   UNL     1      -7.531  18.121  66.145  1.00  0.00    -0.297 C  
HETATM   18  C   UNL     1      -9.529  19.680  66.100  1.00  0.00    -0.441 C  
HETATM   19  C   UNL     1     -10.388  18.529  66.629  1.00  0.00    -0.408 C  
ENDBRANCH   6  14
TORSDOF 1
ENDMDL
MODEL        9
REMARK 921   NORMALIZED FREE ENERGY PREDICTED BY IDOCK:   -5.99 KCAL/MOL
REMARK 922        TOTAL FREE ENERGY PREDICTED BY IDOCK:   -6.62 KCAL/MOL
REMARK 923 INTER-LIGAND FREE ENERGY PREDICTED BY IDOCK:   -6.36 KCAL/MOL
REMARK 924 INTRA-LIGAND FREE ENERGY PREDICTED BY IDOCK:   -0.26 KCAL/MOL
REMARK 927      BINDING AFFINITY PREDICTED BY RF-SCORE:    0.00 PKD
ROOT
HETATM    1  N   UNL     1     -12.645  14.079  63.236  1.00  0.00    -1.005 NA 
HETATM    2  H1  UNL     1     -12.773  14.831  62.559  1.00  0.00     0.000 HD 
HETATM    3  C   UNL     1     -11.942  14.305  64.448  1.00  0.00    -0.456 A  
HETATM    4  H2  UNL     1     -13.563  13.699  63.467  1.00  0.00     0.000 HD 
HETATM    5  C   UNL     1     -11.768  13.283  65.369  1.00  0.00    -0.370 A  
HETATM    6  C   UNL     1     -11.105  13.543  66.559  1.00  0.00    -0.300 A  
HETATM    7  N   UNL     1     -10.582  14.762  66.818  1.00  0.00    -0.296 NA 
HETATM    8  O   UNL     1     -11.552  16.519  63.851  1.00  0.00    -1.175 OA 
HETATM    9  C   UNL     1     -10.729  15.769  65.920  1.00  0.00    -0.313 A  
HETATM   10  H2  UNL     1      -9.198  16.915  66.428  1.00  0.00     0.000 HD 
HETATM   11  N   UNL     1     -11.406  15.568  64.712  1.00  0.00    -0.399 NA 
HETATM   12  N   UNL     1     -10.189  17.025  66.217  1.00  0.00    -0.323 NA 
HETATM   13  H1  UNL     1     -10.299  17.782  65.542  1.00  0.00     0.000 HD 
ENDROOT
BRANCH   6  14
HETATM   14  N   UNL     1     -11.105  12.570  67.549  1.00  0.00    -0.254 NA 
HETATM   15  C   UNL     1     -11.309  13.030  68.924  1.00  0.00    -0.287 C  
HETATM   16  C   UNL     1     -11.088  10.607  69.617  1.00  0.00    -0.342 C  
HETATM   17  C   UNL     1     -11.945  11.871  69.697  1.00  0.00    -0.365 C  
HETATM   18  C   UNL     1     -10.717  10.262  68.171  1.00  0.00    -0.287 C  
HETATM   19  C   UNL     1     -10.149  11.469  67.422  1.00  0.00    -0.191 C  
ENDBRANCH   6  14
TORSDOF 1
ENDMDL
MODEL       10
REMARK 921   NORMALIZED FREE ENERGY PREDICTED BY IDOCK:   -5.93 KCAL/MOL
REMARK 922        TOTAL FREE ENERGY PREDICTED BY IDOCK:   -6.55 KCAL/MOL
REMARK 923 INTER-LIGAND FREE ENERGY PREDICTED BY IDOCK:   -6.29 KCAL/MOL
REMARK 924 INTRA-LIGAND FREE ENERGY PREDICTED BY IDOCK:   -0.27 KCAL/MOL
REMARK 927      BINDING AFFINITY PREDICTED BY RF-SCORE:    0.00 PKD
ROOT
HETATM    1  N   UNL     1      -8.808  12.939  66.605  1.00  0.00    -0.401 NA 
HETATM    2  H1  UNL     1      -8.955  11.987  66.270  1.00  0.00     0.000 HD 
HETATM    3  C   UNL     1      -9.576  14.016  66.092  1.00  0.00    -0.241 A  
HETATM    4  H2  UNL     1      -8.902  12.936  67.621  1.00  0.00     0.000 HD 
HETATM    5  C   UNL     1      -9.376  15.311  66.549  1.00  0.00    -0.309 A  
HETATM    6  C   UNL     1     -10.165  16.338  66.052  1.00  0.00    -0.358 A  
HETATM    7  N   UNL     1     -11.092  16.110  65.096  1.00  0.00    -0.299 NA 
HETATM    8  O   UNL     1     -10.714  12.574  64.667  1.00  0.00    -0.282 OA 
HETATM    9  C   UNL     1     -11.289  14.852  64.626  1.00  0.00    -0.357 A  
HETATM   10  H2  UNL     1     -12.076  15.260  62.857  1.00  0.00     0.000 HD 
HETATM   11  N   UNL     1     -10.535  13.775  65.106  1.00  0.00    -0.362 NA 
HETATM   12  N   UNL     1     -12.263  14.640  63.645  1.00  0.00    -1.049 NA 
HETATM   13  H1  UNL     1     -12.411  13.695  63.291  1.00  0.00     0.000 HD 
ENDROOT
BRANCH   6  14
HETATM   14  N   UNL     1     -10.087  17.588  66.651  1.00  0.00    -0.315 NA 
HETATM   15  C   UNL     1     -10.423  17.657  68.075  1.00  0.00    -0.394 C  
HETATM   16  C   UNL     1      -9.964  20.140  67.918  1.00  0.00    -0.537 C  
HETATM   17  C   UNL     1      -9.651  18.841  68.663  1.00  0.00    -0.432 C  
HETATM   18  C   UNL     1      -9.800  19.979  66.403  1.00  0.00    -0.578 C  
HETATM   19  C   UNL     1     -10.534  18.745  65.875  1.00  0.00    -0.376 C  
ENDBRANCH   6  14
TORSDOF 1
ENDMDL
MODEL       11
REMARK 921   NORMALIZED FREE ENERGY PREDICTED BY IDOCK:   -5.92 KCAL/MOL
REMARK 922        TOTAL FREE ENERGY PREDICTED BY IDOCK:   -6.54 KCAL/MOL
REMARK 923 INTER-LIGAND FREE ENERGY PREDICTED BY IDOCK:   -6.28 KCAL/MOL
REMARK 924 INTRA-LIGAND FREE ENERGY PREDICTED BY IDOCK:   -0.27 KCAL/MOL
REMARK 927      BINDING AFFINITY PREDICTED BY RF-SCORE:    0.00 PKD
ROOT
HETATM    1  N   UNL     1     -11.505  16.587  63.843  1.00  0.00    -1.599 NA 
HETATM    2  H1  UNL     1     -11.406  17.520  63.443  1.00  0.00     0.000 HD 
HETATM    3  C   UNL     1     -11.060  16.311  65.161  1.00  0.00    -0.212 A  
HETATM    4  H2  UNL     1     -12.486  16.315  63.775  1.00  0.00     0.000 HD 
HETATM    5  C   UNL     1     -11.194  15.042  65.705  1.00  0.00    -0.327 A  
HETATM    6  C   UNL     1     -10.779  14.811  67.008  1.00  0.00    -0.300 A  
HETATM    7  N   UNL     1     -10.201  15.785  67.742  1.00  0.00    -0.246 NA 
HETATM    8  O   UNL     1     -10.323  18.502  65.410  1.00  0.00    -0.479 OA 
HETATM    9  C   UNL     1     -10.045  17.029  67.220  1.00  0.00    -0.295 A  
HETATM   10  H2  UNL     1      -8.549  17.691  68.332  1.00  0.00     0.000 HD 
HETATM   11  N   UNL     1     -10.465  17.323  65.917  1.00  0.00    -0.472 NA 
HETATM   12  N   UNL     1      -9.455  18.025  68.004  1.00  0.00    -0.276 NA 
HETATM   13  H1  UNL     1      -9.338  18.959  67.613  1.00  0.00     0.000 HD 
ENDROOT
BRANCH   6  14
HETATM   14  N   UNL     1     -11.092  13.596  67.602  1.00  0.00    -0.266 NA 
HETATM   15  C   UNL     1     -11.456  12.498  66.704  1.00  0.00    -0.359 C  
HETATM   16  C   UNL     1     -11.767  11.088  68.781  1.00  0.00    -0.383 C  
HETATM   17  C   UNL     1     -11.088  11.193  67.414  1.00  0.00    -0.370 C  
HETATM   18  C   UNL     1     -11.538  12.345  69.627  1.00  0.00    -0.330 C  
HETATM   19  C   UNL     1     -11.856  13.624  68.850  1.00  0.00    -0.364 C  
ENDBRANCH   6  14
TORSDOF 1
ENDMDL
MODEL       12
REMARK 921   NORMALIZED FREE ENERGY PREDICTED BY IDOCK:   -5.89 KCAL/MOL
REMARK 922        TOTAL FREE ENERGY PREDICTED BY IDOCK:   -6.51 KCAL/MOL
REMARK 923 INTER-LIGAND FREE ENERGY PREDICTED BY IDOCK:   -6.25 KCAL/MOL
REMARK 924 INTRA-LIGAND FREE ENERGY PREDICTED BY IDOCK:   -0.26 KCAL/MOL
REMARK 927      BINDING AFFINITY PREDICTED BY RF-SCORE:    0.00 PKD
ROOT
HETATM    1  N   UNL     1     -12.338  14.083  63.172  1.00  0.00    -1.094 NA 
HETATM    2  H1  UNL     1     -12.808  13.262  62.791  1.00  0.00     0.000 HD 
HETATM    3  C   UNL     1     -11.923  14.118  64.528  1.00  0.00    -0.458 A  
HETATM    4  H2  UNL     1     -11.528  14.285  62.586  1.00  0.00     0.000 HD 
HETATM    5  C   UNL     1     -11.283  15.235  65.046  1.00  0.00    -0.409 A  
HETATM    6  C   UNL     1     -10.861  15.227  66.367  1.00  0.00    -0.317 A  
HETATM    7  N   UNL     1     -11.103  14.172  67.174  1.00  0.00    -0.299 NA 
HETATM    8  O   UNL     1     -12.783  11.988  64.885  1.00  0.00    -0.413 OA 
HETATM    9  C   UNL     1     -11.744  13.077  66.688  1.00  0.00    -0.381 A  
HETATM   10  H2  UNL     1     -12.469  12.323  68.367  1.00  0.00     0.000 HD 
HETATM   11  N   UNL     1     -12.174  13.023  65.357  1.00  0.00    -0.446 NA 
HETATM   12  N   UNL     1     -11.972  11.993  67.540  1.00  0.00    -0.578 NA 
HETATM   13  H1  UNL     1     -12.453  11.170  67.176  1.00  0.00     0.000 HD 
ENDROOT
BRANCH   6  14
HETATM   14  N   UNL     1     -10.057  16.267  66.816  1.00  0.00    -0.269 NA 
HETATM   15  C   UNL     1      -8.644  16.216  66.438  1.00  0.00    -0.330 C  
HETATM   16  C   UNL     1      -8.365  18.369  67.737  1.00  0.00    -0.273 C  
HETATM   17  C   UNL     1      -8.135  17.659  66.402  1.00  0.00    -0.302 C  
HETATM   18  C   UNL     1      -9.816  18.232  68.210  1.00  0.00    -0.366 C  
HETATM   19  C   UNL     1     -10.298  16.780  68.165  1.00  0.00    -0.318 C  
ENDBRANCH   6  14
TORSDOF 1
ENDMDL
MODEL       13
REMARK 921   NORMALIZED FREE ENERGY PREDICTED BY IDOCK:   -5.86 KCAL/MOL
REMARK 922        TOTAL FREE ENERGY PREDICTED BY IDOCK:   -6.47 KCAL/MOL
REMARK 923 INTER-LIGAND FREE ENERGY PREDICTED BY IDOCK:   -6.20 KCAL/MOL
REMARK 924 INTRA-LIGAND FREE ENERGY PREDICTED BY IDOCK:   -0.27 KCAL/MOL
REMARK 927      BINDING AFFINITY PREDICTED BY RF-SCORE:    0.00 PKD
ROOT
HETATM    1  N   UNL     1     -12.112  12.671  66.353  1.00  0.00    -0.565 NA 
HETATM    2  H1  UNL     1     -11.949  12.711  65.347  1.00  0.00     0.000 HD 
HETATM    3  C   UNL     1     -11.808  13.781  67.183  1.00  0.00    -0.406 A  
HETATM    4  H2  UNL     1     -13.087  12.415  66.507  1.00  0.00     0.000 HD 
HETATM    5  C   UNL     1     -12.029  13.726  68.551  1.00  0.00    -0.402 A  
HETATM    6  C   UNL     1     -11.753  14.838  69.331  1.00  0.00    -0.323 A  
HETATM    7  N   UNL     1     -11.226  15.959  68.792  1.00  0.00    -0.337 NA 
HETATM    8  O   UNL     1     -11.044  14.989  65.348  1.00  0.00    -0.344 OA 
HETATM    9  C   UNL     1     -10.988  16.024  67.457  1.00  0.00    -0.261 A  
HETATM   10  H2  UNL     1      -9.594  17.428  67.419  1.00  0.00     0.000 HD 
HETATM   11  N   UNL     1     -11.267  14.938  66.620  1.00  0.00    -0.345 NA 
HETATM   12  N   UNL     1     -10.454  17.200  66.921  1.00  0.00    -0.305 NA 
HETATM   13  H1  UNL     1     -10.274  17.250  65.918  1.00  0.00     0.000 HD 
ENDROOT
BRANCH   6  14
HETATM   14  N   UNL     1     -12.156  14.838  70.660  1.00  0.00    -0.288 NA 
HETATM   15  C   UNL     1     -11.417  15.713  71.572  1.00  0.00    -0.422 C  
HETATM   16  C   UNL     1     -12.934  14.850  73.403  1.00  0.00    -0.597 C  
HETATM   17  C   UNL     1     -12.373  16.090  72.707  1.00  0.00    -0.603 C  
HETATM   18  C   UNL     1     -13.521  13.852  72.400  1.00  0.00    -0.661 C  
HETATM   19  C   UNL     1     -12.554  13.559  71.250  1.00  0.00    -0.341 C  
ENDBRANCH   6  14
TORSDOF 1
ENDMDL
MODEL       14
REMARK 921   NORMALIZED FREE ENERGY PREDICTED BY IDOCK:   -5.82 KCAL/MOL
REMARK 922        TOTAL FREE ENERGY PREDICTED BY IDOCK:   -6.43 KCAL/MOL
REMARK 923 INTER-LIGAND FREE ENERGY PREDICTED BY IDOCK:   -6.15 KCAL/MOL
REMARK 924 INTRA-LIGAND FREE ENERGY PREDICTED BY IDOCK:   -0.28 KCAL/MOL
REMARK 927      BINDING AFFINITY PREDICTED BY RF-SCORE:    0.00 PKD
ROOT
HETATM    1  N   UNL     1      -9.962  16.637  66.632  1.00  0.00    -0.270 NA 
HETATM    2  H1  UNL     1      -9.610  16.525  65.681  1.00  0.00     0.000 HD 
HETATM    3  C   UNL     1     -10.698  15.599  67.261  1.00  0.00    -0.305 A  
HETATM    4  H2  UNL     1      -9.177  16.880  67.235  1.00  0.00     0.000 HD 
HETATM    5  C   UNL     1     -11.177  15.751  68.553  1.00  0.00    -0.354 A  
HETATM    6  C   UNL     1     -11.864  14.706  69.153  1.00  0.00    -0.312 A  
HETATM    7  N   UNL     1     -12.120  13.560  68.484  1.00  0.00    -0.334 NA 
HETATM    8  O   UNL     1     -10.527  14.275  65.356  1.00  0.00    -0.321 OA 
HETATM    9  C   UNL     1     -11.673  13.401  67.212  1.00  0.00    -0.380 A  
HETATM   10  H2  UNL     1     -12.945  12.031  66.564  1.00  0.00     0.000 HD 
HETATM   11  N   UNL     1     -10.957  14.415  66.566  1.00  0.00    -0.310 NA 
HETATM   12  N   UNL     1     -11.940  12.201  66.546  1.00  0.00    -0.631 NA 
HETATM   13  H1  UNL     1     -11.605  12.081  65.590  1.00  0.00     0.000 HD 
ENDROOT
BRANCH   6  14
HETATM   14  N   UNL     1     -12.169  14.797  70.504  1.00  0.00    -0.300 NA 
HETATM   15  C   UNL     1     -11.250  15.577  71.335  1.00  0.00    -0.346 C  
HETATM   16  C   UNL     1     -12.743  14.990  73.291  1.00  0.00    -0.635 C  
HETATM   17  C   UNL     1     -12.059  16.118  72.517  1.00  0.00    -0.644 C  
HETATM   18  C   UNL     1     -13.537  14.064  72.363  1.00  0.00    -0.658 C  
HETATM   19  C   UNL     1     -12.705  13.605  71.163  1.00  0.00    -0.353 C  
ENDBRANCH   6  14
TORSDOF 1
ENDMDL
MODEL       15
REMARK 921   NORMALIZED FREE ENERGY PREDICTED BY IDOCK:   -5.79 KCAL/MOL
REMARK 922        TOTAL FREE ENERGY PREDICTED BY IDOCK:   -6.40 KCAL/MOL
REMARK 923 INTER-LIGAND FREE ENERGY PREDICTED BY IDOCK:   -6.12 KCAL/MOL
REMARK 924 INTRA-LIGAND FREE ENERGY PREDICTED BY IDOCK:   -0.28 KCAL/MOL
REMARK 927      BINDING AFFINITY PREDICTED BY RF-SCORE:    0.00 PKD
ROOT
HETATM    1  N   UNL     1      -9.096  17.115  66.053  1.00  0.00    -0.513 NA 
HETATM    2  H1  UNL     1      -9.358  17.996  65.612  1.00  0.00     0.000 HD 
HETATM    3  C   UNL     1      -9.803  15.919  65.764  1.00  0.00    -0.345 A  
HETATM    4  H2  UNL     1      -8.106  16.951  65.871  1.00  0.00     0.000 HD 
HETATM    5  C   UNL     1      -9.446  14.721  66.364  1.00  0.00    -0.328 A  
HETATM    6  C   UNL     1     -10.136  13.563  66.037  1.00  0.00    -0.310 A  
HETATM    7  N   UNL     1     -11.181  13.587  65.182  1.00  0.00    -0.302 NA 
HETATM    8  O   UNL     1     -11.228  17.066  64.328  1.00  0.00    -1.186 OA 
HETATM    9  C   UNL     1     -11.555  14.755  64.599  1.00  0.00    -0.399 A  
HETATM   10  H2  UNL     1     -13.442  14.344  64.173  1.00  0.00     0.000 HD 
HETATM   11  N   UNL     1     -10.881  15.950  64.877  1.00  0.00    -0.563 NA 
HETATM   12  N   UNL     1     -12.632  14.752  63.707  1.00  0.00    -0.986 NA 
HETATM   13  H1  UNL     1     -12.914  15.629  63.269  1.00  0.00     0.000 HD 
ENDROOT
BRANCH   6  14
HETATM   14  N   UNL     1      -9.649  12.345  66.494  1.00  0.00    -0.236 NA 
HETATM   15  C   UNL     1      -8.374  12.374  67.213  1.00  0.00    -0.184 C  
HETATM   16  C   UNL     1      -8.601   9.864  67.430  1.00  0.00    -0.125 C  
HETATM   17  C   UNL     1      -8.371  11.181  68.173  1.00  0.00    -0.136 C  
HETATM   18  C   UNL     1      -9.834   9.931  66.523  1.00  0.00    -0.274 C  
HETATM   19  C   UNL     1      -9.823  11.175  65.632  1.00  0.00    -0.235 C  
ENDBRANCH   6  14
TORSDOF 1
ENDMDL
MODEL       16
REMARK 921   NORMALIZED FREE ENERGY PREDICTED BY IDOCK:   -5.78 KCAL/MOL
REMARK 922        TOTAL FREE ENERGY PREDICTED BY IDOCK:   -6.39 KCAL/MOL
REMARK 923 INTER-LIGAND FREE ENERGY PREDICTED BY IDOCK:   -6.16 KCAL/MOL
REMARK 924 INTRA-LIGAND FREE ENERGY PREDICTED BY IDOCK:   -0.24 KCAL/MOL
REMARK 927      BINDING AFFINITY PREDICTED BY RF-SCORE:    0.00 PKD
ROOT
HETATM    1  N   UNL     1     -12.533  13.998  63.192  1.00  0.00    -1.070 NA 
HETATM    2  H1  UNL     1     -12.786  14.760  62.564  1.00  0.00     0.000 HD 
HETATM    3  C   UNL     1     -11.733  14.236  64.339  1.00  0.00    -0.389 A  
HETATM    4  H2  UNL     1     -13.392  13.537  63.493  1.00  0.00     0.000 HD 
HETATM    5  C   UNL     1     -11.389  13.199  65.193  1.00  0.00    -0.322 A  
HETATM    6  C   UNL     1     -10.633  13.469  66.324  1.00  0.00    -0.288 A  
HETATM    7  N   UNL     1     -10.182  14.716  66.584  1.00  0.00    -0.269 NA 
HETATM    8  O   UNL     1     -11.575  16.494  63.804  1.00  0.00    -1.109 OA 
HETATM    9  C   UNL     1     -10.495  15.740  65.749  1.00  0.00    -0.367 A  
HETATM   10  H2  UNL     1      -9.013  16.986  66.156  1.00  0.00     0.000 HD 
HETATM   11  N   UNL     1     -11.272  15.527  64.605  1.00  0.00    -0.413 NA 
HETATM   12  N   UNL     1     -10.026  17.023  66.047  1.00  0.00    -0.461 NA 
HETATM   13  H1  UNL     1     -10.260  17.793  65.420  1.00  0.00     0.000 HD 
ENDROOT
BRANCH   6  14
HETATM   14  N   UNL     1     -10.459  12.464  67.266  1.00  0.00    -0.221 NA 
HETATM   15  C   UNL     1      -9.356  11.530  67.036  1.00  0.00    -0.178 C  
HETATM   16  C   UNL     1     -10.081  10.369  69.163  1.00  0.00    -0.236 C  
HETATM   17  C   UNL     1      -8.915  11.006  68.405  1.00  0.00    -0.158 C  
HETATM   18  C   UNL     1     -11.300  11.296  69.213  1.00  0.00    -0.354 C  
HETATM   19  C   UNL     1     -11.659  11.845  67.831  1.00  0.00    -0.323 C  
ENDBRANCH   6  14
TORSDOF 1
ENDMDL
MODEL       17
REMARK 921   NORMALIZED FREE ENERGY PREDICTED BY IDOCK:   -5.76 KCAL/MOL
REMARK 922        TOTAL FREE ENERGY PREDICTED BY IDOCK:   -6.38 KCAL/MOL
REMARK 923 INTER-LIGAND FREE ENERGY PREDICTED BY IDOCK:   -6.14 KCAL/MOL
REMARK 924 INTRA-LIGAND FREE ENERGY PREDICTED BY IDOCK:   -0.23 KCAL/MOL
REMARK 927      BINDING AFFINITY PREDICTED BY RF-SCORE:    0.00 PKD
ROOT
HETATM    1  N   UNL     1     -11.757  16.219  63.714  1.00  0.00    -1.488 NA 
HETATM    2  H1  UNL     1     -11.846  17.222  63.553  1.00  0.00     0.000 HD 
HETATM    3  C   UNL     1     -11.023  15.724  64.823  1.00  0.00    -0.393 A  
HETATM    4  H2  UNL     1     -12.694  15.817  63.748  1.00  0.00     0.000 HD 
HETATM    5  C   UNL     1     -10.901  14.360  65.042  1.00  0.00    -0.420 A  
HETATM    6  C   UNL     1     -10.205  13.907  66.153  1.00  0.00    -0.301 A  
HETATM    7  N   UNL     1      -9.601  14.769  67.000  1.00  0.00    -0.233 NA 
HETATM    8  O   UNL     1     -10.500  17.890  65.489  1.00  0.00    -0.650 OA 
HETATM    9  C   UNL     1      -9.695  16.107  66.791  1.00  0.00    -0.242 A  
HETATM   10  H2  UNL     1      -8.086  16.726  67.761  1.00  0.00     0.000 HD 
HETATM   11  N   UNL     1     -10.403  16.619  65.698  1.00  0.00    -0.537 NA 
HETATM   12  N   UNL     1      -9.072  16.979  67.689  1.00  0.00    -0.227 NA 
HETATM   13  H1  UNL     1      -9.142  17.984  67.533  1.00  0.00     0.000 HD 
ENDROOT
BRANCH   6  14
HETATM   14  N   UNL     1     -10.253  12.555  66.465  1.00  0.00    -0.237 NA 
HETATM   15  C   UNL     1      -9.485  11.654  65.604  1.00  0.00    -0.209 C  
HETATM   16  C   UNL     1     -10.342   9.767  67.055  1.00  0.00    -0.305 C  
HETATM   17  C   UNL     1      -9.106  10.436  66.451  1.00  0.00    -0.177 C  
HETATM   18  C   UNL     1     -11.237  10.777  67.780  1.00  0.00    -0.385 C  
HETATM   19  C   UNL     1     -11.531  12.005  66.917  1.00  0.00    -0.337 C  
ENDBRANCH   6  14
TORSDOF 1
ENDMDL
MODEL       18
REMARK 921   NORMALIZED FREE ENERGY PREDICTED BY IDOCK:   -5.76 KCAL/MOL
REMARK 922        TOTAL FREE ENERGY PREDICTED BY IDOCK:   -6.37 KCAL/MOL
REMARK 923 INTER-LIGAND FREE ENERGY PREDICTED BY IDOCK:   -6.10 KCAL/MOL
REMARK 924 INTRA-LIGAND FREE ENERGY PREDICTED BY IDOCK:   -0.27 KCAL/MOL
REMARK 927      BINDING AFFINITY PREDICTED BY RF-SCORE:    0.00 PKD
ROOT
HETATM    1  N   UNL     1     -14.314   8.487  72.918  1.00  0.00    -0.995 NA 
HETATM    2  H1  UNL     1     -14.279   7.468  72.888  1.00  0.00     0.000 HD 
HETATM    3  C   UNL     1     -13.460   9.268  72.096  1.00  0.00    -0.473 A  
HETATM    4  H2  UNL     1     -15.276   8.778  72.744  1.00  0.00     0.000 HD 
HETATM    5  C   UNL     1     -13.508  10.653  72.137  1.00  0.00    -0.237 A  
HETATM    6  C   UNL     1     -12.684  11.389  71.299  1.00  0.00    -0.393 A  
HETATM    7  N   UNL     1     -11.800  10.782  70.476  1.00  0.00    -0.331 NA 
HETATM    8  O   UNL     1     -12.491   7.346  71.216  1.00  0.00    -0.337 OA 
HETATM    9  C   UNL     1     -11.728   9.427  70.436  1.00  0.00    -0.144 A  
HETATM   10  H2  UNL     1      -9.884   9.195  69.758  1.00  0.00     0.000 HD 
HETATM   11  N   UNL     1     -12.551   8.636  71.246  1.00  0.00    -0.277 NA 
HETATM   12  N   UNL     1     -10.814   8.823  69.567  1.00  0.00    -0.372 NA 
HETATM   13  H1  UNL     1     -10.760   7.805  69.536  1.00  0.00     0.000 HD 
ENDROOT
BRANCH   6  14
HETATM   14  N   UNL     1     -12.875  12.761  71.211  1.00  0.00    -0.327 NA 
HETATM   15  C   UNL     1     -11.826  13.530  70.540  1.00  0.00    -0.178 C  
HETATM   16  C   UNL     1     -13.216  15.586  71.030  1.00  0.00    -0.539 C  
HETATM   17  C   UNL     1     -12.489  14.780  69.953  1.00  0.00    -0.283 C  
HETATM   18  C   UNL     1     -14.163  14.708  71.855  1.00  0.00    -0.628 C  
HETATM   19  C   UNL     1     -13.471  13.441  72.362  1.00  0.00    -0.584 C  
ENDBRANCH   6  14
TORSDOF 1
ENDMDL
MODEL       19
REMARK 921   NORMALIZED FREE ENERGY PREDICTED BY IDOCK:   -5.74 KCAL/MOL
REMARK 922        TOTAL FREE ENERGY PREDICTED BY IDOCK:   -6.36 KCAL/MOL
REMARK 923 INTER-LIGAND FREE ENERGY PREDICTED BY IDOCK:   -6.08 KCAL/MOL
REMARK 924 INTRA-LIGAND FREE ENERGY PREDICTED BY IDOCK:   -0.27 KCAL/MOL
REMARK 927      BINDING AFFINITY PREDICTED BY RF-SCORE:    0.00 PKD
ROOT
HETATM    1  N   UNL     1     -11.575  13.122  66.683  1.00  0.00    -0.338 NA 
HETATM    2  H1  UNL     1     -11.379  12.417  65.973  1.00  0.00     0.000 HD 
HETATM    3  C   UNL     1     -11.817  12.749  68.030  1.00  0.00    -0.336 A  
HETATM    4  H2  UNL     1     -10.815  13.803  66.673  1.00  0.00     0.000 HD 
HETATM    5  C   UNL     1     -12.084  13.709  68.996  1.00  0.00    -0.348 A  
HETATM    6  C   UNL     1     -12.285  13.316  70.310  1.00  0.00    -0.321 A  
HETATM    7  N   UNL     1     -12.274  12.012  70.661  1.00  0.00    -0.371 NA 
HETATM    8  O   UNL     1     -11.570  10.501  67.490  1.00  0.00    -0.421 OA 
HETATM    9  C   UNL     1     -12.032  11.058  69.726  1.00  0.00    -0.356 A  
HETATM   10  H2  UNL     1     -12.892   9.498  70.587  1.00  0.00     0.000 HD 
HETATM   11  N   UNL     1     -11.802  11.400  68.389  1.00  0.00    -0.536 NA 
HETATM   12  N   UNL     1     -12.014   9.716  70.117  1.00  0.00    -0.464 NA 
HETATM   13  H1  UNL     1     -11.832   8.998  69.414  1.00  0.00     0.000 HD 
ENDROOT
BRANCH   6  14
HETATM   14  N   UNL     1     -12.359  14.293  71.294  1.00  0.00    -0.348 NA 
HETATM   15  C   UNL     1     -13.104  13.950  72.507  1.00  0.00    -0.437 C  
HETATM   16  C   UNL     1     -12.558  16.278  73.332  1.00  0.00    -0.589 C  
HETATM   17  C   UNL     1     -12.515  14.783  73.649  1.00  0.00    -0.503 C  
HETATM   18  C   UNL     1     -11.952  16.586  71.958  1.00  0.00    -0.270 C  
HETATM   19  C   UNL     1     -12.524  15.682  70.864  1.00  0.00    -0.445 C  
ENDBRANCH   6  14
TORSDOF 1
ENDMDL
MODEL       20
REMARK 921   NORMALIZED FREE ENERGY PREDICTED BY IDOCK:   -5.72 KCAL/MOL
REMARK 922        TOTAL FREE ENERGY PREDICTED BY IDOCK:   -6.33 KCAL/MOL
REMARK 923 INTER-LIGAND FREE ENERGY PREDICTED BY IDOCK:   -6.07 KCAL/MOL
REMARK 924 INTRA-LIGAND FREE ENERGY PREDICTED BY IDOCK:   -0.26 KCAL/MOL
REMARK 927      BINDING AFFINITY PREDICTED BY RF-SCORE:    0.00 PKD
ROOT
HETATM    1  N   UNL     1     -11.715  16.323  63.724  1.00  0.00    -1.488 NA 
HETATM    2  H1  UNL     1     -11.772  17.324  63.538  1.00  0.00     0.000 HD 
HETATM    3  C   UNL     1     -11.008  15.833  64.852  1.00  0.00    -0.427 A  
HETATM    4  H2  UNL     1     -12.664  15.952  63.757  1.00  0.00     0.000 HD 
HETATM    5  C   UNL     1     -10.930  14.471  65.104  1.00  0.00    -0.387 A  
HETATM    6  C   UNL     1     -10.259  14.024  66.233  1.00  0.00    -0.296 A  
HETATM    7  N   UNL     1      -9.637  14.886  67.065  1.00  0.00    -0.231 NA 
HETATM    8  O   UNL     1     -10.425  17.997  65.472  1.00  0.00    -0.636 OA 
HETATM    9  C   UNL     1      -9.689  16.222  66.824  1.00  0.00    -0.241 A  
HETATM   10  H2  UNL     1      -8.071  16.815  67.796  1.00  0.00     0.000 HD 
HETATM   11  N   UNL     1     -10.369  16.729  65.712  1.00  0.00    -0.505 NA 
HETATM   12  N   UNL     1      -9.047  17.095  67.708  1.00  0.00    -0.231 NA 
HETATM   13  H1  UNL     1      -9.085  18.098  67.528  1.00  0.00     0.000 HD 
ENDROOT
BRANCH   6  14
HETATM   14  N   UNL     1     -10.352  12.682  66.575  1.00  0.00    -0.239 NA 
HETATM   15  C   UNL     1     -10.399  12.370  68.005  1.00  0.00    -0.216 C  
HETATM   16  C   UNL     1     -10.518   9.936  67.325  1.00  0.00    -0.319 C  
HETATM   17  C   UNL     1     -11.161  11.050  68.153  1.00  0.00    -0.364 C  
HETATM   18  C   UNL     1     -10.292  10.365  65.872  1.00  0.00    -0.261 C  
HETATM   19  C   UNL     1      -9.588  11.721  65.779  1.00  0.00    -0.233 C  
ENDBRANCH   6  14
TORSDOF 1
ENDMDL
MODEL       21
REMARK 921   NORMALIZED FREE ENERGY PREDICTED BY IDOCK:   -5.72 KCAL/MOL
REMARK 922        TOTAL FREE ENERGY PREDICTED BY IDOCK:   -6.33 KCAL/MOL
REMARK 923 INTER-LIGAND FREE ENERGY PREDICTED BY IDOCK:   -6.05 KCAL/MOL
REMARK 924 INTRA-LIGAND FREE ENERGY PREDICTED BY IDOCK:   -0.28 KCAL/MOL
REMARK 927      BINDING AFFINITY PREDICTED BY RF-SCORE:    0.00 PKD
ROOT
HETATM    1  N   UNL     1     -10.519  11.204  62.874  1.00  0.00    -0.778 NA 
HETATM    2  H1  UNL     1     -10.818  11.654  62.009  1.00  0.00     0.000 HD 
HETATM    3  C   UNL     1     -11.038  11.622  64.126  1.00  0.00    -0.364 A  
HETATM    4  H2  UNL     1     -10.680  10.201  62.782  1.00  0.00     0.000 HD 
HETATM    5  C   UNL     1     -10.632  11.010  65.303  1.00  0.00    -0.283 A  
HETATM    6  C   UNL     1     -11.182  11.419  66.509  1.00  0.00    -0.209 A  
HETATM    7  N   UNL     1     -12.069  12.435  66.566  1.00  0.00    -0.598 NA 
HETATM    8  O   UNL     1     -12.327  13.255  63.088  1.00  0.00    -0.682 OA 
HETATM    9  C   UNL     1     -12.465  13.057  65.425  1.00  0.00    -0.476 A  
HETATM   10  H2  UNL     1     -13.043  14.800  66.161  1.00  0.00     0.000 HD 
HETATM   11  N   UNL     1     -11.958  12.671  64.179  1.00  0.00    -0.392 NA 
HETATM   12  N   UNL     1     -13.394  14.099  65.509  1.00  0.00    -0.666 NA 
HETATM   13  H1  UNL     1     -13.692  14.566  64.653  1.00  0.00     0.000 HD 
ENDROOT
BRANCH   6  14
HETATM   14  N   UNL     1     -10.913  10.675  67.650  1.00  0.00    -0.292 NA 
HETATM   15  C   UNL     1     -10.562   9.268  67.451  1.00  0.00    -0.255 C  
HETATM   16  C   UNL     1     -10.377   9.104  69.969  1.00  0.00    -0.231 C  
HETATM   17  C   UNL     1      -9.680   8.852  68.631  1.00  0.00    -0.169 C  
HETATM   18  C   UNL     1     -10.917  10.535  70.068  1.00  0.00    -0.351 C  
HETATM   19  C   UNL     1     -11.736  10.924  68.835  1.00  0.00    -0.306 C  
ENDBRANCH   6  14
TORSDOF 1
ENDMDL
MODEL       22
REMARK 921   NORMALIZED FREE ENERGY PREDICTED BY IDOCK:   -5.70 KCAL/MOL
REMARK 922        TOTAL FREE ENERGY PREDICTED BY IDOCK:   -6.31 KCAL/MOL
REMARK 923 INTER-LIGAND FREE ENERGY PREDICTED BY IDOCK:   -6.06 KCAL/MOL
REMARK 924 INTRA-LIGAND FREE ENERGY PREDICTED BY IDOCK:   -0.25 KCAL/MOL
REMARK 927      BINDING AFFINITY PREDICTED BY RF-SCORE:    0.00 PKD
ROOT
HETATM    1  N   UNL     1      -9.018  16.834  67.669  1.00  0.00    -0.209 NA 
HETATM    2  H1  UNL     1      -8.979  17.841  67.519  1.00  0.00     0.000 HD 
HETATM    3  C   UNL     1      -9.738  15.994  66.780  1.00  0.00    -0.239 A  
HETATM    4  H2  UNL     1      -8.061  16.485  67.731  1.00  0.00     0.000 HD 
HETATM    5  C   UNL     1      -9.790  14.623  66.984  1.00  0.00    -0.244 A  
HETATM    6  C   UNL     1     -10.475  13.825  66.080  1.00  0.00    -0.297 A  
HETATM    7  N   UNL     1     -11.133  14.362  65.030  1.00  0.00    -0.358 NA 
HETATM    8  O   UNL     1     -10.382  17.832  65.509  1.00  0.00    -0.623 OA 
HETATM    9  C   UNL     1     -11.106  15.704  64.824  1.00  0.00    -0.412 A  
HETATM   10  H2  UNL     1     -12.757  15.927  63.757  1.00  0.00     0.000 HD 
HETATM   11  N   UNL     1     -10.414  16.554  65.694  1.00  0.00    -0.480 NA 
HETATM   12  N   UNL     1     -11.786  16.234  63.723  1.00  0.00    -1.488 NA 
HETATM   13  H1  UNL     1     -11.766  17.242  63.568  1.00  0.00     0.000 HD 
ENDROOT
BRANCH   6  14
HETATM   14  N   UNL     1     -10.360  12.446  66.187  1.00  0.00    -0.242 NA 
HETATM   15  C   UNL     1     -10.052  11.713  64.958  1.00  0.00    -0.263 C  
HETATM   16  C   UNL     1     -10.138   9.608  66.357  1.00  0.00    -0.317 C  
HETATM   17  C   UNL     1      -9.316  10.434  65.367  1.00  0.00    -0.252 C  
HETATM   18  C   UNL     1     -10.622  10.454  67.540  1.00  0.00    -0.312 C  
HETATM   19  C   UNL     1     -11.290  11.752  67.079  1.00  0.00    -0.321 C  
ENDBRANCH   6  14
TORSDOF 1
ENDMDL
MODEL       23
REMARK 921   NORMALIZED FREE ENERGY PREDICTED BY IDOCK:   -5.69 KCAL/MOL
REMARK 922        TOTAL FREE ENERGY PREDICTED BY IDOCK:   -6.30 KCAL/MOL
REMARK 923 INTER-LIGAND FREE ENERGY PREDICTED BY IDOCK:   -6.03 KCAL/MOL
REMARK 924 INTRA-LIGAND FREE ENERGY PREDICTED BY IDOCK:   -0.27 KCAL/MOL
REMARK 927      BINDING AFFINITY PREDICTED BY RF-SCORE:    0.00 PKD
ROOT
HETATM    1  N   UNL     1     -12.467  14.146  63.389  1.00  0.00    -1.116 NA 
HETATM    2  H1  UNL     1     -12.309  13.815  62.437  1.00  0.00     0.000 HD 
HETATM    3  C   UNL     1     -11.989  13.410  64.503  1.00  0.00    -0.407 A  
HETATM    4  H2  UNL     1     -12.107  15.098  63.458  1.00  0.00     0.000 HD 
HETATM    5  C   UNL     1     -12.205  13.861  65.797  1.00  0.00    -0.488 A  
HETATM    6  C   UNL     1     -11.697  13.136  66.865  1.00  0.00    -0.387 A  
HETATM    7  N   UNL     1     -11.038  11.973  66.672  1.00  0.00    -0.294 NA 
HETATM    8  O   UNL     1     -11.117  11.777  63.096  1.00  0.00    -0.299 OA 
HETATM    9  C   UNL     1     -10.833  11.508  65.413  1.00  0.00    -0.259 A  
HETATM   10  H2  UNL     1     -10.596   9.580  65.787  1.00  0.00     0.000 HD 
HETATM   11  N   UNL     1     -11.306  12.209  64.299  1.00  0.00    -0.338 NA 
HETATM   12  N   UNL     1     -10.137  10.308  65.239  1.00  0.00    -0.308 NA 
HETATM   13  H1  UNL     1      -9.983   9.958  64.294  1.00  0.00     0.000 HD 
ENDROOT
BRANCH   6  14
HETATM   14  N   UNL     1     -11.752  13.693  68.135  1.00  0.00    -0.338 NA 
HETATM   15  C   UNL     1     -11.168  15.026  68.295  1.00  0.00    -0.299 C  
HETATM   16  C   UNL     1     -11.822  14.866  70.734  1.00  0.00    -0.368 C  
HETATM   17  C   UNL     1     -11.901  15.703  69.456  1.00  0.00    -0.387 C  
HETATM   18  C   UNL     1     -12.249  13.415  70.489  1.00  0.00    -0.425 C  
HETATM   19  C   UNL     1     -11.538  12.806  69.279  1.00  0.00    -0.314 C  
ENDBRANCH   6  14
TORSDOF 1
ENDMDL
MODEL       24
REMARK 921   NORMALIZED FREE ENERGY PREDICTED BY IDOCK:   -5.68 KCAL/MOL
REMARK 922        TOTAL FREE ENERGY PREDICTED BY IDOCK:   -6.29 KCAL/MOL
REMARK 923 INTER-LIGAND FREE ENERGY PREDICTED BY IDOCK:   -6.03 KCAL/MOL
REMARK 924 INTRA-LIGAND FREE ENERGY PREDICTED BY IDOCK:   -0.26 KCAL/MOL
REMARK 927      BINDING AFFINITY PREDICTED BY RF-SCORE:    0.00 PKD
ROOT
HETATM    1  N   UNL     1     -11.438  13.691  68.672  1.00  0.00    -0.283 NA 
HETATM    2  H1  UNL     1     -11.497  14.691  68.483  1.00  0.00     0.000 HD 
HETATM    3  C   UNL     1     -12.049  13.133  69.825  1.00  0.00    -0.270 A  
HETATM    4  H2  UNL     1     -11.786  13.192  67.854  1.00  0.00     0.000 HD 
HETATM    5  C   UNL     1     -11.968  11.772  70.083  1.00  0.00    -0.421 A  
HETATM    6  C   UNL     1     -12.603  11.251  71.200  1.00  0.00    -0.397 A  
HETATM    7  N   UNL     1     -13.259  12.051  72.070  1.00  0.00    -0.465 NA 
HETATM    8  O   UNL     1     -12.792  15.233  70.492  1.00  0.00    -0.394 OA 
HETATM    9  C   UNL     1     -13.333  13.387  71.842  1.00  0.00    -0.451 A  
HETATM   10  H2  UNL     1     -13.646  14.038  73.684  1.00  0.00     0.000 HD 
HETATM   11  N   UNL     1     -12.728  13.963  70.719  1.00  0.00    -0.329 NA 
HETATM   12  N   UNL     1     -14.028  14.191  72.750  1.00  0.00    -0.619 NA 
HETATM   13  H1  UNL     1     -14.084  15.195  72.580  1.00  0.00     0.000 HD 
ENDROOT
BRANCH   6  14
HETATM   14  N   UNL     1     -12.677   9.873  71.343  1.00  0.00    -0.370 NA 
HETATM   15  C   UNL     1     -13.761   9.355  72.180  1.00  0.00    -0.420 C  
HETATM   16  C   UNL     1     -12.853   7.047  71.682  1.00  0.00    -0.408 C  
HETATM   17  C   UNL     1     -14.089   7.947  71.674  1.00  0.00    -0.528 C  
HETATM   18  C   UNL     1     -11.665   7.704  70.971  1.00  0.00    -0.306 C  
HETATM   19  C   UNL     1     -11.421   9.132  71.465  1.00  0.00    -0.367 C  
ENDBRANCH   6  14
TORSDOF 1
ENDMDL
MODEL       25
REMARK 921   NORMALIZED FREE ENERGY PREDICTED BY IDOCK:   -5.68 KCAL/MOL
REMARK 922        TOTAL FREE ENERGY PREDICTED BY IDOCK:   -6.29 KCAL/MOL
REMARK 923 INTER-LIGAND FREE ENERGY PREDICTED BY IDOCK:   -6.03 KCAL/MOL
REMARK 924 INTRA-LIGAND FREE ENERGY PREDICTED BY IDOCK:   -0.26 KCAL/MOL
REMARK 927      BINDING AFFINITY PREDICTED BY RF-SCORE:    0.00 PKD
ROOT
HETATM    1  N   UNL     1     -12.095  13.498  67.923  1.00  0.00    -0.323 NA 
HETATM    2  H1  UNL     1     -12.798  12.859  67.553  1.00  0.00     0.000 HD 
HETATM    3  C   UNL     1     -11.571  14.545  67.120  1.00  0.00    -0.388 A  
HETATM    4  H2  UNL     1     -12.459  13.908  68.783  1.00  0.00     0.000 HD 
HETATM    5  C   UNL     1     -10.614  15.414  67.623  1.00  0.00    -0.280 A  
HETATM    6  C   UNL     1     -10.145  16.447  66.826  1.00  0.00    -0.285 A  
HETATM    7  N   UNL     1     -10.566  16.594  65.551  1.00  0.00    -0.515 NA 
HETATM    8  O   UNL     1     -12.891  13.878  65.325  1.00  0.00    -0.689 OA 
HETATM    9  C   UNL     1     -11.490  15.742  65.037  1.00  0.00    -0.122 A  
HETATM   10  H2  UNL     1     -11.103  15.932  63.106  1.00  0.00     0.000 HD 
HETATM   11  N   UNL     1     -12.012  14.694  65.804  1.00  0.00    -0.287 NA 
HETATM   12  N   UNL     1     -11.919  15.923  63.718  1.00  0.00    -1.266 NA 
HETATM   13  H1  UNL     1     -12.613  15.283  63.331  1.00  0.00     0.000 HD 
ENDROOT
BRANCH   6  14
HETATM   14  N   UNL     1      -9.337  17.418  67.400  1.00  0.00    -0.235 NA 
HETATM   15  C   UNL     1      -8.444  16.980  68.474  1.00  0.00    -0.257 C  
HETATM   16  C   UNL     1      -7.675  19.386  68.625  1.00  0.00    -0.394 C  
HETATM   17  C   UNL     1      -7.241  17.927  68.474  1.00  0.00    -0.261 C  
HETATM   18  C   UNL     1      -8.764  19.761  67.614  1.00  0.00    -0.383 C  
HETATM   19  C   UNL     1      -9.911  18.748  67.606  1.00  0.00    -0.345 C  
ENDBRANCH   6  14
TORSDOF 1
ENDMDL
MODEL       26
REMARK 921   NORMALIZED FREE ENERGY PREDICTED BY IDOCK:   -5.64 KCAL/MOL
REMARK 922        TOTAL FREE ENERGY PREDICTED BY IDOCK:   -6.24 KCAL/MOL
REMARK 923 INTER-LIGAND FREE ENERGY PREDICTED BY IDOCK:   -6.00 KCAL/MOL
REMARK 924 INTRA-LIGAND FREE ENERGY PREDICTED BY IDOCK:   -0.24 KCAL/MOL
REMARK 927      BINDING AFFINITY PREDICTED BY RF-SCORE:    0.00 PKD
ROOT
HETATM    1  N   UNL     1     -12.335  15.128  69.724  1.00  0.00    -0.523 NA 
HETATM    2  H1  UNL     1     -12.606  15.263  70.698  1.00  0.00     0.000 HD 
HETATM    3  C   UNL     1     -12.146  13.825  69.196  1.00  0.00    -0.333 A  
HETATM    4  H2  UNL     1     -13.012  15.614  69.136  1.00  0.00     0.000 HD 
HETATM    5  C   UNL     1     -11.777  13.643  67.871  1.00  0.00    -0.395 A  
HETATM    6  C   UNL     1     -11.631  12.356  67.375  1.00  0.00    -0.365 A  
HETATM    7  N   UNL     1     -11.792  11.276  68.170  1.00  0.00    -0.607 NA 
HETATM    8  O   UNL     1     -12.644  12.877  71.260  1.00  0.00    -0.350 OA 
HETATM    9  C   UNL     1     -12.136  11.437  69.474  1.00  0.00    -0.302 A  
HETATM   10  H2  UNL     1     -11.465   9.734  70.224  1.00  0.00     0.000 HD 
HETATM   11  N   UNL     1     -12.317  12.712  70.021  1.00  0.00    -0.158 NA 
HETATM   12  N   UNL     1     -12.310  10.303  70.273  1.00  0.00    -0.465 NA 
HETATM   13  H1  UNL     1     -12.568  10.423  71.253  1.00  0.00     0.000 HD 
ENDROOT
BRANCH   6  14
HETATM   14  N   UNL     1     -11.451  12.184  66.009  1.00  0.00    -0.363 NA 
HETATM   15  C   UNL     1     -10.081  11.957  65.549  1.00  0.00    -0.245 C  
HETATM   16  C   UNL     1     -11.034  11.850  63.208  1.00  0.00    -0.399 C  
HETATM   17  C   UNL     1     -10.169  11.145  64.254  1.00  0.00    -0.399 C  
HETATM   18  C   UNL     1     -12.395  12.261  63.780  1.00  0.00    -0.637 C  
HETATM   19  C   UNL     1     -12.255  13.010  65.107  1.00  0.00    -0.459 C  
ENDBRANCH   6  14
TORSDOF 1
ENDMDL
MODEL       27
REMARK 921   NORMALIZED FREE ENERGY PREDICTED BY IDOCK:   -5.63 KCAL/MOL
REMARK 922        TOTAL FREE ENERGY PREDICTED BY IDOCK:   -6.23 KCAL/MOL
REMARK 923 INTER-LIGAND FREE ENERGY PREDICTED BY IDOCK:   -5.95 KCAL/MOL
REMARK 924 INTRA-LIGAND FREE ENERGY PREDICTED BY IDOCK:   -0.28 KCAL/MOL
REMARK 927      BINDING AFFINITY PREDICTED BY RF-SCORE:    0.00 PKD
ROOT
HETATM    1  N   UNL     1     -12.096  12.287  66.367  1.00  0.00    -0.612 NA 
HETATM    2  H1  UNL     1     -12.899  12.018  65.798  1.00  0.00     0.000 HD 
HETATM    3  C   UNL     1     -11.406  13.502  66.120  1.00  0.00    -0.308 A  
HETATM    4  H2  UNL     1     -12.384  12.278  67.346  1.00  0.00     0.000 HD 
HETATM    5  C   UNL     1     -10.315  13.868  66.895  1.00  0.00    -0.266 A  
HETATM    6  C   UNL     1      -9.680  15.077  66.650  1.00  0.00    -0.258 A  
HETATM    7  N   UNL     1     -10.073  15.883  65.640  1.00  0.00    -0.350 NA 
HETATM    8  O   UNL     1     -12.824  13.989  64.343  1.00  0.00    -0.626 OA 
HETATM    9  C   UNL     1     -11.129  15.532  64.862  1.00  0.00    -0.416 A  
HETATM   10  H2  UNL     1     -10.721  16.574  63.230  1.00  0.00     0.000 HD 
HETATM   11  N   UNL     1     -11.818  14.333  65.077  1.00  0.00    -0.377 NA 
HETATM   12  N   UNL     1     -11.524  16.389  63.830  1.00  0.00    -1.618 NA 
HETATM   13  H1  UNL     1     -12.317  16.126  63.245  1.00  0.00     0.000 HD 
ENDROOT
BRANCH   6  14
HETATM   14  N   UNL     1      -8.718  15.518  67.548  1.00  0.00    -0.167 NA 
HETATM   15  C   UNL     1      -8.778  14.965  68.902  1.00  0.00    -0.180 C  
HETATM   16  C   UNL     1      -6.775  16.416  69.432  1.00  0.00    -0.215 C  
HETATM   17  C   UNL     1      -7.356  15.002  69.468  1.00  0.00    -0.202 C  
HETATM   18  C   UNL     1      -6.910  17.051  68.044  1.00  0.00    -0.166 C  
HETATM   19  C   UNL     1      -8.333  16.929  67.495  1.00  0.00    -0.189 C  
ENDBRANCH   6  14
TORSDOF 1
ENDMDL
MODEL       28
REMARK 921   NORMALIZED FREE ENERGY PREDICTED BY IDOCK:   -5.62 KCAL/MOL
REMARK 922        TOTAL FREE ENERGY PREDICTED BY IDOCK:   -6.22 KCAL/MOL
REMARK 923 INTER-LIGAND FREE ENERGY PREDICTED BY IDOCK:   -5.95 KCAL/MOL
REMARK 924 INTRA-LIGAND FREE ENERGY PREDICTED BY IDOCK:   -0.27 KCAL/MOL
REMARK 927      BINDING AFFINITY PREDICTED BY RF-SCORE:    0.00 PKD
ROOT
HETATM    1  N   UNL     1     -11.642  13.466  70.212  1.00  0.00    -0.526 NA 
HETATM    2  H1  UNL     1     -11.975  12.507  70.302  1.00  0.00     0.000 HD 
HETATM    3  C   UNL     1     -11.465  14.058  68.935  1.00  0.00    -0.294 A  
HETATM    4  H2  UNL     1     -12.258  14.069  70.759  1.00  0.00     0.000 HD 
HETATM    5  C   UNL     1     -11.012  15.363  68.813  1.00  0.00    -0.264 A  
HETATM    6  C   UNL     1     -10.880  15.923  67.551  1.00  0.00    -0.305 A  
HETATM    7  N   UNL     1     -11.137  15.207  66.436  1.00  0.00    -0.335 NA 
HETATM    8  O   UNL     1     -12.142  12.092  67.892  1.00  0.00    -0.502 OA 
HETATM    9  C   UNL     1     -11.565  13.922  66.536  1.00  0.00    -0.369 A  
HETATM   10  H2  UNL     1     -11.012  13.231  64.767  1.00  0.00     0.000 HD 
HETATM   11  N   UNL     1     -11.735  13.313  67.784  1.00  0.00    -0.340 NA 
HETATM   12  N   UNL     1     -11.837  13.206  65.367  1.00  0.00    -0.351 NA 
HETATM   13  H1  UNL     1     -12.158  12.240  65.441  1.00  0.00     0.000 HD 
ENDROOT
BRANCH   6  14
HETATM   14  N   UNL     1     -10.612  17.282  67.450  1.00  0.00    -0.332 NA 
HETATM   15  C   UNL     1     -10.230  17.780  66.128  1.00  0.00    -0.339 C  
HETATM   16  C   UNL     1     -10.029  20.062  67.202  1.00  0.00    -0.580 C  
HETATM   17  C   UNL     1     -10.649  19.252  66.062  1.00  0.00    -0.550 C  
HETATM   18  C   UNL     1     -10.272  19.405  68.564  1.00  0.00    -0.492 C  
HETATM   19  C   UNL     1      -9.901  17.921  68.558  1.00  0.00    -0.367 C  
ENDBRANCH   6  14
TORSDOF 1
ENDMDL
MODEL       29
REMARK 921   NORMALIZED FREE ENERGY PREDICTED BY IDOCK:   -5.61 KCAL/MOL
REMARK 922        TOTAL FREE ENERGY PREDICTED BY IDOCK:   -6.21 KCAL/MOL
REMARK 923 INTER-LIGAND FREE ENERGY PREDICTED BY IDOCK:   -5.94 KCAL/MOL
REMARK 924 INTRA-LIGAND FREE ENERGY PREDICTED BY IDOCK:   -0.27 KCAL/MOL
REMARK 927      BINDING AFFINITY PREDICTED BY RF-SCORE:    0.00 PKD
ROOT
HETATM    1  N   UNL     1     -14.185   8.973  73.101  1.00  0.00    -1.190 NA 
HETATM    2  H1  UNL     1     -14.350   8.002  73.362  1.00  0.00     0.000 HD 
HETATM    3  C   UNL     1     -13.206   9.308  72.129  1.00  0.00    -0.461 A  
HETATM    4  H2  UNL     1     -15.074   9.380  72.811  1.00  0.00     0.000 HD 
HETATM    5  C   UNL     1     -12.981  10.630  71.774  1.00  0.00    -0.577 A  
HETATM    6  C   UNL     1     -12.041  10.923  70.797  1.00  0.00    -0.368 A  
HETATM    7  N   UNL     1     -11.305   9.949  70.219  1.00  0.00    -0.274 NA 
HETATM    8  O   UNL     1     -12.644   7.066  71.871  1.00  0.00    -0.331 OA 
HETATM    9  C   UNL     1     -11.500   8.651  70.567  1.00  0.00    -0.188 A  
HETATM   10  H2  UNL     1      -9.746   7.887  70.063  1.00  0.00     0.000 HD 
HETATM   11  N   UNL     1     -12.450   8.297  71.532  1.00  0.00    -0.308 NA 
HETATM   12  N   UNL     1     -10.734   7.661  69.945  1.00  0.00    -0.249 NA 
HETATM   13  H1  UNL     1     -10.880   6.685  70.207  1.00  0.00     0.000 HD 
ENDROOT
BRANCH   6  14
HETATM   14  N   UNL     1     -11.962  12.223  70.316  1.00  0.00    -0.335 NA 
HETATM   15  C   UNL     1     -12.751  13.234  71.022  1.00  0.00    -0.293 C  
HETATM   16  C   UNL     1     -11.848  14.902  69.348  1.00  0.00    -0.356 C  
HETATM   17  C   UNL     1     -12.039  14.576  70.830  1.00  0.00    -0.398 C  
HETATM   18  C   UNL     1     -11.201  13.739  68.589  1.00  0.00    -0.308 C  
HETATM   19  C   UNL     1     -11.908  12.411  68.866  1.00  0.00    -0.301 C  
ENDBRANCH   6  14
TORSDOF 1
ENDMDL
MODEL       30
REMARK 921   NORMALIZED FREE ENERGY PREDICTED BY IDOCK:   -5.60 KCAL/MOL
REMARK 922        TOTAL FREE ENERGY PREDICTED BY IDOCK:   -6.20 KCAL/MOL
REMARK 923 INTER-LIGAND FREE ENERGY PREDICTED BY IDOCK:   -5.94 KCAL/MOL
REMARK 924 INTRA-LIGAND FREE ENERGY PREDICTED BY IDOCK:   -0.26 KCAL/MOL
REMARK 927      BINDING AFFINITY PREDICTED BY RF-SCORE:    0.00 PKD
ROOT
HETATM    1  N   UNL     1     -11.357  11.546  70.133  1.00  0.00    -0.498 NA 
HETATM    2  H1  UNL     1     -11.853  12.408  70.361  1.00  0.00     0.000 HD 
HETATM    3  C   UNL     1     -11.698  10.323  70.767  1.00  0.00    -0.360 A  
HETATM    4  H2  UNL     1     -11.410  11.406  69.124  1.00  0.00     0.000 HD 
HETATM    5  C   UNL     1     -11.024   9.151  70.457  1.00  0.00    -0.307 A  
HETATM    6  C   UNL     1     -11.401   7.966  71.070  1.00  0.00    -0.274 A  
HETATM    7  N   UNL     1     -12.380   7.938  72.000  1.00  0.00    -0.307 NA 
HETATM    8  O   UNL     1     -13.333  11.391  72.030  1.00  0.00    -0.467 OA 
HETATM    9  C   UNL     1     -13.039   9.079  72.328  1.00  0.00    -0.445 A  
HETATM   10  H2  UNL     1     -13.685   8.602  74.136  1.00  0.00     0.000 HD 
HETATM   11  N   UNL     1     -12.713  10.300  71.726  1.00  0.00    -0.433 NA 
HETATM   12  N   UNL     1     -14.057   9.023  73.285  1.00  0.00    -1.211 NA 
HETATM   13  H1  UNL     1     -14.552   9.880  73.531  1.00  0.00     0.000 HD 
ENDROOT
BRANCH   6  14
HETATM   14  N   UNL     1     -10.852   6.775  70.613  1.00  0.00    -0.238 NA 
HETATM   15  C   UNL     1     -11.284   6.316  69.292  1.00  0.00    -0.389 C  
HETATM   16  C   UNL     1      -9.768   4.321  69.646  1.00  0.00    -0.284 C  
HETATM   17  C   UNL     1     -10.144   5.473  68.713  1.00  0.00    -0.256 C  
HETATM   18  C   UNL     1      -9.519   4.807  71.077  1.00  0.00    -0.227 C  
HETATM   19  C   UNL     1     -10.654   5.699  71.585  1.00  0.00    -0.241 C  
ENDBRANCH   6  14
TORSDOF 1
ENDMDL
MODEL       31
REMARK 921   NORMALIZED FREE ENERGY PREDICTED BY IDOCK:   -5.57 KCAL/MOL
REMARK 922        TOTAL FREE ENERGY PREDICTED BY IDOCK:   -6.17 KCAL/MOL
REMARK 923 INTER-LIGAND FREE ENERGY PREDICTED BY IDOCK:   -5.91 KCAL/MOL
REMARK 924 INTRA-LIGAND FREE ENERGY PREDICTED BY IDOCK:   -0.26 KCAL/MOL
REMARK 927      BINDING AFFINITY PREDICTED BY RF-SCORE:    0.00 PKD
ROOT
HETATM    1  N   UNL     1     -10.283  19.603  69.090  1.00  0.00    -0.627 NA 
HETATM    2  H1  UNL     1      -9.714  20.391  69.398  1.00  0.00     0.000 HD 
HETATM    3  C   UNL     1      -9.876  18.796  67.996  1.00  0.00    -0.343 A  
HETATM    4  H2  UNL     1     -10.443  18.994  69.892  1.00  0.00     0.000 HD 
HETATM    5  C   UNL     1     -10.650  17.724  67.578  1.00  0.00    -0.365 A  
HETATM    6  C   UNL     1     -10.209  16.934  66.526  1.00  0.00    -0.318 A  
HETATM    7  N   UNL     1      -9.063  17.218  65.869  1.00  0.00    -0.529 NA 
HETATM    8  O   UNL     1      -7.973  20.099  67.698  1.00  0.00    -0.293 OA 
HETATM    9  C   UNL     1      -8.302  18.274  66.255  1.00  0.00    -0.203 A  
HETATM   10  H2  UNL     1      -7.323  18.631  64.573  1.00  0.00     0.000 HD 
HETATM   11  N   UNL     1      -8.689  19.092  67.322  1.00  0.00    -0.275 NA 
HETATM   12  N   UNL     1      -7.114  18.539  65.567  1.00  0.00    -0.532 NA 
HETATM   13  H1  UNL     1      -6.541  19.333  65.856  1.00  0.00     0.000 HD 
ENDROOT
BRANCH   6  14
HETATM   14  N   UNL     1     -10.891  15.758  66.244  1.00  0.00    -0.278 NA 
HETATM   15  C   UNL     1     -10.798  14.688  67.238  1.00  0.00    -0.305 C  
HETATM   16  C   UNL     1     -12.257  13.317  65.693  1.00  0.00    -0.514 C  
HETATM   17  C   UNL     1     -12.071  13.846  67.115  1.00  0.00    -0.422 C  
HETATM   18  C   UNL     1     -12.146  14.435  64.651  1.00  0.00    -0.485 C  
HETATM   19  C   UNL     1     -10.893  15.288  64.858  1.00  0.00    -0.425 C  
ENDBRANCH   6  14
TORSDOF 1
ENDMDL
MODEL       32
REMARK 921   NORMALIZED FREE ENERGY PREDICTED BY IDOCK:   -5.56 KCAL/MOL
REMARK 922        TOTAL FREE ENERGY PREDICTED BY IDOCK:   -6.16 KCAL/MOL
REMARK 923 INTER-LIGAND FREE ENERGY PREDICTED BY IDOCK:   -5.90 KCAL/MOL
REMARK 924 INTRA-LIGAND FREE ENERGY PREDICTED BY IDOCK:   -0.27 KCAL/MOL
REMARK 927      BINDING AFFINITY PREDICTED BY RF-SCORE:    0.00 PKD
ROOT
HETATM    1  N   UNL     1     -11.348  14.171  68.150  1.00  0.00    -0.275 NA 
HETATM    2  H1  UNL     1     -12.026  13.457  67.884  1.00  0.00     0.000 HD 
HETATM    3  C   UNL     1     -10.958  15.180  67.232  1.00  0.00    -0.327 A  
HETATM    4  H2  UNL     1     -11.683  14.626  68.999  1.00  0.00     0.000 HD 
HETATM    5  C   UNL     1     -10.036  16.152  67.594  1.00  0.00    -0.248 A  
HETATM    6  C   UNL     1      -9.699  17.143  66.686  1.00  0.00    -0.276 A  
HETATM    7  N   UNL     1     -10.214  17.154  65.437  1.00  0.00    -0.612 NA 
HETATM    8  O   UNL     1     -12.341  14.276  65.596  1.00  0.00    -0.419 OA 
HETATM    9  C   UNL     1     -11.104  16.201  65.060  1.00  0.00    -0.294 A  
HETATM   10  H2  UNL     1     -10.862  16.253  63.097  1.00  0.00     0.000 HD 
HETATM   11  N   UNL     1     -11.495  15.188  65.943  1.00  0.00    -0.229 NA 
HETATM   12  N   UNL     1     -11.632  16.241  63.766  1.00  0.00    -1.482 NA 
HETATM   13  H1  UNL     1     -12.301  15.525  63.482  1.00  0.00     0.000 HD 
ENDROOT
BRANCH   6  14
HETATM   14  N   UNL     1      -8.928  18.213  67.121  1.00  0.00    -0.252 NA 
HETATM   15  C   UNL     1      -8.962  19.425  66.302  1.00  0.00    -0.346 C  
HETATM   16  C   UNL     1      -7.340  20.426  67.966  1.00  0.00    -0.251 C  
HETATM   17  C   UNL     1      -8.670  20.606  67.232  1.00  0.00    -0.322 C  
HETATM   18  C   UNL     1      -7.250  19.057  68.649  1.00  0.00    -0.351 C  
HETATM   19  C   UNL     1      -7.615  17.917  67.696  1.00  0.00    -0.212 C  
ENDBRANCH   6  14
TORSDOF 1
ENDMDL
MODEL       33
REMARK 921   NORMALIZED FREE ENERGY PREDICTED BY IDOCK:   -5.56 KCAL/MOL
REMARK 922        TOTAL FREE ENERGY PREDICTED BY IDOCK:   -6.16 KCAL/MOL
REMARK 923 INTER-LIGAND FREE ENERGY PREDICTED BY IDOCK:   -5.91 KCAL/MOL
REMARK 924 INTRA-LIGAND FREE ENERGY PREDICTED BY IDOCK:   -0.25 KCAL/MOL
REMARK 927      BINDING AFFINITY PREDICTED BY RF-SCORE:    0.00 PKD
ROOT
HETATM    1  N   UNL     1     -12.261  15.136  69.796  1.00  0.00    -0.463 NA 
HETATM    2  H1  UNL     1     -12.197  15.936  69.167  1.00  0.00     0.000 HD 
HETATM    3  C   UNL     1     -12.155  13.811  69.299  1.00  0.00    -0.329 A  
HETATM    4  H2  UNL     1     -11.567  15.256  70.534  1.00  0.00     0.000 HD 
HETATM    5  C   UNL     1     -12.242  12.723  70.155  1.00  0.00    -0.320 A  
HETATM    6  C   UNL     1     -12.101  11.441  69.643  1.00  0.00    -0.305 A  
HETATM    7  N   UNL     1     -11.930  11.229  68.321  1.00  0.00    -0.621 NA 
HETATM    8  O   UNL     1     -11.909  14.607  67.128  1.00  0.00    -0.391 OA 
HETATM    9  C   UNL     1     -11.860  12.283  67.466  1.00  0.00    -0.261 A  
HETATM   10  H2  UNL     1     -12.398  11.400  65.779  1.00  0.00     0.000 HD 
HETATM   11  N   UNL     1     -11.975  13.598  67.931  1.00  0.00    -0.363 NA 
HETATM   12  N   UNL     1     -11.670  12.037  66.103  1.00  0.00    -0.524 NA 
HETATM   13  H1  UNL     1     -11.617  12.828  65.461  1.00  0.00     0.000 HD 
ENDROOT
BRANCH   6  14
HETATM   14  N   UNL     1     -11.999  10.378  70.530  1.00  0.00    -0.307 NA 
HETATM   15  C   UNL     1     -12.789  10.467  71.759  1.00  0.00    -0.456 C  
HETATM   16  C   UNL     1     -11.799   8.226  72.390  1.00  0.00    -0.461 C  
HETATM   17  C   UNL     1     -13.085   9.034  72.209  1.00  0.00    -0.508 C  
HETATM   18  C   UNL     1     -10.893   8.317  71.158  1.00  0.00    -0.276 C  
HETATM   19  C   UNL     1     -10.682   9.765  70.709  1.00  0.00    -0.323 C  
ENDBRANCH   6  14
TORSDOF 1
ENDMDL
MODEL       34
REMARK 921   NORMALIZED FREE ENERGY PREDICTED BY IDOCK:   -5.55 KCAL/MOL
REMARK 922        TOTAL FREE ENERGY PREDICTED BY IDOCK:   -6.15 KCAL/MOL
REMARK 923 INTER-LIGAND FREE ENERGY PREDICTED BY IDOCK:   -5.87 KCAL/MOL
REMARK 924 INTRA-LIGAND FREE ENERGY PREDICTED BY IDOCK:   -0.28 KCAL/MOL
REMARK 927      BINDING AFFINITY PREDICTED BY RF-SCORE:    0.00 PKD
ROOT
HETATM    1  N   UNL     1     -11.990  12.404  65.835  1.00  0.00    -0.587 NA 
HETATM    2  H1  UNL     1     -12.229  11.425  65.988  1.00  0.00     0.000 HD 
HETATM    3  C   UNL     1     -11.798  13.284  66.932  1.00  0.00    -0.392 A  
HETATM    4  H2  UNL     1     -11.157  12.441  65.248  1.00  0.00     0.000 HD 
HETATM    5  C   UNL     1     -11.473  14.617  66.724  1.00  0.00    -0.371 A  
HETATM    6  C   UNL     1     -11.259  15.444  67.817  1.00  0.00    -0.321 A  
HETATM    7  N   UNL     1     -11.409  14.990  69.080  1.00  0.00    -0.273 NA 
HETATM    8  O   UNL     1     -12.269  11.573  68.434  1.00  0.00    -0.540 OA 
HETATM    9  C   UNL     1     -11.743  13.693  69.301  1.00  0.00    -0.325 A  
HETATM   10  H2  UNL     1     -12.550  13.842  71.101  1.00  0.00     0.000 HD 
HETATM   11  N   UNL     1     -11.951  12.809  68.236  1.00  0.00    -0.293 NA 
HETATM   12  N   UNL     1     -11.880  13.244  70.618  1.00  0.00    -0.525 NA 
HETATM   13  H1  UNL     1     -12.132  12.269  70.784  1.00  0.00     0.000 HD 
ENDROOT
BRANCH   6  14
HETATM   14  N   UNL     1     -10.750  16.717  67.599  1.00  0.00    -0.331 NA 
HETATM   15  C   UNL     1     -10.333  17.034  66.232  1.00  0.00    -0.306 C  
HETATM   16  C   UNL     1      -9.675  19.313  67.111  1.00  0.00    -0.409 C  
HETATM   17  C   UNL     1     -10.477  18.549  66.057  1.00  0.00    -0.433 C  
HETATM   18  C   UNL     1      -9.983  18.818  68.528  1.00  0.00    -0.450 C  
HETATM   19  C   UNL     1      -9.891  17.294  68.634  1.00  0.00    -0.313 C  
ENDBRANCH   6  14
TORSDOF 1
ENDMDL
MODEL       35
REMARK 921   NORMALIZED FREE ENERGY PREDICTED BY IDOCK:   -5.53 KCAL/MOL
REMARK 922        TOTAL FREE ENERGY PREDICTED BY IDOCK:   -6.13 KCAL/MOL
REMARK 923 INTER-LIGAND FREE ENERGY PREDICTED BY IDOCK:   -5.87 KCAL/MOL
REMARK 924 INTRA-LIGAND FREE ENERGY PREDICTED BY IDOCK:   -0.25 KCAL/MOL
REMARK 927      BINDING AFFINITY PREDICTED BY RF-SCORE:    0.00 PKD
ROOT
HETATM    1  N   UNL     1     -14.199   8.985  73.310  1.00  0.00    -1.188 NA 
HETATM    2  H1  UNL     1     -14.621   9.852  73.641  1.00  0.00     0.000 HD 
HETATM    3  C   UNL     1     -13.202   9.001  72.301  1.00  0.00    -0.460 A  
HETATM    4  H2  UNL     1     -13.827   8.485  74.117  1.00  0.00     0.000 HD 
HETATM    5  C   UNL     1     -12.628   7.820  71.851  1.00  0.00    -0.339 A  
HETATM    6  C   UNL     1     -11.633   7.871  70.887  1.00  0.00    -0.273 A  
HETATM    7  N   UNL     1     -11.245   9.043  70.341  1.00  0.00    -0.255 NA 
HETATM    8  O   UNL     1     -13.345  11.316  72.146  1.00  0.00    -0.457 OA 
HETATM    9  C   UNL     1     -11.808  10.207  70.757  1.00  0.00    -0.351 A  
HETATM   10  H2  UNL     1     -11.474  11.343  69.172  1.00  0.00     0.000 HD 
HETATM   11  N   UNL     1     -12.802  10.216  71.742  1.00  0.00    -0.430 NA 
HETATM   12  N   UNL     1     -11.380  11.409  70.185  1.00  0.00    -0.499 NA 
HETATM   13  H1  UNL     1     -11.803  12.283  70.498  1.00  0.00     0.000 HD 
ENDROOT
BRANCH   6  14
HETATM   14  N   UNL     1     -10.937   6.708  70.587  1.00  0.00    -0.262 NA 
HETATM   15  C   UNL     1     -11.124   6.158  69.243  1.00  0.00    -0.393 C  
HETATM   16  C   UNL     1      -9.544   4.306  69.934  1.00  0.00    -0.279 C  
HETATM   17  C   UNL     1      -9.850   5.383  68.892  1.00  0.00    -0.226 C  
HETATM   18  C   UNL     1      -9.556   4.874  71.357  1.00  0.00    -0.226 C  
HETATM   19  C   UNL     1     -10.817   5.695  71.636  1.00  0.00    -0.237 C  
ENDBRANCH   6  14
TORSDOF 1
ENDMDL
MODEL       36
REMARK 921   NORMALIZED FREE ENERGY PREDICTED BY IDOCK:   -5.49 KCAL/MOL
REMARK 922        TOTAL FREE ENERGY PREDICTED BY IDOCK:   -6.09 KCAL/MOL
REMARK 923 INTER-LIGAND FREE ENERGY PREDICTED BY IDOCK:   -5.81 KCAL/MOL
REMARK 924 INTRA-LIGAND FREE ENERGY PREDICTED BY IDOCK:   -0.27 KCAL/MOL
REMARK 927      BINDING AFFINITY PREDICTED BY RF-SCORE:    0.00 PKD
ROOT
HETATM    1  N   UNL     1     -10.913  16.329  64.416  1.00  0.00    -1.081 NA 
HETATM    2  H1  UNL     1     -10.720  17.073  63.745  1.00  0.00     0.000 HD 
HETATM    3  C   UNL     1     -10.849  16.576  65.812  1.00  0.00    -0.134 A  
HETATM    4  H2  UNL     1     -11.832  15.940  64.203  1.00  0.00     0.000 HD 
HETATM    5  C   UNL     1     -11.112  15.564  66.724  1.00  0.00    -0.206 A  
HETATM    6  C   UNL     1     -11.073  15.844  68.082  1.00  0.00    -0.338 A  
HETATM    7  N   UNL     1     -10.737  17.071  68.535  1.00  0.00    -0.362 NA 
HETATM    8  O   UNL     1     -10.243  18.788  65.430  1.00  0.00    -0.360 OA 
HETATM    9  C   UNL     1     -10.461  18.069  67.656  1.00  0.00    -0.409 A  
HETATM   10  H2  UNL     1      -9.344  19.238  68.795  1.00  0.00     0.000 HD 
HETATM   11  N   UNL     1     -10.504  17.847  66.275  1.00  0.00    -0.354 NA 
HETATM   12  N   UNL     1     -10.127  19.334  68.150  1.00  0.00    -0.389 NA 
HETATM   13  H1  UNL     1      -9.919  20.083  67.490  1.00  0.00     0.000 HD 
ENDROOT
BRANCH   6  14
HETATM   14  N   UNL     1     -11.522  14.880  68.974  1.00  0.00    -0.284 NA 
HETATM   15  C   UNL     1     -11.908  13.587  68.407  1.00  0.00    -0.373 C  
HETATM   16  C   UNL     1     -12.473  12.878  70.769  1.00  0.00    -0.370 C  
HETATM   17  C   UNL     1     -11.695  12.534  69.498  1.00  0.00    -0.375 C  
HETATM   18  C   UNL     1     -12.205  14.315  71.228  1.00  0.00    -0.426 C  
HETATM   19  C   UNL     1     -12.366  15.321  70.086  1.00  0.00    -0.353 C  
ENDBRANCH   6  14
TORSDOF 1
ENDMDL
MODEL       37
REMARK 921   NORMALIZED FREE ENERGY PREDICTED BY IDOCK:   -5.48 KCAL/MOL
REMARK 922        TOTAL FREE ENERGY PREDICTED BY IDOCK:   -6.07 KCAL/MOL
REMARK 923 INTER-LIGAND FREE ENERGY PREDICTED BY IDOCK:   -5.82 KCAL/MOL
REMARK 924 INTRA-LIGAND FREE ENERGY PREDICTED BY IDOCK:   -0.25 KCAL/MOL
REMARK 927      BINDING AFFINITY PREDICTED BY RF-SCORE:    0.00 PKD
ROOT
HETATM    1  N   UNL     1     -13.792  14.021  72.776  1.00  0.00    -0.676 NA 
HETATM    2  H1  UNL     1     -13.744  15.035  72.681  1.00  0.00     0.000 HD 
HETATM    3  C   UNL     1     -13.168  13.172  71.825  1.00  0.00    -0.403 A  
HETATM    4  H2  UNL     1     -13.445  13.771  73.702  1.00  0.00     0.000 HD 
HETATM    5  C   UNL     1     -13.233  11.792  71.954  1.00  0.00    -0.468 A  
HETATM    6  C   UNL     1     -12.586  10.990  71.027  1.00  0.00    -0.411 A  
HETATM    7  N   UNL     1     -11.933  11.524  69.973  1.00  0.00    -0.339 NA 
HETATM    8  O   UNL     1     -12.441  15.013  70.605  1.00  0.00    -0.317 OA 
HETATM    9  C   UNL     1     -11.873  12.872  69.822  1.00  0.00    -0.310 A  
HETATM   10  H2  UNL     1     -11.554  12.991  67.873  1.00  0.00     0.000 HD 
HETATM   11  N   UNL     1     -12.491  13.729  70.739  1.00  0.00    -0.360 NA 
HETATM   12  N   UNL     1     -11.180  13.401  68.728  1.00  0.00    -0.261 NA 
HETATM   13  H1  UNL     1     -11.135  14.414  68.614  1.00  0.00     0.000 HD 
ENDROOT
BRANCH   6  14
HETATM   14  N   UNL     1     -12.497   9.626  71.273  1.00  0.00    -0.334 NA 
HETATM   15  C   UNL     1     -13.660   8.993  71.896  1.00  0.00    -0.431 C  
HETATM   16  C   UNL     1     -12.349   6.831  71.817  1.00  0.00    -0.400 C  
HETATM   17  C   UNL     1     -13.664   7.525  71.458  1.00  0.00    -0.460 C  
HETATM   18  C   UNL     1     -11.134   7.625  71.326  1.00  0.00    -0.268 C  
HETATM   19  C   UNL     1     -11.212   9.098  71.732  1.00  0.00    -0.381 C  
ENDBRANCH   6  14
TORSDOF 1
ENDMDL
MODEL       38
REMARK 921   NORMALIZED FREE ENERGY PREDICTED BY IDOCK:   -5.46 KCAL/MOL
REMARK 922        TOTAL FREE ENERGY PREDICTED BY IDOCK:   -6.05 KCAL/MOL
REMARK 923 INTER-LIGAND FREE ENERGY PREDICTED BY IDOCK:   -5.80 KCAL/MOL
REMARK 924 INTRA-LIGAND FREE ENERGY PREDICTED BY IDOCK:   -0.25 KCAL/MOL
REMARK 927      BINDING AFFINITY PREDICTED BY RF-SCORE:    0.00 PKD
ROOT
HETATM    1  N   UNL     1     -11.455  11.944  70.290  1.00  0.00    -0.506 NA 
HETATM    2  H1  UNL     1     -11.956  12.770  70.616  1.00  0.00     0.000 HD 
HETATM    3  C   UNL     1     -11.789  10.653  70.774  1.00  0.00    -0.357 A  
HETATM    4  H2  UNL     1     -11.503  11.925  69.271  1.00  0.00     0.000 HD 
HETATM    5  C   UNL     1     -11.107   9.530  70.330  1.00  0.00    -0.330 A  
HETATM    6  C   UNL     1     -11.479   8.278  70.797  1.00  0.00    -0.252 A  
HETATM    7  N   UNL     1     -12.461   8.135  71.713  1.00  0.00    -0.317 NA 
HETATM    8  O   UNL     1     -13.435  11.555  72.147  1.00  0.00    -0.410 OA 
HETATM    9  C   UNL     1     -13.128   9.226  72.171  1.00  0.00    -0.443 A  
HETATM   10  H2  UNL     1     -13.777   8.534  73.907  1.00  0.00     0.000 HD 
HETATM   11  N   UNL     1     -12.808  10.511  71.718  1.00  0.00    -0.457 NA 
HETATM   12  N   UNL     1     -14.149   9.050  73.110  1.00  0.00    -1.223 NA 
HETATM   13  H1  UNL     1     -14.651   9.869  73.454  1.00  0.00     0.000 HD 
ENDROOT
BRANCH   6  14
HETATM   14  N   UNL     1     -10.921   7.153  70.206  1.00  0.00    -0.256 NA 
HETATM   15  C   UNL     1     -10.017   6.353  71.034  1.00  0.00    -0.181 C  
HETATM   16  C   UNL     1      -9.733   4.846  69.022  1.00  0.00    -0.245 C  
HETATM   17  C   UNL     1     -10.079   4.916  70.511  1.00  0.00    -0.312 C  
HETATM   18  C   UNL     1     -10.555   5.845  68.201  1.00  0.00    -0.312 C  
HETATM   19  C   UNL     1     -10.515   7.251  68.803  1.00  0.00    -0.200 C  
ENDBRANCH   6  14
TORSDOF 1
ENDMDL
MODEL       39
REMARK 921   NORMALIZED FREE ENERGY PREDICTED BY IDOCK:   -5.45 KCAL/MOL
REMARK 922        TOTAL FREE ENERGY PREDICTED BY IDOCK:   -6.04 KCAL/MOL
REMARK 923 INTER-LIGAND FREE ENERGY PREDICTED BY IDOCK:   -5.77 KCAL/MOL
REMARK 924 INTRA-LIGAND FREE ENERGY PREDICTED BY IDOCK:   -0.27 KCAL/MOL
REMARK 927      BINDING AFFINITY PREDICTED BY RF-SCORE:    0.00 PKD
ROOT
HETATM    1  N   UNL     1     -11.615  11.042  70.539  1.00  0.00    -0.422 NA 
HETATM    2  H1  UNL     1     -11.760  11.314  71.511  1.00  0.00     0.000 HD 
HETATM    3  C   UNL     1     -11.713  11.997  69.495  1.00  0.00    -0.342 A  
HETATM    4  H2  UNL     1     -10.704  10.586  70.469  1.00  0.00     0.000 HD 
HETATM    5  C   UNL     1     -11.515  11.627  68.173  1.00  0.00    -0.382 A  
HETATM    6  C   UNL     1     -11.586  12.589  67.177  1.00  0.00    -0.368 A  
HETATM    7  N   UNL     1     -11.892  13.873  67.464  1.00  0.00    -0.378 NA 
HETATM    8  O   UNL     1     -12.228  13.670  71.025  1.00  0.00    -0.351 OA 
HETATM    9  C   UNL     1     -12.105  14.250  68.752  1.00  0.00    -0.265 A  
HETATM   10  H2  UNL     1     -13.215  15.862  68.464  1.00  0.00     0.000 HD 
HETATM   11  N   UNL     1     -12.027  13.324  69.797  1.00  0.00    -0.327 NA 
HETATM   12  N   UNL     1     -12.409  15.587  69.024  1.00  0.00    -0.611 NA 
HETATM   13  H1  UNL     1     -12.569  15.871  69.991  1.00  0.00     0.000 HD 
ENDROOT
BRANCH   6  14
HETATM   14  N   UNL     1     -11.199  12.246  65.889  1.00  0.00    -0.325 NA 
HETATM   15  C   UNL     1      -9.961  11.477  65.756  1.00  0.00    -0.233 C  
HETATM   16  C   UNL     1     -10.355  11.540  63.258  1.00  0.00    -0.435 C  
HETATM   17  C   UNL     1     -10.077  10.652  64.472  1.00  0.00    -0.421 C  
HETATM   18  C   UNL     1     -11.537  12.483  63.503  1.00  0.00    -0.584 C  
HETATM   19  C   UNL     1     -11.405  13.234  64.829  1.00  0.00    -0.327 C  
ENDBRANCH   6  14
TORSDOF 1
ENDMDL
MODEL       40
REMARK 921   NORMALIZED FREE ENERGY PREDICTED BY IDOCK:   -5.43 KCAL/MOL
REMARK 922        TOTAL FREE ENERGY PREDICTED BY IDOCK:   -6.02 KCAL/MOL
REMARK 923 INTER-LIGAND FREE ENERGY PREDICTED BY IDOCK:   -5.76 KCAL/MOL
REMARK 924 INTRA-LIGAND FREE ENERGY PREDICTED BY IDOCK:   -0.26 KCAL/MOL
REMARK 927      BINDING AFFINITY PREDICTED BY RF-SCORE:    0.00 PKD
ROOT
HETATM    1  N   UNL     1     -11.405  12.169  66.187  1.00  0.00    -0.346 NA 
HETATM    2  H1  UNL     1     -11.455  12.943  65.525  1.00  0.00     0.000 HD 
HETATM    3  C   UNL     1     -11.669  12.374  67.566  1.00  0.00    -0.357 A  
HETATM    4  H2  UNL     1     -12.018  11.425  65.853  1.00  0.00     0.000 HD 
HETATM    5  C   UNL     1     -11.601  11.321  68.466  1.00  0.00    -0.384 A  
HETATM    6  C   UNL     1     -11.896  11.547  69.803  1.00  0.00    -0.357 A  
HETATM    7  N   UNL     1     -12.201  12.783  70.254  1.00  0.00    -0.317 NA 
HETATM    8  O   UNL     1     -12.036  14.641  67.196  1.00  0.00    -0.391 OA 
HETATM    9  C   UNL     1     -12.255  13.828  69.389  1.00  0.00    -0.278 A  
HETATM   10  H2  UNL     1     -11.947  15.331  70.639  1.00  0.00     0.000 HD 
HETATM   11  N   UNL     1     -11.987  13.653  68.027  1.00  0.00    -0.366 NA 
HETATM   12  N   UNL     1     -12.586  15.095  69.879  1.00  0.00    -0.589 NA 
HETATM   13  H1  UNL     1     -12.627  15.881  69.230  1.00  0.00     0.000 HD 
ENDROOT
BRANCH   6  14
HETATM   14  N   UNL     1     -12.011  10.456  70.653  1.00  0.00    -0.321 NA 
HETATM   15  C   UNL     1     -12.918  10.603  71.793  1.00  0.00    -0.472 C  
HETATM   16  C   UNL     1     -12.260   8.247  72.440  1.00  0.00    -0.412 C  
HETATM   17  C   UNL     1     -13.420   9.202  72.153  1.00  0.00    -0.530 C  
HETATM   18  C   UNL     1     -11.218   8.266  71.317  1.00  0.00    -0.302 C  
HETATM   19  C   UNL     1     -10.799   9.691  70.949  1.00  0.00    -0.339 C  
ENDBRANCH   6  14
TORSDOF 1
ENDMDL
MODEL       41
REMARK 921   NORMALIZED FREE ENERGY PREDICTED BY IDOCK:   -5.43 KCAL/MOL
REMARK 922        TOTAL FREE ENERGY PREDICTED BY IDOCK:   -6.02 KCAL/MOL
REMARK 923 INTER-LIGAND FREE ENERGY PREDICTED BY IDOCK:   -5.74 KCAL/MOL
REMARK 924 INTRA-LIGAND FREE ENERGY PREDICTED BY IDOCK:   -0.28 KCAL/MOL
REMARK 927      BINDING AFFINITY PREDICTED BY RF-SCORE:    0.00 PKD
ROOT
HETATM    1  N   UNL     1     -13.204  15.678  70.825  1.00  0.00    -0.728 NA 
HETATM    2  H1  UNL     1     -13.737  15.944  71.652  1.00  0.00     0.000 HD 
HETATM    3  C   UNL     1     -12.844  14.324  70.598  1.00  0.00    -0.314 A  
HETATM    4  H2  UNL     1     -13.702  16.017  70.003  1.00  0.00     0.000 HD 
HETATM    5  C   UNL     1     -12.118  13.962  69.474  1.00  0.00    -0.393 A  
HETATM    6  C   UNL     1     -11.809  12.626  69.263  1.00  0.00    -0.302 A  
HETATM    7  N   UNL     1     -12.159  11.677  70.157  1.00  0.00    -0.336 NA 
HETATM    8  O   UNL     1     -13.873  13.680  72.582  1.00  0.00    -0.715 OA 
HETATM    9  C   UNL     1     -12.855  12.016  71.272  1.00  0.00    -0.265 A  
HETATM   10  H2  UNL     1     -12.378  10.504  72.455  1.00  0.00     0.000 HD 
HETATM   11  N   UNL     1     -13.211  13.346  71.525  1.00  0.00    -0.342 NA 
HETATM   12  N   UNL     1     -13.217  11.013  72.176  1.00  0.00    -0.583 NA 
HETATM   13  H1  UNL     1     -13.740  11.267  73.014  1.00  0.00     0.000 HD 
ENDROOT
BRANCH   6  14
HETATM   14  N   UNL     1     -11.253  12.255  68.046  1.00  0.00    -0.249 NA 
HETATM   15  C   UNL     1     -11.534  13.123  66.902  1.00  0.00    -0.341 C  
HETATM   16  C   UNL     1     -10.151  11.515  65.522  1.00  0.00    -0.286 C  
HETATM   17  C   UNL     1     -10.364  12.975  65.925  1.00  0.00    -0.296 C  
HETATM   18  C   UNL     1     -10.064  10.595  66.744  1.00  0.00    -0.272 C  
HETATM   19  C   UNL     1     -11.219  10.828  67.720  1.00  0.00    -0.316 C  
ENDBRANCH   6  14
TORSDOF 1
ENDMDL
MODEL       42
REMARK 921   NORMALIZED FREE ENERGY PREDICTED BY IDOCK:   -5.40 KCAL/MOL
REMARK 922        TOTAL FREE ENERGY PREDICTED BY IDOCK:   -5.99 KCAL/MOL
REMARK 923 INTER-LIGAND FREE ENERGY PREDICTED BY IDOCK:   -5.73 KCAL/MOL
REMARK 924 INTRA-LIGAND FREE ENERGY PREDICTED BY IDOCK:   -0.26 KCAL/MOL
REMARK 927      BINDING AFFINITY PREDICTED BY RF-SCORE:    0.00 PKD
ROOT
HETATM    1  N   UNL     1     -10.627  17.508  69.051  1.00  0.00    -0.369 NA 
HETATM    2  H1  UNL     1     -10.689  17.994  69.945  1.00  0.00     0.000 HD 
HETATM    3  C   UNL     1     -11.096  16.175  68.915  1.00  0.00    -0.347 A  
HETATM    4  H2  UNL     1     -11.089  18.081  68.345  1.00  0.00     0.000 HD 
HETATM    5  C   UNL     1     -11.012  15.514  67.698  1.00  0.00    -0.315 A  
HETATM    6  C   UNL     1     -11.508  14.224  67.589  1.00  0.00    -0.346 A  
HETATM    7  N   UNL     1     -12.028  13.580  68.656  1.00  0.00    -0.358 NA 
HETATM    8  O   UNL     1     -11.700  16.121  71.160  1.00  0.00    -0.430 OA 
HETATM    9  C   UNL     1     -12.102  14.206  69.859  1.00  0.00    -0.347 A  
HETATM   10  H2  UNL     1     -12.159  12.639  71.065  1.00  0.00     0.000 HD 
HETATM   11  N   UNL     1     -11.635  15.515  70.021  1.00  0.00    -0.312 NA 
HETATM   12  N   UNL     1     -12.655  13.522  70.945  1.00  0.00    -0.352 NA 
HETATM   13  H1  UNL     1     -12.711  13.992  71.849  1.00  0.00     0.000 HD 
ENDROOT
BRANCH   6  14
HETATM   14  N   UNL     1     -11.593  13.647  66.329  1.00  0.00    -0.334 NA 
HETATM   15  C   UNL     1     -12.602  14.195  65.421  1.00  0.00    -0.466 C  
HETATM   16  C   UNL     1     -11.819  12.477  63.738  1.00  0.00    -0.577 C  
HETATM   17  C   UNL     1     -12.102  13.958  63.994  1.00  0.00    -0.437 C  
HETATM   18  C   UNL     1     -10.919  11.875  64.823  1.00  0.00    -0.366 C  
HETATM   19  C   UNL     1     -11.426  12.197  66.230  1.00  0.00    -0.374 C  
ENDBRANCH   6  14
TORSDOF 1
ENDMDL
MODEL       43
REMARK 921   NORMALIZED FREE ENERGY PREDICTED BY IDOCK:   -5.39 KCAL/MOL
REMARK 922        TOTAL FREE ENERGY PREDICTED BY IDOCK:   -5.98 KCAL/MOL
REMARK 923 INTER-LIGAND FREE ENERGY PREDICTED BY IDOCK:   -5.73 KCAL/MOL
REMARK 924 INTRA-LIGAND FREE ENERGY PREDICTED BY IDOCK:   -0.25 KCAL/MOL
REMARK 927      BINDING AFFINITY PREDICTED BY RF-SCORE:    0.00 PKD
ROOT
HETATM    1  N   UNL     1     -12.124  13.625  70.833  1.00  0.00    -0.473 NA 
HETATM    2  H1  UNL     1     -12.044  14.164  71.694  1.00  0.00     0.000 HD 
HETATM    3  C   UNL     1     -11.831  14.214  69.576  1.00  0.00    -0.322 A  
HETATM    4  H2  UNL     1     -11.555  12.784  70.930  1.00  0.00     0.000 HD 
HETATM    5  C   UNL     1     -11.940  13.480  68.404  1.00  0.00    -0.378 A  
HETATM    6  C   UNL     1     -11.615  14.075  67.194  1.00  0.00    -0.372 A  
HETATM    7  N   UNL     1     -11.241  15.371  67.129  1.00  0.00    -0.300 NA 
HETATM    8  O   UNL     1     -11.354  16.247  70.600  1.00  0.00    -0.386 OA 
HETATM    9  C   UNL     1     -11.145  16.109  68.264  1.00  0.00    -0.348 A  
HETATM   10  H2  UNL     1     -11.358  17.928  67.516  1.00  0.00     0.000 HD 
HETATM   11  N   UNL     1     -11.441  15.554  69.514  1.00  0.00    -0.307 NA 
HETATM   12  N   UNL     1     -10.743  17.445  68.171  1.00  0.00    -0.373 NA 
HETATM   13  H1  UNL     1     -10.671  18.001  69.024  1.00  0.00     0.000 HD 
ENDROOT
BRANCH   6  14
HETATM   14  N   UNL     1     -11.543  13.280  66.058  1.00  0.00    -0.335 NA 
HETATM   15  C   UNL     1     -12.582  13.483  65.047  1.00  0.00    -0.391 C  
HETATM   16  C   UNL     1     -11.449  11.651  63.720  1.00  0.00    -0.457 C  
HETATM   17  C   UNL     1     -11.980  13.085  63.696  1.00  0.00    -0.608 C  
HETATM   18  C   UNL     1     -10.519  11.408  64.913  1.00  0.00    -0.363 C  
HETATM   19  C   UNL     1     -11.139  11.883  66.228  1.00  0.00    -0.314 C  
ENDBRANCH   6  14
TORSDOF 1
ENDMDL
MODEL       44
REMARK 921   NORMALIZED FREE ENERGY PREDICTED BY IDOCK:   -5.37 KCAL/MOL
REMARK 922        TOTAL FREE ENERGY PREDICTED BY IDOCK:   -5.96 KCAL/MOL
REMARK 923 INTER-LIGAND FREE ENERGY PREDICTED BY IDOCK:   -5.69 KCAL/MOL
REMARK 924 INTRA-LIGAND FREE ENERGY PREDICTED BY IDOCK:   -0.27 KCAL/MOL
REMARK 927      BINDING AFFINITY PREDICTED BY RF-SCORE:    0.00 PKD
ROOT
HETATM    1  N   UNL     1     -11.798   9.888  69.768  1.00  0.00    -0.463 NA 
HETATM    2  H1  UNL     1     -12.056   9.123  70.391  1.00  0.00     0.000 HD 
HETATM    3  C   UNL     1     -12.131  11.230  70.088  1.00  0.00    -0.366 A  
HETATM    4  H2  UNL     1     -10.793   9.840  69.604  1.00  0.00     0.000 HD 
HETATM    5  C   UNL     1     -11.781  12.270  69.240  1.00  0.00    -0.388 A  
HETATM    6  C   UNL     1     -12.091  13.574  69.596  1.00  0.00    -0.306 A  
HETATM    7  N   UNL     1     -12.771  13.847  70.731  1.00  0.00    -0.329 NA 
HETATM    8  O   UNL     1     -13.174  10.541  72.049  1.00  0.00    -0.464 OA 
HETATM    9  C   UNL     1     -13.137  12.839  71.564  1.00  0.00    -0.286 A  
HETATM   10  H2  UNL     1     -14.658  13.693  72.498  1.00  0.00     0.000 HD 
HETATM   11  N   UNL     1     -12.831  11.507  71.264  1.00  0.00    -0.399 NA 
HETATM   12  N   UNL     1     -13.829  13.150  72.738  1.00  0.00    -0.706 NA 
HETATM   13  H1  UNL     1     -14.104  12.393  73.365  1.00  0.00     0.000 HD 
ENDROOT
BRANCH   6  14
HETATM   14  N   UNL     1     -11.570  14.614  68.839  1.00  0.00    -0.294 NA 
HETATM   15  C   UNL     1     -11.665  15.957  69.412  1.00  0.00    -0.343 C  
HETATM   16  C   UNL     1     -10.533  16.784  67.306  1.00  0.00    -0.310 C  
HETATM   17  C   UNL     1     -10.508  16.777  68.835  1.00  0.00    -0.332 C  
HETATM   18  C   UNL     1     -10.639  15.366  66.734  1.00  0.00    -0.309 C  
HETATM   19  C   UNL     1     -11.767  14.567  67.390  1.00  0.00    -0.400 C  
ENDBRANCH   6  14
TORSDOF 1
ENDMDL
MODEL       45
REMARK 921   NORMALIZED FREE ENERGY PREDICTED BY IDOCK:   -5.36 KCAL/MOL
REMARK 922        TOTAL FREE ENERGY PREDICTED BY IDOCK:   -5.95 KCAL/MOL
REMARK 923 INTER-LIGAND FREE ENERGY PREDICTED BY IDOCK:   -5.68 KCAL/MOL
REMARK 924 INTRA-LIGAND FREE ENERGY PREDICTED BY IDOCK:   -0.27 KCAL/MOL
REMARK 927      BINDING AFFINITY PREDICTED BY RF-SCORE:    0.00 PKD
ROOT
HETATM    1  N   UNL     1     -13.709  13.530  72.648  1.00  0.00    -0.730 NA 
HETATM    2  H1  UNL     1     -14.123  12.849  73.285  1.00  0.00     0.000 HD 
HETATM    3  C   UNL     1     -13.000  13.107  71.494  1.00  0.00    -0.321 A  
HETATM    4  H2  UNL     1     -14.442  14.174  72.352  1.00  0.00     0.000 HD 
HETATM    5  C   UNL     1     -12.437  14.032  70.628  1.00  0.00    -0.435 A  
HETATM    6  C   UNL     1     -11.777  13.589  69.491  1.00  0.00    -0.322 A  
HETATM    7  N   UNL     1     -11.629  12.271  69.236  1.00  0.00    -0.304 NA 
HETATM    8  O   UNL     1     -13.360  10.877  72.046  1.00  0.00    -0.448 OA 
HETATM    9  C   UNL     1     -12.159  11.351  70.083  1.00  0.00    -0.357 A  
HETATM   10  H2  UNL     1     -11.010   9.794  69.670  1.00  0.00     0.000 HD 
HETATM   11  N   UNL     1     -12.852  11.743  71.233  1.00  0.00    -0.363 NA 
HETATM   12  N   UNL     1     -12.003   9.992  69.790  1.00  0.00    -0.475 NA 
HETATM   13  H1  UNL     1     -12.401   9.301  70.426  1.00  0.00     0.000 HD 
ENDROOT
BRANCH   6  14
HETATM   14  N   UNL     1     -11.389  14.522  68.539  1.00  0.00    -0.271 NA 
HETATM   15  C   UNL     1     -11.541  15.932  68.900  1.00  0.00    -0.388 C  
HETATM   16  C   UNL     1     -10.625  16.473  66.604  1.00  0.00    -0.216 C  
HETATM   17  C   UNL     1     -10.491  16.716  68.108  1.00  0.00    -0.321 C  
HETATM   18  C   UNL     1     -10.667  14.977  66.273  1.00  0.00    -0.322 C  
HETATM   19  C   UNL     1     -11.685  14.228  67.137  1.00  0.00    -0.404 C  
ENDBRANCH   6  14
TORSDOF 1
ENDMDL
MODEL       46
REMARK 921   NORMALIZED FREE ENERGY PREDICTED BY IDOCK:   -5.31 KCAL/MOL
REMARK 922        TOTAL FREE ENERGY PREDICTED BY IDOCK:   -5.90 KCAL/MOL
REMARK 923 INTER-LIGAND FREE ENERGY PREDICTED BY IDOCK:   -5.66 KCAL/MOL
REMARK 924 INTRA-LIGAND FREE ENERGY PREDICTED BY IDOCK:   -0.24 KCAL/MOL
REMARK 927      BINDING AFFINITY PREDICTED BY RF-SCORE:    0.00 PKD
ROOT
HETATM    1  N   UNL     1     -11.283  16.393  69.852  1.00  0.00    -0.381 NA 
HETATM    2  H1  UNL     1     -11.090  17.191  70.458  1.00  0.00     0.000 HD 
HETATM    3  C   UNL     1     -11.025  16.460  68.459  1.00  0.00    -0.350 A  
HETATM    4  H2  UNL     1     -10.790  15.583  70.228  1.00  0.00     0.000 HD 
HETATM    5  C   UNL     1     -11.288  15.375  67.635  1.00  0.00    -0.292 A  
HETATM    6  C   UNL     1     -10.996  15.460  66.282  1.00  0.00    -0.278 A  
HETATM    7  N   UNL     1     -10.506  16.597  65.741  1.00  0.00    -0.427 NA 
HETATM    8  O   UNL     1     -10.286  18.655  68.665  1.00  0.00    -0.375 OA 
HETATM    9  C   UNL     1     -10.259  17.674  66.530  1.00  0.00    -0.355 A  
HETATM   10  H2  UNL     1     -10.352  19.121  65.183  1.00  0.00     0.000 HD 
HETATM   11  N   UNL     1     -10.516  17.637  67.905  1.00  0.00    -0.379 NA 
HETATM   12  N   UNL     1      -9.741  18.835  65.948  1.00  0.00    -0.467 NA 
HETATM   13  H1  UNL     1      -9.555  19.645  66.540  1.00  0.00     0.000 HD 
ENDROOT
BRANCH   6  14
HETATM   14  N   UNL     1     -11.082  14.311  65.508  1.00  0.00    -0.313 NA 
HETATM   15  C   UNL     1     -12.365  14.055  64.851  1.00  0.00    -0.427 C  
HETATM   16  C   UNL     1     -11.311  11.949  63.927  1.00  0.00    -0.509 C  
HETATM   17  C   UNL     1     -12.071  13.233  63.593  1.00  0.00    -0.551 C  
HETATM   18  C   UNL     1     -10.077  12.228  64.792  1.00  0.00    -0.271 C  
HETATM   19  C   UNL     1     -10.411  13.107  65.999  1.00  0.00    -0.287 C  
ENDBRANCH   6  14
TORSDOF 1
ENDMDL
MODEL       47
REMARK 921   NORMALIZED FREE ENERGY PREDICTED BY IDOCK:   -5.31 KCAL/MOL
REMARK 922        TOTAL FREE ENERGY PREDICTED BY IDOCK:   -5.89 KCAL/MOL
REMARK 923 INTER-LIGAND FREE ENERGY PREDICTED BY IDOCK:   -5.64 KCAL/MOL
REMARK 924 INTRA-LIGAND FREE ENERGY PREDICTED BY IDOCK:   -0.25 KCAL/MOL
REMARK 927      BINDING AFFINITY PREDICTED BY RF-SCORE:    0.00 PKD
ROOT
HETATM    1  N   UNL     1     -11.891  16.573  72.077  1.00  0.00    -0.643 NA 
HETATM    2  H1  UNL     1     -12.204  16.814  73.017  1.00  0.00     0.000 HD 
HETATM    3  C   UNL     1     -12.094  15.269  71.556  1.00  0.00    -0.359 A  
HETATM    4  H2  UNL     1     -12.298  17.244  71.425  1.00  0.00     0.000 HD 
HETATM    5  C   UNL     1     -11.668  14.942  70.277  1.00  0.00    -0.352 A  
HETATM    6  C   UNL     1     -11.910  13.668  69.784  1.00  0.00    -0.327 A  
HETATM    7  N   UNL     1     -12.509  12.725  70.542  1.00  0.00    -0.253 NA 
HETATM    8  O   UNL     1     -13.100  14.594  73.541  1.00  0.00    -0.566 OA 
HETATM    9  C   UNL     1     -12.917  13.024  71.803  1.00  0.00    -0.321 A  
HETATM   10  H2  UNL     1     -12.940  11.213  72.600  1.00  0.00     0.000 HD 
HETATM   11  N   UNL     1     -12.717  14.299  72.343  1.00  0.00    -0.315 NA 
HETATM   12  N   UNL     1     -13.546  12.033  72.563  1.00  0.00    -0.482 NA 
HETATM   13  H1  UNL     1     -13.852  12.257  73.510  1.00  0.00     0.000 HD 
ENDROOT
BRANCH   6  14
HETATM   14  N   UNL     1     -11.653  13.413  68.443  1.00  0.00    -0.310 NA 
HETATM   15  C   UNL     1     -10.561  12.484  68.148  1.00  0.00    -0.226 C  
HETATM   16  C   UNL     1     -11.076  12.878  65.703  1.00  0.00    -0.307 C  
HETATM   17  C   UNL     1     -10.877  11.831  66.800  1.00  0.00    -0.312 C  
HETATM   18  C   UNL     1     -12.079  13.957  66.122  1.00  0.00    -0.478 C  
HETATM   19  C   UNL     1     -11.758  14.530  67.504  1.00  0.00    -0.386 C  
ENDBRANCH   6  14
TORSDOF 1
ENDMDL
MODEL       48
REMARK 921   NORMALIZED FREE ENERGY PREDICTED BY IDOCK:   -5.25 KCAL/MOL
REMARK 922        TOTAL FREE ENERGY PREDICTED BY IDOCK:   -5.83 KCAL/MOL
REMARK 923 INTER-LIGAND FREE ENERGY PREDICTED BY IDOCK:   -5.58 KCAL/MOL
REMARK 924 INTRA-LIGAND FREE ENERGY PREDICTED BY IDOCK:   -0.26 KCAL/MOL
REMARK 927      BINDING AFFINITY PREDICTED BY RF-SCORE:    0.00 PKD
ROOT
HETATM    1  N   UNL     1     -10.030  10.338  65.559  1.00  0.00    -0.286 NA 
HETATM    2  H1  UNL     1     -10.098   9.740  64.736  1.00  0.00     0.000 HD 
HETATM    3  C   UNL     1     -10.579  11.646  65.555  1.00  0.00    -0.279 A  
HETATM    4  H2  UNL     1     -10.421   9.831  66.353  1.00  0.00     0.000 HD 
HETATM    5  C   UNL     1     -10.486  12.459  66.674  1.00  0.00    -0.251 A  
HETATM    6  C   UNL     1     -11.062  13.721  66.650  1.00  0.00    -0.311 A  
HETATM    7  N   UNL     1     -11.669  14.193  65.540  1.00  0.00    -0.334 NA 
HETATM    8  O   UNL     1     -11.284  11.381  63.354  1.00  0.00    -0.357 OA 
HETATM    9  C   UNL     1     -11.754  13.416  64.429  1.00  0.00    -0.394 A  
HETATM   10  H2  UNL     1     -11.968  14.812  63.044  1.00  0.00     0.000 HD 
HETATM   11  N   UNL     1     -11.209  12.128  64.405  1.00  0.00    -0.324 NA 
HETATM   12  N   UNL     1     -12.399  13.923  63.297  1.00  0.00    -1.148 NA 
HETATM   13  H1  UNL     1     -12.463  13.340  62.462  1.00  0.00     0.000 HD 
ENDROOT
BRANCH   6  14
HETATM   14  N   UNL     1     -11.129  14.445  67.832  1.00  0.00    -0.266 NA 
HETATM   15  C   UNL     1     -12.084  13.976  68.838  1.00  0.00    -0.316 C  
HETATM   16  C   UNL     1     -11.318  15.919  70.267  1.00  0.00    -0.381 C  
HETATM   17  C   UNL     1     -11.547  14.408  70.206  1.00  0.00    -0.311 C  
HETATM   18  C   UNL     1     -10.481  16.415  69.083  1.00  0.00    -0.303 C  
HETATM   19  C   UNL     1     -11.020  15.902  67.746  1.00  0.00    -0.315 C  
ENDBRANCH   6  14
TORSDOF 1
ENDMDL
MODEL       49
REMARK 921   NORMALIZED FREE ENERGY PREDICTED BY IDOCK:   -5.24 KCAL/MOL
REMARK 922        TOTAL FREE ENERGY PREDICTED BY IDOCK:   -5.82 KCAL/MOL
REMARK 923 INTER-LIGAND FREE ENERGY PREDICTED BY IDOCK:   -5.55 KCAL/MOL
REMARK 924 INTRA-LIGAND FREE ENERGY PREDICTED BY IDOCK:   -0.27 KCAL/MOL
REMARK 927      BINDING AFFINITY PREDICTED BY RF-SCORE:    0.00 PKD
ROOT
HETATM    1  N   UNL     1     -13.997  15.621  72.217  1.00  0.00    -0.521 NA 
HETATM    2  H1  UNL     1     -14.515  15.258  73.016  1.00  0.00     0.000 HD 
HETATM    3  C   UNL     1     -13.269  14.749  71.366  1.00  0.00    -0.371 A  
HETATM    4  H2  UNL     1     -14.640  16.164  71.641  1.00  0.00     0.000 HD 
HETATM    5  C   UNL     1     -12.563  15.244  70.279  1.00  0.00    -0.388 A  
HETATM    6  C   UNL     1     -11.888  14.363  69.447  1.00  0.00    -0.325 A  
HETATM    7  N   UNL     1     -11.864  13.037  69.703  1.00  0.00    -0.320 NA 
HETATM    8  O   UNL     1     -13.891  12.916  72.654  1.00  0.00    -0.596 OA 
HETATM    9  C   UNL     1     -12.535  12.538  70.773  1.00  0.00    -0.268 A  
HETATM   10  H2  UNL     1     -11.531  10.857  71.061  1.00  0.00     0.000 HD 
HETATM   11  N   UNL     1     -13.249  13.379  71.633  1.00  0.00    -0.377 NA 
HETATM   12  N   UNL     1     -12.504  11.160  71.009  1.00  0.00    -0.393 NA 
HETATM   13  H1  UNL     1     -13.007  10.785  71.813  1.00  0.00     0.000 HD 
ENDROOT
BRANCH   6  14
HETATM   14  N   UNL     1     -11.350  14.845  68.262  1.00  0.00    -0.296 NA 
HETATM   15  C   UNL     1     -11.138  16.291  68.176  1.00  0.00    -0.329 C  
HETATM   16  C   UNL     1     -10.268  15.882  65.836  1.00  0.00    -0.373 C  
HETATM   17  C   UNL     1      -9.983  16.520  67.197  1.00  0.00    -0.266 C  
HETATM   18  C   UNL     1     -10.688  14.415  65.972  1.00  0.00    -0.302 C  
HETATM   19  C   UNL     1     -11.797  14.232  67.011  1.00  0.00    -0.428 C  
ENDBRANCH   6  14
TORSDOF 1
ENDMDL
MODEL       50
REMARK 921   NORMALIZED FREE ENERGY PREDICTED BY IDOCK:   -5.22 KCAL/MOL
REMARK 922        TOTAL FREE ENERGY PREDICTED BY IDOCK:   -5.80 KCAL/MOL
REMARK 923 INTER-LIGAND FREE ENERGY PREDICTED BY IDOCK:   -5.52 KCAL/MOL
REMARK 924 INTRA-LIGAND FREE ENERGY PREDICTED BY IDOCK:   -0.27 KCAL/MOL
REMARK 927      BINDING AFFINITY PREDICTED BY RF-SCORE:    0.00 PKD
ROOT
HETATM    1  N   UNL     1     -12.187  12.853  70.900  1.00  0.00    -0.447 NA 
HETATM    2  H1  UNL     1     -12.210  12.435  71.830  1.00  0.00     0.000 HD 
HETATM    3  C   UNL     1     -11.854  12.074  69.762  1.00  0.00    -0.331 A  
HETATM    4  H2  UNL     1     -13.088  13.298  70.729  1.00  0.00     0.000 HD 
HETATM    5  C   UNL     1     -11.821  12.642  68.497  1.00  0.00    -0.342 A  
HETATM    6  C   UNL     1     -11.524  11.847  67.400  1.00  0.00    -0.323 A  
HETATM    7  N   UNL     1     -11.217  10.540  67.545  1.00  0.00    -0.375 NA 
HETATM    8  O   UNL     1     -11.553  10.192  71.095  1.00  0.00    -0.359 OA 
HETATM    9  C   UNL     1     -11.227   9.971  68.778  1.00  0.00    -0.122 A  
HETATM   10  H2  UNL     1     -10.010   8.443  68.467  1.00  0.00     0.000 HD 
HETATM   11  N   UNL     1     -11.540  10.722  69.917  1.00  0.00    -0.301 NA 
HETATM   12  N   UNL     1     -10.918   8.613  68.900  1.00  0.00    -0.438 NA 
HETATM   13  H1  UNL     1     -10.925   8.185  69.826  1.00  0.00     0.000 HD 
ENDROOT
BRANCH   6  14
HETATM   14  N   UNL     1     -11.682  12.380  66.128  1.00  0.00    -0.454 NA 
HETATM   15  C   UNL     1     -10.930  11.739  65.048  1.00  0.00    -0.300 C  
HETATM   16  C   UNL     1     -11.959  13.458  63.503  1.00  0.00    -0.467 C  
HETATM   17  C   UNL     1     -11.716  11.969  63.754  1.00  0.00    -0.575 C  
HETATM   18  C   UNL     1     -12.563  14.150  64.729  1.00  0.00    -0.326 C  
HETATM   19  C   UNL     1     -11.781  13.835  66.007  1.00  0.00    -0.363 C  
ENDBRANCH   6  14
TORSDOF 1
ENDMDL
MODEL       51
REMARK 921   NORMALIZED FREE ENERGY PREDICTED BY IDOCK:   -5.18 KCAL/MOL
REMARK 922        TOTAL FREE ENERGY PREDICTED BY IDOCK:   -5.75 KCAL/MOL
REMARK 923 INTER-LIGAND FREE ENERGY PREDICTED BY IDOCK:   -5.51 KCAL/MOL
REMARK 924 INTRA-LIGAND FREE ENERGY PREDICTED BY IDOCK:   -0.24 KCAL/MOL
REMARK 927      BINDING AFFINITY PREDICTED BY RF-SCORE:    0.00 PKD
ROOT
HETATM    1  N   UNL     1     -13.262  14.215  65.648  1.00  0.00    -0.652 NA 
HETATM    2  H1  UNL     1     -13.650  14.688  64.832  1.00  0.00     0.000 HD 
HETATM    3  C   UNL     1     -12.354  13.135  65.499  1.00  0.00    -0.474 A  
HETATM    4  H2  UNL     1     -12.826  14.917  66.245  1.00  0.00     0.000 HD 
HETATM    5  C   UNL     1     -11.828  12.491  66.609  1.00  0.00    -0.422 A  
HETATM    6  C   UNL     1     -10.917  11.460  66.431  1.00  0.00    -0.260 A  
HETATM    7  N   UNL     1     -10.571  11.037  65.196  1.00  0.00    -0.259 NA 
HETATM    8  O   UNL     1     -12.497  13.288  63.182  1.00  0.00    -0.696 OA 
HETATM    9  C   UNL     1     -11.090  11.644  64.098  1.00  0.00    -0.364 A  
HETATM   10  H2  UNL     1     -10.887  10.194  62.768  1.00  0.00     0.000 HD 
HETATM   11  N   UNL     1     -11.997  12.703  64.220  1.00  0.00    -0.379 NA 
HETATM   12  N   UNL     1     -10.706  11.195  62.831  1.00  0.00    -0.804 NA 
HETATM   13  H1  UNL     1     -11.096  11.651  62.005  1.00  0.00     0.000 HD 
ENDROOT
BRANCH   6  14
HETATM   14  N   UNL     1     -10.256  10.956  67.542  1.00  0.00    -0.184 NA 
HETATM   15  C   UNL     1     -11.090  10.507  68.657  1.00  0.00    -0.267 C  
HETATM   16  C   UNL     1      -8.937   9.935  69.855  1.00  0.00    -0.231 C  
HETATM   17  C   UNL     1     -10.305   9.423  69.401  1.00  0.00    -0.222 C  
HETATM   18  C   UNL     1      -8.163  10.586  68.704  1.00  0.00    -0.130 C  
HETATM   19  C   UNL     1      -9.014  11.612  67.951  1.00  0.00    -0.170 C  
ENDBRANCH   6  14
TORSDOF 1
ENDMDL
MODEL       52
REMARK 921   NORMALIZED FREE ENERGY PREDICTED BY IDOCK:   -5.17 KCAL/MOL
REMARK 922        TOTAL FREE ENERGY PREDICTED BY IDOCK:   -5.75 KCAL/MOL
REMARK 923 INTER-LIGAND FREE ENERGY PREDICTED BY IDOCK:   -5.48 KCAL/MOL
REMARK 924 INTRA-LIGAND FREE ENERGY PREDICTED BY IDOCK:   -0.28 KCAL/MOL
REMARK 927      BINDING AFFINITY PREDICTED BY RF-SCORE:    0.00 PKD
ROOT
HETATM    1  N   UNL     1     -11.937  12.616  67.666  1.00  0.00    -0.403 NA 
HETATM    2  H1  UNL     1     -12.582  13.349  67.961  1.00  0.00     0.000 HD 
HETATM    3  C   UNL     1     -11.620  12.437  66.295  1.00  0.00    -0.393 A  
HETATM    4  H2  UNL     1     -11.065  12.733  68.181  1.00  0.00     0.000 HD 
HETATM    5  C   UNL     1     -10.744  11.439  65.893  1.00  0.00    -0.311 A  
HETATM    6  C   UNL     1     -10.428  11.310  64.549  1.00  0.00    -0.334 A  
HETATM    7  N   UNL     1     -10.996  12.105  63.616  1.00  0.00    -0.424 NA 
HETATM    8  O   UNL     1     -13.037  14.183  65.701  1.00  0.00    -0.617 OA 
HETATM    9  C   UNL     1     -11.869  13.075  63.990  1.00  0.00    -0.445 A  
HETATM   10  H2  UNL     1     -12.879  13.303  62.304  1.00  0.00     0.000 HD 
HETATM   11  N   UNL     1     -12.207  13.263  65.334  1.00  0.00    -0.428 NA 
HETATM   12  N   UNL     1     -12.433  13.893  63.006  1.00  0.00    -1.009 NA 
HETATM   13  H1  UNL     1     -13.089  14.622  63.286  1.00  0.00     0.000 HD 
ENDROOT
BRANCH   6  14
HETATM   14  N   UNL     1      -9.410  10.439  64.184  1.00  0.00    -0.252 NA 
HETATM   15  C   UNL     1      -8.260  10.357  65.086  1.00  0.00    -0.158 C  
HETATM   16  C   UNL     1      -7.284   8.682  63.461  1.00  0.00    -0.095 C  
HETATM   17  C   UNL     1      -7.654   8.961  64.919  1.00  0.00    -0.108 C  
HETATM   18  C   UNL     1      -8.451   8.973  62.513  1.00  0.00    -0.212 C  
HETATM   19  C   UNL     1      -9.064  10.352  62.765  1.00  0.00    -0.288 C  
ENDBRANCH   6  14
TORSDOF 1
ENDMDL
MODEL       53
REMARK 921   NORMALIZED FREE ENERGY PREDICTED BY IDOCK:   -5.17 KCAL/MOL
REMARK 922        TOTAL FREE ENERGY PREDICTED BY IDOCK:   -5.75 KCAL/MOL
REMARK 923 INTER-LIGAND FREE ENERGY PREDICTED BY IDOCK:   -5.50 KCAL/MOL
REMARK 924 INTRA-LIGAND FREE ENERGY PREDICTED BY IDOCK:   -0.25 KCAL/MOL
REMARK 927      BINDING AFFINITY PREDICTED BY RF-SCORE:    0.00 PKD
ROOT
HETATM    1  N   UNL     1     -10.202  15.736  67.561  1.00  0.00    -0.260 NA 
HETATM    2  H1  UNL     1     -10.221  16.429  66.812  1.00  0.00     0.000 HD 
HETATM    3  C   UNL     1     -10.837  14.477  67.402  1.00  0.00    -0.291 A  
HETATM    4  H2  UNL     1      -9.228  15.572  67.816  1.00  0.00     0.000 HD 
HETATM    5  C   UNL     1     -10.810  13.535  68.419  1.00  0.00    -0.286 A  
HETATM    6  C   UNL     1     -11.412  12.302  68.222  1.00  0.00    -0.315 A  
HETATM    7  N   UNL     1     -12.067  12.017  67.075  1.00  0.00    -0.545 NA 
HETATM    8  O   UNL     1     -11.551  15.067  65.268  1.00  0.00    -0.331 OA 
HETATM    9  C   UNL     1     -12.117  12.934  66.075  1.00  0.00    -0.422 A  
HETATM   10  H2  UNL     1     -13.741  12.324  65.124  1.00  0.00     0.000 HD 
HETATM   11  N   UNL     1     -11.509  14.187  66.213  1.00  0.00    -0.341 NA 
HETATM   12  N   UNL     1     -12.790  12.610  64.893  1.00  0.00    -0.842 NA 
HETATM   13  H1  UNL     1     -12.828  13.299  64.141  1.00  0.00     0.000 HD 
ENDROOT
BRANCH   6  14
HETATM   14  N   UNL     1     -11.215  11.305  69.167  1.00  0.00    -0.250 NA 
HETATM   15  C   UNL     1     -10.229  10.273  68.840  1.00  0.00    -0.205 C  
HETATM   16  C   UNL     1     -10.794   9.223  71.071  1.00  0.00    -0.385 C  
HETATM   17  C   UNL     1      -9.676   9.740  70.164  1.00  0.00    -0.299 C  
HETATM   18  C   UNL     1     -11.917  10.254  71.233  1.00  0.00    -0.457 C  
HETATM   19  C   UNL     1     -12.388  10.804  69.885  1.00  0.00    -0.271 C  
ENDBRANCH   6  14
TORSDOF 1
ENDMDL
MODEL       54
REMARK 921   NORMALIZED FREE ENERGY PREDICTED BY IDOCK:   -5.15 KCAL/MOL
REMARK 922        TOTAL FREE ENERGY PREDICTED BY IDOCK:   -5.72 KCAL/MOL
REMARK 923 INTER-LIGAND FREE ENERGY PREDICTED BY IDOCK:   -5.45 KCAL/MOL
REMARK 924 INTRA-LIGAND FREE ENERGY PREDICTED BY IDOCK:   -0.27 KCAL/MOL
REMARK 927      BINDING AFFINITY PREDICTED BY RF-SCORE:    0.00 PKD
ROOT
HETATM    1  N   UNL     1     -11.841  15.038  71.980  1.00  0.00    -0.387 NA 
HETATM    2  H1  UNL     1     -12.179  14.228  72.499  1.00  0.00     0.000 HD 
HETATM    3  C   UNL     1     -11.651  14.974  70.575  1.00  0.00    -0.298 A  
HETATM    4  H2  UNL     1     -12.459  15.824  72.182  1.00  0.00     0.000 HD 
HETATM    5  C   UNL     1     -11.192  16.076  69.870  1.00  0.00    -0.361 A  
HETATM    6  C   UNL     1     -11.048  15.993  68.493  1.00  0.00    -0.347 A  
HETATM    7  N   UNL     1     -11.299  14.843  67.831  1.00  0.00    -0.315 NA 
HETATM    8  O   UNL     1     -12.328  12.749  70.549  1.00  0.00    -0.339 OA 
HETATM    9  C   UNL     1     -11.732  13.748  68.508  1.00  0.00    -0.356 A  
HETATM   10  H2  UNL     1     -11.168  12.320  67.261  1.00  0.00     0.000 HD 
HETATM   11  N   UNL     1     -11.915  13.783  69.895  1.00  0.00    -0.328 NA 
HETATM   12  N   UNL     1     -11.997  12.574  67.798  1.00  0.00    -0.429 NA 
HETATM   13  H1  UNL     1     -12.323  11.751  68.306  1.00  0.00     0.000 HD 
ENDROOT
BRANCH   6  14
HETATM   14  N   UNL     1     -10.774  17.152  67.780  1.00  0.00    -0.355 NA 
HETATM   15  C   UNL     1     -10.283  16.981  66.411  1.00  0.00    -0.326 C  
HETATM   16  C   UNL     1     -10.175  19.506  66.286  1.00  0.00    -0.582 C  
HETATM   17  C   UNL     1     -10.697  18.229  65.625  1.00  0.00    -0.053 C  
HETATM   18  C   UNL     1     -10.530  19.561  67.775  1.00  0.00    -0.574 C  
HETATM   19  C   UNL     1     -10.158  18.266  68.501  1.00  0.00    -0.398 C  
ENDBRANCH   6  14
TORSDOF 1
ENDMDL
MODEL       55
REMARK 921   NORMALIZED FREE ENERGY PREDICTED BY IDOCK:   -5.14 KCAL/MOL
REMARK 922        TOTAL FREE ENERGY PREDICTED BY IDOCK:   -5.71 KCAL/MOL
REMARK 923 INTER-LIGAND FREE ENERGY PREDICTED BY IDOCK:   -5.45 KCAL/MOL
REMARK 924 INTRA-LIGAND FREE ENERGY PREDICTED BY IDOCK:   -0.26 KCAL/MOL
REMARK 927      BINDING AFFINITY PREDICTED BY RF-SCORE:    0.00 PKD
ROOT
HETATM    1  N   UNL     1     -13.281  10.736  72.304  1.00  0.00    -0.567 NA 
HETATM    2  H1  UNL     1     -13.804  10.961  73.149  1.00  0.00     0.000 HD 
HETATM    3  C   UNL     1     -12.910  11.754  71.387  1.00  0.00    -0.335 A  
HETATM    4  H2  UNL     1     -12.437  10.232  72.577  1.00  0.00     0.000 HD 
HETATM    5  C   UNL     1     -12.197  11.449  70.237  1.00  0.00    -0.433 A  
HETATM    6  C   UNL     1     -11.821  12.469  69.377  1.00  0.00    -0.308 A  
HETATM    7  N   UNL     1     -12.178  13.751  69.612  1.00  0.00    -0.329 NA 
HETATM    8  O   UNL     1     -13.955  13.365  72.698  1.00  0.00    -0.755 OA 
HETATM    9  C   UNL     1     -12.890  14.065  70.724  1.00  0.00    -0.285 A  
HETATM   10  H2  UNL     1     -13.731  15.756  70.134  1.00  0.00     0.000 HD 
HETATM   11  N   UNL     1     -13.278  13.078  71.637  1.00  0.00    -0.373 NA 
HETATM   12  N   UNL     1     -13.236  15.401  70.952  1.00  0.00    -0.622 NA 
HETATM   13  H1  UNL     1     -13.771  15.638  71.787  1.00  0.00     0.000 HD 
ENDROOT
BRANCH   6  14
HETATM   14  N   UNL     1     -10.950  12.177  68.336  1.00  0.00    -0.221 NA 
HETATM   15  C   UNL     1     -10.862  10.775  67.925  1.00  0.00    -0.264 C  
HETATM   16  C   UNL     1      -9.154  11.529  66.218  1.00  0.00    -0.215 C  
HETATM   17  C   UNL     1     -10.457  10.762  66.449  1.00  0.00    -0.293 C  
HETATM   18  C   UNL     1      -9.200  12.928  66.840  1.00  0.00    -0.234 C  
HETATM   19  C   UNL     1      -9.674  12.893  68.295  1.00  0.00    -0.217 C  
ENDBRANCH   6  14
TORSDOF 1
ENDMDL
MODEL       56
REMARK 921   NORMALIZED FREE ENERGY PREDICTED BY IDOCK:   -5.13 KCAL/MOL
REMARK 922        TOTAL FREE ENERGY PREDICTED BY IDOCK:   -5.70 KCAL/MOL
REMARK 923 INTER-LIGAND FREE ENERGY PREDICTED BY IDOCK:   -5.43 KCAL/MOL
REMARK 924 INTRA-LIGAND FREE ENERGY PREDICTED BY IDOCK:   -0.28 KCAL/MOL
REMARK 927      BINDING AFFINITY PREDICTED BY RF-SCORE:    0.00 PKD
ROOT
HETATM    1  N   UNL     1     -13.416  12.220  72.267  1.00  0.00    -0.564 NA 
HETATM    2  H1  UNL     1     -13.605  12.204  73.269  1.00  0.00     0.000 HD 
HETATM    3  C   UNL     1     -12.878  13.377  71.647  1.00  0.00    -0.321 A  
HETATM    4  H2  UNL     1     -12.810  11.430  72.046  1.00  0.00     0.000 HD 
HETATM    5  C   UNL     1     -12.621  13.398  70.284  1.00  0.00    -0.187 A  
HETATM    6  C   UNL     1     -12.065  14.533  69.713  1.00  0.00    -0.331 A  
HETATM    7  N   UNL     1     -11.814  15.637  70.449  1.00  0.00    -0.341 NA 
HETATM    8  O   UNL     1     -12.871  14.507  73.680  1.00  0.00    -0.485 OA 
HETATM    9  C   UNL     1     -12.076  15.640  71.781  1.00  0.00    -0.431 A  
HETATM   10  H2  UNL     1     -12.272  17.584  72.094  1.00  0.00     0.000 HD 
HETATM   11  N   UNL     1     -12.618  14.515  72.413  1.00  0.00    -0.324 NA 
HETATM   12  N   UNL     1     -11.795  16.791  72.524  1.00  0.00    -0.464 NA 
HETATM   13  H1  UNL     1     -11.992  16.794  73.525  1.00  0.00     0.000 HD 
ENDROOT
BRANCH   6  14
HETATM   14  N   UNL     1     -11.636  14.473  68.394  1.00  0.00    -0.309 NA 
HETATM   15  C   UNL     1     -11.800  13.191  67.706  1.00  0.00    -0.348 C  
HETATM   16  C   UNL     1     -10.748  14.299  65.689  1.00  0.00    -0.321 C  
HETATM   17  C   UNL     1     -11.940  13.496  66.212  1.00  0.00    -0.457 C  
HETATM   18  C   UNL     1     -10.472  15.534  66.554  1.00  0.00    -0.301 C  
HETATM   19  C   UNL     1     -10.408  15.187  68.043  1.00  0.00    -0.240 C  
ENDBRANCH   6  14
TORSDOF 1
ENDMDL
MODEL       57
REMARK 921   NORMALIZED FREE ENERGY PREDICTED BY IDOCK:   -5.11 KCAL/MOL
REMARK 922        TOTAL FREE ENERGY PREDICTED BY IDOCK:   -5.69 KCAL/MOL
REMARK 923 INTER-LIGAND FREE ENERGY PREDICTED BY IDOCK:   -5.43 KCAL/MOL
REMARK 924 INTRA-LIGAND FREE ENERGY PREDICTED BY IDOCK:   -0.26 KCAL/MOL
REMARK 927      BINDING AFFINITY PREDICTED BY RF-SCORE:    0.00 PKD
ROOT
HETATM    1  N   UNL     1      -6.852  16.882  66.718  1.00  0.00    -0.212 NA 
HETATM    2  H1  UNL     1      -6.279  17.719  66.827  1.00  0.00     0.000 HD 
HETATM    3  C   UNL     1      -8.215  16.979  66.335  1.00  0.00    -0.291 A  
HETATM    4  H2  UNL     1      -6.381  16.258  66.063  1.00  0.00     0.000 HD 
HETATM    5  C   UNL     1      -8.993  15.840  66.188  1.00  0.00    -0.372 A  
HETATM    6  C   UNL     1     -10.313  15.965  65.781  1.00  0.00    -0.376 A  
HETATM    7  N   UNL     1     -10.870  17.178  65.573  1.00  0.00    -0.386 NA 
HETATM    8  O   UNL     1      -8.069  19.299  66.271  1.00  0.00    -0.297 OA 
HETATM    9  C   UNL     1     -10.128  18.304  65.730  1.00  0.00    -0.012 A  
HETATM   10  H2  UNL     1     -11.561  19.623  66.074  1.00  0.00     0.000 HD 
HETATM   11  N   UNL     1      -8.785  18.235  66.119  1.00  0.00    -0.492 NA 
HETATM   12  N   UNL     1     -10.724  19.547  65.497  1.00  0.00    -0.433 NA 
HETATM   13  H1  UNL     1     -10.167  20.393  65.615  1.00  0.00     0.000 HD 
ENDROOT
BRANCH   6  14
HETATM   14  N   UNL     1     -11.021  14.817  65.453  1.00  0.00    -0.338 NA 
HETATM   15  C   UNL     1     -11.955  14.919  64.330  1.00  0.00    -0.394 C  
HETATM   16  C   UNL     1     -12.515  12.489  64.759  1.00  0.00    -0.532 C  
HETATM   17  C   UNL     1     -12.078  13.521  63.718  1.00  0.00    -0.482 C  
HETATM   18  C   UNL     1     -11.639  12.544  66.016  1.00  0.00    -0.456 C  
HETATM   19  C   UNL     1     -11.494  13.971  66.549  1.00  0.00    -0.357 C  
ENDBRANCH   6  14
TORSDOF 1
ENDMDL
MODEL       58
REMARK 921   NORMALIZED FREE ENERGY PREDICTED BY IDOCK:   -5.11 KCAL/MOL
REMARK 922        TOTAL FREE ENERGY PREDICTED BY IDOCK:   -5.68 KCAL/MOL
REMARK 923 INTER-LIGAND FREE ENERGY PREDICTED BY IDOCK:   -5.41 KCAL/MOL
REMARK 924 INTRA-LIGAND FREE ENERGY PREDICTED BY IDOCK:   -0.27 KCAL/MOL
REMARK 927      BINDING AFFINITY PREDICTED BY RF-SCORE:    0.00 PKD
ROOT
HETATM    1  N   UNL     1      -8.746   9.035  68.847  1.00  0.00    -0.134 NA 
HETATM    2  H1  UNL     1      -8.460   8.605  69.727  1.00  0.00     0.000 HD 
HETATM    3  C   UNL     1      -9.903   9.854  68.781  1.00  0.00    -0.171 A  
HETATM    4  H2  UNL     1      -7.957   9.570  68.483  1.00  0.00     0.000 HD 
HETATM    5  C   UNL     1     -10.292  10.438  67.585  1.00  0.00    -0.260 A  
HETATM    6  C   UNL     1     -11.409  11.260  67.559  1.00  0.00    -0.288 A  
HETATM    7  N   UNL     1     -12.155  11.463  68.667  1.00  0.00    -0.542 NA 
HETATM    8  O   UNL     1     -10.320   9.508  71.043  1.00  0.00    -0.298 OA 
HETATM    9  C   UNL     1     -11.799  10.884  69.843  1.00  0.00    -0.349 A  
HETATM   10  H2  UNL     1     -13.547  10.870  70.769  1.00  0.00     0.000 HD 
HETATM   11  N   UNL     1     -10.669  10.063  69.930  1.00  0.00    -0.265 NA 
HETATM   12  N   UNL     1     -12.580  11.120  70.978  1.00  0.00    -0.393 NA 
HETATM   13  H1  UNL     1     -12.313  10.686  71.861  1.00  0.00     0.000 HD 
ENDROOT
BRANCH   6  14
HETATM   14  N   UNL     1     -11.675  11.987  66.408  1.00  0.00    -0.565 NA 
HETATM   15  C   UNL     1     -10.937  11.605  65.203  1.00  0.00    -0.266 C  
HETATM   16  C   UNL     1     -12.173  13.472  64.024  1.00  0.00    -0.458 C  
HETATM   17  C   UNL     1     -11.806  11.987  64.001  1.00  0.00    -0.500 C  
HETATM   18  C   UNL     1     -12.759  13.891  65.376  1.00  0.00    -0.525 C  
HETATM   19  C   UNL     1     -11.888  13.429  66.546  1.00  0.00    -0.396 C  
ENDBRANCH   6  14
TORSDOF 1
ENDMDL
MODEL       59
REMARK 921   NORMALIZED FREE ENERGY PREDICTED BY IDOCK:   -5.10 KCAL/MOL
REMARK 922        TOTAL FREE ENERGY PREDICTED BY IDOCK:   -5.67 KCAL/MOL
REMARK 923 INTER-LIGAND FREE ENERGY PREDICTED BY IDOCK:   -5.41 KCAL/MOL
REMARK 924 INTRA-LIGAND FREE ENERGY PREDICTED BY IDOCK:   -0.26 KCAL/MOL
REMARK 927      BINDING AFFINITY PREDICTED BY RF-SCORE:    0.00 PKD
ROOT
HETATM    1  N   UNL     1     -12.302  15.086  68.962  1.00  0.00    -0.590 NA 
HETATM    2  H1  UNL     1     -12.383  15.930  69.529  1.00  0.00     0.000 HD 
HETATM    3  C   UNL     1     -11.460  15.057  67.820  1.00  0.00    -0.334 A  
HETATM    4  H2  UNL     1     -12.033  14.316  69.575  1.00  0.00     0.000 HD 
HETATM    5  C   UNL     1     -11.350  13.909  67.049  1.00  0.00    -0.343 A  
HETATM    6  C   UNL     1     -10.494  13.901  65.957  1.00  0.00    -0.298 A  
HETATM    7  N   UNL     1      -9.802  15.005  65.601  1.00  0.00    -0.347 NA 
HETATM    8  O   UNL     1     -10.856  17.276  68.164  1.00  0.00    -0.375 OA 
HETATM    9  C   UNL     1      -9.911  16.142  66.335  1.00  0.00    -0.299 A  
HETATM   10  H2  UNL     1      -9.387  17.484  64.979  1.00  0.00     0.000 HD 
HETATM   11  N   UNL     1     -10.744  16.200  67.458  1.00  0.00    -0.315 NA 
HETATM   12  N   UNL     1      -9.175  17.268  65.953  1.00  0.00    -0.522 NA 
HETATM   13  H1  UNL     1      -9.257  18.122  66.504  1.00  0.00     0.000 HD 
ENDROOT
BRANCH   6  14
HETATM   14  N   UNL     1     -10.248  12.697  65.312  1.00  0.00    -0.289 NA 
HETATM   15  C   UNL     1     -10.622  12.619  63.899  1.00  0.00    -0.428 C  
HETATM   16  C   UNL     1      -9.783  10.233  63.953  1.00  0.00    -0.325 C  
HETATM   17  C   UNL     1      -9.700  11.586  63.245  1.00  0.00    -0.405 C  
HETATM   18  C   UNL     1      -9.590  10.372  65.467  1.00  0.00    -0.290 C  
HETATM   19  C   UNL     1     -10.484  11.462  66.061  1.00  0.00    -0.255 C  
ENDBRANCH   6  14
TORSDOF 1
ENDMDL
MODEL       60
REMARK 921   NORMALIZED FREE ENERGY PREDICTED BY IDOCK:   -4.99 KCAL/MOL
REMARK 922        TOTAL FREE ENERGY PREDICTED BY IDOCK:   -5.55 KCAL/MOL
REMARK 923 INTER-LIGAND FREE ENERGY PREDICTED BY IDOCK:   -5.30 KCAL/MOL
REMARK 924 INTRA-LIGAND FREE ENERGY PREDICTED BY IDOCK:   -0.25 KCAL/MOL
REMARK 927      BINDING AFFINITY PREDICTED BY RF-SCORE:    0.00 PKD
ROOT
HETATM    1  N   UNL     1      -9.106   8.031  71.791  1.00  0.00    -0.146 NA 
HETATM    2  H1  UNL     1      -9.018   7.370  72.562  1.00  0.00     0.000 HD 
HETATM    3  C   UNL     1     -10.316   8.742  71.577  1.00  0.00    -0.303 A  
HETATM    4  H2  UNL     1      -8.348   8.710  71.866  1.00  0.00     0.000 HD 
HETATM    5  C   UNL     1     -10.434   9.642  70.528  1.00  0.00    -0.367 A  
HETATM    6  C   UNL     1     -11.619  10.345  70.365  1.00  0.00    -0.337 A  
HETATM    7  N   UNL     1     -12.676  10.135  71.178  1.00  0.00    -0.365 NA 
HETATM    8  O   UNL     1     -11.305   7.675  73.391  1.00  0.00    -0.289 OA 
HETATM    9  C   UNL     1     -12.583   9.245  72.200  1.00  0.00    -0.371 A  
HETATM   10  H2  UNL     1     -14.496   8.813  72.462  1.00  0.00     0.000 HD 
HETATM   11  N   UNL     1     -11.405   8.524  72.423  1.00  0.00    -0.368 NA 
HETATM   12  N   UNL     1     -13.688   9.055  73.035  1.00  0.00    -1.040 NA 
HETATM   13  H1  UNL     1     -13.618   8.387  73.803  1.00  0.00     0.000 HD 
ENDROOT
BRANCH   6  14
HETATM   14  N   UNL     1     -11.659  11.375  69.436  1.00  0.00    -0.292 NA 
HETATM   15  C   UNL     1     -10.954  11.150  68.173  1.00  0.00    -0.238 C  
HETATM   16  C   UNL     1     -11.696  13.476  67.507  1.00  0.00    -0.403 C  
HETATM   17  C   UNL     1     -11.654  12.000  67.108  1.00  0.00    -0.387 C  
HETATM   18  C   UNL     1     -12.252  13.666  68.921  1.00  0.00    -0.221 C  
HETATM   19  C   UNL     1     -11.566  12.748  69.935  1.00  0.00    -0.173 C  
ENDBRANCH   6  14
TORSDOF 1
ENDMDL
MODEL       61
REMARK 921   NORMALIZED FREE ENERGY PREDICTED BY IDOCK:   -4.97 KCAL/MOL
REMARK 922        TOTAL FREE ENERGY PREDICTED BY IDOCK:   -5.54 KCAL/MOL
REMARK 923 INTER-LIGAND FREE ENERGY PREDICTED BY IDOCK:   -5.27 KCAL/MOL
REMARK 924 INTRA-LIGAND FREE ENERGY PREDICTED BY IDOCK:   -0.27 KCAL/MOL
REMARK 927      BINDING AFFINITY PREDICTED BY RF-SCORE:    0.00 PKD
ROOT
HETATM    1  N   UNL     1     -10.689  11.023  65.052  1.00  0.00    -0.241 NA 
HETATM    2  H1  UNL     1     -10.668  11.570  64.192  1.00  0.00     0.000 HD 
HETATM    3  C   UNL     1     -11.087  11.615  66.279  1.00  0.00    -0.290 A  
HETATM    4  H2  UNL     1     -11.271  10.201  64.892  1.00  0.00     0.000 HD 
HETATM    5  C   UNL     1     -11.115  10.871  67.449  1.00  0.00    -0.373 A  
HETATM    6  C   UNL     1     -11.539  11.468  68.627  1.00  0.00    -0.313 A  
HETATM    7  N   UNL     1     -11.879  12.775  68.667  1.00  0.00    -0.315 NA 
HETATM    8  O   UNL     1     -11.399  13.666  65.230  1.00  0.00    -0.291 OA 
HETATM    9  C   UNL     1     -11.840  13.523  67.533  1.00  0.00    -0.368 A  
HETATM   10  H2  UNL     1     -11.646  15.330  68.314  1.00  0.00     0.000 HD 
HETATM   11  N   UNL     1     -11.440  12.965  66.314  1.00  0.00    -0.330 NA 
HETATM   12  N   UNL     1     -12.208  14.870  67.598  1.00  0.00    -0.477 NA 
HETATM   13  H1  UNL     1     -12.179  15.432  66.747  1.00  0.00     0.000 HD 
ENDROOT
BRANCH   6  14
HETATM   14  N   UNL     1     -11.746  10.670  69.743  1.00  0.00    -0.290 NA 
HETATM   15  C   UNL     1     -12.422  11.293  70.882  1.00  0.00    -0.394 C  
HETATM   16  C   UNL     1     -12.169   9.072  72.067  1.00  0.00    -0.446 C  
HETATM   17  C   UNL     1     -13.140  10.177  71.646  1.00  0.00    -0.550 C  
HETATM   18  C   UNL     1     -11.325   8.578  70.888  1.00  0.00    -0.304 C  
HETATM   19  C   UNL     1     -10.684   9.734  70.118  1.00  0.00    -0.289 C  
ENDBRANCH   6  14
TORSDOF 1
ENDMDL
MODEL       62
REMARK 921   NORMALIZED FREE ENERGY PREDICTED BY IDOCK:   -4.86 KCAL/MOL
REMARK 922        TOTAL FREE ENERGY PREDICTED BY IDOCK:   -5.42 KCAL/MOL
REMARK 923 INTER-LIGAND FREE ENERGY PREDICTED BY IDOCK:   -5.15 KCAL/MOL
REMARK 924 INTRA-LIGAND FREE ENERGY PREDICTED BY IDOCK:   -0.26 KCAL/MOL
REMARK 927      BINDING AFFINITY PREDICTED BY RF-SCORE:    0.00 PKD
ROOT
HETATM    1  N   UNL     1     -10.124   9.935  66.051  1.00  0.00    -0.261 NA 
HETATM    2  H1  UNL     1      -9.943   9.768  65.061  1.00  0.00     0.000 HD 
HETATM    3  C   UNL     1     -10.872  11.064  66.473  1.00  0.00    -0.209 A  
HETATM    4  H2  UNL     1     -10.563   9.099  66.438  1.00  0.00     0.000 HD 
HETATM    5  C   UNL     1     -11.118  11.290  67.820  1.00  0.00    -0.328 A  
HETATM    6  C   UNL     1     -11.879  12.385  68.199  1.00  0.00    -0.315 A  
HETATM    7  N   UNL     1     -12.346  13.264  67.286  1.00  0.00    -0.193 NA 
HETATM    8  O   UNL     1     -11.114  11.772  64.271  1.00  0.00    -0.324 OA 
HETATM    9  C   UNL     1     -12.100  13.068  65.965  1.00  0.00    -0.432 A  
HETATM   10  H2  UNL     1     -12.288  14.920  65.296  1.00  0.00     0.000 HD 
HETATM   11  N   UNL     1     -11.354  11.968  65.525  1.00  0.00    -0.341 NA 
HETATM   12  N   UNL     1     -12.604  13.986  65.038  1.00  0.00    -0.635 NA 
HETATM   13  H1  UNL     1     -12.420  13.839  64.046  1.00  0.00     0.000 HD 
ENDROOT
BRANCH   6  14
HETATM   14  N   UNL     1     -12.278  12.493  69.524  1.00  0.00    -0.150 NA 
HETATM   15  C   UNL     1     -12.073  13.791  70.169  1.00  0.00    -0.359 C  
HETATM   16  C   UNL     1     -13.060  12.753  72.254  1.00  0.00    -0.400 C  
HETATM   17  C   UNL     1     -13.131  13.920  71.269  1.00  0.00    -0.385 C  
HETATM   18  C   UNL     1     -13.071  11.400  71.535  1.00  0.00    -0.438 C  
HETATM   19  C   UNL     1     -12.043  11.346  70.402  1.00  0.00    -0.384 C  
ENDBRANCH   6  14
TORSDOF 1
ENDMDL
MODEL       63
REMARK 921   NORMALIZED FREE ENERGY PREDICTED BY IDOCK:   -4.84 KCAL/MOL
REMARK 922        TOTAL FREE ENERGY PREDICTED BY IDOCK:   -5.39 KCAL/MOL
REMARK 923 INTER-LIGAND FREE ENERGY PREDICTED BY IDOCK:   -5.13 KCAL/MOL
REMARK 924 INTRA-LIGAND FREE ENERGY PREDICTED BY IDOCK:   -0.27 KCAL/MOL
REMARK 927      BINDING AFFINITY PREDICTED BY RF-SCORE:    0.00 PKD
ROOT
HETATM    1  N   UNL     1     -12.516  12.514  63.172  1.00  0.00    -0.769 NA 
HETATM    2  H1  UNL     1     -13.199  13.237  62.943  1.00  0.00     0.000 HD 
HETATM    3  C   UNL     1     -12.000  12.394  64.488  1.00  0.00    -0.402 A  
HETATM    4  H2  UNL     1     -12.905  11.612  62.899  1.00  0.00     0.000 HD 
HETATM    5  C   UNL     1     -11.072  11.412  64.799  1.00  0.00    -0.258 A  
HETATM    6  C   UNL     1     -10.610  11.299  66.102  1.00  0.00    -0.258 A  
HETATM    7  N   UNL     1     -11.009  12.159  67.064  1.00  0.00    -0.257 NA 
HETATM    8  O   UNL     1     -13.270  14.211  65.191  1.00  0.00    -0.743 OA 
HETATM    9  C   UNL     1     -11.904  13.137  66.773  1.00  0.00    -0.385 A  
HETATM   10  H2  UNL     1     -11.485  14.433  68.208  1.00  0.00     0.000 HD 
HETATM   11  N   UNL     1     -12.418  13.284  65.480  1.00  0.00    -0.476 NA 
HETATM   12  N   UNL     1     -12.312  14.007  67.789  1.00  0.00    -0.498 NA 
HETATM   13  H1  UNL     1     -12.984  14.743  67.571  1.00  0.00     0.000 HD 
ENDROOT
BRANCH   6  14
HETATM   14  N   UNL     1      -9.834  10.199  66.442  1.00  0.00    -0.210 NA 
HETATM   15  C   UNL     1      -9.204   9.472  65.338  1.00  0.00    -0.247 C  
HETATM   16  C   UNL     1      -8.249   7.919  67.091  1.00  0.00    -0.118 C  
HETATM   17  C   UNL     1      -7.937   8.817  65.893  1.00  0.00    -0.104 C  
HETATM   18  C   UNL     1      -9.088   8.649  68.146  1.00  0.00    -0.142 C  
HETATM   19  C   UNL     1     -10.305   9.342  67.530  1.00  0.00    -0.262 C  
ENDBRANCH   6  14
TORSDOF 1
ENDMDL
MODEL       64
REMARK 921   NORMALIZED FREE ENERGY PREDICTED BY IDOCK:   -4.81 KCAL/MOL
REMARK 922        TOTAL FREE ENERGY PREDICTED BY IDOCK:   -5.36 KCAL/MOL
REMARK 923 INTER-LIGAND FREE ENERGY PREDICTED BY IDOCK:   -5.11 KCAL/MOL
REMARK 924 INTRA-LIGAND FREE ENERGY PREDICTED BY IDOCK:   -0.25 KCAL/MOL
REMARK 927      BINDING AFFINITY PREDICTED BY RF-SCORE:    0.00 PKD
ROOT
HETATM    1  N   UNL     1      -6.333  17.123  68.396  1.00  0.00    -0.152 NA 
HETATM    2  H1  UNL     1      -5.798  17.914  68.753  1.00  0.00     0.000 HD 
HETATM    3  C   UNL     1      -7.738  17.216  68.220  1.00  0.00    -0.220 A  
HETATM    4  H2  UNL     1      -5.920  16.835  67.508  1.00  0.00     0.000 HD 
HETATM    5  C   UNL     1      -8.466  16.140  67.734  1.00  0.00    -0.165 A  
HETATM    6  C   UNL     1      -9.833  16.272  67.543  1.00  0.00    -0.238 A  
HETATM    7  N   UNL     1     -10.479  17.413  67.867  1.00  0.00    -0.370 NA 
HETATM    8  O   UNL     1      -7.730  19.398  69.023  1.00  0.00    -0.362 OA 
HETATM    9  C   UNL     1      -9.785  18.470  68.361  1.00  0.00    -0.364 A  
HETATM   10  H2  UNL     1     -11.230  19.418  69.323  1.00  0.00     0.000 HD 
HETATM   11  N   UNL     1      -8.401  18.399  68.554  1.00  0.00    -0.324 NA 
HETATM   12  N   UNL     1     -10.475  19.644  68.677  1.00  0.00    -0.524 NA 
HETATM   13  H1  UNL     1      -9.954  20.439  69.048  1.00  0.00     0.000 HD 
ENDROOT
BRANCH   6  14
HETATM   14  N   UNL     1     -10.514  15.260  66.879  1.00  0.00    -0.283 NA 
HETATM   15  C   UNL     1     -10.612  15.377  65.424  1.00  0.00    -0.410 C  
HETATM   16  C   UNL     1     -11.926  13.216  65.479  1.00  0.00    -0.457 C  
HETATM   17  C   UNL     1     -10.738  13.958  64.864  1.00  0.00    -0.422 C  
HETATM   18  C   UNL     1     -11.908  13.284  67.009  1.00  0.00    -0.442 C  
HETATM   19  C   UNL     1     -11.713  14.714  67.517  1.00  0.00    -0.379 C  
ENDBRANCH   6  14
TORSDOF 1
ENDMDL
MODEL       65
REMARK 921   NORMALIZED FREE ENERGY PREDICTED BY IDOCK:   -4.79 KCAL/MOL
REMARK 922        TOTAL FREE ENERGY PREDICTED BY IDOCK:   -5.34 KCAL/MOL
REMARK 923 INTER-LIGAND FREE ENERGY PREDICTED BY IDOCK:   -5.08 KCAL/MOL
REMARK 924 INTRA-LIGAND FREE ENERGY PREDICTED BY IDOCK:   -0.27 KCAL/MOL
REMARK 927      BINDING AFFINITY PREDICTED BY RF-SCORE:    0.00 PKD
ROOT
HETATM    1  N   UNL     1     -10.981  11.167  63.966  1.00  0.00    -0.460 NA 
HETATM    2  H1  UNL     1     -11.669  10.953  63.245  1.00  0.00     0.000 HD 
HETATM    3  C   UNL     1     -10.831  12.491  64.456  1.00  0.00    -0.328 A  
HETATM    4  H2  UNL     1     -11.152  10.552  64.762  1.00  0.00     0.000 HD 
HETATM    5  C   UNL     1      -9.894  12.782  65.437  1.00  0.00    -0.143 A  
HETATM    6  C   UNL     1      -9.793  14.079  65.918  1.00  0.00    -0.281 A  
HETATM    7  N   UNL     1     -10.555  15.075  65.415  1.00  0.00    -0.349 NA 
HETATM    8  O   UNL     1     -12.484  13.252  63.009  1.00  0.00    -0.606 OA 
HETATM    9  C   UNL     1     -11.464  14.810  64.442  1.00  0.00    -0.253 A  
HETATM   10  H2  UNL     1     -11.635  16.605  63.627  1.00  0.00     0.000 HD 
HETATM   11  N   UNL     1     -11.623  13.516  63.935  1.00  0.00    -0.352 NA 
HETATM   12  N   UNL     1     -12.249  15.856  63.947  1.00  0.00    -1.148 NA 
HETATM   13  H1  UNL     1     -12.933  15.658  63.216  1.00  0.00     0.000 HD 
ENDROOT
BRANCH   6  14
HETATM   14  N   UNL     1      -8.993  14.318  67.027  1.00  0.00    -0.227 NA 
HETATM   15  C   UNL     1      -7.980  13.308  67.337  1.00  0.00    -0.170 C  
HETATM   16  C   UNL     1      -7.342  14.757  69.311  1.00  0.00    -0.168 C  
HETATM   17  C   UNL     1      -6.839  14.023  68.067  1.00  0.00    -0.148 C  
HETATM   18  C   UNL     1      -8.540  15.658  68.993  1.00  0.00    -0.232 C  
HETATM   19  C   UNL     1      -9.622  14.915  68.206  1.00  0.00    -0.214 C  
ENDBRANCH   6  14
TORSDOF 1
ENDMDL
MODEL       66
REMARK 921   NORMALIZED FREE ENERGY PREDICTED BY IDOCK:   -4.71 KCAL/MOL
REMARK 922        TOTAL FREE ENERGY PREDICTED BY IDOCK:   -5.26 KCAL/MOL
REMARK 923 INTER-LIGAND FREE ENERGY PREDICTED BY IDOCK:   -4.98 KCAL/MOL
REMARK 924 INTRA-LIGAND FREE ENERGY PREDICTED BY IDOCK:   -0.27 KCAL/MOL
REMARK 927      BINDING AFFINITY PREDICTED BY RF-SCORE:    0.00 PKD
ROOT
HETATM    1  N   UNL     1      -9.113   8.847  64.678  1.00  0.00    -0.430 NA 
HETATM    2  H1  UNL     1      -8.971   8.925  63.671  1.00  0.00     0.000 HD 
HETATM    3  C   UNL     1      -9.904   9.797  65.376  1.00  0.00    -0.295 A  
HETATM    4  H2  UNL     1      -9.485   7.918  64.875  1.00  0.00     0.000 HD 
HETATM    5  C   UNL     1     -10.098   9.691  66.745  1.00  0.00    -0.301 A  
HETATM    6  C   UNL     1     -10.902  10.616  67.393  1.00  0.00    -0.296 A  
HETATM    7  N   UNL     1     -11.461  11.648  66.725  1.00  0.00    -0.481 NA 
HETATM    8  O   UNL     1     -10.291  10.973  63.407  1.00  0.00    -0.355 OA 
HETATM    9  C   UNL     1     -11.267  11.777  65.387  1.00  0.00    -0.251 A  
HETATM   10  H2  UNL     1     -11.592  13.717  65.173  1.00  0.00     0.000 HD 
HETATM   11  N   UNL     1     -10.482  10.861  64.680  1.00  0.00    -0.337 NA 
HETATM   12  N   UNL     1     -11.867  12.848  64.717  1.00  0.00    -0.342 NA 
HETATM   13  H1  UNL     1     -11.722  12.945  63.712  1.00  0.00     0.000 HD 
ENDROOT
BRANCH   6  14
HETATM   14  N   UNL     1     -11.242  10.390  68.720  1.00  0.00    -0.251 NA 
HETATM   15  C   UNL     1     -12.055  11.416  69.375  1.00  0.00    -0.291 C  
HETATM   16  C   UNL     1     -11.944   9.978  71.453  1.00  0.00    -0.470 C  
HETATM   17  C   UNL     1     -12.858  10.720  70.477  1.00  0.00    -0.335 C  
HETATM   18  C   UNL     1     -10.961   9.057  70.722  1.00  0.00    -0.315 C  
HETATM   19  C   UNL     1     -10.233   9.782  69.588  1.00  0.00    -0.233 C  
ENDBRANCH   6  14
TORSDOF 1
ENDMDL
MODEL       67
REMARK 921   NORMALIZED FREE ENERGY PREDICTED BY IDOCK:   -4.67 KCAL/MOL
REMARK 922        TOTAL FREE ENERGY PREDICTED BY IDOCK:   -5.21 KCAL/MOL
REMARK 923 INTER-LIGAND FREE ENERGY PREDICTED BY IDOCK:   -4.96 KCAL/MOL
REMARK 924 INTRA-LIGAND FREE ENERGY PREDICTED BY IDOCK:   -0.25 KCAL/MOL
REMARK 927      BINDING AFFINITY PREDICTED BY RF-SCORE:    0.00 PKD
ROOT
HETATM    1  N   UNL     1     -13.452  11.988  72.358  1.00  0.00    -0.525 NA 
HETATM    2  H1  UNL     1     -13.764  11.330  73.071  1.00  0.00     0.000 HD 
HETATM    3  C   UNL     1     -12.701  11.544  71.238  1.00  0.00    -0.364 A  
HETATM    4  H2  UNL     1     -14.268  12.494  72.013  1.00  0.00     0.000 HD 
HETATM    5  C   UNL     1     -12.277  12.440  70.268  1.00  0.00    -0.345 A  
HETATM    6  C   UNL     1     -11.573  11.970  69.169  1.00  0.00    -0.312 A  
HETATM    7  N   UNL     1     -11.250  10.665  69.049  1.00  0.00    -0.247 NA 
HETATM    8  O   UNL     1     -12.751   9.357  72.027  1.00  0.00    -0.373 OA 
HETATM    9  C   UNL     1     -11.642   9.777  69.999  1.00  0.00    -0.130 A  
HETATM   10  H2  UNL     1     -10.296   8.353  69.723  1.00  0.00     0.000 HD 
HETATM   11  N   UNL     1     -12.372  10.192  71.118  1.00  0.00    -0.352 NA 
HETATM   12  N   UNL     1     -11.306   8.428  69.845  1.00  0.00    -0.454 NA 
HETATM   13  H1  UNL     1     -11.600   7.761  70.558  1.00  0.00     0.000 HD 
ENDROOT
BRANCH   6  14
HETATM   14  N   UNL     1     -11.323  12.841  68.116  1.00  0.00    -0.267 NA 
HETATM   15  C   UNL     1     -11.786  12.422  66.792  1.00  0.00    -0.315 C  
HETATM   16  C   UNL     1     -10.808  14.587  65.921  1.00  0.00    -0.308 C  
HETATM   17  C   UNL     1     -12.050  13.696  65.984  1.00  0.00    -0.480 C  
HETATM   18  C   UNL     1     -10.222  14.843  67.314  1.00  0.00    -0.241 C  
HETATM   19  C   UNL     1     -10.041  13.546  68.106  1.00  0.00    -0.250 C  
ENDBRANCH   6  14
TORSDOF 1
ENDMDL
MODEL       68
REMARK 921   NORMALIZED FREE ENERGY PREDICTED BY IDOCK:   -4.64 KCAL/MOL
REMARK 922        TOTAL FREE ENERGY PREDICTED BY IDOCK:   -5.19 KCAL/MOL
REMARK 923 INTER-LIGAND FREE ENERGY PREDICTED BY IDOCK:   -4.93 KCAL/MOL
REMARK 924 INTRA-LIGAND FREE ENERGY PREDICTED BY IDOCK:   -0.26 KCAL/MOL
REMARK 927      BINDING AFFINITY PREDICTED BY RF-SCORE:    0.00 PKD
ROOT
HETATM    1  N   UNL     1      -9.074   8.723  67.181  1.00  0.00    -0.130 NA 
HETATM    2  H1  UNL     1      -8.795   8.030  67.875  1.00  0.00     0.000 HD 
HETATM    3  C   UNL     1     -10.063   9.695  67.481  1.00  0.00    -0.197 A  
HETATM    4  H2  UNL     1      -8.236   9.209  66.863  1.00  0.00     0.000 HD 
HETATM    5  C   UNL     1     -10.442  10.637  66.536  1.00  0.00    -0.285 A  
HETATM    6  C   UNL     1     -11.388  11.595  66.870  1.00  0.00    -0.295 A  
HETATM    7  N   UNL     1     -11.983  11.598  68.082  1.00  0.00    -0.590 NA 
HETATM    8  O   UNL     1     -10.336   8.811  69.614  1.00  0.00    -0.203 OA 
HETATM    9  C   UNL     1     -11.637  10.673  69.013  1.00  0.00    -0.261 A  
HETATM   10  H2  UNL     1     -13.270  10.673  70.131  1.00  0.00     0.000 HD 
HETATM   11  N   UNL     1     -10.674   9.696  68.737  1.00  0.00    -0.221 NA 
HETATM   12  N   UNL     1     -12.259  10.705  70.265  1.00  0.00    -0.316 NA 
HETATM   13  H1  UNL     1     -11.999  10.010  70.965  1.00  0.00     0.000 HD 
ENDROOT
BRANCH   6  14
HETATM   14  N   UNL     1     -11.616  12.642  65.988  1.00  0.00    -0.371 NA 
HETATM   15  C   UNL     1     -11.858  13.959  66.579  1.00  0.00    -0.414 C  
HETATM   16  C   UNL     1     -12.114  14.818  64.214  1.00  0.00    -0.415 C  
HETATM   17  C   UNL     1     -11.404  15.004  65.556  1.00  0.00    -0.312 C  
HETATM   18  C   UNL     1     -12.017  13.373  63.714  1.00  0.00    -0.517 C  
HETATM   19  C   UNL     1     -12.418  12.366  64.795  1.00  0.00    -0.401 C  
ENDBRANCH   6  14
TORSDOF 1
ENDMDL
MODEL       69
REMARK 921   NORMALIZED FREE ENERGY PREDICTED BY IDOCK:   -4.60 KCAL/MOL
REMARK 922        TOTAL FREE ENERGY PREDICTED BY IDOCK:   -5.15 KCAL/MOL
REMARK 923 INTER-LIGAND FREE ENERGY PREDICTED BY IDOCK:   -4.88 KCAL/MOL
REMARK 924 INTRA-LIGAND FREE ENERGY PREDICTED BY IDOCK:   -0.27 KCAL/MOL
REMARK 927      BINDING AFFINITY PREDICTED BY RF-SCORE:    0.00 PKD
ROOT
HETATM    1  N   UNL     1     -11.367  14.238  64.162  1.00  0.00    -0.608 NA 
HETATM    2  H1  UNL     1     -12.090  14.591  63.535  1.00  0.00     0.000 HD 
HETATM    3  C   UNL     1     -10.590  15.128  64.948  1.00  0.00    -0.365 A  
HETATM    4  H2  UNL     1     -11.793  13.552  64.785  1.00  0.00     0.000 HD 
HETATM    5  C   UNL     1      -9.606  14.647  65.800  1.00  0.00    -0.266 A  
HETATM    6  C   UNL     1      -8.886  15.539  66.580  1.00  0.00    -0.290 A  
HETATM    7  N   UNL     1      -9.089  16.872  66.490  1.00  0.00    -0.258 NA 
HETATM    8  O   UNL     1     -11.709  16.957  64.049  1.00  0.00    -1.002 OA 
HETATM    9  C   UNL     1     -10.035  17.360  65.648  1.00  0.00     0.057 A  
HETATM   10  H2  UNL     1      -9.345  19.193  65.372  1.00  0.00     0.000 HD 
HETATM   11  N   UNL     1     -10.806  16.504  64.853  1.00  0.00    -0.702 NA 
HETATM   12  N   UNL     1     -10.235  18.742  65.582  1.00  0.00    -0.488 NA 
HETATM   13  H1  UNL     1     -10.946  19.110  64.950  1.00  0.00     0.000 HD 
ENDROOT
BRANCH   6  14
HETATM   14  N   UNL     1      -8.044  15.036  67.563  1.00  0.00    -0.166 NA 
HETATM   15  C   UNL     1      -7.684  13.621  67.459  1.00  0.00    -0.173 C  
HETATM   16  C   UNL     1      -6.335  13.955  69.574  1.00  0.00    -0.118 C  
HETATM   17  C   UNL     1      -6.317  13.454  68.129  1.00  0.00    -0.114 C  
HETATM   18  C   UNL     1      -6.910  15.372  69.676  1.00  0.00    -0.185 C  
HETATM   19  C   UNL     1      -8.243  15.504  68.935  1.00  0.00    -0.201 C  
ENDBRANCH   6  14
TORSDOF 1
ENDMDL
MODEL       70
REMARK 921   NORMALIZED FREE ENERGY PREDICTED BY IDOCK:   -4.60 KCAL/MOL
REMARK 922        TOTAL FREE ENERGY PREDICTED BY IDOCK:   -5.15 KCAL/MOL
REMARK 923 INTER-LIGAND FREE ENERGY PREDICTED BY IDOCK:   -4.87 KCAL/MOL
REMARK 924 INTRA-LIGAND FREE ENERGY PREDICTED BY IDOCK:   -0.28 KCAL/MOL
REMARK 927      BINDING AFFINITY PREDICTED BY RF-SCORE:    0.00 PKD
ROOT
HETATM    1  N   UNL     1     -11.654   8.358  71.082  1.00  0.00    -0.276 NA 
HETATM    2  H1  UNL     1     -11.366   7.484  70.643  1.00  0.00     0.000 HD 
HETATM    3  C   UNL     1     -11.483   9.598  70.413  1.00  0.00    -0.263 A  
HETATM    4  H2  UNL     1     -12.634   8.273  71.348  1.00  0.00     0.000 HD 
HETATM    5  C   UNL     1     -11.873  10.787  71.010  1.00  0.00    -0.349 A  
HETATM    6  C   UNL     1     -11.723  11.979  70.317  1.00  0.00    -0.179 A  
HETATM    7  N   UNL     1     -11.159  12.010  69.091  1.00  0.00    -0.231 NA 
HETATM    8  O   UNL     1     -10.521   8.521  68.589  1.00  0.00    -0.208 OA 
HETATM    9  C   UNL     1     -10.755  10.857  68.498  1.00  0.00    -0.204 A  
HETATM   10  H2  UNL     1      -9.400  11.566  67.243  1.00  0.00     0.000 HD 
HETATM   11  N   UNL     1     -10.901   9.624  69.143  1.00  0.00    -0.214 NA 
HETATM   12  N   UNL     1     -10.185  10.915  67.223  1.00  0.00    -0.197 NA 
HETATM   13  H1  UNL     1      -9.881  10.049  66.777  1.00  0.00     0.000 HD 
ENDROOT
BRANCH   6  14
HETATM   14  N   UNL     1     -12.290  13.132  70.843  1.00  0.00    -0.360 NA 
HETATM   15  C   UNL     1     -13.341  12.950  71.847  1.00  0.00    -0.435 C  
HETATM   16  C   UNL     1     -13.500  15.473  71.934  1.00  0.00    -0.576 C  
HETATM   17  C   UNL     1     -13.325  14.189  72.746  1.00  0.00    -0.618 C  
HETATM   18  C   UNL     1     -12.516  15.542  70.761  1.00  0.00    -0.491 C  
HETATM   19  C   UNL     1     -12.521  14.254  69.933  1.00  0.00    -0.264 C  
ENDBRANCH   6  14
TORSDOF 1
ENDMDL
MODEL       71
REMARK 921   NORMALIZED FREE ENERGY PREDICTED BY IDOCK:   -4.55 KCAL/MOL
REMARK 922        TOTAL FREE ENERGY PREDICTED BY IDOCK:   -5.09 KCAL/MOL
REMARK 923 INTER-LIGAND FREE ENERGY PREDICTED BY IDOCK:   -4.83 KCAL/MOL
REMARK 924 INTRA-LIGAND FREE ENERGY PREDICTED BY IDOCK:   -0.26 KCAL/MOL
REMARK 927      BINDING AFFINITY PREDICTED BY RF-SCORE:    0.00 PKD
ROOT
HETATM    1  N   UNL     1     -11.513   9.600  69.149  1.00  0.00    -0.454 NA 
HETATM    2  H1  UNL     1     -11.444   8.636  69.475  1.00  0.00     0.000 HD 
HETATM    3  C   UNL     1     -10.970   9.984  67.895  1.00  0.00    -0.252 A  
HETATM    4  H2  UNL     1     -12.496   9.872  69.166  1.00  0.00     0.000 HD 
HETATM    5  C   UNL     1     -11.065  11.295  67.452  1.00  0.00    -0.358 A  
HETATM    6  C   UNL     1     -10.553  11.632  66.208  1.00  0.00    -0.258 A  
HETATM    7  N   UNL     1      -9.921  10.719  65.440  1.00  0.00    -0.254 NA 
HETATM    8  O   UNL     1     -10.215   7.817  67.519  1.00  0.00    -0.194 OA 
HETATM    9  C   UNL     1      -9.804   9.435  65.865  1.00  0.00    -0.291 A  
HETATM   10  H2  UNL     1      -8.228   8.861  64.817  1.00  0.00     0.000 HD 
HETATM   11  N   UNL     1     -10.320   9.035  67.103  1.00  0.00    -0.264 NA 
HETATM   12  N   UNL     1      -9.156   8.506  65.046  1.00  0.00    -0.420 NA 
HETATM   13  H1  UNL     1      -9.068   7.541  65.365  1.00  0.00     0.000 HD 
ENDROOT
BRANCH   6  14
HETATM   14  N   UNL     1     -10.822  12.895  65.697  1.00  0.00    -0.270 NA 
HETATM   15  C   UNL     1     -11.167  12.969  64.276  1.00  0.00    -0.373 C  
HETATM   16  C   UNL     1     -11.359  15.471  64.598  1.00  0.00    -0.363 C  
HETATM   17  C   UNL     1     -12.051  14.205  64.091  1.00  0.00    -0.437 C  
HETATM   18  C   UNL     1     -10.825  15.294  66.024  1.00  0.00    -0.331 C  
HETATM   19  C   UNL     1     -10.004  14.011  66.173  1.00  0.00    -0.312 C  
ENDBRANCH   6  14
TORSDOF 1
ENDMDL
MODEL       72
REMARK 921   NORMALIZED FREE ENERGY PREDICTED BY IDOCK:   -4.43 KCAL/MOL
REMARK 922        TOTAL FREE ENERGY PREDICTED BY IDOCK:   -4.96 KCAL/MOL
REMARK 923 INTER-LIGAND FREE ENERGY PREDICTED BY IDOCK:   -4.68 KCAL/MOL
REMARK 924 INTRA-LIGAND FREE ENERGY PREDICTED BY IDOCK:   -0.28 KCAL/MOL
REMARK 927      BINDING AFFINITY PREDICTED BY RF-SCORE:    0.00 PKD
ROOT
HETATM    1  N   UNL     1     -10.432  17.635  67.791  1.00  0.00    -0.367 NA 
HETATM    2  H1  UNL     1     -10.060  18.150  68.589  1.00  0.00     0.000 HD 
HETATM    3  C   UNL     1     -10.033  16.297  67.540  1.00  0.00    -0.248 A  
HETATM    4  H2  UNL     1     -11.450  17.659  67.845  1.00  0.00     0.000 HD 
HETATM    5  C   UNL     1     -10.540  15.597  66.455  1.00  0.00    -0.307 A  
HETATM    6  C   UNL     1     -10.156  14.279  66.255  1.00  0.00    -0.298 A  
HETATM    7  N   UNL     1      -9.260  13.679  67.068  1.00  0.00    -0.242 NA 
HETATM    8  O   UNL     1      -8.622  16.332  69.388  1.00  0.00    -0.202 OA 
HETATM    9  C   UNL     1      -8.741  14.355  68.125  1.00  0.00    -0.175 A  
HETATM   10  H2  UNL     1      -7.058  13.349  68.390  1.00  0.00     0.000 HD 
HETATM   11  N   UNL     1      -9.109  15.679  68.386  1.00  0.00    -0.186 NA 
HETATM   12  N   UNL     1      -7.825  13.707  68.959  1.00  0.00    -0.332 NA 
HETATM   13  H1  UNL     1      -7.435  14.215  69.753  1.00  0.00     0.000 HD 
ENDROOT
BRANCH   6  14
HETATM   14  N   UNL     1     -10.812  13.534  65.284  1.00  0.00    -0.299 NA 
HETATM   15  C   UNL     1     -12.058  14.093  64.756  1.00  0.00    -0.441 C  
HETATM   16  C   UNL     1     -12.205  12.025  63.306  1.00  0.00    -0.531 C  
HETATM   17  C   UNL     1     -12.226  13.554  63.333  1.00  0.00    -0.338 C  
HETATM   18  C   UNL     1     -10.989  11.460  64.047  1.00  0.00    -0.428 C  
HETATM   19  C   UNL     1     -10.827  12.079  65.437  1.00  0.00    -0.291 C  
ENDBRANCH   6  14
TORSDOF 1
ENDMDL
MODEL       73
REMARK 921   NORMALIZED FREE ENERGY PREDICTED BY IDOCK:   -4.39 KCAL/MOL
REMARK 922        TOTAL FREE ENERGY PREDICTED BY IDOCK:   -4.93 KCAL/MOL
REMARK 923 INTER-LIGAND FREE ENERGY PREDICTED BY IDOCK:   -4.67 KCAL/MOL
REMARK 924 INTRA-LIGAND FREE ENERGY PREDICTED BY IDOCK:   -0.25 KCAL/MOL
REMARK 927      BINDING AFFINITY PREDICTED BY RF-SCORE:    0.00 PKD
ROOT
HETATM    1  N   UNL     1     -11.183  11.332  62.978  1.00  0.00    -0.835 NA 
HETATM    2  H1  UNL     1     -10.950  10.469  62.486  1.00  0.00     0.000 HD 
HETATM    3  C   UNL     1     -10.541  11.669  64.198  1.00  0.00    -0.357 A  
HETATM    4  H2  UNL     1     -11.062  12.110  62.329  1.00  0.00     0.000 HD 
HETATM    5  C   UNL     1     -10.858  12.843  64.866  1.00  0.00    -0.331 A  
HETATM    6  C   UNL     1     -10.191  13.161  66.039  1.00  0.00    -0.286 A  
HETATM    7  N   UNL     1      -9.272  12.326  66.571  1.00  0.00    -0.225 NA 
HETATM    8  O   UNL     1      -9.302   9.702  64.131  1.00  0.00    -0.236 OA 
HETATM    9  C   UNL     1      -8.961  11.165  65.939  1.00  0.00    -0.199 A  
HETATM   10  H2  UNL     1      -8.267  10.112  67.463  1.00  0.00     0.000 HD 
HETATM   11  N   UNL     1      -9.589  10.804  64.741  1.00  0.00    -0.239 NA 
HETATM   12  N   UNL     1      -7.997  10.324  66.503  1.00  0.00    -0.115 NA 
HETATM   13  H1  UNL     1      -7.764   9.451  66.028  1.00  0.00     0.000 HD 
ENDROOT
BRANCH   6  14
HETATM   14  N   UNL     1     -10.378  14.420  66.592  1.00  0.00    -0.271 NA 
HETATM   15  C   UNL     1      -9.497  15.487  66.113  1.00  0.00    -0.341 C  
HETATM   16  C   UNL     1     -10.712  17.018  67.719  1.00  0.00    -0.318 C  
HETATM   17  C   UNL     1     -10.258  16.806  66.274  1.00  0.00    -0.341 C  
HETATM   18  C   UNL     1     -11.459  15.797  68.265  1.00  0.00    -0.338 C  
HETATM   19  C   UNL     1     -10.689  14.498  68.020  1.00  0.00    -0.242 C  
ENDBRANCH   6  14
TORSDOF 1
ENDMDL
MODEL       74
REMARK 921   NORMALIZED FREE ENERGY PREDICTED BY IDOCK:   -4.39 KCAL/MOL
REMARK 922        TOTAL FREE ENERGY PREDICTED BY IDOCK:   -4.93 KCAL/MOL
REMARK 923 INTER-LIGAND FREE ENERGY PREDICTED BY IDOCK:   -4.65 KCAL/MOL
REMARK 924 INTRA-LIGAND FREE ENERGY PREDICTED BY IDOCK:   -0.27 KCAL/MOL
REMARK 927      BINDING AFFINITY PREDICTED BY RF-SCORE:    0.00 PKD
ROOT
HETATM    1  N   UNL     1     -10.723  11.139  66.372  1.00  0.00    -0.262 NA 
HETATM    2  H1  UNL     1     -10.859  12.006  65.852  1.00  0.00     0.000 HD 
HETATM    3  C   UNL     1     -10.991  11.076  67.763  1.00  0.00    -0.269 A  
HETATM    4  H2  UNL     1     -11.260  10.405  65.911  1.00  0.00     0.000 HD 
HETATM    5  C   UNL     1     -10.805   9.897  68.470  1.00  0.00    -0.257 A  
HETATM    6  C   UNL     1     -11.107   9.858  69.823  1.00  0.00    -0.254 A  
HETATM    7  N   UNL     1     -11.533  10.960  70.478  1.00  0.00    -0.291 NA 
HETATM    8  O   UNL     1     -11.593  13.323  67.785  1.00  0.00    -0.300 OA 
HETATM    9  C   UNL     1     -11.704  12.128  69.805  1.00  0.00    -0.310 A  
HETATM   10  H2  UNL     1     -11.538  13.417  71.297  1.00  0.00     0.000 HD 
HETATM   11  N   UNL     1     -11.434  12.218  68.435  1.00  0.00    -0.282 NA 
HETATM   12  N   UNL     1     -12.157  13.251  70.503  1.00  0.00    -0.476 NA 
HETATM   13  H1  UNL     1     -12.286  14.128  69.999  1.00  0.00     0.000 HD 
ENDROOT
BRANCH   6  14
HETATM   14  N   UNL     1     -11.101   8.632  70.473  1.00  0.00    -0.242 NA 
HETATM   15  C   UNL     1     -10.734   8.640  71.890  1.00  0.00    -0.344 C  
HETATM   16  C   UNL     1     -11.050   6.130  71.841  1.00  0.00    -0.324 C  
HETATM   17  C   UNL     1     -11.424   7.438  72.541  1.00  0.00    -0.346 C  
HETATM   18  C   UNL     1     -11.253   6.219  70.325  1.00  0.00    -0.455 C  
HETATM   19  C   UNL     1     -10.602   7.471  69.733  1.00  0.00    -0.241 C  
ENDBRANCH   6  14
TORSDOF 1
ENDMDL
MODEL       75
REMARK 921   NORMALIZED FREE ENERGY PREDICTED BY IDOCK:   -4.37 KCAL/MOL
REMARK 922        TOTAL FREE ENERGY PREDICTED BY IDOCK:   -4.90 KCAL/MOL
REMARK 923 INTER-LIGAND FREE ENERGY PREDICTED BY IDOCK:   -4.62 KCAL/MOL
REMARK 924 INTRA-LIGAND FREE ENERGY PREDICTED BY IDOCK:   -0.28 KCAL/MOL
REMARK 927      BINDING AFFINITY PREDICTED BY RF-SCORE:    0.00 PKD
ROOT
HETATM    1  N   UNL     1     -10.761  12.494  68.537  1.00  0.00    -0.234 NA 
HETATM    2  H1  UNL     1     -11.037  13.462  68.375  1.00  0.00     0.000 HD 
HETATM    3  C   UNL     1     -11.319  11.749  69.608  1.00  0.00    -0.215 A  
HETATM    4  H2  UNL     1     -10.912  11.972  67.674  1.00  0.00     0.000 HD 
HETATM    5  C   UNL     1     -10.944  10.432  69.828  1.00  0.00    -0.345 A  
HETATM    6  C   UNL     1     -11.531   9.719  70.863  1.00  0.00    -0.369 A  
HETATM    7  N   UNL     1     -12.427  10.298  71.692  1.00  0.00    -0.405 NA 
HETATM    8  O   UNL     1     -12.588  13.582  70.269  1.00  0.00    -0.254 OA 
HETATM    9  C   UNL     1     -12.793  11.592  71.501  1.00  0.00    -0.380 A  
HETATM   10  H2  UNL     1     -13.404  12.054  73.325  1.00  0.00     0.000 HD 
HETATM   11  N   UNL     1     -12.247  12.351  70.460  1.00  0.00    -0.349 NA 
HETATM   12  N   UNL     1     -13.731  12.164  72.365  1.00  0.00    -0.452 NA 
HETATM   13  H1  UNL     1     -14.007  13.136  72.223  1.00  0.00     0.000 HD 
ENDROOT
BRANCH   6  14
HETATM   14  N   UNL     1     -11.292   8.355  70.953  1.00  0.00    -0.266 NA 
HETATM   15  C   UNL     1     -10.757   7.700  69.758  1.00  0.00    -0.240 C  
HETATM   16  C   UNL     1     -10.807   5.548  71.086  1.00  0.00    -0.243 C  
HETATM   17  C   UNL     1      -9.954   6.485  70.230  1.00  0.00    -0.198 C  
HETATM   18  C   UNL     1     -11.520   6.300  72.214  1.00  0.00    -0.351 C  
HETATM   19  C   UNL     1     -12.252   7.542  71.700  1.00  0.00    -0.322 C  
ENDBRANCH   6  14
TORSDOF 1
ENDMDL
MODEL       76
REMARK 921   NORMALIZED FREE ENERGY PREDICTED BY IDOCK:   -4.34 KCAL/MOL
REMARK 922        TOTAL FREE ENERGY PREDICTED BY IDOCK:   -4.87 KCAL/MOL
REMARK 923 INTER-LIGAND FREE ENERGY PREDICTED BY IDOCK:   -4.59 KCAL/MOL
REMARK 924 INTRA-LIGAND FREE ENERGY PREDICTED BY IDOCK:   -0.27 KCAL/MOL
REMARK 927      BINDING AFFINITY PREDICTED BY RF-SCORE:    0.00 PKD
ROOT
HETATM    1  N   UNL     1     -10.053  10.493  64.941  1.00  0.00    -0.329 NA 
HETATM    2  H1  UNL     1     -10.025   9.474  64.965  1.00  0.00     0.000 HD 
HETATM    3  C   UNL     1     -10.535  11.233  66.052  1.00  0.00    -0.257 A  
HETATM    4  H2  UNL     1      -9.119  10.832  64.714  1.00  0.00     0.000 HD 
HETATM    5  C   UNL     1     -10.574  12.619  66.018  1.00  0.00    -0.294 A  
HETATM    6  C   UNL     1     -11.020  13.316  67.131  1.00  0.00    -0.272 A  
HETATM    7  N   UNL     1     -11.463  12.669  68.231  1.00  0.00    -0.289 NA 
HETATM    8  O   UNL     1     -10.970   9.269  67.218  1.00  0.00    -0.166 OA 
HETATM    9  C   UNL     1     -11.448  11.312  68.275  1.00  0.00    -0.308 A  
HETATM   10  H2  UNL     1     -12.844  10.991  69.639  1.00  0.00     0.000 HD 
HETATM   11  N   UNL     1     -10.989  10.560  67.187  1.00  0.00    -0.265 NA 
HETATM   12  N   UNL     1     -11.900  10.666  69.429  1.00  0.00    -0.442 NA 
HETATM   13  H1  UNL     1     -11.889   9.647  69.463  1.00  0.00     0.000 HD 
ENDROOT
BRANCH   6  14
HETATM   14  N   UNL     1     -10.874  14.696  67.156  1.00  0.00    -0.296 NA 
HETATM   15  C   UNL     1     -11.584  15.413  68.217  1.00  0.00    -0.348 C  
HETATM   16  C   UNL     1     -10.623  17.536  67.231  1.00  0.00    -0.287 C  
HETATM   17  C   UNL     1     -10.797  16.697  68.498  1.00  0.00    -0.356 C  
HETATM   18  C   UNL     1     -10.066  16.704  66.071  1.00  0.00    -0.359 C  
HETATM   19  C   UNL     1     -10.845  15.402  65.875  1.00  0.00    -0.325 C  
ENDBRANCH   6  14
TORSDOF 1
ENDMDL
MODEL       77
REMARK 921   NORMALIZED FREE ENERGY PREDICTED BY IDOCK:   -4.34 KCAL/MOL
REMARK 922        TOTAL FREE ENERGY PREDICTED BY IDOCK:   -4.87 KCAL/MOL
REMARK 923 INTER-LIGAND FREE ENERGY PREDICTED BY IDOCK:   -4.60 KCAL/MOL
REMARK 924 INTRA-LIGAND FREE ENERGY PREDICTED BY IDOCK:   -0.27 KCAL/MOL
REMARK 927      BINDING AFFINITY PREDICTED BY RF-SCORE:    0.00 PKD
ROOT
HETATM    1  N   UNL     1      -9.164   6.815  71.411  1.00  0.00    -0.154 NA 
HETATM    2  H1  UNL     1      -9.150   6.175  72.205  1.00  0.00     0.000 HD 
HETATM    3  C   UNL     1     -10.209   7.763  71.261  1.00  0.00    -0.193 A  
HETATM    4  H2  UNL     1      -8.276   7.315  71.389  1.00  0.00     0.000 HD 
HETATM    5  C   UNL     1     -10.229   8.634  70.181  1.00  0.00    -0.204 A  
HETATM    6  C   UNL     1     -11.246   9.571  70.080  1.00  0.00    -0.234 A  
HETATM    7  N   UNL     1     -12.245   9.622  70.987  1.00  0.00    -0.315 NA 
HETATM    8  O   UNL     1     -11.234   6.994  73.202  1.00  0.00    -0.253 OA 
HETATM    9  C   UNL     1     -12.251   8.766  72.041  1.00  0.00    -0.377 A  
HETATM   10  H2  UNL     1     -14.180   8.767  72.481  1.00  0.00     0.000 HD 
HETATM   11  N   UNL     1     -11.239   7.813  72.204  1.00  0.00    -0.276 NA 
HETATM   12  N   UNL     1     -13.290   8.846  72.973  1.00  0.00    -0.911 NA 
HETATM   13  H1  UNL     1     -13.295   8.204  73.766  1.00  0.00     0.000 HD 
ENDROOT
BRANCH   6  14
HETATM   14  N   UNL     1     -11.150  10.556  69.106  1.00  0.00    -0.233 NA 
HETATM   15  C   UNL     1     -12.005  11.732  69.273  1.00  0.00    -0.291 C  
HETATM   16  C   UNL     1     -11.004  12.592  67.115  1.00  0.00    -0.296 C  
HETATM   17  C   UNL     1     -11.301  12.903  68.583  1.00  0.00    -0.327 C  
HETATM   18  C   UNL     1     -10.284  11.249  66.953  1.00  0.00    -0.254 C  
HETATM   19  C   UNL     1     -10.990  10.126  67.716  1.00  0.00    -0.277 C  
ENDBRANCH   6  14
TORSDOF 1
ENDMDL
MODEL       78
REMARK 921   NORMALIZED FREE ENERGY PREDICTED BY IDOCK:   -4.32 KCAL/MOL
REMARK 922        TOTAL FREE ENERGY PREDICTED BY IDOCK:   -4.85 KCAL/MOL
REMARK 923 INTER-LIGAND FREE ENERGY PREDICTED BY IDOCK:   -4.60 KCAL/MOL
REMARK 924 INTRA-LIGAND FREE ENERGY PREDICTED BY IDOCK:   -0.25 KCAL/MOL
REMARK 927      BINDING AFFINITY PREDICTED BY RF-SCORE:    0.00 PKD
ROOT
HETATM    1  N   UNL     1     -12.527  13.272  65.397  1.00  0.00    -0.479 NA 
HETATM    2  H1  UNL     1     -12.106  13.028  64.500  1.00  0.00     0.000 HD 
HETATM    3  C   UNL     1     -11.833  13.036  66.612  1.00  0.00    -0.393 A  
HETATM    4  H2  UNL     1     -12.790  14.256  65.367  1.00  0.00     0.000 HD 
HETATM    5  C   UNL     1     -12.405  13.367  67.831  1.00  0.00     0.043 A  
HETATM    6  C   UNL     1     -11.690  13.155  69.000  1.00  0.00    -0.321 A  
HETATM    7  N   UNL     1     -10.465  12.586  68.978  1.00  0.00    -0.068 NA 
HETATM    8  O   UNL     1     -10.036  12.125  65.452  1.00  0.00    -0.253 OA 
HETATM    9  C   UNL     1      -9.897  12.240  67.795  1.00  0.00    -0.201 A  
HETATM   10  H2  UNL     1      -8.633  10.847  68.408  1.00  0.00     0.000 HD 
HETATM   11  N   UNL     1     -10.566  12.450  66.584  1.00  0.00    -0.228 NA 
HETATM   12  N   UNL     1      -8.623  11.664  67.798  1.00  0.00    -0.139 NA 
HETATM   13  H1  UNL     1      -8.196  11.403  66.909  1.00  0.00     0.000 HD 
ENDROOT
BRANCH   6  14
HETATM   14  N   UNL     1     -12.191  13.664  70.191  1.00  0.00    -0.345 NA 
HETATM   15  C   UNL     1     -11.669  14.962  70.622  1.00  0.00    -0.303 C  
HETATM   16  C   UNL     1     -13.175  14.737  72.643  1.00  0.00    -0.548 C  
HETATM   17  C   UNL     1     -12.757  15.626  71.470  1.00  0.00    -0.522 C  
HETATM   18  C   UNL     1     -13.522  13.317  72.183  1.00  0.00    -0.655 C  
HETATM   19  C   UNL     1     -12.435  12.724  71.285  1.00  0.00    -0.185 C  
ENDBRANCH   6  14
TORSDOF 1
ENDMDL
MODEL       79
REMARK 921   NORMALIZED FREE ENERGY PREDICTED BY IDOCK:   -4.30 KCAL/MOL
REMARK 922        TOTAL FREE ENERGY PREDICTED BY IDOCK:   -4.83 KCAL/MOL
REMARK 923 INTER-LIGAND FREE ENERGY PREDICTED BY IDOCK:   -4.57 KCAL/MOL
REMARK 924 INTRA-LIGAND FREE ENERGY PREDICTED BY IDOCK:   -0.26 KCAL/MOL
REMARK 927      BINDING AFFINITY PREDICTED BY RF-SCORE:    0.00 PKD
ROOT
HETATM    1  N   UNL     1     -12.938   6.734  71.842  1.00  0.00    -0.507 NA 
HETATM    2  H1  UNL     1     -13.735   6.604  72.465  1.00  0.00     0.000 HD 
HETATM    3  C   UNL     1     -12.497   8.036  71.489  1.00  0.00    -0.310 A  
HETATM    4  H2  UNL     1     -12.145   6.224  72.230  1.00  0.00     0.000 HD 
HETATM    5  C   UNL     1     -11.413   8.212  70.641  1.00  0.00    -0.237 A  
HETATM    6  C   UNL     1     -10.985   9.496  70.340  1.00  0.00    -0.278 A  
HETATM    7  N   UNL     1     -11.634  10.581  70.817  1.00  0.00    -0.347 NA 
HETATM    8  O   UNL     1     -14.189   8.995  72.763  1.00  0.00    -0.572 OA 
HETATM    9  C   UNL     1     -12.707  10.426  71.634  1.00  0.00    -0.455 A  
HETATM   10  H2  UNL     1     -13.623  12.155  71.338  1.00  0.00     0.000 HD 
HETATM   11  N   UNL     1     -13.169   9.153  71.987  1.00  0.00    -0.405 NA 
HETATM   12  N   UNL     1     -13.354  11.565  72.125  1.00  0.00    -0.562 NA 
HETATM   13  H1  UNL     1     -14.160  11.449  72.739  1.00  0.00     0.000 HD 
ENDROOT
BRANCH   6  14
HETATM   14  N   UNL     1      -9.790   9.657  69.651  1.00  0.00    -0.201 NA 
HETATM   15  C   UNL     1      -8.560   9.374  70.393  1.00  0.00    -0.230 C  
HETATM   16  C   UNL     1      -7.312   9.996  68.282  1.00  0.00    -0.078 C  
HETATM   17  C   UNL     1      -7.507   8.939  69.370  1.00  0.00    -0.077 C  
HETATM   18  C   UNL     1      -8.646  10.424  67.660  1.00  0.00    -0.118 C  
HETATM   19  C   UNL     1      -9.684  10.784  68.725  1.00  0.00    -0.192 C  
ENDBRANCH   6  14
TORSDOF 1
ENDMDL
MODEL       80
REMARK 921   NORMALIZED FREE ENERGY PREDICTED BY IDOCK:   -4.30 KCAL/MOL
REMARK 922        TOTAL FREE ENERGY PREDICTED BY IDOCK:   -4.82 KCAL/MOL
REMARK 923 INTER-LIGAND FREE ENERGY PREDICTED BY IDOCK:   -4.57 KCAL/MOL
REMARK 924 INTRA-LIGAND FREE ENERGY PREDICTED BY IDOCK:   -0.25 KCAL/MOL
REMARK 927      BINDING AFFINITY PREDICTED BY RF-SCORE:    0.00 PKD
ROOT
HETATM    1  N   UNL     1     -12.952  13.383  65.147  1.00  0.00    -0.716 NA 
HETATM    2  H1  UNL     1     -13.349  14.309  65.303  1.00  0.00     0.000 HD 
HETATM    3  C   UNL     1     -11.939  12.873  65.999  1.00  0.00    -0.446 A  
HETATM    4  H2  UNL     1     -13.717  12.709  65.124  1.00  0.00     0.000 HD 
HETATM    5  C   UNL     1     -11.399  11.613  65.786  1.00  0.00    -0.244 A  
HETATM    6  C   UNL     1     -10.433  11.130  66.656  1.00  0.00    -0.250 A  
HETATM    7  N   UNL     1      -9.972  11.882  67.679  1.00  0.00    -0.187 NA 
HETATM    8  O   UNL     1     -11.955  14.834  67.250  1.00  0.00    -0.362 OA 
HETATM    9  C   UNL     1     -10.477  13.124  67.892  1.00  0.00    -0.240 A  
HETATM   10  H2  UNL     1      -8.977  13.944  68.888  1.00  0.00     0.000 HD 
HETATM   11  N   UNL     1     -11.468  13.653  67.058  1.00  0.00    -0.327 NA 
HETATM   12  N   UNL     1      -9.992  13.877  68.965  1.00  0.00    -0.427 NA 
HETATM   13  H1  UNL     1     -10.371  14.811  69.126  1.00  0.00     0.000 HD 
ENDROOT
BRANCH   6  14
HETATM   14  N   UNL     1     -10.043   9.802  66.547  1.00  0.00    -0.236 NA 
HETATM   15  C   UNL     1     -10.535   8.885  67.576  1.00  0.00    -0.269 C  
HETATM   16  C   UNL     1      -9.245   7.070  66.375  1.00  0.00    -0.186 C  
HETATM   17  C   UNL     1     -10.601   7.492  66.944  1.00  0.00    -0.367 C  
HETATM   18  C   UNL     1      -8.655   8.144  65.456  1.00  0.00    -0.173 C  
HETATM   19  C   UNL     1      -8.674   9.528  66.108  1.00  0.00    -0.145 C  
ENDBRANCH   6  14
TORSDOF 1
ENDMDL
MODEL       81
REMARK 921   NORMALIZED FREE ENERGY PREDICTED BY IDOCK:   -4.29 KCAL/MOL
REMARK 922        TOTAL FREE ENERGY PREDICTED BY IDOCK:   -4.81 KCAL/MOL
REMARK 923 INTER-LIGAND FREE ENERGY PREDICTED BY IDOCK:   -4.55 KCAL/MOL
REMARK 924 INTRA-LIGAND FREE ENERGY PREDICTED BY IDOCK:   -0.26 KCAL/MOL
REMARK 927      BINDING AFFINITY PREDICTED BY RF-SCORE:    0.00 PKD
ROOT
HETATM    1  N   UNL     1      -9.886   4.504  69.589  1.00  0.00    -0.218 NA 
HETATM    2  H1  UNL     1      -9.468   3.580  69.693  1.00  0.00     0.000 HD 
HETATM    3  C   UNL     1     -10.387   5.205  70.717  1.00  0.00    -0.224 A  
HETATM    4  H2  UNL     1      -9.213   5.105  69.114  1.00  0.00     0.000 HD 
HETATM    5  C   UNL     1     -10.955   6.463  70.576  1.00  0.00    -0.364 A  
HETATM    6  C   UNL     1     -11.407   7.136  71.701  1.00  0.00    -0.251 A  
HETATM    7  N   UNL     1     -11.349   6.571  72.926  1.00  0.00    -0.190 NA 
HETATM    8  O   UNL     1      -9.809   3.440  72.116  1.00  0.00    -0.149 OA 
HETATM    9  C   UNL     1     -10.811   5.334  73.080  1.00  0.00    -0.280 A  
HETATM   10  H2  UNL     1     -11.688   4.780  74.765  1.00  0.00     0.000 HD 
HETATM   11  N   UNL     1     -10.322   4.618  71.982  1.00  0.00    -0.188 NA 
HETATM   12  N   UNL     1     -10.752   4.776  74.361  1.00  0.00    -0.349 NA 
HETATM   13  H1  UNL     1     -10.348   3.846  74.477  1.00  0.00     0.000 HD 
ENDROOT
BRANCH   6  14
HETATM   14  N   UNL     1     -11.794   8.463  71.572  1.00  0.00    -0.284 NA 
HETATM   15  C   UNL     1     -10.743   9.426  71.240  1.00  0.00    -0.350 C  
HETATM   16  C   UNL     1     -12.541  11.204  71.323  1.00  0.00    -0.503 C  
HETATM   17  C   UNL     1     -11.412  10.586  70.497  1.00  0.00    -0.433 C  
HETATM   18  C   UNL     1     -13.521  10.141  71.831  1.00  0.00    -0.426 C  
HETATM   19  C   UNL     1     -12.799   8.973  72.506  1.00  0.00    -0.338 C  
ENDBRANCH   6  14
TORSDOF 1
ENDMDL
MODEL       82
REMARK 921   NORMALIZED FREE ENERGY PREDICTED BY IDOCK:   -4.28 KCAL/MOL
REMARK 922        TOTAL FREE ENERGY PREDICTED BY IDOCK:   -4.80 KCAL/MOL
REMARK 923 INTER-LIGAND FREE ENERGY PREDICTED BY IDOCK:   -4.53 KCAL/MOL
REMARK 924 INTRA-LIGAND FREE ENERGY PREDICTED BY IDOCK:   -0.27 KCAL/MOL
REMARK 927      BINDING AFFINITY PREDICTED BY RF-SCORE:    0.00 PKD
ROOT
HETATM    1  N   UNL     1     -12.485  14.107  68.076  1.00  0.00    -0.459 NA 
HETATM    2  H1  UNL     1     -12.666  13.107  68.166  1.00  0.00     0.000 HD 
HETATM    3  C   UNL     1     -11.173  14.624  68.226  1.00  0.00    -0.285 A  
HETATM    4  H2  UNL     1     -12.847  14.415  67.173  1.00  0.00     0.000 HD 
HETATM    5  C   UNL     1     -10.927  15.984  68.104  1.00  0.00    -0.339 A  
HETATM    6  C   UNL     1      -9.628  16.455  68.225  1.00  0.00    -0.221 A  
HETATM    7  N   UNL     1      -8.604  15.622  68.508  1.00  0.00    -0.172 NA 
HETATM    8  O   UNL     1     -10.343  12.493  68.647  1.00  0.00    -0.225 OA 
HETATM    9  C   UNL     1      -8.829  14.290  68.648  1.00  0.00    -0.150 A  
HETATM   10  H2  UNL     1      -7.274  13.788  69.763  1.00  0.00     0.000 HD 
HETATM   11  N   UNL     1     -10.116  13.758  68.516  1.00  0.00    -0.233 NA 
HETATM   12  N   UNL     1      -7.750  13.446  68.928  1.00  0.00    -0.312 NA 
HETATM   13  H1  UNL     1      -7.919  12.446  69.034  1.00  0.00     0.000 HD 
ENDROOT
BRANCH   6  14
HETATM   14  N   UNL     1      -9.369  17.783  67.912  1.00  0.00    -0.261 NA 
HETATM   15  C   UNL     1     -10.530  18.662  67.763  1.00  0.00    -0.411 C  
HETATM   16  C   UNL     1      -8.884  20.513  67.245  1.00  0.00    -0.404 C  
HETATM   17  C   UNL     1     -10.069  20.080  68.111  1.00  0.00    -0.547 C  
HETATM   18  C   UNL     1      -7.760  19.471  67.259  1.00  0.00    -0.285 C  
HETATM   19  C   UNL     1      -8.283  18.062  66.971  1.00  0.00    -0.227 C  
ENDBRANCH   6  14
TORSDOF 1
ENDMDL
MODEL       83
REMARK 921   NORMALIZED FREE ENERGY PREDICTED BY IDOCK:   -4.26 KCAL/MOL
REMARK 922        TOTAL FREE ENERGY PREDICTED BY IDOCK:   -4.79 KCAL/MOL
REMARK 923 INTER-LIGAND FREE ENERGY PREDICTED BY IDOCK:   -4.51 KCAL/MOL
REMARK 924 INTRA-LIGAND FREE ENERGY PREDICTED BY IDOCK:   -0.27 KCAL/MOL
REMARK 927      BINDING AFFINITY PREDICTED BY RF-SCORE:    0.00 PKD
ROOT
HETATM    1  N   UNL     1     -10.232  20.291  67.971  1.00  0.00    -0.351 NA 
HETATM    2  H1  UNL     1      -9.774  21.174  67.747  1.00  0.00     0.000 HD 
HETATM    3  C   UNL     1      -9.697  19.059  67.516  1.00  0.00    -0.314 A  
HETATM    4  H2  UNL     1     -10.338  20.237  68.984  1.00  0.00     0.000 HD 
HETATM    5  C   UNL     1     -10.320  17.858  67.822  1.00  0.00    -0.393 A  
HETATM    6  C   UNL     1      -9.755  16.667  67.389  1.00  0.00    -0.251 A  
HETATM    7  N   UNL     1      -8.635  16.657  66.634  1.00  0.00    -0.232 NA 
HETATM    8  O   UNL     1      -7.962  20.170  66.437  1.00  0.00    -0.299 OA 
HETATM    9  C   UNL     1      -8.022  17.824  66.311  1.00  0.00    -0.247 A  
HETATM   10  H2  UNL     1      -7.048  17.267  64.681  1.00  0.00     0.000 HD 
HETATM   11  N   UNL     1      -8.537  19.053  66.738  1.00  0.00    -0.292 NA 
HETATM   12  N   UNL     1      -6.857  17.786  65.539  1.00  0.00    -0.353 NA 
HETATM   13  H1  UNL     1      -6.396  18.663  65.295  1.00  0.00     0.000 HD 
ENDROOT
BRANCH   6  14
HETATM   14  N   UNL     1     -10.278  15.471  67.861  1.00  0.00    -0.235 NA 
HETATM   15  C   UNL     1      -9.899  14.257  67.138  1.00  0.00    -0.252 C  
HETATM   16  C   UNL     1     -11.349  12.994  68.781  1.00  0.00    -0.332 C  
HETATM   17  C   UNL     1      -9.967  13.097  68.136  1.00  0.00    -0.234 C  
HETATM   18  C   UNL     1     -11.811  14.338  69.354  1.00  0.00    -0.372 C  
HETATM   19  C   UNL     1     -11.661  15.474  68.341  1.00  0.00    -0.357 C  
ENDBRANCH   6  14
TORSDOF 1
ENDMDL
MODEL       84
REMARK 921   NORMALIZED FREE ENERGY PREDICTED BY IDOCK:   -4.26 KCAL/MOL
REMARK 922        TOTAL FREE ENERGY PREDICTED BY IDOCK:   -4.78 KCAL/MOL
REMARK 923 INTER-LIGAND FREE ENERGY PREDICTED BY IDOCK:   -4.54 KCAL/MOL
REMARK 924 INTRA-LIGAND FREE ENERGY PREDICTED BY IDOCK:   -0.24 KCAL/MOL
REMARK 927      BINDING AFFINITY PREDICTED BY RF-SCORE:    0.00 PKD
ROOT
HETATM    1  N   UNL     1     -12.961  10.457  70.202  1.00  0.00    -0.513 NA 
HETATM    2  H1  UNL     1     -12.901   9.679  70.858  1.00  0.00     0.000 HD 
HETATM    3  C   UNL     1     -11.820  10.882  69.473  1.00  0.00    -0.332 A  
HETATM    4  H2  UNL     1     -13.706  10.255  69.536  1.00  0.00     0.000 HD 
HETATM    5  C   UNL     1     -11.901  11.941  68.581  1.00  0.00    -0.365 A  
HETATM    6  C   UNL     1     -10.776  12.312  67.859  1.00  0.00    -0.215 A  
HETATM    7  N   UNL     1      -9.590  11.694  68.044  1.00  0.00    -0.178 NA 
HETATM    8  O   UNL     1     -10.511   9.261  70.507  1.00  0.00    -0.216 OA 
HETATM    9  C   UNL     1      -9.488  10.666  68.926  1.00  0.00    -0.192 A  
HETATM   10  H2  UNL     1      -7.551  10.738  69.323  1.00  0.00     0.000 HD 
HETATM   11  N   UNL     1     -10.596  10.237  69.665  1.00  0.00    -0.240 NA 
HETATM   12  N   UNL     1      -8.252  10.034  69.089  1.00  0.00    -0.125 NA 
HETATM   13  H1  UNL     1      -8.175   9.262  69.752  1.00  0.00     0.000 HD 
ENDROOT
BRANCH   6  14
HETATM   14  N   UNL     1     -10.917  13.240  66.836  1.00  0.00    -0.280 NA 
HETATM   15  C   UNL     1     -10.759  14.649  67.201  1.00  0.00    -0.292 C  
HETATM   16  C   UNL     1     -11.221  15.183  64.771  1.00  0.00    -0.396 C  
HETATM   17  C   UNL     1     -10.269  15.386  65.951  1.00  0.00    -0.365 C  
HETATM   18  C   UNL     1     -11.531  13.701  64.539  1.00  0.00    -0.401 C  
HETATM   19  C   UNL     1     -11.951  12.995  65.831  1.00  0.00    -0.435 C  
ENDBRANCH   6  14
TORSDOF 1
ENDMDL
MODEL       85
REMARK 921   NORMALIZED FREE ENERGY PREDICTED BY IDOCK:   -4.25 KCAL/MOL
REMARK 922        TOTAL FREE ENERGY PREDICTED BY IDOCK:   -4.78 KCAL/MOL
REMARK 923 INTER-LIGAND FREE ENERGY PREDICTED BY IDOCK:   -4.53 KCAL/MOL
REMARK 924 INTRA-LIGAND FREE ENERGY PREDICTED BY IDOCK:   -0.24 KCAL/MOL
REMARK 927      BINDING AFFINITY PREDICTED BY RF-SCORE:    0.00 PKD
ROOT
HETATM    1  N   UNL     1     -10.738  19.572  68.141  1.00  0.00    -0.399 NA 
HETATM    2  H1  UNL     1     -10.362  20.391  68.618  1.00  0.00     0.000 HD 
HETATM    3  C   UNL     1      -9.974  18.382  68.027  1.00  0.00    -0.351 A  
HETATM    4  H2  UNL     1     -11.632  19.336  68.573  1.00  0.00     0.000 HD 
HETATM    5  C   UNL     1     -10.486  17.268  67.378  1.00  0.00    -0.338 A  
HETATM    6  C   UNL     1      -9.728  16.109  67.312  1.00  0.00    -0.233 A  
HETATM    7  N   UNL     1      -8.479  16.059  67.824  1.00  0.00    -0.160 NA 
HETATM    8  O   UNL     1      -8.196  19.374  69.152  1.00  0.00    -0.307 OA 
HETATM    9  C   UNL     1      -7.955  17.145  68.448  1.00  0.00    -0.250 A  
HETATM   10  H2  UNL     1      -6.024  16.766  68.245  1.00  0.00     0.000 HD 
HETATM   11  N   UNL     1      -8.684  18.334  68.561  1.00  0.00    -0.314 NA 
HETATM   12  N   UNL     1      -6.665  17.064  68.981  1.00  0.00    -0.210 NA 
HETATM   13  H1  UNL     1      -6.271  17.880  69.449  1.00  0.00     0.000 HD 
ENDROOT
BRANCH   6  14
HETATM   14  N   UNL     1     -10.322  14.950  66.832  1.00  0.00    -0.261 NA 
HETATM   15  C   UNL     1     -11.068  15.064  65.578  1.00  0.00    -0.357 C  
HETATM   16  C   UNL     1     -11.580  12.598  65.823  1.00  0.00    -0.431 C  
HETATM   17  C   UNL     1     -11.029  13.690  64.904  1.00  0.00    -0.372 C  
HETATM   18  C   UNL     1     -10.921  12.634  67.206  1.00  0.00    -0.291 C  
HETATM   19  C   UNL     1     -10.926  14.041  67.807  1.00  0.00    -0.258 C  
ENDBRANCH   6  14
TORSDOF 1
ENDMDL
MODEL       86
REMARK 921   NORMALIZED FREE ENERGY PREDICTED BY IDOCK:   -4.24 KCAL/MOL
REMARK 922        TOTAL FREE ENERGY PREDICTED BY IDOCK:   -4.76 KCAL/MOL
REMARK 923 INTER-LIGAND FREE ENERGY PREDICTED BY IDOCK:   -4.51 KCAL/MOL
REMARK 924 INTRA-LIGAND FREE ENERGY PREDICTED BY IDOCK:   -0.25 KCAL/MOL
REMARK 927      BINDING AFFINITY PREDICTED BY RF-SCORE:    0.00 PKD
ROOT
HETATM    1  N   UNL     1     -10.809   9.027  67.690  1.00  0.00    -0.481 NA 
HETATM    2  H1  UNL     1     -11.090   9.724  67.001  1.00  0.00     0.000 HD 
HETATM    3  C   UNL     1     -11.102   9.207  69.066  1.00  0.00     0.093 A  
HETATM    4  H2  UNL     1     -11.185   8.124  67.400  1.00  0.00     0.000 HD 
HETATM    5  C   UNL     1     -10.720   8.259  70.004  1.00  0.00    -0.239 A  
HETATM    6  C   UNL     1     -11.049   8.448  71.338  1.00  0.00    -0.255 A  
HETATM    7  N   UNL     1     -11.693   9.562  71.750  1.00  0.00    -0.383 NA 
HETATM    8  O   UNL     1     -12.115  11.253  68.620  1.00  0.00    -0.543 OA 
HETATM    9  C   UNL     1     -12.060  10.508  70.847  1.00  0.00    -0.383 A  
HETATM   10  H2  UNL     1     -12.183  12.089  72.031  1.00  0.00     0.000 HD 
HETATM   11  N   UNL     1     -11.771  10.359  69.487  1.00  0.00    -0.221 NA 
HETATM   12  N   UNL     1     -12.737  11.646  71.297  1.00  0.00    -0.383 NA 
HETATM   13  H1  UNL     1     -13.012  12.358  70.620  1.00  0.00     0.000 HD 
ENDROOT
BRANCH   6  14
HETATM   14  N   UNL     1     -10.832   7.409  72.232  1.00  0.00    -0.233 NA 
HETATM   15  C   UNL     1      -9.666   7.528  73.108  1.00  0.00    -0.247 C  
HETATM   16  C   UNL     1     -10.334   5.284  74.068  1.00  0.00    -0.301 C  
HETATM   17  C   UNL     1      -9.976   6.738  74.382  1.00  0.00    -0.310 C  
HETATM   18  C   UNL     1     -11.422   5.187  72.993  1.00  0.00    -0.349 C  
HETATM   19  C   UNL     1     -11.096   6.046  71.769  1.00  0.00    -0.276 C  
ENDBRANCH   6  14
TORSDOF 1
ENDMDL
MODEL       87
REMARK 921   NORMALIZED FREE ENERGY PREDICTED BY IDOCK:   -4.24 KCAL/MOL
REMARK 922        TOTAL FREE ENERGY PREDICTED BY IDOCK:   -4.76 KCAL/MOL
REMARK 923 INTER-LIGAND FREE ENERGY PREDICTED BY IDOCK:   -4.51 KCAL/MOL
REMARK 924 INTRA-LIGAND FREE ENERGY PREDICTED BY IDOCK:   -0.25 KCAL/MOL
REMARK 927      BINDING AFFINITY PREDICTED BY RF-SCORE:    0.00 PKD
ROOT
HETATM    1  N   UNL     1     -11.980  13.746  66.706  1.00  0.00    -0.413 NA 
HETATM    2  H1  UNL     1     -12.199  14.541  66.106  1.00  0.00     0.000 HD 
HETATM    3  C   UNL     1     -11.408  12.565  66.166  1.00  0.00    -0.343 A  
HETATM    4  H2  UNL     1     -11.379  14.073  67.462  1.00  0.00     0.000 HD 
HETATM    5  C   UNL     1     -11.111  11.483  66.982  1.00  0.00    -0.365 A  
HETATM    6  C   UNL     1     -10.522  10.355  66.430  1.00  0.00    -0.177 A  
HETATM    7  N   UNL     1     -10.277  10.269  65.105  1.00  0.00    -0.289 NA 
HETATM    8  O   UNL     1     -11.444  13.481  64.029  1.00  0.00    -0.379 OA 
HETATM    9  C   UNL     1     -10.577  11.312  64.289  1.00  0.00    -0.358 A  
HETATM   10  H2  UNL     1     -10.755  10.364  62.561  1.00  0.00     0.000 HD 
HETATM   11  N   UNL     1     -11.154  12.483  64.795  1.00  0.00    -0.291 NA 
HETATM   12  N   UNL     1     -10.303  11.204  62.922  1.00  0.00    -0.739 NA 
HETATM   13  H1  UNL     1     -10.528  11.987  62.309  1.00  0.00     0.000 HD 
ENDROOT
BRANCH   6  14
HETATM   14  N   UNL     1     -10.056   9.362  67.281  1.00  0.00    -0.210 NA 
HETATM   15  C   UNL     1      -8.683   9.503  67.767  1.00  0.00    -0.115 C  
HETATM   16  C   UNL     1      -9.050   7.332  69.014  1.00  0.00    -0.133 C  
HETATM   17  C   UNL     1      -8.608   8.793  69.121  1.00  0.00    -0.128 C  
HETATM   18  C   UNL     1     -10.407   7.200  68.314  1.00  0.00    -0.227 C  
HETATM   19  C   UNL     1     -10.452   7.982  66.999  1.00  0.00    -0.340 C  
ENDBRANCH   6  14
TORSDOF 1
ENDMDL
MODEL       88
REMARK 921   NORMALIZED FREE ENERGY PREDICTED BY IDOCK:   -4.23 KCAL/MOL
REMARK 922        TOTAL FREE ENERGY PREDICTED BY IDOCK:   -4.75 KCAL/MOL
REMARK 923 INTER-LIGAND FREE ENERGY PREDICTED BY IDOCK:   -4.49 KCAL/MOL
REMARK 924 INTRA-LIGAND FREE ENERGY PREDICTED BY IDOCK:   -0.26 KCAL/MOL
REMARK 927      BINDING AFFINITY PREDICTED BY RF-SCORE:    0.00 PKD
ROOT
HETATM    1  N   UNL     1     -12.387  14.342  68.993  1.00  0.00    -0.562 NA 
HETATM    2  H1  UNL     1     -12.649  15.185  68.482  1.00  0.00     0.000 HD 
HETATM    3  C   UNL     1     -11.906  13.197  68.307  1.00  0.00    -0.349 A  
HETATM    4  H2  UNL     1     -11.700  14.600  69.701  1.00  0.00     0.000 HD 
HETATM    5  C   UNL     1     -11.550  12.050  69.003  1.00  0.00    -0.370 A  
HETATM    6  C   UNL     1     -11.053  10.958  68.307  1.00  0.00    -0.266 A  
HETATM    7  N   UNL     1     -10.954  10.971  66.960  1.00  0.00    -0.284 NA 
HETATM    8  O   UNL     1     -12.149  14.275  66.261  1.00  0.00    -0.415 OA 
HETATM    9  C   UNL     1     -11.314  12.079  66.262  1.00  0.00    -0.357 A  
HETATM   10  H2  UNL     1     -11.701  11.269  64.499  1.00  0.00     0.000 HD 
HETATM   11  N   UNL     1     -11.803  13.216  66.915  1.00  0.00    -0.383 NA 
HETATM   12  N   UNL     1     -11.191  12.071  64.870  1.00  0.00    -0.320 NA 
HETATM   13  H1  UNL     1     -11.462  12.903  64.345  1.00  0.00     0.000 HD 
ENDROOT
BRANCH   6  14
HETATM   14  N   UNL     1     -10.523   9.895  69.026  1.00  0.00    -0.200 NA 
HETATM   15  C   UNL     1      -9.251  10.133  69.711  1.00  0.00    -0.144 C  
HETATM   16  C   UNL     1      -9.386   7.731  70.495  1.00  0.00    -0.163 C  
HETATM   17  C   UNL     1      -9.205   9.190  70.917  1.00  0.00    -0.326 C  
HETATM   18  C   UNL     1     -10.620   7.546  69.605  1.00  0.00    -0.243 C  
HETATM   19  C   UNL     1     -10.653   8.554  68.455  1.00  0.00    -0.111 C  
ENDBRANCH   6  14
TORSDOF 1
ENDMDL
MODEL       89
REMARK 921   NORMALIZED FREE ENERGY PREDICTED BY IDOCK:   -4.23 KCAL/MOL
REMARK 922        TOTAL FREE ENERGY PREDICTED BY IDOCK:   -4.75 KCAL/MOL
REMARK 923 INTER-LIGAND FREE ENERGY PREDICTED BY IDOCK:   -4.48 KCAL/MOL
REMARK 924 INTRA-LIGAND FREE ENERGY PREDICTED BY IDOCK:   -0.27 KCAL/MOL
REMARK 927      BINDING AFFINITY PREDICTED BY RF-SCORE:    0.00 PKD
ROOT
HETATM    1  N   UNL     1     -11.239   4.954  65.685  1.00  0.00    -0.929 NA 
HETATM    2  H1  UNL     1     -10.833   4.647  64.802  1.00  0.00     0.000 HD 
HETATM    3  C   UNL     1     -10.482   5.729  66.602  1.00  0.00    -0.268 A  
HETATM    4  H2  UNL     1     -12.102   5.457  65.481  1.00  0.00     0.000 HD 
HETATM    5  C   UNL     1     -11.034   6.146  67.804  1.00  0.00    -0.400 A  
HETATM    6  C   UNL     1     -10.280   6.930  68.665  1.00  0.00    -0.173 A  
HETATM    7  N   UNL     1      -9.000   7.254  68.378  1.00  0.00    -0.127 NA 
HETATM    8  O   UNL     1      -8.636   5.665  65.188  1.00  0.00    -0.152 OA 
HETATM    9  C   UNL     1      -8.438   6.840  67.213  1.00  0.00    -0.120 A  
HETATM   10  H2  UNL     1      -6.524   6.901  67.708  1.00  0.00     0.000 HD 
HETATM   11  N   UNL     1      -9.160   6.064  66.299  1.00  0.00    -0.149 NA 
HETATM   12  N   UNL     1      -7.117   7.199  66.934  1.00  0.00    -0.080 NA 
HETATM   13  H1  UNL     1      -6.694   6.888  66.059  1.00  0.00     0.000 HD 
ENDROOT
BRANCH   6  14
HETATM   14  N   UNL     1     -10.903   7.497  69.768  1.00  0.00    -0.245 NA 
HETATM   15  C   UNL     1     -10.237   8.649  70.379  1.00  0.00    -0.193 C  
HETATM   16  C   UNL     1     -12.135   8.681  72.051  1.00  0.00    -0.442 C  
HETATM   17  C   UNL     1     -11.324   9.498  71.044  1.00  0.00    -0.423 C  
HETATM   18  C   UNL     1     -12.652   7.374  71.438  1.00  0.00    -0.405 C  
HETATM   19  C   UNL     1     -11.541   6.597  70.729  1.00  0.00    -0.376 C  
ENDBRANCH   6  14
TORSDOF 1
ENDMDL
MODEL       90
REMARK 921   NORMALIZED FREE ENERGY PREDICTED BY IDOCK:   -4.21 KCAL/MOL
REMARK 922        TOTAL FREE ENERGY PREDICTED BY IDOCK:   -4.73 KCAL/MOL
REMARK 923 INTER-LIGAND FREE ENERGY PREDICTED BY IDOCK:   -4.45 KCAL/MOL
REMARK 924 INTRA-LIGAND FREE ENERGY PREDICTED BY IDOCK:   -0.27 KCAL/MOL
REMARK 927      BINDING AFFINITY PREDICTED BY RF-SCORE:    0.00 PKD
ROOT
HETATM    1  N   UNL     1     -12.080  12.584  64.971  1.00  0.00    -0.435 NA 
HETATM    2  H1  UNL     1     -12.389  11.618  64.868  1.00  0.00     0.000 HD 
HETATM    3  C   UNL     1     -11.420  13.014  66.151  1.00  0.00    -0.340 A  
HETATM    4  H2  UNL     1     -11.487  12.814  64.173  1.00  0.00     0.000 HD 
HETATM    5  C   UNL     1     -10.999  14.328  66.291  1.00  0.00    -0.317 A  
HETATM    6  C   UNL     1     -10.329  14.710  67.443  1.00  0.00    -0.241 A  
HETATM    7  N   UNL     1     -10.120  13.839  68.454  1.00  0.00    -0.238 NA 
HETATM    8  O   UNL     1     -11.609  10.887  67.074  1.00  0.00    -0.383 OA 
HETATM    9  C   UNL     1     -10.541  12.552  68.341  1.00  0.00    -0.242 A  
HETATM   10  H2  UNL     1     -10.688  12.064  70.253  1.00  0.00     0.000 HD 
HETATM   11  N   UNL     1     -11.205  12.108  67.192  1.00  0.00    -0.293 NA 
HETATM   12  N   UNL     1     -10.302  11.667  69.397  1.00  0.00    -0.426 NA 
HETATM   13  H1  UNL     1     -10.618  10.701  69.312  1.00  0.00     0.000 HD 
ENDROOT
BRANCH   6  14
HETATM   14  N   UNL     1      -9.747  15.969  67.490  1.00  0.00    -0.227 NA 
HETATM   15  C   UNL     1      -9.103  16.351  68.748  1.00  0.00    -0.244 C  
HETATM   16  C   UNL     1      -8.560  18.558  67.637  1.00  0.00    -0.276 C  
HETATM   17  C   UNL     1      -8.002  17.358  68.404  1.00  0.00    -0.259 C  
HETATM   18  C   UNL     1      -9.404  18.122  66.435  1.00  0.00    -0.274 C  
HETATM   19  C   UNL     1     -10.444  17.067  66.818  1.00  0.00    -0.257 C  
ENDBRANCH   6  14
TORSDOF 1
ENDMDL
MODEL       91
REMARK 921   NORMALIZED FREE ENERGY PREDICTED BY IDOCK:   -4.19 KCAL/MOL
REMARK 922        TOTAL FREE ENERGY PREDICTED BY IDOCK:   -4.71 KCAL/MOL
REMARK 923 INTER-LIGAND FREE ENERGY PREDICTED BY IDOCK:   -4.43 KCAL/MOL
REMARK 924 INTRA-LIGAND FREE ENERGY PREDICTED BY IDOCK:   -0.27 KCAL/MOL
REMARK 927      BINDING AFFINITY PREDICTED BY RF-SCORE:    0.00 PKD
ROOT
HETATM    1  N   UNL     1     -10.312   8.165  66.666  1.00  0.00    -0.423 NA 
HETATM    2  H1  UNL     1      -9.774   7.847  65.861  1.00  0.00     0.000 HD 
HETATM    3  C   UNL     1     -10.124   9.467  67.198  1.00  0.00    -0.229 A  
HETATM    4  H2  UNL     1     -11.303   8.049  66.452  1.00  0.00     0.000 HD 
HETATM    5  C   UNL     1     -10.856   9.899  68.294  1.00  0.00    -0.275 A  
HETATM    6  C   UNL     1     -10.673  11.189  68.771  1.00  0.00    -0.199 A  
HETATM    7  N   UNL     1      -9.760  12.016  68.219  1.00  0.00    -0.202 NA 
HETATM    8  O   UNL     1      -8.484   9.917  65.611  1.00  0.00    -0.135 OA 
HETATM    9  C   UNL     1      -9.022  11.604  67.156  1.00  0.00    -0.173 A  
HETATM   10  H2  UNL     1      -7.460  12.806  67.328  1.00  0.00     0.000 HD 
HETATM   11  N   UNL     1      -9.180  10.320  66.622  1.00  0.00    -0.153 NA 
HETATM   12  N   UNL     1      -8.091  12.484  66.595  1.00  0.00    -0.403 NA 
HETATM   13  H1  UNL     1      -7.537  12.174  65.797  1.00  0.00     0.000 HD 
ENDROOT
BRANCH   6  14
HETATM   14  N   UNL     1     -11.543  11.671  69.739  1.00  0.00    -0.313 NA 
HETATM   15  C   UNL     1     -12.512  10.720  70.286  1.00  0.00    -0.317 C  
HETATM   16  C   UNL     1     -13.364  12.626  71.715  1.00  0.00    -0.405 C  
HETATM   17  C   UNL     1     -12.850  11.185  71.705  1.00  0.00    -0.524 C  
HETATM   18  C   UNL     1     -12.426  13.570  70.956  1.00  0.00    -0.451 C  
HETATM   19  C   UNL     1     -12.066  13.027  69.571  1.00  0.00    -0.230 C  
ENDBRANCH   6  14
TORSDOF 1
ENDMDL
MODEL       92
REMARK 921   NORMALIZED FREE ENERGY PREDICTED BY IDOCK:   -4.14 KCAL/MOL
REMARK 922        TOTAL FREE ENERGY PREDICTED BY IDOCK:   -4.66 KCAL/MOL
REMARK 923 INTER-LIGAND FREE ENERGY PREDICTED BY IDOCK:   -4.39 KCAL/MOL
REMARK 924 INTRA-LIGAND FREE ENERGY PREDICTED BY IDOCK:   -0.27 KCAL/MOL
REMARK 927      BINDING AFFINITY PREDICTED BY RF-SCORE:    0.00 PKD
ROOT
HETATM    1  N   UNL     1      -9.278   9.662  64.200  1.00  0.00    -0.398 NA 
HETATM    2  H1  UNL     1      -9.352  10.417  63.519  1.00  0.00     0.000 HD 
HETATM    3  C   UNL     1      -9.864   9.784  65.486  1.00  0.00    -0.308 A  
HETATM    4  H2  UNL     1      -9.632   8.808  63.768  1.00  0.00     0.000 HD 
HETATM    5  C   UNL     1      -9.763   8.756  66.413  1.00  0.00    -0.335 A  
HETATM    6  C   UNL     1     -10.374   8.892  67.650  1.00  0.00    -0.251 A  
HETATM    7  N   UNL     1     -11.026  10.026  67.989  1.00  0.00    -0.260 NA 
HETATM    8  O   UNL     1     -10.623  11.922  64.977  1.00  0.00    -0.267 OA 
HETATM    9  C   UNL     1     -11.120  11.048  67.101  1.00  0.00    -0.267 A  
HETATM   10  H2  UNL     1     -11.413  12.562  68.340  1.00  0.00     0.000 HD 
HETATM   11  N   UNL     1     -10.539  10.956  65.831  1.00  0.00    -0.216 NA 
HETATM   12  N   UNL     1     -11.811  12.206  67.471  1.00  0.00    -0.553 NA 
HETATM   13  H1  UNL     1     -11.882  12.974  66.804  1.00  0.00     0.000 HD 
ENDROOT
BRANCH   6  14
HETATM   14  N   UNL     1     -10.429   7.789  68.491  1.00  0.00    -0.194 NA 
HETATM   15  C   UNL     1     -11.015   6.568  67.937  1.00  0.00    -0.294 C  
HETATM   16  C   UNL     1     -10.584   5.505  70.192  1.00  0.00    -0.367 C  
HETATM   17  C   UNL     1     -10.384   5.387  68.681  1.00  0.00    -0.229 C  
HETATM   18  C   UNL     1     -10.148   6.877  70.717  1.00  0.00    -0.208 C  
HETATM   19  C   UNL     1     -10.752   8.021  69.900  1.00  0.00    -0.242 C  
ENDBRANCH   6  14
TORSDOF 1
ENDMDL
MODEL       93
REMARK 921   NORMALIZED FREE ENERGY PREDICTED BY IDOCK:   -4.13 KCAL/MOL
REMARK 922        TOTAL FREE ENERGY PREDICTED BY IDOCK:   -4.65 KCAL/MOL
REMARK 923 INTER-LIGAND FREE ENERGY PREDICTED BY IDOCK:   -4.41 KCAL/MOL
REMARK 924 INTRA-LIGAND FREE ENERGY PREDICTED BY IDOCK:   -0.24 KCAL/MOL
REMARK 927      BINDING AFFINITY PREDICTED BY RF-SCORE:    0.00 PKD
ROOT
HETATM    1  N   UNL     1     -13.079   6.832  72.156  1.00  0.00    -0.549 NA 
HETATM    2  H1  UNL     1     -12.957   5.955  72.661  1.00  0.00     0.000 HD 
HETATM    3  C   UNL     1     -11.975   7.688  71.909  1.00  0.00    -0.295 A  
HETATM    4  H2  UNL     1     -13.526   6.625  71.263  1.00  0.00     0.000 HD 
HETATM    5  C   UNL     1     -12.140   8.881  71.221  1.00  0.00    -0.360 A  
HETATM    6  C   UNL     1     -11.036   9.681  70.968  1.00  0.00    -0.361 A  
HETATM    7  N   UNL     1      -9.809   9.344  71.420  1.00  0.00    -0.211 NA 
HETATM    8  O   UNL     1     -10.550   6.232  73.032  1.00  0.00    -0.215 OA 
HETATM    9  C   UNL     1      -9.631   8.188  72.110  1.00  0.00    -0.242 A  
HETATM   10  H2  UNL     1      -7.984   8.630  73.113  1.00  0.00     0.000 HD 
HETATM   11  N   UNL     1     -10.707   7.334  72.376  1.00  0.00    -0.232 NA 
HETATM   12  N   UNL     1      -8.349   7.857  72.557  1.00  0.00    -0.129 NA 
HETATM   13  H1  UNL     1      -8.215   6.988  73.075  1.00  0.00     0.000 HD 
ENDROOT
BRANCH   6  14
HETATM   14  N   UNL     1     -11.182  10.769  70.118  1.00  0.00    -0.286 NA 
HETATM   15  C   UNL     1     -12.134  11.802  70.529  1.00  0.00    -0.347 C  
HETATM   16  C   UNL     1     -11.531  13.011  68.390  1.00  0.00    -0.345 C  
HETATM   17  C   UNL     1     -11.664  13.121  69.910  1.00  0.00    -0.327 C  
HETATM   18  C   UNL     1     -10.692  11.796  67.980  1.00  0.00    -0.244 C  
HETATM   19  C   UNL     1     -11.160  10.516  68.677  1.00  0.00    -0.267 C  
ENDBRANCH   6  14
TORSDOF 1
ENDMDL
MODEL       94
REMARK 921   NORMALIZED FREE ENERGY PREDICTED BY IDOCK:   -4.13 KCAL/MOL
REMARK 922        TOTAL FREE ENERGY PREDICTED BY IDOCK:   -4.64 KCAL/MOL
REMARK 923 INTER-LIGAND FREE ENERGY PREDICTED BY IDOCK:   -4.37 KCAL/MOL
REMARK 924 INTRA-LIGAND FREE ENERGY PREDICTED BY IDOCK:   -0.27 KCAL/MOL
REMARK 927      BINDING AFFINITY PREDICTED BY RF-SCORE:    0.00 PKD
ROOT
HETATM    1  N   UNL     1     -10.208  19.165  65.762  1.00  0.00    -0.519 NA 
HETATM    2  H1  UNL     1     -10.929  19.381  65.074  1.00  0.00     0.000 HD 
HETATM    3  C   UNL     1      -9.873  17.819  66.064  1.00  0.00    -0.168 A  
HETATM    4  H2  UNL     1      -9.353  19.652  65.490  1.00  0.00     0.000 HD 
HETATM    5  C   UNL     1      -8.892  17.525  66.999  1.00  0.00    -0.252 A  
HETATM    6  C   UNL     1      -8.564  16.201  67.250  1.00  0.00    -0.178 A  
HETATM    7  N   UNL     1      -9.216  15.190  66.636  1.00  0.00    -0.252 NA 
HETATM    8  O   UNL     1     -11.474  17.046  64.565  1.00  0.00    -0.925 OA 
HETATM    9  C   UNL     1     -10.191  15.459  65.730  1.00  0.00    -0.354 A  
HETATM   10  H2  UNL     1     -11.221  13.772  65.813  1.00  0.00     0.000 HD 
HETATM   11  N   UNL     1     -10.548  16.778  65.425  1.00  0.00    -0.596 NA 
HETATM   12  N   UNL     1     -10.843  14.395  65.099  1.00  0.00    -0.361 NA 
HETATM   13  H1  UNL     1     -11.575  14.597  64.419  1.00  0.00     0.000 HD 
ENDROOT
BRANCH   6  14
HETATM   14  N   UNL     1      -7.456  15.926  68.040  1.00  0.00    -0.122 NA 
HETATM   15  C   UNL     1      -6.196  16.560  67.649  1.00  0.00    -0.144 C  
HETATM   16  C   UNL     1      -5.149  15.370  69.621  1.00  0.00    -0.095 C  
HETATM   17  C   UNL     1      -5.355  16.714  68.919  1.00  0.00    -0.123 C  
HETATM   18  C   UNL     1      -6.474  14.632  69.836  1.00  0.00    -0.164 C  
HETATM   19  C   UNL     1      -7.306  14.564  68.553  1.00  0.00    -0.120 C  
ENDBRANCH   6  14
TORSDOF 1
ENDMDL
MODEL       95
REMARK 921   NORMALIZED FREE ENERGY PREDICTED BY IDOCK:   -4.11 KCAL/MOL
REMARK 922        TOTAL FREE ENERGY PREDICTED BY IDOCK:   -4.62 KCAL/MOL
REMARK 923 INTER-LIGAND FREE ENERGY PREDICTED BY IDOCK:   -4.36 KCAL/MOL
REMARK 924 INTRA-LIGAND FREE ENERGY PREDICTED BY IDOCK:   -0.26 KCAL/MOL
REMARK 927      BINDING AFFINITY PREDICTED BY RF-SCORE:    0.00 PKD
ROOT
HETATM    1  N   UNL     1      -7.057   7.273  66.792  1.00  0.00    -0.080 NA 
HETATM    2  H1  UNL     1      -6.632   6.916  65.936  1.00  0.00     0.000 HD 
HETATM    3  C   UNL     1      -8.403   6.963  67.118  1.00  0.00    -0.121 A  
HETATM    4  H2  UNL     1      -6.468   6.998  67.578  1.00  0.00     0.000 HD 
HETATM    5  C   UNL     1      -8.981   7.449  68.282  1.00  0.00    -0.130 A  
HETATM    6  C   UNL     1     -10.288   7.102  68.590  1.00  0.00    -0.187 A  
HETATM    7  N   UNL     1     -11.026   6.341  67.753  1.00  0.00    -0.334 NA 
HETATM    8  O   UNL     1      -8.633   5.732  65.158  1.00  0.00    -0.149 OA 
HETATM    9  C   UNL     1     -10.482   5.871  66.601  1.00  0.00    -0.249 A  
HETATM   10  H2  UNL     1     -12.122   5.577  65.535  1.00  0.00     0.000 HD 
HETATM   11  N   UNL     1      -9.161   6.173  66.252  1.00  0.00    -0.154 NA 
HETATM   12  N   UNL     1     -11.263   5.075  65.758  1.00  0.00    -0.867 NA 
HETATM   13  H1  UNL     1     -10.855   4.722  64.893  1.00  0.00     0.000 HD 
ENDROOT
BRANCH   6  14
HETATM   14  N   UNL     1     -10.788   7.433  69.841  1.00  0.00    -0.250 NA 
HETATM   15  C   UNL     1     -11.892   6.615  70.346  1.00  0.00    -0.346 C  
HETATM   16  C   UNL     1     -11.863   8.093  72.399  1.00  0.00    -0.448 C  
HETATM   17  C   UNL     1     -11.822   6.656  71.875  1.00  0.00    -0.375 C  
HETATM   18  C   UNL     1     -10.827   8.982  71.703  1.00  0.00    -0.437 C  
HETATM   19  C   UNL     1     -10.894   8.853  70.180  1.00  0.00    -0.231 C  
ENDBRANCH   6  14
TORSDOF 1
ENDMDL
MODEL       96
REMARK 921   NORMALIZED FREE ENERGY PREDICTED BY IDOCK:   -4.08 KCAL/MOL
REMARK 922        TOTAL FREE ENERGY PREDICTED BY IDOCK:   -4.60 KCAL/MOL
REMARK 923 INTER-LIGAND FREE ENERGY PREDICTED BY IDOCK:   -4.32 KCAL/MOL
REMARK 924 INTRA-LIGAND FREE ENERGY PREDICTED BY IDOCK:   -0.27 KCAL/MOL
REMARK 927      BINDING AFFINITY PREDICTED BY RF-SCORE:    0.00 PKD
ROOT
HETATM    1  N   UNL     1      -9.618  12.757  68.694  1.00  0.00    -0.412 NA 
HETATM    2  H1  UNL     1      -9.289  13.377  67.954  1.00  0.00     0.000 HD 
HETATM    3  C   UNL     1      -9.906  11.394  68.425  1.00  0.00    -0.205 A  
HETATM    4  H2  UNL     1      -8.947  12.795  69.461  1.00  0.00     0.000 HD 
HETATM    5  C   UNL     1     -10.353  10.551  69.432  1.00  0.00    -0.258 A  
HETATM    6  C   UNL     1     -10.595   9.216  69.145  1.00  0.00    -0.208 A  
HETATM    7  N   UNL     1     -10.452   8.731  67.893  1.00  0.00    -0.231 NA 
HETATM    8  O   UNL     1      -9.353  11.682  66.185  1.00  0.00    -0.216 OA 
HETATM    9  C   UNL     1     -10.032   9.546  66.892  1.00  0.00    -0.216 A  
HETATM   10  H2  UNL     1     -10.756   8.577  65.326  1.00  0.00     0.000 HD 
HETATM   11  N   UNL     1      -9.753  10.897  67.129  1.00  0.00    -0.172 NA 
HETATM   12  N   UNL     1      -9.880   9.017  65.607  1.00  0.00    -0.465 NA 
HETATM   13  H1  UNL     1      -9.564   9.629  64.854  1.00  0.00     0.000 HD 
ENDROOT
BRANCH   6  14
HETATM   14  N   UNL     1     -10.855   8.345  70.195  1.00  0.00    -0.240 NA 
HETATM   15  C   UNL     1     -11.082   6.942  69.845  1.00  0.00    -0.288 C  
HETATM   16  C   UNL     1     -11.415   6.525  72.318  1.00  0.00    -0.326 C  
HETATM   17  C   UNL     1     -10.664   6.102  71.055  1.00  0.00    -0.317 C  
HETATM   18  C   UNL     1     -11.330   8.038  72.550  1.00  0.00    -0.469 C  
HETATM   19  C   UNL     1     -11.693   8.831  71.292  1.00  0.00    -0.298 C  
ENDBRANCH   6  14
TORSDOF 1
ENDMDL
MODEL       97
REMARK 921   NORMALIZED FREE ENERGY PREDICTED BY IDOCK:   -4.07 KCAL/MOL
REMARK 922        TOTAL FREE ENERGY PREDICTED BY IDOCK:   -4.59 KCAL/MOL
REMARK 923 INTER-LIGAND FREE ENERGY PREDICTED BY IDOCK:   -4.31 KCAL/MOL
REMARK 924 INTRA-LIGAND FREE ENERGY PREDICTED BY IDOCK:   -0.28 KCAL/MOL
REMARK 927      BINDING AFFINITY PREDICTED BY RF-SCORE:    0.00 PKD
ROOT
HETATM    1  N   UNL     1      -6.974   7.253  66.904  1.00  0.00    -0.075 NA 
HETATM    2  H1  UNL     1      -6.502   6.836  66.102  1.00  0.00     0.000 HD 
HETATM    3  C   UNL     1      -8.326   6.935  67.197  1.00  0.00    -0.121 A  
HETATM    4  H2  UNL     1      -6.415   7.062  67.736  1.00  0.00     0.000 HD 
HETATM    5  C   UNL     1      -8.968   7.501  68.288  1.00  0.00    -0.130 A  
HETATM    6  C   UNL     1     -10.279   7.146  68.568  1.00  0.00    -0.175 A  
HETATM    7  N   UNL     1     -10.960   6.296  67.769  1.00  0.00    -0.334 NA 
HETATM    8  O   UNL     1      -8.436   5.535  65.343  1.00  0.00    -0.136 OA 
HETATM    9  C   UNL     1     -10.352   5.745  66.687  1.00  0.00    -0.243 A  
HETATM   10  H2  UNL     1     -11.935   5.316  65.579  1.00  0.00     0.000 HD 
HETATM   11  N   UNL     1      -9.025   6.053  66.370  1.00  0.00    -0.141 NA 
HETATM   12  N   UNL     1     -11.075   4.859  65.882  1.00  0.00    -0.839 NA 
HETATM   13  H1  UNL     1     -10.619   4.445  65.069  1.00  0.00     0.000 HD 
ENDROOT
BRANCH   6  14
HETATM   14  N   UNL     1     -10.844   7.568  69.763  1.00  0.00    -0.245 NA 
HETATM   15  C   UNL     1     -10.012   8.413  70.622  1.00  0.00    -0.185 C  
HETATM   16  C   UNL     1     -11.956   8.439  72.241  1.00  0.00    -0.455 C  
HETATM   17  C   UNL     1     -10.959   9.287  71.449  1.00  0.00    -0.429 C  
HETATM   18  C   UNL     1     -12.669   7.418  71.348  1.00  0.00    -0.408 C  
HETATM   19  C   UNL     1     -11.684   6.618  70.494  1.00  0.00    -0.394 C  
ENDBRANCH   6  14
TORSDOF 1
ENDMDL
MODEL       98
REMARK 921   NORMALIZED FREE ENERGY PREDICTED BY IDOCK:   -4.07 KCAL/MOL
REMARK 922        TOTAL FREE ENERGY PREDICTED BY IDOCK:   -4.58 KCAL/MOL
REMARK 923 INTER-LIGAND FREE ENERGY PREDICTED BY IDOCK:   -4.31 KCAL/MOL
REMARK 924 INTRA-LIGAND FREE ENERGY PREDICTED BY IDOCK:   -0.27 KCAL/MOL
REMARK 927      BINDING AFFINITY PREDICTED BY RF-SCORE:    0.00 PKD
ROOT
HETATM    1  N   UNL     1      -8.862   7.353  69.821  1.00  0.00    -0.141 NA 
HETATM    2  H1  UNL     1      -8.542   6.392  69.929  1.00  0.00     0.000 HD 
HETATM    3  C   UNL     1     -10.124   7.760  70.327  1.00  0.00    -0.195 A  
HETATM    4  H2  UNL     1      -8.149   7.972  70.208  1.00  0.00     0.000 HD 
HETATM    5  C   UNL     1     -10.560   9.069  70.179  1.00  0.00    -0.250 A  
HETATM    6  C   UNL     1     -11.783   9.444  70.714  1.00  0.00    -0.282 A  
HETATM    7  N   UNL     1     -12.581   8.548  71.334  1.00  0.00    -0.304 NA 
HETATM    8  O   UNL     1     -10.549   5.607  71.096  1.00  0.00    -0.233 OA 
HETATM    9  C   UNL     1     -12.178   7.259  71.472  1.00  0.00    -0.352 A  
HETATM   10  H2  UNL     1     -13.930   6.364  71.676  1.00  0.00     0.000 HD 
HETATM   11  N   UNL     1     -10.944   6.831  70.970  1.00  0.00    -0.245 NA 
HETATM   12  N   UNL     1     -13.017   6.354  72.129  1.00  0.00    -0.457 NA 
HETATM   13  H1  UNL     1     -12.714   5.385  72.234  1.00  0.00     0.000 HD 
ENDROOT
BRANCH   6  14
HETATM   14  N   UNL     1     -12.120  10.791  70.728  1.00  0.00    -0.344 NA 
HETATM   15  C   UNL     1     -13.328  11.159  71.467  1.00  0.00    -0.137 C  
HETATM   16  C   UNL     1     -12.862  13.544  70.762  1.00  0.00    -0.243 C  
HETATM   17  C   UNL     1     -13.146  12.605  71.936  1.00  0.00    -0.470 C  
HETATM   18  C   UNL     1     -11.718  13.025  69.884  1.00  0.00    -0.326 C  
HETATM   19  C   UNL     1     -11.914  11.557  69.498  1.00  0.00    -0.335 C  
ENDBRANCH   6  14
TORSDOF 1
ENDMDL
MODEL       99
REMARK 921   NORMALIZED FREE ENERGY PREDICTED BY IDOCK:   -4.07 KCAL/MOL
REMARK 922        TOTAL FREE ENERGY PREDICTED BY IDOCK:   -4.58 KCAL/MOL
REMARK 923 INTER-LIGAND FREE ENERGY PREDICTED BY IDOCK:   -4.31 KCAL/MOL
REMARK 924 INTRA-LIGAND FREE ENERGY PREDICTED BY IDOCK:   -0.27 KCAL/MOL
REMARK 927      BINDING AFFINITY PREDICTED BY RF-SCORE:    0.00 PKD
ROOT
HETATM    1  N   UNL     1      -7.752  10.479  64.544  1.00  0.00    -0.338 NA 
HETATM    2  H1  UNL     1      -7.339   9.594  64.250  1.00  0.00     0.000 HD 
HETATM    3  C   UNL     1      -8.806  10.509  65.494  1.00  0.00    -0.184 A  
HETATM    4  H2  UNL     1      -7.003  11.083  64.881  1.00  0.00     0.000 HD 
HETATM    5  C   UNL     1      -9.368  11.712  65.893  1.00  0.00    -0.232 A  
HETATM    6  C   UNL     1     -10.375  11.711  66.847  1.00  0.00    -0.220 A  
HETATM    7  N   UNL     1     -10.853  10.557  67.359  1.00  0.00    -0.286 NA 
HETATM    8  O   UNL     1      -8.787   8.188  65.642  1.00  0.00    -0.168 OA 
HETATM    9  C   UNL     1     -10.327   9.369  66.967  1.00  0.00    -0.252 A  
HETATM   10  H2  UNL     1     -11.840   8.163  67.379  1.00  0.00     0.000 HD 
HETATM   11  N   UNL     1      -9.295   9.313  66.023  1.00  0.00    -0.204 NA 
HETATM   12  N   UNL     1     -10.831   8.188  67.522  1.00  0.00    -0.510 NA 
HETATM   13  H1  UNL     1     -10.436   7.295  67.227  1.00  0.00     0.000 HD 
ENDROOT
BRANCH   6  14
HETATM   14  N   UNL     1     -10.793  12.925  67.376  1.00  0.00    -0.247 NA 
HETATM   15  C   UNL     1     -11.731  12.865  68.498  1.00  0.00    -0.339 C  
HETATM   16  C   UNL     1     -11.697  15.394  68.479  1.00  0.00    -0.355 C  
HETATM   17  C   UNL     1     -11.522  14.135  69.328  1.00  0.00    -0.337 C  
HETATM   18  C   UNL     1     -10.853  15.339  67.201  1.00  0.00    -0.322 C  
HETATM   19  C   UNL     1     -11.046  14.024  66.444  1.00  0.00    -0.316 C  
ENDBRANCH   6  14
TORSDOF 1
ENDMDL
MODEL      100
REMARK 921   NORMALIZED FREE ENERGY PREDICTED BY IDOCK:   -4.06 KCAL/MOL
REMARK 922        TOTAL FREE ENERGY PREDICTED BY IDOCK:   -4.57 KCAL/MOL
REMARK 923 INTER-LIGAND FREE ENERGY PREDICTED BY IDOCK:   -4.32 KCAL/MOL
REMARK 924 INTRA-LIGAND FREE ENERGY PREDICTED BY IDOCK:   -0.25 KCAL/MOL
REMARK 927      BINDING AFFINITY PREDICTED BY RF-SCORE:    0.00 PKD
ROOT
HETATM    1  N   UNL     1     -10.421   5.867  66.218  1.00  0.00    -0.466 NA 
HETATM    2  H1  UNL     1      -9.869   5.254  65.620  1.00  0.00     0.000 HD 
HETATM    3  C   UNL     1     -10.444   5.681  67.625  1.00  0.00    -0.219 A  
HETATM    4  H2  UNL     1     -10.142   6.830  66.029  1.00  0.00     0.000 HD 
HETATM    5  C   UNL     1     -11.195   6.516  68.439  1.00  0.00    -0.274 A  
HETATM    6  C   UNL     1     -11.172   6.329  69.813  1.00  0.00    -0.430 A  
HETATM    7  N   UNL     1     -10.470   5.319  70.371  1.00  0.00    -0.272 NA 
HETATM    8  O   UNL     1      -9.026   3.847  67.442  1.00  0.00    -0.115 OA 
HETATM    9  C   UNL     1      -9.743   4.482  69.587  1.00  0.00    -0.218 A  
HETATM   10  H2  UNL     1      -9.647   2.896  70.766  1.00  0.00     0.000 HD 
HETATM   11  N   UNL     1      -9.714   4.637  68.197  1.00  0.00    -0.152 NA 
HETATM   12  N   UNL     1      -9.015   3.451  70.190  1.00  0.00    -0.093 NA 
HETATM   13  H1  UNL     1      -8.469   2.822  69.602  1.00  0.00     0.000 HD 
ENDROOT
BRANCH   6  14
HETATM   14  N   UNL     1     -11.769   7.283  70.626  1.00  0.00    -0.296 NA 
HETATM   15  C   UNL     1     -10.984   8.482  70.921  1.00  0.00    -0.251 C  
HETATM   16  C   UNL     1     -12.950   9.257  72.311  1.00  0.00    -0.488 C  
HETATM   17  C   UNL     1     -11.976   9.617  71.188  1.00  0.00    -0.452 C  
HETATM   18  C   UNL     1     -13.610   7.895  72.076  1.00  0.00    -0.271 C  
HETATM   19  C   UNL     1     -12.582   6.810  71.748  1.00  0.00    -0.325 C  
ENDBRANCH   6  14
TORSDOF 1
ENDMDL
MODEL      101
REMARK 921   NORMALIZED FREE ENERGY PREDICTED BY IDOCK:   -4.01 KCAL/MOL
REMARK 922        TOTAL FREE ENERGY PREDICTED BY IDOCK:   -4.52 KCAL/MOL
REMARK 923 INTER-LIGAND FREE ENERGY PREDICTED BY IDOCK:   -4.27 KCAL/MOL
REMARK 924 INTRA-LIGAND FREE ENERGY PREDICTED BY IDOCK:   -0.25 KCAL/MOL
REMARK 927      BINDING AFFINITY PREDICTED BY RF-SCORE:    0.00 PKD
ROOT
HETATM    1  N   UNL     1      -7.025   9.533  66.395  1.00  0.00    -0.086 NA 
HETATM    2  H1  UNL     1      -6.526   8.813  66.917  1.00  0.00     0.000 HD 
HETATM    3  C   UNL     1      -8.374   9.848  66.700  1.00  0.00    -0.125 A  
HETATM    4  H2  UNL     1      -6.479  10.393  66.439  1.00  0.00     0.000 HD 
HETATM    5  C   UNL     1      -9.052  10.828  65.990  1.00  0.00    -0.204 A  
HETATM    6  C   UNL     1     -10.360  11.136  66.333  1.00  0.00    -0.252 A  
HETATM    7  N   UNL     1     -11.003  10.467  67.315  1.00  0.00    -0.285 NA 
HETATM    8  O   UNL     1      -8.412   8.231  68.371  1.00  0.00    -0.127 OA 
HETATM    9  C   UNL     1     -10.360   9.494  68.009  1.00  0.00    -0.214 A  
HETATM   10  H2  UNL     1     -11.908   8.439  68.647  1.00  0.00     0.000 HD 
HETATM   11  N   UNL     1      -9.034   9.156  67.718  1.00  0.00    -0.127 NA 
HETATM   12  N   UNL     1     -11.044   8.824  69.028  1.00  0.00    -0.429 NA 
HETATM   13  H1  UNL     1     -10.561   8.093  69.550  1.00  0.00     0.000 HD 
ENDROOT
BRANCH   6  14
HETATM   14  N   UNL     1     -10.960  12.243  65.747  1.00  0.00    -0.290 NA 
HETATM   15  C   UNL     1     -10.694  12.459  64.324  1.00  0.00    -0.357 C  
HETATM   16  C   UNL     1     -12.153  14.517  64.508  1.00  0.00    -0.501 C  
HETATM   17  C   UNL     1     -11.895  13.214  63.750  1.00  0.00    -0.546 C  
HETATM   18  C   UNL     1     -12.225  14.289  66.021  1.00  0.00    -0.422 C  
HETATM   19  C   UNL     1     -11.036  13.474  66.535  1.00  0.00    -0.300 C  
ENDBRANCH   6  14
TORSDOF 1
ENDMDL
MODEL      102
REMARK 921   NORMALIZED FREE ENERGY PREDICTED BY IDOCK:   -4.00 KCAL/MOL
REMARK 922        TOTAL FREE ENERGY PREDICTED BY IDOCK:   -4.51 KCAL/MOL
REMARK 923 INTER-LIGAND FREE ENERGY PREDICTED BY IDOCK:   -4.23 KCAL/MOL
REMARK 924 INTRA-LIGAND FREE ENERGY PREDICTED BY IDOCK:   -0.28 KCAL/MOL
REMARK 927      BINDING AFFINITY PREDICTED BY RF-SCORE:    0.00 PKD
ROOT
HETATM    1  N   UNL     1     -12.157  13.226  69.677  1.00  0.00    -0.297 NA 
HETATM    2  H1  UNL     1     -12.725  13.851  70.249  1.00  0.00     0.000 HD 
HETATM    3  C   UNL     1     -11.970  11.870  70.049  1.00  0.00    -0.332 A  
HETATM    4  H2  UNL     1     -12.523  13.247  68.725  1.00  0.00     0.000 HD 
HETATM    5  C   UNL     1     -11.198  11.020  69.271  1.00  0.00    -0.321 A  
HETATM    6  C   UNL     1     -11.060   9.691  69.644  1.00  0.00    -0.193 A  
HETATM    7  N   UNL     1     -11.622   9.220  70.778  1.00  0.00    -0.281 NA 
HETATM    8  O   UNL     1     -13.263  12.178  71.957  1.00  0.00    -0.499 OA 
HETATM    9  C   UNL     1     -12.367  10.042  71.560  1.00  0.00    -0.419 A  
HETATM   10  H2  UNL     1     -12.221   9.101  73.294  1.00  0.00     0.000 HD 
HETATM   11  N   UNL     1     -12.556  11.386  71.221  1.00  0.00    -0.394 NA 
HETATM   12  N   UNL     1     -12.950   9.527  72.722  1.00  0.00    -0.348 NA 
HETATM   13  H1  UNL     1     -13.509  10.144  73.311  1.00  0.00     0.000 HD 
ENDROOT
BRANCH   6  14
HETATM   14  N   UNL     1     -10.448   8.811  68.761  1.00  0.00    -0.211 NA 
HETATM   15  C   UNL     1     -10.677   9.045  67.335  1.00  0.00    -0.161 C  
HETATM   16  C   UNL     1      -9.231   7.013  66.913  1.00  0.00    -0.174 C  
HETATM   17  C   UNL     1      -9.463   8.489  66.586  1.00  0.00    -0.268 C  
HETATM   18  C   UNL     1      -9.199   6.764  68.425  1.00  0.00    -0.123 C  
HETATM   19  C   UNL     1     -10.398   7.397  69.134  1.00  0.00    -0.208 C  
ENDBRANCH   6  14
TORSDOF 1
ENDMDL
MODEL      103
REMARK 921   NORMALIZED FREE ENERGY PREDICTED BY IDOCK:   -3.96 KCAL/MOL
REMARK 922        TOTAL FREE ENERGY PREDICTED BY IDOCK:   -4.47 KCAL/MOL
REMARK 923 INTER-LIGAND FREE ENERGY PREDICTED BY IDOCK:   -4.19 KCAL/MOL
REMARK 924 INTRA-LIGAND FREE ENERGY PREDICTED BY IDOCK:   -0.28 KCAL/MOL
REMARK 927      BINDING AFFINITY PREDICTED BY RF-SCORE:    0.00 PKD
ROOT
HETATM    1  N   UNL     1     -12.238  12.532  70.812  1.00  0.00    -0.449 NA 
HETATM    2  H1  UNL     1     -12.633  11.630  71.077  1.00  0.00     0.000 HD 
HETATM    3  C   UNL     1     -11.592  12.703  69.561  1.00  0.00    -0.281 A  
HETATM    4  H2  UNL     1     -12.973  13.235  70.889  1.00  0.00     0.000 HD 
HETATM    5  C   UNL     1     -11.055  13.930  69.201  1.00  0.00    -0.284 A  
HETATM    6  C   UNL     1     -10.458  14.075  67.958  1.00  0.00    -0.241 A  
HETATM    7  N   UNL     1     -10.345  13.031  67.109  1.00  0.00    -0.242 NA 
HETATM    8  O   UNL     1     -11.964  10.472  69.022  1.00  0.00    -0.229 OA 
HETATM    9  C   UNL     1     -10.849  11.818  67.452  1.00  0.00    -0.251 A  
HETATM   10  H2  UNL     1      -9.748  10.643  66.302  1.00  0.00     0.000 HD 
HETATM   11  N   UNL     1     -11.480  11.621  68.685  1.00  0.00    -0.261 NA 
HETATM   12  N   UNL     1     -10.731  10.755  66.551  1.00  0.00    -0.218 NA 
HETATM   13  H1  UNL     1     -11.110   9.844  66.808  1.00  0.00     0.000 HD 
ENDROOT
BRANCH   6  14
HETATM   14  N   UNL     1     -10.098  15.348  67.535  1.00  0.00    -0.232 NA 
HETATM   15  C   UNL     1     -10.880  16.464  68.070  1.00  0.00    -0.342 C  
HETATM   16  C   UNL     1      -9.410  17.978  66.674  1.00  0.00    -0.297 C  
HETATM   17  C   UNL     1      -9.968  17.694  68.070  1.00  0.00    -0.326 C  
HETATM   18  C   UNL     1      -8.774  16.730  66.052  1.00  0.00    -0.218 C  
HETATM   19  C   UNL     1      -9.698  15.514  66.137  1.00  0.00    -0.319 C  
ENDBRANCH   6  14
TORSDOF 1
ENDMDL
MODEL      104
REMARK 921   NORMALIZED FREE ENERGY PREDICTED BY IDOCK:   -3.96 KCAL/MOL
REMARK 922        TOTAL FREE ENERGY PREDICTED BY IDOCK:   -4.46 KCAL/MOL
REMARK 923 INTER-LIGAND FREE ENERGY PREDICTED BY IDOCK:   -4.19 KCAL/MOL
REMARK 924 INTRA-LIGAND FREE ENERGY PREDICTED BY IDOCK:   -0.27 KCAL/MOL
REMARK 927      BINDING AFFINITY PREDICTED BY RF-SCORE:    0.00 PKD
ROOT
HETATM    1  N   UNL     1      -9.242  10.059  70.751  1.00  0.00    -0.250 NA 
HETATM    2  H1  UNL     1      -9.501  11.005  70.470  1.00  0.00     0.000 HD 
HETATM    3  C   UNL     1     -10.198   9.186  71.330  1.00  0.00    -0.329 A  
HETATM    4  H2  UNL     1      -8.830   9.590  69.944  1.00  0.00     0.000 HD 
HETATM    5  C   UNL     1      -9.846   7.899  71.711  1.00  0.00    -0.223 A  
HETATM    6  C   UNL     1     -10.810   7.058  72.245  1.00  0.00    -0.230 A  
HETATM    7  N   UNL     1     -12.077   7.482  72.446  1.00  0.00    -0.225 NA 
HETATM    8  O   UNL     1     -11.837  10.831  71.194  1.00  0.00    -0.306 OA 
HETATM    9  C   UNL     1     -12.435   8.744  72.094  1.00  0.00    -0.393 A  
HETATM   10  H2  UNL     1     -13.996   9.007  73.281  1.00  0.00     0.000 HD 
HETATM   11  N   UNL     1     -11.507   9.628  71.533  1.00  0.00    -0.385 NA 
HETATM   12  N   UNL     1     -13.755   9.155  72.301  1.00  0.00    -0.472 NA 
HETATM   13  H1  UNL     1     -14.025  10.103  72.037  1.00  0.00     0.000 HD 
ENDROOT
BRANCH   6  14
HETATM   14  N   UNL     1     -10.493   5.721  72.442  1.00  0.00    -0.203 NA 
HETATM   15  C   UNL     1      -9.951   4.996  71.292  1.00  0.00    -0.197 C  
HETATM   16  C   UNL     1      -9.850   2.965  72.797  1.00  0.00    -0.197 C  
HETATM   17  C   UNL     1      -9.070   3.871  71.842  1.00  0.00    -0.165 C  
HETATM   18  C   UNL     1     -10.578   3.772  73.877  1.00  0.00    -0.292 C  
HETATM   19  C   UNL     1     -11.389   4.925  73.281  1.00  0.00    -0.327 C  
ENDBRANCH   6  14
TORSDOF 1
ENDMDL
MODEL      105
REMARK 921   NORMALIZED FREE ENERGY PREDICTED BY IDOCK:   -3.96 KCAL/MOL
REMARK 922        TOTAL FREE ENERGY PREDICTED BY IDOCK:   -4.46 KCAL/MOL
REMARK 923 INTER-LIGAND FREE ENERGY PREDICTED BY IDOCK:   -4.18 KCAL/MOL
REMARK 924 INTRA-LIGAND FREE ENERGY PREDICTED BY IDOCK:   -0.28 KCAL/MOL
REMARK 927      BINDING AFFINITY PREDICTED BY RF-SCORE:    0.00 PKD
ROOT
HETATM    1  N   UNL     1      -6.639  17.528  66.576  1.00  0.00    -0.211 NA 
HETATM    2  H1  UNL     1      -5.873  17.991  67.064  1.00  0.00     0.000 HD 
HETATM    3  C   UNL     1      -7.324  16.437  67.171  1.00  0.00    -0.195 A  
HETATM    4  H2  UNL     1      -7.328  18.235  66.321  1.00  0.00     0.000 HD 
HETATM    5  C   UNL     1      -8.366  15.807  66.507  1.00  0.00    -0.313 A  
HETATM    6  C   UNL     1      -9.039  14.764  67.128  1.00  0.00    -0.217 A  
HETATM    7  N   UNL     1      -8.667  14.319  68.347  1.00  0.00    -0.178 NA 
HETATM    8  O   UNL     1      -5.958  16.555  69.048  1.00  0.00    -0.138 OA 
HETATM    9  C   UNL     1      -7.638  14.913  69.004  1.00  0.00    -0.151 A  
HETATM   10  H2  UNL     1      -7.095  13.440  70.208  1.00  0.00     0.000 HD 
HETATM   11  N   UNL     1      -6.938  15.982  68.433  1.00  0.00    -0.118 NA 
HETATM   12  N   UNL     1      -7.280  14.441  70.271  1.00  0.00    -0.348 NA 
HETATM   13  H1  UNL     1      -6.507  14.888  70.764  1.00  0.00     0.000 HD 
ENDROOT
BRANCH   6  14
HETATM   14  N   UNL     1     -10.195  14.272  66.538  1.00  0.00    -0.270 NA 
HETATM   15  C   UNL     1     -10.943  15.196  65.684  1.00  0.00    -0.355 C  
HETATM   16  C   UNL     1     -12.589  13.309  65.326  1.00  0.00    -0.528 C  
HETATM   17  C   UNL     1     -11.693  14.349  64.652  1.00  0.00    -0.438 C  
HETATM   18  C   UNL     1     -11.823  12.487  66.367  1.00  0.00    -0.445 C  
HETATM   19  C   UNL     1     -11.037  13.377  67.333  1.00  0.00    -0.278 C  
ENDBRANCH   6  14
TORSDOF 1
ENDMDL
MODEL      106
REMARK 921   NORMALIZED FREE ENERGY PREDICTED BY IDOCK:   -3.95 KCAL/MOL
REMARK 922        TOTAL FREE ENERGY PREDICTED BY IDOCK:   -4.46 KCAL/MOL
REMARK 923 INTER-LIGAND FREE ENERGY PREDICTED BY IDOCK:   -4.21 KCAL/MOL
REMARK 924 INTRA-LIGAND FREE ENERGY PREDICTED BY IDOCK:   -0.24 KCAL/MOL
REMARK 927      BINDING AFFINITY PREDICTED BY RF-SCORE:    0.00 PKD
ROOT
HETATM    1  N   UNL     1      -7.666   5.949  70.599  1.00  0.00    -0.094 NA 
HETATM    2  H1  UNL     1      -6.978   5.391  70.093  1.00  0.00     0.000 HD 
HETATM    3  C   UNL     1      -8.926   6.249  70.020  1.00  0.00    -0.149 A  
HETATM    4  H2  UNL     1      -7.829   5.509  71.505  1.00  0.00     0.000 HD 
HETATM    5  C   UNL     1      -9.861   7.008  70.708  1.00  0.00    -0.190 A  
HETATM    6  C   UNL     1     -11.096   7.257  70.128  1.00  0.00    -0.258 A  
HETATM    7  N   UNL     1     -11.389   6.815  68.886  1.00  0.00    -0.117 NA 
HETATM    8  O   UNL     1      -8.351   5.094  68.085  1.00  0.00    -0.097 OA 
HETATM    9  C   UNL     1     -10.479   6.085  68.191  1.00  0.00    -0.236 A  
HETATM   10  H2  UNL     1     -11.096   6.426  66.343  1.00  0.00     0.000 HD 
HETATM   11  N   UNL     1      -9.225   5.788  68.736  1.00  0.00    -0.118 NA 
HETATM   12  N   UNL     1     -10.811   5.629  66.912  1.00  0.00    -0.470 NA 
HETATM   13  H1  UNL     1     -10.127   5.081  66.390  1.00  0.00     0.000 HD 
ENDROOT
BRANCH   6  14
HETATM   14  N   UNL     1     -12.087   7.850  70.899  1.00  0.00    -0.225 NA 
HETATM   15  C   UNL     1     -11.699   9.028  71.676  1.00  0.00    -0.361 C  
HETATM   16  C   UNL     1     -14.085   9.086  72.516  1.00  0.00    -0.428 C  
HETATM   17  C   UNL     1     -12.957   9.882  71.858  1.00  0.00    -0.545 C  
HETATM   18  C   UNL     1     -14.334   7.755  71.798  1.00  0.00    -0.594 C  
HETATM   19  C   UNL     1     -13.038   6.971  71.581  1.00  0.00    -0.330 C  
ENDBRANCH   6  14
TORSDOF 1
ENDMDL
MODEL      107
REMARK 921   NORMALIZED FREE ENERGY PREDICTED BY IDOCK:   -3.94 KCAL/MOL
REMARK 922        TOTAL FREE ENERGY PREDICTED BY IDOCK:   -4.44 KCAL/MOL
REMARK 923 INTER-LIGAND FREE ENERGY PREDICTED BY IDOCK:   -4.17 KCAL/MOL
REMARK 924 INTRA-LIGAND FREE ENERGY PREDICTED BY IDOCK:   -0.28 KCAL/MOL
REMARK 927      BINDING AFFINITY PREDICTED BY RF-SCORE:    0.00 PKD
ROOT
HETATM    1  N   UNL     1      -7.579  10.574  70.131  1.00  0.00    -0.433 NA 
HETATM    2  H1  UNL     1      -6.613  10.502  69.812  1.00  0.00     0.000 HD 
HETATM    3  C   UNL     1      -8.461   9.467  70.034  1.00  0.00    -0.190 A  
HETATM    4  H2  UNL     1      -7.570  10.890  71.101  1.00  0.00     0.000 HD 
HETATM    5  C   UNL     1      -9.775   9.566  70.468  1.00  0.00    -0.325 A  
HETATM    6  C   UNL     1     -10.603   8.456  70.391  1.00  0.00    -0.223 A  
HETATM    7  N   UNL     1     -10.170   7.294  69.855  1.00  0.00    -0.201 NA 
HETATM    8  O   UNL     1      -6.790   8.175  69.062  1.00  0.00    -0.057 OA 
HETATM    9  C   UNL     1      -8.892   7.185  69.410  1.00  0.00    -0.136 A  
HETATM   10  H2  UNL     1      -9.099   5.701  68.118  1.00  0.00     0.000 HD 
HETATM   11  N   UNL     1      -8.007   8.267  69.483  1.00  0.00    -0.110 NA 
HETATM   12  N   UNL     1      -8.465   5.968  68.871  1.00  0.00    -0.116 NA 
HETATM   13  H1  UNL     1      -7.505   5.886  68.536  1.00  0.00     0.000 HD 
ENDROOT
BRANCH   6  14
HETATM   14  N   UNL     1     -11.849   8.511  71.001  1.00  0.00    -0.280 NA 
HETATM   15  C   UNL     1     -12.140   9.704  71.797  1.00  0.00    -0.369 C  
HETATM   16  C   UNL     1     -14.388   8.654  72.291  1.00  0.00    -0.486 C  
HETATM   17  C   UNL     1     -13.659   9.898  71.780  1.00  0.00    -0.363 C  
HETATM   18  C   UNL     1     -13.914   7.384  71.577  1.00  0.00    -0.517 C  
HETATM   19  C   UNL     1     -12.388   7.272  71.563  1.00  0.00    -0.362 C  
ENDBRANCH   6  14
TORSDOF 1
ENDMDL
MODEL      108
REMARK 921   NORMALIZED FREE ENERGY PREDICTED BY IDOCK:   -3.94 KCAL/MOL
REMARK 922        TOTAL FREE ENERGY PREDICTED BY IDOCK:   -4.44 KCAL/MOL
REMARK 923 INTER-LIGAND FREE ENERGY PREDICTED BY IDOCK:   -4.19 KCAL/MOL
REMARK 924 INTRA-LIGAND FREE ENERGY PREDICTED BY IDOCK:   -0.26 KCAL/MOL
REMARK 927      BINDING AFFINITY PREDICTED BY RF-SCORE:    0.00 PKD
ROOT
HETATM    1  N   UNL     1     -11.418   4.670  65.231  1.00  0.00    -1.096 NA 
HETATM    2  H1  UNL     1     -11.127   3.830  64.731  1.00  0.00     0.000 HD 
HETATM    3  C   UNL     1     -10.622   5.205  66.276  1.00  0.00    -0.266 A  
HETATM    4  H2  UNL     1     -11.581   5.408  64.546  1.00  0.00     0.000 HD 
HETATM    5  C   UNL     1     -11.017   6.348  66.957  1.00  0.00    -0.463 A  
HETATM    6  C   UNL     1     -10.202   6.865  67.952  1.00  0.00    -0.174 A  
HETATM    7  N   UNL     1      -9.052   6.251  68.306  1.00  0.00    -0.115 NA 
HETATM    8  O   UNL     1      -9.068   3.495  66.017  1.00  0.00    -0.140 OA 
HETATM    9  C   UNL     1      -8.658   5.122  67.662  1.00  0.00    -0.104 A  
HETATM   10  H2  UNL     1      -7.484   4.326  69.041  1.00  0.00     0.000 HD 
HETATM   11  N   UNL     1      -9.432   4.568  66.636  1.00  0.00    -0.159 NA 
HETATM   12  N   UNL     1      -7.458   4.512  68.038  1.00  0.00    -0.069 NA 
HETATM   13  H1  UNL     1      -7.161   3.663  67.555  1.00  0.00     0.000 HD 
ENDROOT
BRANCH   6  14
HETATM   14  N   UNL     1     -10.512   8.107  68.489  1.00  0.00    -0.193 NA 
HETATM   15  C   UNL     1     -10.223   9.275  67.656  1.00  0.00    -0.230 C  
HETATM   16  C   UNL     1     -11.111  10.680  69.564  1.00  0.00    -0.328 C  
HETATM   17  C   UNL     1     -11.204  10.376  68.067  1.00  0.00    -0.340 C  
HETATM   18  C   UNL     1     -11.213   9.406  70.409  1.00  0.00    -0.309 C  
HETATM   19  C   UNL     1     -10.261   8.314  69.916  1.00  0.00    -0.201 C  
ENDBRANCH   6  14
TORSDOF 1
ENDMDL
MODEL      109
REMARK 921   NORMALIZED FREE ENERGY PREDICTED BY IDOCK:   -3.93 KCAL/MOL
REMARK 922        TOTAL FREE ENERGY PREDICTED BY IDOCK:   -4.44 KCAL/MOL
REMARK 923 INTER-LIGAND FREE ENERGY PREDICTED BY IDOCK:   -4.17 KCAL/MOL
REMARK 924 INTRA-LIGAND FREE ENERGY PREDICTED BY IDOCK:   -0.27 KCAL/MOL
REMARK 927      BINDING AFFINITY PREDICTED BY RF-SCORE:    0.00 PKD
ROOT
HETATM    1  N   UNL     1      -9.029   8.875  71.033  1.00  0.00    -0.221 NA 
HETATM    2  H1  UNL     1      -8.802   7.946  71.386  1.00  0.00     0.000 HD 
HETATM    3  C   UNL     1      -9.669   9.039  69.777  1.00  0.00    -0.175 A  
HETATM    4  H2  UNL     1      -9.587   9.355  71.739  1.00  0.00     0.000 HD 
HETATM    5  C   UNL     1      -9.979  10.303  69.297  1.00  0.00    -0.244 A  
HETATM    6  C   UNL     1     -10.634  10.429  68.081  1.00  0.00    -0.211 A  
HETATM    7  N   UNL     1     -10.932   9.346  67.331  1.00  0.00    -0.119 NA 
HETATM    8  O   UNL     1      -9.677   6.738  69.441  1.00  0.00    -0.152 OA 
HETATM    9  C   UNL     1     -10.621   8.102  67.777  1.00  0.00    -0.165 A  
HETATM   10  H2  UNL     1     -10.548   7.123  66.060  1.00  0.00     0.000 HD 
HETATM   11  N   UNL     1      -9.979   7.916  69.006  1.00  0.00    -0.182 NA 
HETATM   12  N   UNL     1     -10.952   6.996  66.987  1.00  0.00    -0.573 NA 
HETATM   13  H1  UNL     1     -10.718   6.062  67.322  1.00  0.00     0.000 HD 
ENDROOT
BRANCH   6  14
HETATM   14  N   UNL     1     -11.107  11.678  67.705  1.00  0.00    -0.237 NA 
HETATM   15  C   UNL     1     -10.949  12.045  66.297  1.00  0.00    -0.299 C  
HETATM   16  C   UNL     1     -12.044  14.246  66.893  1.00  0.00    -0.440 C  
HETATM   17  C   UNL     1     -12.068  13.035  65.960  1.00  0.00    -0.493 C  
HETATM   18  C   UNL     1     -12.004  13.828  68.366  1.00  0.00    -0.395 C  
HETATM   19  C   UNL     1     -10.913  12.789  68.637  1.00  0.00    -0.260 C  
ENDBRANCH   6  14
TORSDOF 1
ENDMDL
MODEL      110
REMARK 921   NORMALIZED FREE ENERGY PREDICTED BY IDOCK:   -3.92 KCAL/MOL
REMARK 922        TOTAL FREE ENERGY PREDICTED BY IDOCK:   -4.42 KCAL/MOL
REMARK 923 INTER-LIGAND FREE ENERGY PREDICTED BY IDOCK:   -4.16 KCAL/MOL
REMARK 924 INTRA-LIGAND FREE ENERGY PREDICTED BY IDOCK:   -0.26 KCAL/MOL
REMARK 927      BINDING AFFINITY PREDICTED BY RF-SCORE:    0.00 PKD
ROOT
HETATM    1  N   UNL     1      -8.306  15.989  68.820  1.00  0.00    -0.202 NA 
HETATM    2  H1  UNL     1      -8.418  16.914  69.234  1.00  0.00     0.000 HD 
HETATM    3  C   UNL     1      -9.386  15.069  68.794  1.00  0.00    -0.200 A  
HETATM    4  H2  UNL     1      -7.965  16.106  67.866  1.00  0.00     0.000 HD 
HETATM    5  C   UNL     1      -9.234  13.810  68.231  1.00  0.00    -0.204 A  
HETATM    6  C   UNL     1     -10.317  12.946  68.192  1.00  0.00    -0.240 A  
HETATM    7  N   UNL     1     -11.506  13.287  68.734  1.00  0.00    -0.283 NA 
HETATM    8  O   UNL     1     -10.757  16.592  69.893  1.00  0.00    -0.309 OA 
HETATM    9  C   UNL     1     -11.668  14.508  69.304  1.00  0.00    -0.310 A  
HETATM   10  H2  UNL     1     -13.178  14.127  70.525  1.00  0.00     0.000 HD 
HETATM   11  N   UNL     1     -10.614  15.428  69.354  1.00  0.00    -0.235 NA 
HETATM   12  N   UNL     1     -12.912  14.842  69.848  1.00  0.00    -0.585 NA 
HETATM   13  H1  UNL     1     -13.035  15.760  70.277  1.00  0.00     0.000 HD 
ENDROOT
BRANCH   6  14
HETATM   14  N   UNL     1     -10.206  11.771  67.460  1.00  0.00    -0.194 NA 
HETATM   15  C   UNL     1     -10.195  11.903  66.002  1.00  0.00    -0.229 C  
HETATM   16  C   UNL     1     -10.004   9.382  65.916  1.00  0.00    -0.327 C  
HETATM   17  C   UNL     1      -9.411  10.711  65.447  1.00  0.00    -0.250 C  
HETATM   18  C   UNL     1     -10.195   9.350  67.436  1.00  0.00    -0.298 C  
HETATM   19  C   UNL     1     -10.925  10.594  67.948  1.00  0.00    -0.295 C  
ENDBRANCH   6  14
TORSDOF 1
ENDMDL
MODEL      111
REMARK 921   NORMALIZED FREE ENERGY PREDICTED BY IDOCK:   -3.88 KCAL/MOL
REMARK 922        TOTAL FREE ENERGY PREDICTED BY IDOCK:   -4.39 KCAL/MOL
REMARK 923 INTER-LIGAND FREE ENERGY PREDICTED BY IDOCK:   -4.13 KCAL/MOL
REMARK 924 INTRA-LIGAND FREE ENERGY PREDICTED BY IDOCK:   -0.26 KCAL/MOL
REMARK 927      BINDING AFFINITY PREDICTED BY RF-SCORE:    0.00 PKD
ROOT
HETATM    1  N   UNL     1     -10.234   7.467  66.575  1.00  0.00    -0.478 NA 
HETATM    2  H1  UNL     1      -9.811   6.684  66.077  1.00  0.00     0.000 HD 
HETATM    3  C   UNL     1      -9.793   8.796  66.348  1.00  0.00    -0.282 A  
HETATM    4  H2  UNL     1     -11.241   7.435  66.421  1.00  0.00     0.000 HD 
HETATM    5  C   UNL     1     -10.369   9.861  67.026  1.00  0.00    -0.303 A  
HETATM    6  C   UNL     1      -9.939  11.152  66.759  1.00  0.00    -0.208 A  
HETATM    7  N   UNL     1      -8.937  11.390  65.885  1.00  0.00    -0.201 NA 
HETATM    8  O   UNL     1      -8.208   8.048  64.819  1.00  0.00    -0.149 OA 
HETATM    9  C   UNL     1      -8.351  10.358  65.225  1.00  0.00    -0.166 A  
HETATM   10  H2  UNL     1      -6.600  11.171  64.792  1.00  0.00     0.000 HD 
HETATM   11  N   UNL     1      -8.759   9.037  65.442  1.00  0.00    -0.179 NA 
HETATM   12  N   UNL     1      -7.323  10.632  64.317  1.00  0.00    -0.348 NA 
HETATM   13  H1  UNL     1      -6.883   9.857  63.821  1.00  0.00     0.000 HD 
ENDROOT
BRANCH   6  14
HETATM   14  N   UNL     1     -10.649  12.216  67.298  1.00  0.00    -0.223 NA 
HETATM   15  C   UNL     1     -11.267  11.999  68.607  1.00  0.00    -0.258 C  
HETATM   16  C   UNL     1     -12.138  14.367  68.432  1.00  0.00    -0.278 C  
HETATM   17  C   UNL     1     -11.366  13.365  69.291  1.00  0.00    -0.314 C  
HETATM   18  C   UNL     1     -11.596  14.425  67.000  1.00  0.00    -0.402 C  
HETATM   19  C   UNL     1     -11.453  13.031  66.386  1.00  0.00    -0.341 C  
ENDBRANCH   6  14
TORSDOF 1
ENDMDL
MODEL      112
REMARK 921   NORMALIZED FREE ENERGY PREDICTED BY IDOCK:   -3.87 KCAL/MOL
REMARK 922        TOTAL FREE ENERGY PREDICTED BY IDOCK:   -4.37 KCAL/MOL
REMARK 923 INTER-LIGAND FREE ENERGY PREDICTED BY IDOCK:   -4.10 KCAL/MOL
REMARK 924 INTRA-LIGAND FREE ENERGY PREDICTED BY IDOCK:   -0.27 KCAL/MOL
REMARK 927      BINDING AFFINITY PREDICTED BY RF-SCORE:    0.00 PKD
ROOT
HETATM    1  N   UNL     1      -9.040   7.077  65.675  1.00  0.00    -0.378 NA 
HETATM    2  H1  UNL     1      -8.759   7.199  64.703  1.00  0.00     0.000 HD 
HETATM    3  C   UNL     1      -9.506   8.177  66.440  1.00  0.00    -0.218 A  
HETATM    4  H2  UNL     1      -9.747   6.342  65.711  1.00  0.00     0.000 HD 
HETATM    5  C   UNL     1      -9.889   8.010  67.763  1.00  0.00    -0.207 A  
HETATM    6  C   UNL     1     -10.371   9.099  68.475  1.00  0.00    -0.207 A  
HETATM    7  N   UNL     1     -10.430  10.329  67.920  1.00  0.00    -0.196 NA 
HETATM    8  O   UNL     1      -9.197   9.610  64.635  1.00  0.00    -0.244 OA 
HETATM    9  C   UNL     1     -10.043  10.513  66.632  1.00  0.00    -0.222 A  
HETATM   10  H2  UNL     1      -9.608  12.443  66.671  1.00  0.00     0.000 HD 
HETATM   11  N   UNL     1      -9.568   9.446  65.861  1.00  0.00    -0.253 NA 
HETATM   12  N   UNL     1     -10.124  11.794  66.077  1.00  0.00    -0.223 NA 
HETATM   13  H1  UNL     1      -9.834  11.933  65.109  1.00  0.00     0.000 HD 
ENDROOT
BRANCH   6  14
HETATM   14  N   UNL     1     -10.928   8.882  69.728  1.00  0.00    -0.202 NA 
HETATM   15  C   UNL     1     -10.771   9.954  70.712  1.00  0.00    -0.280 C  
HETATM   16  C   UNL     1     -12.035   8.468  72.324  1.00  0.00    -0.454 C  
HETATM   17  C   UNL     1     -11.953   9.854  71.680  1.00  0.00    -0.427 C  
HETATM   18  C   UNL     1     -11.991   7.352  71.275  1.00  0.00    -0.343 C  
HETATM   19  C   UNL     1     -10.833   7.535  70.292  1.00  0.00    -0.246 C  
ENDBRANCH   6  14
TORSDOF 1
ENDMDL
MODEL      113
REMARK 921   NORMALIZED FREE ENERGY PREDICTED BY IDOCK:   -3.86 KCAL/MOL
REMARK 922        TOTAL FREE ENERGY PREDICTED BY IDOCK:   -4.36 KCAL/MOL
REMARK 923 INTER-LIGAND FREE ENERGY PREDICTED BY IDOCK:   -4.08 KCAL/MOL
REMARK 924 INTRA-LIGAND FREE ENERGY PREDICTED BY IDOCK:   -0.28 KCAL/MOL
REMARK 927      BINDING AFFINITY PREDICTED BY RF-SCORE:    0.00 PKD
ROOT
HETATM    1  N   UNL     1     -12.689  13.846  65.194  1.00  0.00    -0.689 NA 
HETATM    2  H1  UNL     1     -13.212  14.519  65.754  1.00  0.00     0.000 HD 
HETATM    3  C   UNL     1     -11.546  13.192  65.724  1.00  0.00    -0.347 A  
HETATM    4  H2  UNL     1     -13.339  13.132  64.866  1.00  0.00     0.000 HD 
HETATM    5  C   UNL     1     -10.835  12.277  64.963  1.00  0.00    -0.337 A  
HETATM    6  C   UNL     1      -9.742  11.630  65.520  1.00  0.00    -0.232 A  
HETATM    7  N   UNL     1      -9.326  11.911  66.774  1.00  0.00    -0.195 NA 
HETATM    8  O   UNL     1     -11.772  14.348  67.730  1.00  0.00    -0.342 OA 
HETATM    9  C   UNL     1     -10.000  12.817  67.527  1.00  0.00    -0.210 A  
HETATM   10  H2  UNL     1      -8.574  13.351  68.791  1.00  0.00     0.000 HD 
HETATM   11  N   UNL     1     -11.122  13.484  67.023  1.00  0.00    -0.291 NA 
HETATM   12  N   UNL     1      -9.557  13.081  68.827  1.00  0.00    -0.412 NA 
HETATM   13  H1  UNL     1     -10.063  13.762  69.394  1.00  0.00     0.000 HD 
ENDROOT
BRANCH   6  14
HETATM   14  N   UNL     1      -9.159  10.583  64.820  1.00  0.00    -0.198 NA 
HETATM   15  C   UNL     1      -9.779  10.218  63.545  1.00  0.00    -0.193 C  
HETATM   16  C   UNL     1      -8.008   8.421  63.359  1.00  0.00    -0.160 C  
HETATM   17  C   UNL     1      -8.682   9.607  62.668  1.00  0.00    -0.226 C  
HETATM   18  C   UNL     1      -7.548   8.776  64.777  1.00  0.00    -0.107 C  
HETATM   19  C   UNL     1      -8.659   9.443  65.590  1.00  0.00    -0.142 C  
ENDBRANCH   6  14
TORSDOF 1
ENDMDL
MODEL      114
REMARK 921   NORMALIZED FREE ENERGY PREDICTED BY IDOCK:   -3.84 KCAL/MOL
REMARK 922        TOTAL FREE ENERGY PREDICTED BY IDOCK:   -4.34 KCAL/MOL
REMARK 923 INTER-LIGAND FREE ENERGY PREDICTED BY IDOCK:   -4.10 KCAL/MOL
REMARK 924 INTRA-LIGAND FREE ENERGY PREDICTED BY IDOCK:   -0.24 KCAL/MOL
REMARK 927      BINDING AFFINITY PREDICTED BY RF-SCORE:    0.00 PKD
ROOT
HETATM    1  N   UNL     1     -12.308  11.471  70.954  1.00  0.00    -0.382 NA 
HETATM    2  H1  UNL     1     -13.075  11.756  71.562  1.00  0.00     0.000 HD 
HETATM    3  C   UNL     1     -11.956  10.103  70.820  1.00  0.00    -0.348 A  
HETATM    4  H2  UNL     1     -12.486  11.846  70.022  1.00  0.00     0.000 HD 
HETATM    5  C   UNL     1     -10.913   9.716  69.992  1.00  0.00    -0.297 A  
HETATM    6  C   UNL     1     -10.613   8.369  69.858  1.00  0.00    -0.228 A  
HETATM    7  N   UNL     1     -11.286   7.428  70.556  1.00  0.00    -0.278 NA 
HETATM    8  O   UNL     1     -13.619   9.491  72.326  1.00  0.00    -0.444 OA 
HETATM    9  C   UNL     1     -12.299   7.791  71.384  1.00  0.00    -0.323 A  
HETATM   10  H2  UNL     1     -12.317   6.241  72.614  1.00  0.00     0.000 HD 
HETATM   11  N   UNL     1     -12.657   9.135  71.542  1.00  0.00    -0.328 NA 
HETATM   12  N   UNL     1     -12.989   6.798  72.086  1.00  0.00    -0.555 NA 
HETATM   13  H1  UNL     1     -13.750   7.069  72.708  1.00  0.00     0.000 HD 
ENDROOT
BRANCH   6  14
HETATM   14  N   UNL     1      -9.700   7.983  68.886  1.00  0.00    -0.156 NA 
HETATM   15  C   UNL     1      -8.290   7.965  69.279  1.00  0.00    -0.136 C  
HETATM   16  C   UNL     1      -7.787   7.218  66.915  1.00  0.00    -0.111 C  
HETATM   17  C   UNL     1      -7.590   6.923  68.402  1.00  0.00    -0.111 C  
HETATM   18  C   UNL     1      -9.263   7.435  66.568  1.00  0.00    -0.206 C  
HETATM   19  C   UNL     1      -9.933   8.434  67.514  1.00  0.00    -0.200 C  
ENDBRANCH   6  14
TORSDOF 1
ENDMDL
MODEL      115
REMARK 921   NORMALIZED FREE ENERGY PREDICTED BY IDOCK:   -3.82 KCAL/MOL
REMARK 922        TOTAL FREE ENERGY PREDICTED BY IDOCK:   -4.32 KCAL/MOL
REMARK 923 INTER-LIGAND FREE ENERGY PREDICTED BY IDOCK:   -4.04 KCAL/MOL
REMARK 924 INTRA-LIGAND FREE ENERGY PREDICTED BY IDOCK:   -0.28 KCAL/MOL
REMARK 927      BINDING AFFINITY PREDICTED BY RF-SCORE:    0.00 PKD
ROOT
HETATM    1  N   UNL     1     -11.144   6.519  70.658  1.00  0.00    -0.287 NA 
HETATM    2  H1  UNL     1     -10.736   5.660  70.289  1.00  0.00     0.000 HD 
HETATM    3  C   UNL     1     -10.791   7.782  70.115  1.00  0.00    -0.244 A  
HETATM    4  H2  UNL     1     -12.159   6.429  70.621  1.00  0.00     0.000 HD 
HETATM    5  C   UNL     1     -11.347   8.950  70.617  1.00  0.00    -0.299 A  
HETATM    6  C   UNL     1     -11.007  10.166  70.044  1.00  0.00    -0.307 A  
HETATM    7  N   UNL     1     -10.108  10.241  69.039  1.00  0.00    -0.201 NA 
HETATM    8  O   UNL     1      -9.332   6.770  68.614  1.00  0.00    -0.133 OA 
HETATM    9  C   UNL     1      -9.542   9.109  68.547  1.00  0.00    -0.148 A  
HETATM   10  H2  UNL     1      -7.882   9.857  67.772  1.00  0.00     0.000 HD 
HETATM   11  N   UNL     1      -9.864   7.853  69.074  1.00  0.00    -0.167 NA 
HETATM   12  N   UNL     1      -8.623   9.212  67.498  1.00  0.00    -0.116 NA 
HETATM   13  H1  UNL     1      -8.197   8.362  67.129  1.00  0.00     0.000 HD 
ENDROOT
BRANCH   6  14
HETATM   14  N   UNL     1     -11.710  11.301  70.424  1.00  0.00    -0.329 NA 
HETATM   15  C   UNL     1     -12.942  11.088  71.185  1.00  0.00    -0.324 C  
HETATM   16  C   UNL     1     -13.198  13.605  71.206  1.00  0.00    -0.308 C  
HETATM   17  C   UNL     1     -13.158  12.332  72.052  1.00  0.00    -0.461 C  
HETATM   18  C   UNL     1     -11.991  13.702  70.266  1.00  0.00    -0.397 C  
HETATM   19  C   UNL     1     -11.779  12.411  69.472  1.00  0.00    -0.322 C  
ENDBRANCH   6  14
TORSDOF 1
ENDMDL
MODEL      116
REMARK 921   NORMALIZED FREE ENERGY PREDICTED BY IDOCK:   -3.80 KCAL/MOL
REMARK 922        TOTAL FREE ENERGY PREDICTED BY IDOCK:   -4.29 KCAL/MOL
REMARK 923 INTER-LIGAND FREE ENERGY PREDICTED BY IDOCK:   -4.02 KCAL/MOL
REMARK 924 INTRA-LIGAND FREE ENERGY PREDICTED BY IDOCK:   -0.28 KCAL/MOL
REMARK 927      BINDING AFFINITY PREDICTED BY RF-SCORE:    0.00 PKD
ROOT
HETATM    1  N   UNL     1     -11.272  13.774  69.853  1.00  0.00    -0.474 NA 
HETATM    2  H1  UNL     1     -11.494  14.632  70.358  1.00  0.00     0.000 HD 
HETATM    3  C   UNL     1     -10.999  13.800  68.461  1.00  0.00    -0.262 A  
HETATM    4  H2  UNL     1     -10.486  13.324  70.323  1.00  0.00     0.000 HD 
HETATM    5  C   UNL     1     -10.696  12.633  67.775  1.00  0.00    -0.239 A  
HETATM    6  C   UNL     1     -10.402  12.694  66.421  1.00  0.00    -0.249 A  
HETATM    7  N   UNL     1     -10.453  13.863  65.746  1.00  0.00    -0.298 NA 
HETATM    8  O   UNL     1     -11.347  16.098  68.399  1.00  0.00    -0.366 OA 
HETATM    9  C   UNL     1     -10.765  15.013  66.398  1.00  0.00    -0.322 A  
HETATM   10  H2  UNL     1     -11.431  16.102  64.887  1.00  0.00     0.000 HD 
HETATM   11  N   UNL     1     -11.050  15.011  67.768  1.00  0.00    -0.299 NA 
HETATM   12  N   UNL     1     -10.799  16.211  65.679  1.00  0.00    -0.283 NA 
HETATM   13  H1  UNL     1     -11.033  17.075  66.169  1.00  0.00     0.000 HD 
ENDROOT
BRANCH   6  14
HETATM   14  N   UNL     1      -9.916  11.557  65.792  1.00  0.00    -0.224 NA 
HETATM   15  C   UNL     1      -8.978  10.732  66.555  1.00  0.00    -0.156 C  
HETATM   16  C   UNL     1      -8.874   9.222  64.528  1.00  0.00    -0.203 C  
HETATM   17  C   UNL     1      -9.113   9.298  66.037  1.00  0.00    -0.235 C  
HETATM   18  C   UNL     1      -9.726  10.243  63.766  1.00  0.00    -0.298 C  
HETATM   19  C   UNL     1      -9.608  11.647  64.364  1.00  0.00    -0.108 C  
ENDBRANCH   6  14
TORSDOF 1
ENDMDL
MODEL      117
REMARK 921   NORMALIZED FREE ENERGY PREDICTED BY IDOCK:   -3.79 KCAL/MOL
REMARK 922        TOTAL FREE ENERGY PREDICTED BY IDOCK:   -4.29 KCAL/MOL
REMARK 923 INTER-LIGAND FREE ENERGY PREDICTED BY IDOCK:   -4.02 KCAL/MOL
REMARK 924 INTRA-LIGAND FREE ENERGY PREDICTED BY IDOCK:   -0.27 KCAL/MOL
REMARK 927      BINDING AFFINITY PREDICTED BY RF-SCORE:    0.00 PKD
ROOT
HETATM    1  N   UNL     1      -8.168   8.533  68.035  1.00  0.00    -0.119 NA 
HETATM    2  H1  UNL     1      -7.628   7.667  68.041  1.00  0.00     0.000 HD 
HETATM    3  C   UNL     1      -8.657   9.075  66.818  1.00  0.00    -0.123 A  
HETATM    4  H2  UNL     1      -8.956   8.420  68.673  1.00  0.00     0.000 HD 
HETATM    5  C   UNL     1      -9.391  10.252  66.810  1.00  0.00    -0.187 A  
HETATM    6  C   UNL     1      -9.883  10.740  65.609  1.00  0.00    -0.245 A  
HETATM    7  N   UNL     1      -9.621  10.117  64.440  1.00  0.00    -0.305 NA 
HETATM    8  O   UNL     1      -7.689   7.338  65.613  1.00  0.00    -0.093 OA 
HETATM    9  C   UNL     1      -8.889   8.973  64.427  1.00  0.00    -0.066 A  
HETATM   10  H2  UNL     1      -8.212   9.012  62.569  1.00  0.00     0.000 HD 
HETATM   11  N   UNL     1      -8.385   8.426  65.612  1.00  0.00    -0.145 NA 
HETATM   12  N   UNL     1      -8.642   8.341  63.205  1.00  0.00    -0.414 NA 
HETATM   13  H1  UNL     1      -8.092   7.481  63.195  1.00  0.00     0.000 HD 
ENDROOT
BRANCH   6  14
HETATM   14  N   UNL     1     -10.772  11.806  65.637  1.00  0.00    -0.272 NA 
HETATM   15  C   UNL     1     -11.255  12.294  64.344  1.00  0.00    -0.334 C  
HETATM   16  C   UNL     1     -12.581  14.010  65.645  1.00  0.00    -0.542 C  
HETATM   17  C   UNL     1     -12.635  12.912  64.581  1.00  0.00    -0.459 C  
HETATM   18  C   UNL     1     -11.885  13.530  66.922  1.00  0.00    -0.452 C  
HETATM   19  C   UNL     1     -10.541  12.860  66.625  1.00  0.00    -0.261 C  
ENDBRANCH   6  14
TORSDOF 1
ENDMDL
MODEL      118
REMARK 921   NORMALIZED FREE ENERGY PREDICTED BY IDOCK:   -3.77 KCAL/MOL
REMARK 922        TOTAL FREE ENERGY PREDICTED BY IDOCK:   -4.27 KCAL/MOL
REMARK 923 INTER-LIGAND FREE ENERGY PREDICTED BY IDOCK:   -4.02 KCAL/MOL
REMARK 924 INTRA-LIGAND FREE ENERGY PREDICTED BY IDOCK:   -0.25 KCAL/MOL
REMARK 927      BINDING AFFINITY PREDICTED BY RF-SCORE:    0.00 PKD
ROOT
HETATM    1  N   UNL     1     -12.759   6.589  72.081  1.00  0.00    -0.546 NA 
HETATM    2  H1  UNL     1     -13.215   7.095  72.840  1.00  0.00     0.000 HD 
HETATM    3  C   UNL     1     -11.992   7.278  71.107  1.00  0.00    -0.328 A  
HETATM    4  H2  UNL     1     -12.173   5.862  72.491  1.00  0.00     0.000 HD 
HETATM    5  C   UNL     1     -11.372   6.590  70.074  1.00  0.00    -0.472 A  
HETATM    6  C   UNL     1     -10.602   7.287  69.156  1.00  0.00    -0.208 A  
HETATM    7  N   UNL     1     -10.484   8.631  69.218  1.00  0.00    -0.222 NA 
HETATM    8  O   UNL     1     -12.458   9.315  72.127  1.00  0.00    -0.370 OA 
HETATM    9  C   UNL     1     -11.098   9.323  70.212  1.00  0.00    -0.251 A  
HETATM   10  H2  UNL     1     -11.233  11.106  69.364  1.00  0.00     0.000 HD 
HETATM   11  N   UNL     1     -11.870   8.668  71.177  1.00  0.00    -0.287 NA 
HETATM   12  N   UNL     1     -10.949  10.713  70.261  1.00  0.00    -0.448 NA 
HETATM   13  H1  UNL     1     -11.411  11.233  71.008  1.00  0.00     0.000 HD 
ENDROOT
BRANCH   6  14
HETATM   14  N   UNL     1      -9.836   6.570  68.247  1.00  0.00    -0.130 NA 
HETATM   15  C   UNL     1      -8.383   6.708  68.358  1.00  0.00    -0.122 C  
HETATM   16  C   UNL     1      -8.223   5.133  66.385  1.00  0.00    -0.108 C  
HETATM   17  C   UNL     1      -7.764   5.417  67.816  1.00  0.00    -0.092 C  
HETATM   18  C   UNL     1      -9.749   5.196  66.255  1.00  0.00    -0.188 C  
HETATM   19  C   UNL     1     -10.323   6.474  66.871  1.00  0.00    -0.243 C  
ENDBRANCH   6  14
TORSDOF 1
ENDMDL
MODEL      119
REMARK 921   NORMALIZED FREE ENERGY PREDICTED BY IDOCK:   -3.77 KCAL/MOL
REMARK 922        TOTAL FREE ENERGY PREDICTED BY IDOCK:   -4.26 KCAL/MOL
REMARK 923 INTER-LIGAND FREE ENERGY PREDICTED BY IDOCK:   -4.02 KCAL/MOL
REMARK 924 INTRA-LIGAND FREE ENERGY PREDICTED BY IDOCK:   -0.24 KCAL/MOL
REMARK 927      BINDING AFFINITY PREDICTED BY RF-SCORE:    0.00 PKD
ROOT
HETATM    1  N   UNL     1      -9.811  10.018  70.121  1.00  0.00    -0.386 NA 
HETATM    2  H1  UNL     1      -9.750  10.745  69.408  1.00  0.00     0.000 HD 
HETATM    3  C   UNL     1     -10.238   8.707  69.787  1.00  0.00    -0.206 A  
HETATM    4  H2  UNL     1      -8.903   9.949  70.582  1.00  0.00     0.000 HD 
HETATM    5  C   UNL     1     -10.320   7.719  70.757  1.00  0.00    -0.206 A  
HETATM    6  C   UNL     1     -10.711   6.438  70.394  1.00  0.00    -0.262 A  
HETATM    7  N   UNL     1     -11.060   6.146  69.123  1.00  0.00    -0.380 NA 
HETATM    8  O   UNL     1     -10.536   9.330  67.567  1.00  0.00    -0.268 OA 
HETATM    9  C   UNL     1     -11.002   7.106  68.164  1.00  0.00    -0.047 A  
HETATM   10  H2  UNL     1     -12.294   6.373  66.857  1.00  0.00     0.000 HD 
HETATM   11  N   UNL     1     -10.595   8.409  68.471  1.00  0.00    -0.156 NA 
HETATM   12  N   UNL     1     -11.357   6.776  66.852  1.00  0.00    -0.792 NA 
HETATM   13  H1  UNL     1     -11.314   7.496  66.132  1.00  0.00     0.000 HD 
ENDROOT
BRANCH   6  14
HETATM   14  N   UNL     1     -10.605   5.418  71.330  1.00  0.00    -0.232 NA 
HETATM   15  C   UNL     1     -11.210   5.662  72.640  1.00  0.00    -0.300 C  
HETATM   16  C   UNL     1     -10.390   3.360  73.291  1.00  0.00    -0.242 C  
HETATM   17  C   UNL     1     -11.595   4.299  73.221  1.00  0.00    -0.177 C  
HETATM   18  C   UNL     1      -9.651   3.281  71.951  1.00  0.00    -0.221 C  
HETATM   19  C   UNL     1      -9.349   4.669  71.382  1.00  0.00    -0.149 C  
ENDBRANCH   6  14
TORSDOF 1
ENDMDL
MODEL      120
REMARK 921   NORMALIZED FREE ENERGY PREDICTED BY IDOCK:   -3.71 KCAL/MOL
REMARK 922        TOTAL FREE ENERGY PREDICTED BY IDOCK:   -4.20 KCAL/MOL
REMARK 923 INTER-LIGAND FREE ENERGY PREDICTED BY IDOCK:   -3.94 KCAL/MOL
REMARK 924 INTRA-LIGAND FREE ENERGY PREDICTED BY IDOCK:   -0.26 KCAL/MOL
REMARK 927      BINDING AFFINITY PREDICTED BY RF-SCORE:    0.00 PKD
ROOT
HETATM    1  N   UNL     1      -8.306   8.449  67.538  1.00  0.00    -0.128 NA 
HETATM    2  H1  UNL     1      -8.020   7.537  67.184  1.00  0.00     0.000 HD 
HETATM    3  C   UNL     1      -8.813   9.442  66.660  1.00  0.00    -0.135 A  
HETATM    4  H2  UNL     1      -8.989   8.303  68.281  1.00  0.00     0.000 HD 
HETATM    5  C   UNL     1      -9.202  10.684  67.142  1.00  0.00    -0.161 A  
HETATM    6  C   UNL     1      -9.725  11.622  66.264  1.00  0.00    -0.218 A  
HETATM    7  N   UNL     1      -9.818  11.368  64.941  1.00  0.00    -0.249 NA 
HETATM    8  O   UNL     1      -8.535   8.025  64.838  1.00  0.00    -0.136 OA 
HETATM    9  C   UNL     1      -9.426  10.164  64.450  1.00  0.00    -0.308 A  
HETATM   10  H2  UNL     1      -9.053  10.657  62.571  1.00  0.00     0.000 HD 
HETATM   11  N   UNL     1      -8.910   9.173  65.293  1.00  0.00    -0.191 NA 
HETATM   12  N   UNL     1      -9.544   9.921  63.078  1.00  0.00    -0.542 NA 
HETATM   13  H1  UNL     1      -9.249   9.017  62.709  1.00  0.00     0.000 HD 
ENDROOT
BRANCH   6  14
HETATM   14  N   UNL     1     -10.285  12.781  66.783  1.00  0.00    -0.236 NA 
HETATM   15  C   UNL     1     -11.564  12.639  67.480  1.00  0.00    -0.359 C  
HETATM   16  C   UNL     1     -11.483  15.141  67.845  1.00  0.00    -0.344 C  
HETATM   17  C   UNL     1     -11.647  13.772  68.507  1.00  0.00    -0.373 C  
HETATM   18  C   UNL     1     -10.237  15.196  66.955  1.00  0.00    -0.259 C  
HETATM   19  C   UNL     1     -10.167  14.007  65.993  1.00  0.00    -0.304 C  
ENDBRANCH   6  14
TORSDOF 1
ENDMDL
MODEL      121
REMARK 921   NORMALIZED FREE ENERGY PREDICTED BY IDOCK:   -3.68 KCAL/MOL
REMARK 922        TOTAL FREE ENERGY PREDICTED BY IDOCK:   -4.17 KCAL/MOL
REMARK 923 INTER-LIGAND FREE ENERGY PREDICTED BY IDOCK:   -3.89 KCAL/MOL
REMARK 924 INTRA-LIGAND FREE ENERGY PREDICTED BY IDOCK:   -0.27 KCAL/MOL
REMARK 927      BINDING AFFINITY PREDICTED BY RF-SCORE:    0.00 PKD
ROOT
HETATM    1  N   UNL     1     -14.015   9.184  71.214  1.00  0.00    -0.480 NA 
HETATM    2  H1  UNL     1     -14.361  10.065  70.836  1.00  0.00     0.000 HD 
HETATM    3  C   UNL     1     -12.636   8.858  71.151  1.00  0.00    -0.185 A  
HETATM    4  H2  UNL     1     -14.313   9.118  72.187  1.00  0.00     0.000 HD 
HETATM    5  C   UNL     1     -12.165   7.659  71.666  1.00  0.00    -0.346 A  
HETATM    6  C   UNL     1     -10.807   7.384  71.619  1.00  0.00    -0.220 A  
HETATM    7  N   UNL     1      -9.938   8.238  71.036  1.00  0.00    -0.183 NA 
HETATM    8  O   UNL     1     -12.177  10.857  70.055  1.00  0.00    -0.315 OA 
HETATM    9  C   UNL     1     -10.384   9.409  70.511  1.00  0.00    -0.281 A  
HETATM   10  H2  UNL     1      -8.943   9.778  69.207  1.00  0.00     0.000 HD 
HETATM   11  N   UNL     1     -11.741   9.747  70.550  1.00  0.00    -0.273 NA 
HETATM   12  N   UNL     1      -9.463  10.282  69.925  1.00  0.00    -0.409 NA 
HETATM   13  H1  UNL     1      -9.797  11.161  69.530  1.00  0.00     0.000 HD 
ENDROOT
BRANCH   6  14
HETATM   14  N   UNL     1     -10.327   6.276  72.305  1.00  0.00    -0.188 NA 
HETATM   15  C   UNL     1      -9.110   5.654  71.781  1.00  0.00    -0.135 C  
HETATM   16  C   UNL     1      -9.319   3.983  73.669  1.00  0.00    -0.114 C  
HETATM   17  C   UNL     1      -8.403   4.982  72.961  1.00  0.00    -0.111 C  
HETATM   18  C   UNL     1     -10.672   4.608  74.026  1.00  0.00    -0.352 C  
HETATM   19  C   UNL     1     -11.306   5.324  72.831  1.00  0.00    -0.301 C  
ENDBRANCH   6  14
TORSDOF 1
ENDMDL
MODEL      122
REMARK 921   NORMALIZED FREE ENERGY PREDICTED BY IDOCK:   -3.66 KCAL/MOL
REMARK 922        TOTAL FREE ENERGY PREDICTED BY IDOCK:   -4.15 KCAL/MOL
REMARK 923 INTER-LIGAND FREE ENERGY PREDICTED BY IDOCK:   -3.89 KCAL/MOL
REMARK 924 INTRA-LIGAND FREE ENERGY PREDICTED BY IDOCK:   -0.26 KCAL/MOL
REMARK 927      BINDING AFFINITY PREDICTED BY RF-SCORE:    0.00 PKD
ROOT
HETATM    1  N   UNL     1      -6.995   9.393  71.391  1.00  0.00    -0.317 NA 
HETATM    2  H1  UNL     1      -6.014   9.226  71.616  1.00  0.00     0.000 HD 
HETATM    3  C   UNL     1      -8.005   8.505  71.844  1.00  0.00    -0.120 A  
HETATM    4  H2  UNL     1      -7.236  10.334  71.701  1.00  0.00     0.000 HD 
HETATM    5  C   UNL     1      -9.339   8.732  71.539  1.00  0.00    -0.337 A  
HETATM    6  C   UNL     1     -10.307   7.865  72.023  1.00  0.00    -0.225 A  
HETATM    7  N   UNL     1      -9.971   6.775  72.747  1.00  0.00    -0.169 NA 
HETATM    8  O   UNL     1      -6.411   7.157  72.868  1.00  0.00    -0.062 OA 
HETATM    9  C   UNL     1      -8.669   6.528  73.041  1.00  0.00    -0.125 A  
HETATM   10  H2  UNL     1      -8.745   4.576  73.351  1.00  0.00     0.000 HD 
HETATM   11  N   UNL     1      -7.654   7.381  72.595  1.00  0.00    -0.082 NA 
HETATM   12  N   UNL     1      -8.349   5.400  73.802  1.00  0.00    -0.111 NA 
HETATM   13  H1  UNL     1      -7.370   5.214  74.023  1.00  0.00     0.000 HD 
ENDROOT
BRANCH   6  14
HETATM   14  N   UNL     1     -11.644   8.207  71.874  1.00  0.00    -0.286 NA 
HETATM   15  C   UNL     1     -12.509   7.214  71.236  1.00  0.00    -0.386 C  
HETATM   16  C   UNL     1     -14.393   8.877  71.524  1.00  0.00    -0.267 C  
HETATM   17  C   UNL     1     -13.926   7.442  71.769  1.00  0.00    -0.469 C  
HETATM   18  C   UNL     1     -13.368   9.901  72.022  1.00  0.00    -0.532 C  
HETATM   19  C   UNL     1     -11.957   9.591  71.516  1.00  0.00    -0.399 C  
ENDBRANCH   6  14
TORSDOF 1
ENDMDL
MODEL      123
REMARK 921   NORMALIZED FREE ENERGY PREDICTED BY IDOCK:   -3.63 KCAL/MOL
REMARK 922        TOTAL FREE ENERGY PREDICTED BY IDOCK:   -4.11 KCAL/MOL
REMARK 923 INTER-LIGAND FREE ENERGY PREDICTED BY IDOCK:   -3.84 KCAL/MOL
REMARK 924 INTRA-LIGAND FREE ENERGY PREDICTED BY IDOCK:   -0.27 KCAL/MOL
REMARK 927      BINDING AFFINITY PREDICTED BY RF-SCORE:    0.00 PKD
ROOT
HETATM    1  N   UNL     1     -12.715  14.631  70.047  1.00  0.00    -0.559 NA 
HETATM    2  H1  UNL     1     -12.899  15.587  70.348  1.00  0.00     0.000 HD 
HETATM    3  C   UNL     1     -11.681  14.348  69.118  1.00  0.00    -0.317 A  
HETATM    4  H2  UNL     1     -12.561  14.060  70.878  1.00  0.00     0.000 HD 
HETATM    5  C   UNL     1     -11.430  13.047  68.708  1.00  0.00    -0.340 A  
HETATM    6  C   UNL     1     -10.391  12.798  67.824  1.00  0.00    -0.221 A  
HETATM    7  N   UNL     1      -9.648  13.805  67.315  1.00  0.00    -0.230 NA 
HETATM    8  O   UNL     1     -11.153  16.607  68.964  1.00  0.00    -0.301 OA 
HETATM    9  C   UNL     1      -9.890  15.087  67.693  1.00  0.00    -0.220 A  
HETATM   10  H2  UNL     1      -9.131  16.056  66.144  1.00  0.00     0.000 HD 
HETATM   11  N   UNL     1     -10.913  15.392  68.598  1.00  0.00    -0.259 NA 
HETATM   12  N   UNL     1      -9.099  16.110  67.162  1.00  0.00    -0.199 NA 
HETATM   13  H1  UNL     1      -9.281  17.073  67.445  1.00  0.00     0.000 HD 
ENDROOT
BRANCH   6  14
HETATM   14  N   UNL     1     -10.030  11.482  67.572  1.00  0.00    -0.188 NA 
HETATM   15  C   UNL     1      -8.861  11.272  66.717  1.00  0.00    -0.170 C  
HETATM   16  C   UNL     1      -9.267   8.792  67.010  1.00  0.00    -0.177 C  
HETATM   17  C   UNL     1      -8.247   9.927  67.114  1.00  0.00    -0.121 C  
HETATM   18  C   UNL     1     -10.567   9.127  67.749  1.00  0.00    -0.289 C  
HETATM   19  C   UNL     1     -11.103  10.508  67.367  1.00  0.00    -0.252 C  
ENDBRANCH   6  14
TORSDOF 1
ENDMDL
MODEL      124
REMARK 921   NORMALIZED FREE ENERGY PREDICTED BY IDOCK:   -3.61 KCAL/MOL
REMARK 922        TOTAL FREE ENERGY PREDICTED BY IDOCK:   -4.10 KCAL/MOL
REMARK 923 INTER-LIGAND FREE ENERGY PREDICTED BY IDOCK:   -3.82 KCAL/MOL
REMARK 924 INTRA-LIGAND FREE ENERGY PREDICTED BY IDOCK:   -0.27 KCAL/MOL
REMARK 927      BINDING AFFINITY PREDICTED BY RF-SCORE:    0.00 PKD
ROOT
HETATM    1  N   UNL     1      -7.312  12.817  69.010  1.00  0.00    -0.294 NA 
HETATM    2  H1  UNL     1      -6.708  12.400  69.719  1.00  0.00     0.000 HD 
HETATM    3  C   UNL     1      -7.924  12.014  68.013  1.00  0.00    -0.149 A  
HETATM    4  H2  UNL     1      -8.043  13.345  69.486  1.00  0.00     0.000 HD 
HETATM    5  C   UNL     1      -8.745  12.581  67.050  1.00  0.00    -0.205 A  
HETATM    6  C   UNL     1      -9.355  11.765  66.108  1.00  0.00    -0.225 A  
HETATM    7  N   UNL     1      -9.126  10.434  66.081  1.00  0.00    -0.156 NA 
HETATM    8  O   UNL     1      -6.910  10.107  68.877  1.00  0.00    -0.052 OA 
HETATM    9  C   UNL     1      -8.312   9.865  67.007  1.00  0.00    -0.121 A  
HETATM   10  H2  UNL     1      -7.769   8.230  66.035  1.00  0.00     0.000 HD 
HETATM   11  N   UNL     1      -7.687  10.638  67.992  1.00  0.00    -0.098 NA 
HETATM   12  N   UNL     1      -8.101   8.483  66.965  1.00  0.00    -0.103 NA 
HETATM   13  H1  UNL     1      -7.489   8.055  67.660  1.00  0.00     0.000 HD 
ENDROOT
BRANCH   6  14
HETATM   14  N   UNL     1     -10.318  12.315  65.274  1.00  0.00    -0.275 NA 
HETATM   15  C   UNL     1     -10.748  11.499  64.138  1.00  0.00    -0.368 C  
HETATM   16  C   UNL     1     -12.280  13.416  63.521  1.00  0.00    -0.468 C  
HETATM   17  C   UNL     1     -12.182  11.915  63.800  1.00  0.00    -0.549 C  
HETATM   18  C   UNL     1     -11.637  14.244  64.638  1.00  0.00    -0.415 C  
HETATM   19  C   UNL     1     -10.232  13.747  64.983  1.00  0.00    -0.346 C  
ENDBRANCH   6  14
TORSDOF 1
ENDMDL
MODEL      125
REMARK 921   NORMALIZED FREE ENERGY PREDICTED BY IDOCK:   -3.61 KCAL/MOL
REMARK 922        TOTAL FREE ENERGY PREDICTED BY IDOCK:   -4.09 KCAL/MOL
REMARK 923 INTER-LIGAND FREE ENERGY PREDICTED BY IDOCK:   -3.83 KCAL/MOL
REMARK 924 INTRA-LIGAND FREE ENERGY PREDICTED BY IDOCK:   -0.26 KCAL/MOL
REMARK 927      BINDING AFFINITY PREDICTED BY RF-SCORE:    0.00 PKD
ROOT
HETATM    1  N   UNL     1     -11.427  11.427  69.802  1.00  0.00    -0.353 NA 
HETATM    2  H1  UNL     1     -11.476  12.237  69.184  1.00  0.00     0.000 HD 
HETATM    3  C   UNL     1     -11.032  10.158  69.305  1.00  0.00    -0.240 A  
HETATM    4  H2  UNL     1     -10.822  11.663  70.588  1.00  0.00     0.000 HD 
HETATM    5  C   UNL     1     -10.966   9.056  70.144  1.00  0.00    -0.256 A  
HETATM    6  C   UNL     1     -10.546   7.836  69.636  1.00  0.00    -0.242 A  
HETATM    7  N   UNL     1     -10.246   7.688  68.327  1.00  0.00    -0.190 NA 
HETATM    8  O   UNL     1     -10.795  11.031  67.162  1.00  0.00    -0.253 OA 
HETATM    9  C   UNL     1     -10.321   8.753  67.488  1.00  0.00    -0.268 A  
HETATM   10  H2  UNL     1     -10.559   7.818  65.760  1.00  0.00     0.000 HD 
HETATM   11  N   UNL     1     -10.720  10.011  67.951  1.00  0.00    -0.255 NA 
HETATM   12  N   UNL     1      -9.993   8.577  66.140  1.00  0.00    -0.468 NA 
HETATM   13  H1  UNL     1     -10.050   9.376  65.509  1.00  0.00     0.000 HD 
ENDROOT
BRANCH   6  14
HETATM   14  N   UNL     1     -10.301   6.794  70.520  1.00  0.00    -0.199 NA 
HETATM   15  C   UNL     1      -9.310   5.799  70.107  1.00  0.00    -0.155 C  
HETATM   16  C   UNL     1      -9.785   4.623  72.296  1.00  0.00    -0.213 C  
HETATM   17  C   UNL     1      -8.706   5.207  71.383  1.00  0.00    -0.137 C  
HETATM   18  C   UNL     1     -10.918   5.623  72.548  1.00  0.00    -0.313 C  
HETATM   19  C   UNL     1     -11.442   6.235  71.247  1.00  0.00    -0.291 C  
ENDBRANCH   6  14
TORSDOF 1
ENDMDL
MODEL      126
REMARK 921   NORMALIZED FREE ENERGY PREDICTED BY IDOCK:   -3.61 KCAL/MOL
REMARK 922        TOTAL FREE ENERGY PREDICTED BY IDOCK:   -4.09 KCAL/MOL
REMARK 923 INTER-LIGAND FREE ENERGY PREDICTED BY IDOCK:   -3.82 KCAL/MOL
REMARK 924 INTRA-LIGAND FREE ENERGY PREDICTED BY IDOCK:   -0.27 KCAL/MOL
REMARK 927      BINDING AFFINITY PREDICTED BY RF-SCORE:    0.00 PKD
ROOT
HETATM    1  N   UNL     1     -10.714  16.656  64.861  1.00  0.00    -0.717 NA 
HETATM    2  H1  UNL     1     -11.346  17.329  64.428  1.00  0.00     0.000 HD 
HETATM    3  C   UNL     1      -9.929  17.017  65.986  1.00  0.00    -0.269 A  
HETATM    4  H2  UNL     1     -11.253  15.825  65.104  1.00  0.00     0.000 HD 
HETATM    5  C   UNL     1      -9.069  16.102  66.575  1.00  0.00    -0.311 A  
HETATM    6  C   UNL     1      -8.338  16.475  67.693  1.00  0.00    -0.165 A  
HETATM    7  N   UNL     1      -8.410  17.729  68.191  1.00  0.00    -0.256 NA 
HETATM    8  O   UNL     1     -10.795  19.175  65.943  1.00  0.00    -0.394 OA 
HETATM    9  C   UNL     1      -9.233  18.643  67.616  1.00  0.00    -0.281 A  
HETATM   10  H2  UNL     1      -8.356  20.318  68.199  1.00  0.00     0.000 HD 
HETATM   11  N   UNL     1     -10.008  18.314  66.498  1.00  0.00    -0.354 NA 
HETATM   12  N   UNL     1      -9.299  19.930  68.157  1.00  0.00    -0.333 NA 
HETATM   13  H1  UNL     1      -9.917  20.617  67.726  1.00  0.00     0.000 HD 
ENDROOT
BRANCH   6  14
HETATM   14  N   UNL     1      -7.633  15.499  68.385  1.00  0.00    -0.114 NA 
HETATM   15  C   UNL     1      -6.693  15.966  69.405  1.00  0.00    -0.189 C  
HETATM   16  C   UNL     1      -6.144  13.530  69.813  1.00  0.00    -0.127 C  
HETATM   17  C   UNL     1      -6.572  14.853  70.450  1.00  0.00    -0.026 C  
HETATM   18  C   UNL     1      -7.025  13.166  68.613  1.00  0.00    -0.102 C  
HETATM   19  C   UNL     1      -7.168  14.333  67.633  1.00  0.00    -0.183 C  
ENDBRANCH   6  14
TORSDOF 1
ENDMDL
MODEL      127
REMARK 921   NORMALIZED FREE ENERGY PREDICTED BY IDOCK:   -3.60 KCAL/MOL
REMARK 922        TOTAL FREE ENERGY PREDICTED BY IDOCK:   -4.08 KCAL/MOL
REMARK 923 INTER-LIGAND FREE ENERGY PREDICTED BY IDOCK:   -3.84 KCAL/MOL
REMARK 924 INTRA-LIGAND FREE ENERGY PREDICTED BY IDOCK:   -0.24 KCAL/MOL
REMARK 927      BINDING AFFINITY PREDICTED BY RF-SCORE:    0.00 PKD
ROOT
HETATM    1  N   UNL     1      -6.999   6.428  69.192  1.00  0.00    -0.065 NA 
HETATM    2  H1  UNL     1      -6.525   5.615  68.800  1.00  0.00     0.000 HD 
HETATM    3  C   UNL     1      -8.292   6.802  68.741  1.00  0.00    -0.121 A  
HETATM    4  H2  UNL     1      -7.036   6.316  70.206  1.00  0.00     0.000 HD 
HETATM    5  C   UNL     1      -8.937   7.908  69.275  1.00  0.00    -0.145 A  
HETATM    6  C   UNL     1     -10.213   8.230  68.837  1.00  0.00    -0.210 A  
HETATM    7  N   UNL     1     -10.821   7.516  67.864  1.00  0.00    -0.117 NA 
HETATM    8  O   UNL     1      -8.313   5.038  67.226  1.00  0.00    -0.107 OA 
HETATM    9  C   UNL     1     -10.196   6.440  67.319  1.00  0.00    -0.187 A  
HETATM   10  H2  UNL     1     -11.123   6.347  65.574  1.00  0.00     0.000 HD 
HETATM   11  N   UNL     1      -8.917   6.059  67.738  1.00  0.00    -0.113 NA 
HETATM   12  N   UNL     1     -10.851   5.710  66.323  1.00  0.00    -0.695 NA 
HETATM   13  H1  UNL     1     -10.383   4.902  65.912  1.00  0.00     0.000 HD 
ENDROOT
BRANCH   6  14
HETATM   14  N   UNL     1     -10.920   9.216  69.510  1.00  0.00    -0.177 NA 
HETATM   15  C   UNL     1     -10.837  10.573  68.966  1.00  0.00    -0.232 C  
HETATM   16  C   UNL     1     -12.338  11.279  70.876  1.00  0.00    -0.490 C  
HETATM   17  C   UNL     1     -12.127  11.297  69.361  1.00  0.00    -0.384 C  
HETATM   18  C   UNL     1     -12.217   9.864  71.450  1.00  0.00    -0.499 C  
HETATM   19  C   UNL     1     -10.945   9.159  70.972  1.00  0.00    -0.305 C  
ENDBRANCH   6  14
TORSDOF 1
ENDMDL
MODEL      128
REMARK 921   NORMALIZED FREE ENERGY PREDICTED BY IDOCK:   -3.56 KCAL/MOL
REMARK 922        TOTAL FREE ENERGY PREDICTED BY IDOCK:   -4.05 KCAL/MOL
REMARK 923 INTER-LIGAND FREE ENERGY PREDICTED BY IDOCK:   -3.81 KCAL/MOL
REMARK 924 INTRA-LIGAND FREE ENERGY PREDICTED BY IDOCK:   -0.24 KCAL/MOL
REMARK 927      BINDING AFFINITY PREDICTED BY RF-SCORE:    0.00 PKD
ROOT
HETATM    1  N   UNL     1      -8.399   9.733  67.176  1.00  0.00    -0.121 NA 
HETATM    2  H1  UNL     1      -8.234   9.005  66.480  1.00  0.00     0.000 HD 
HETATM    3  C   UNL     1      -9.355  10.756  66.945  1.00  0.00    -0.160 A  
HETATM    4  H2  UNL     1      -8.624   9.280  68.061  1.00  0.00     0.000 HD 
HETATM    5  C   UNL     1      -9.578  11.745  67.892  1.00  0.00    -0.187 A  
HETATM    6  C   UNL     1     -10.542  12.713  67.652  1.00  0.00    -0.218 A  
HETATM    7  N   UNL     1     -11.234  12.740  66.492  1.00  0.00    -0.293 NA 
HETATM    8  O   UNL     1      -9.854   9.868  64.855  1.00  0.00    -0.315 OA 
HETATM    9  C   UNL     1     -11.016  11.789  65.548  1.00  0.00    -0.290 A  
HETATM   10  H2  UNL     1     -11.638  12.751  63.934  1.00  0.00     0.000 HD 
HETATM   11  N   UNL     1     -10.070  10.777  65.746  1.00  0.00    -0.250 NA 
HETATM   12  N   UNL     1     -11.754  11.832  64.361  1.00  0.00    -0.264 NA 
HETATM   13  H1  UNL     1     -11.591  11.118  63.651  1.00  0.00     0.000 HD 
ENDROOT
BRANCH   6  14
HETATM   14  N   UNL     1     -10.888  13.578  68.680  1.00  0.00    -0.254 NA 
HETATM   15  C   UNL     1      -9.834  14.461  69.181  1.00  0.00    -0.031 C  
HETATM   16  C   UNL     1     -11.550  15.355  70.810  1.00  0.00    -0.381 C  
HETATM   17  C   UNL     1     -10.520  15.712  69.738  1.00  0.00    -0.312 C  
HETATM   18  C   UNL     1     -12.523  14.274  70.327  1.00  0.00    -0.422 C  
HETATM   19  C   UNL     1     -11.790  13.076  69.718  1.00  0.00    -0.311 C  
ENDBRANCH   6  14
TORSDOF 1
ENDMDL
MODEL      129
REMARK 921   NORMALIZED FREE ENERGY PREDICTED BY IDOCK:   -3.54 KCAL/MOL
REMARK 922        TOTAL FREE ENERGY PREDICTED BY IDOCK:   -4.02 KCAL/MOL
REMARK 923 INTER-LIGAND FREE ENERGY PREDICTED BY IDOCK:   -3.75 KCAL/MOL
REMARK 924 INTRA-LIGAND FREE ENERGY PREDICTED BY IDOCK:   -0.27 KCAL/MOL
REMARK 927      BINDING AFFINITY PREDICTED BY RF-SCORE:    0.00 PKD
ROOT
HETATM    1  N   UNL     1     -12.305   8.936  71.703  1.00  0.00    -0.324 NA 
HETATM    2  H1  UNL     1     -12.297   7.926  71.845  1.00  0.00     0.000 HD 
HETATM    3  C   UNL     1     -11.665   9.515  70.577  1.00  0.00    -0.222 A  
HETATM    4  H2  UNL     1     -13.275   9.251  71.715  1.00  0.00     0.000 HD 
HETATM    5  C   UNL     1     -11.675  10.889  70.384  1.00  0.00    -0.444 A  
HETATM    6  C   UNL     1     -11.069  11.423  69.256  1.00  0.00    -0.254 A  
HETATM    7  N   UNL     1     -10.426  10.636  68.367  1.00  0.00    -0.177 NA 
HETATM    8  O   UNL     1     -10.978   7.419  69.843  1.00  0.00    -0.250 OA 
HETATM    9  C   UNL     1     -10.391   9.291  68.550  1.00  0.00    -0.209 A  
HETATM   10  H2  UNL     1      -8.775   8.838  67.503  1.00  0.00     0.000 HD 
HETATM   11  N   UNL     1     -11.004   8.697  69.659  1.00  0.00    -0.153 NA 
HETATM   12  N   UNL     1      -9.730   8.496  67.608  1.00  0.00    -0.153 NA 
HETATM   13  H1  UNL     1      -9.703   7.486  67.745  1.00  0.00     0.000 HD 
ENDROOT
BRANCH   6  14
HETATM   14  N   UNL     1     -11.251  12.771  68.977  1.00  0.00    -0.264 NA 
HETATM   15  C   UNL     1     -10.202  13.428  68.196  1.00  0.00    -0.246 C  
HETATM   16  C   UNL     1     -11.572  15.545  68.400  1.00  0.00    -0.368 C  
HETATM   17  C   UNL     1     -10.860  14.588  67.443  1.00  0.00    -0.291 C  
HETATM   18  C   UNL     1     -12.518  14.801  69.348  1.00  0.00    -0.088 C  
HETATM   19  C   UNL     1     -11.832  13.611  70.024  1.00  0.00    -0.308 C  
ENDBRANCH   6  14
TORSDOF 1
ENDMDL
MODEL      130
REMARK 921   NORMALIZED FREE ENERGY PREDICTED BY IDOCK:   -3.51 KCAL/MOL
REMARK 922        TOTAL FREE ENERGY PREDICTED BY IDOCK:   -3.99 KCAL/MOL
REMARK 923 INTER-LIGAND FREE ENERGY PREDICTED BY IDOCK:   -3.75 KCAL/MOL
REMARK 924 INTRA-LIGAND FREE ENERGY PREDICTED BY IDOCK:   -0.24 KCAL/MOL
REMARK 927      BINDING AFFINITY PREDICTED BY RF-SCORE:    0.00 PKD
ROOT
HETATM    1  N   UNL     1      -7.610  12.948  66.961  1.00  0.00    -0.389 NA 
HETATM    2  H1  UNL     1      -7.496  13.949  66.806  1.00  0.00     0.000 HD 
HETATM    3  C   UNL     1      -8.803  12.432  67.529  1.00  0.00    -0.181 A  
HETATM    4  H2  UNL     1      -7.446  12.468  66.075  1.00  0.00     0.000 HD 
HETATM    5  C   UNL     1      -8.958  11.069  67.740  1.00  0.00    -0.140 A  
HETATM    6  C   UNL     1     -10.149  10.592  68.267  1.00  0.00    -0.157 A  
HETATM    7  N   UNL     1     -11.143  11.433  68.626  1.00  0.00    -0.216 NA 
HETATM    8  O   UNL     1      -9.683  14.576  67.717  1.00  0.00    -0.211 OA 
HETATM    9  C   UNL     1     -11.001  12.771  68.443  1.00  0.00    -0.254 A  
HETATM   10  H2  UNL     1     -12.287  13.446  69.787  1.00  0.00     0.000 HD 
HETATM   11  N   UNL     1      -9.829  13.305  67.896  1.00  0.00    -0.227 NA 
HETATM   12  N   UNL     1     -12.050  13.620  68.810  1.00  0.00    -0.348 NA 
HETATM   13  H1  UNL     1     -11.944  14.625  68.673  1.00  0.00     0.000 HD 
ENDROOT
BRANCH   6  14
HETATM   14  N   UNL     1     -10.364   9.221  68.294  1.00  0.00    -0.209 NA 
HETATM   15  C   UNL     1     -10.044   8.529  69.543  1.00  0.00    -0.200 C  
HETATM   16  C   UNL     1     -10.769   6.400  68.385  1.00  0.00    -0.349 C  
HETATM   17  C   UNL     1     -10.942   7.291  69.616  1.00  0.00    -0.204 C  
HETATM   18  C   UNL     1     -10.908   7.196  67.083  1.00  0.00    -0.403 C  
HETATM   19  C   UNL     1     -10.042   8.457  67.088  1.00  0.00    -0.265 C  
ENDBRANCH   6  14
TORSDOF 1
ENDMDL
MODEL      131
REMARK 921   NORMALIZED FREE ENERGY PREDICTED BY IDOCK:   -3.51 KCAL/MOL
REMARK 922        TOTAL FREE ENERGY PREDICTED BY IDOCK:   -3.99 KCAL/MOL
REMARK 923 INTER-LIGAND FREE ENERGY PREDICTED BY IDOCK:   -3.72 KCAL/MOL
REMARK 924 INTRA-LIGAND FREE ENERGY PREDICTED BY IDOCK:   -0.26 KCAL/MOL
REMARK 927      BINDING AFFINITY PREDICTED BY RF-SCORE:    0.00 PKD
ROOT
HETATM    1  N   UNL     1      -8.507   8.946  72.320  1.00  0.00    -0.371 NA 
HETATM    2  H1  UNL     1      -8.587   8.288  73.094  1.00  0.00     0.000 HD 
HETATM    3  C   UNL     1      -9.273   8.775  71.138  1.00  0.00    -0.237 A  
HETATM    4  H2  UNL     1      -8.684   9.884  72.680  1.00  0.00     0.000 HD 
HETATM    5  C   UNL     1      -9.164   9.671  70.085  1.00  0.00    -0.287 A  
HETATM    6  C   UNL     1      -9.949   9.495  68.956  1.00  0.00    -0.180 A  
HETATM    7  N   UNL     1     -10.784   8.439  68.841  1.00  0.00    -0.131 NA 
HETATM    8  O   UNL     1     -10.230   6.837  71.997  1.00  0.00    -0.191 OA 
HETATM    9  C   UNL     1     -10.891   7.543  69.855  1.00  0.00    -0.240 A  
HETATM   10  H2  UNL     1     -11.546   5.964  68.859  1.00  0.00     0.000 HD 
HETATM   11  N   UNL     1     -10.137   7.684  71.026  1.00  0.00    -0.190 NA 
HETATM   12  N   UNL     1     -11.772   6.466  69.717  1.00  0.00    -0.580 NA 
HETATM   13  H1  UNL     1     -11.852   5.792  70.479  1.00  0.00     0.000 HD 
ENDROOT
BRANCH   6  14
HETATM   14  N   UNL     1      -9.972  10.497  67.996  1.00  0.00    -0.153 NA 
HETATM   15  C   UNL     1      -9.706  10.092  66.615  1.00  0.00    -0.192 C  
HETATM   16  C   UNL     1      -9.985  12.529  65.995  1.00  0.00    -0.269 C  
HETATM   17  C   UNL     1     -10.424  11.093  65.705  1.00  0.00    -0.305 C  
HETATM   18  C   UNL     1     -10.082  12.863  67.488  1.00  0.00    -0.214 C  
HETATM   19  C   UNL     1      -9.407  11.799  68.357  1.00  0.00    -0.185 C  
ENDBRANCH   6  14
TORSDOF 1
ENDMDL
MODEL      132
REMARK 921   NORMALIZED FREE ENERGY PREDICTED BY IDOCK:   -3.48 KCAL/MOL
REMARK 922        TOTAL FREE ENERGY PREDICTED BY IDOCK:   -3.95 KCAL/MOL
REMARK 923 INTER-LIGAND FREE ENERGY PREDICTED BY IDOCK:   -3.70 KCAL/MOL
REMARK 924 INTRA-LIGAND FREE ENERGY PREDICTED BY IDOCK:   -0.26 KCAL/MOL
REMARK 927      BINDING AFFINITY PREDICTED BY RF-SCORE:    0.00 PKD
ROOT
HETATM    1  N   UNL     1      -8.126   5.962  71.922  1.00  0.00    -0.111 NA 
HETATM    2  H1  UNL     1      -8.149   5.433  72.793  1.00  0.00     0.000 HD 
HETATM    3  C   UNL     1      -9.312   6.520  71.379  1.00  0.00    -0.151 A  
HETATM    4  H2  UNL     1      -7.440   6.710  72.023  1.00  0.00     0.000 HD 
HETATM    5  C   UNL     1      -9.280   7.241  70.194  1.00  0.00    -0.152 A  
HETATM    6  C   UNL     1     -10.451   7.802  69.706  1.00  0.00    -0.233 A  
HETATM    7  N   UNL     1     -11.632   7.619  70.337  1.00  0.00    -0.182 NA 
HETATM    8  O   UNL     1     -10.567   5.648  73.132  1.00  0.00    -0.214 OA 
HETATM    9  C   UNL     1     -11.684   6.903  71.489  1.00  0.00    -0.311 A  
HETATM   10  H2  UNL     1     -13.581   6.342  71.466  1.00  0.00     0.000 HD 
HETATM   11  N   UNL     1     -10.530   6.331  72.037  1.00  0.00    -0.203 NA 
HETATM   12  N   UNL     1     -12.916   6.739  72.129  1.00  0.00    -0.555 NA 
HETATM   13  H1  UNL     1     -12.956   6.200  72.995  1.00  0.00     0.000 HD 
ENDROOT
BRANCH   6  14
HETATM   14  N   UNL     1     -10.373   8.675  68.630  1.00  0.00    -0.198 NA 
HETATM   15  C   UNL     1      -9.338   8.401  67.633  1.00  0.00    -0.137 C  
HETATM   16  C   UNL     1     -10.162  10.459  66.415  1.00  0.00    -0.292 C  
HETATM   17  C   UNL     1      -9.832   8.970  66.301  1.00  0.00    -0.361 C  
HETATM   18  C   UNL     1     -11.092  10.745  67.599  1.00  0.00    -0.384 C  
HETATM   19  C   UNL     1     -10.589  10.099  68.892  1.00  0.00    -0.215 C  
ENDBRANCH   6  14
TORSDOF 1
ENDMDL
MODEL      133
REMARK 921   NORMALIZED FREE ENERGY PREDICTED BY IDOCK:   -3.47 KCAL/MOL
REMARK 922        TOTAL FREE ENERGY PREDICTED BY IDOCK:   -3.95 KCAL/MOL
REMARK 923 INTER-LIGAND FREE ENERGY PREDICTED BY IDOCK:   -3.68 KCAL/MOL
REMARK 924 INTRA-LIGAND FREE ENERGY PREDICTED BY IDOCK:   -0.26 KCAL/MOL
REMARK 927      BINDING AFFINITY PREDICTED BY RF-SCORE:    0.00 PKD
ROOT
HETATM    1  N   UNL     1      -7.164   6.080  67.519  1.00  0.00    -0.074 NA 
HETATM    2  H1  UNL     1      -6.947   5.300  68.139  1.00  0.00     0.000 HD 
HETATM    3  C   UNL     1      -8.431   6.715  67.567  1.00  0.00    -0.121 A  
HETATM    4  H2  UNL     1      -6.445   6.793  67.643  1.00  0.00     0.000 HD 
HETATM    5  C   UNL     1      -8.726   7.776  66.723  1.00  0.00    -0.143 A  
HETATM    6  C   UNL     1      -9.962   8.398  66.816  1.00  0.00    -0.284 A  
HETATM    7  N   UNL     1     -10.904   7.959  67.678  1.00  0.00    -0.124 NA 
HETATM    8  O   UNL     1      -9.138   5.261  69.239  1.00  0.00    -0.105 OA 
HETATM    9  C   UNL     1     -10.639   6.911  68.499  1.00  0.00    -0.212 A  
HETATM   10  H2  UNL     1     -12.478   6.283  68.868  1.00  0.00     0.000 HD 
HETATM   11  N   UNL     1      -9.401   6.260  68.462  1.00  0.00    -0.122 NA 
HETATM   12  N   UNL     1     -11.627   6.483  69.392  1.00  0.00    -0.653 NA 
HETATM   13  H1  UNL     1     -11.428   5.695  70.009  1.00  0.00     0.000 HD 
ENDROOT
BRANCH   6  14
HETATM   14  N   UNL     1     -10.173   9.572  66.106  1.00  0.00    -0.247 NA 
HETATM   15  C   UNL     1      -9.334   9.786  64.925  1.00  0.00    -0.265 C  
HETATM   16  C   UNL     1     -10.555  11.982  64.630  1.00  0.00    -0.351 C  
HETATM   17  C   UNL     1     -10.128  10.674  63.963  1.00  0.00    -0.378 C  
HETATM   18  C   UNL     1     -11.254  11.734  65.971  1.00  0.00    -0.352 C  
HETATM   19  C   UNL     1     -10.453  10.789  66.868  1.00  0.00    -0.252 C  
ENDBRANCH   6  14
TORSDOF 1
ENDMDL
MODEL      134
REMARK 921   NORMALIZED FREE ENERGY PREDICTED BY IDOCK:   -3.46 KCAL/MOL
REMARK 922        TOTAL FREE ENERGY PREDICTED BY IDOCK:   -3.94 KCAL/MOL
REMARK 923 INTER-LIGAND FREE ENERGY PREDICTED BY IDOCK:   -3.69 KCAL/MOL
REMARK 924 INTRA-LIGAND FREE ENERGY PREDICTED BY IDOCK:   -0.25 KCAL/MOL
REMARK 927      BINDING AFFINITY PREDICTED BY RF-SCORE:    0.00 PKD
ROOT
HETATM    1  N   UNL     1      -9.287   7.589  71.275  1.00  0.00    -0.150 NA 
HETATM    2  H1  UNL     1      -9.311   6.611  71.561  1.00  0.00     0.000 HD 
HETATM    3  C   UNL     1      -9.771   7.987  70.002  1.00  0.00    -0.173 A  
HETATM    4  H2  UNL     1      -9.770   8.139  71.986  1.00  0.00     0.000 HD 
HETATM    5  C   UNL     1      -9.739   9.318  69.615  1.00  0.00    -0.192 A  
HETATM    6  C   UNL     1     -10.250   9.680  68.377  1.00  0.00    -0.188 A  
HETATM    7  N   UNL     1     -10.734   8.754  67.521  1.00  0.00    -0.215 NA 
HETATM    8  O   UNL     1     -10.291   5.783  69.472  1.00  0.00    -0.212 OA 
HETATM    9  C   UNL     1     -10.757   7.444  67.877  1.00  0.00    -0.149 A  
HETATM   10  H2  UNL     1     -10.781   6.597  66.090  1.00  0.00     0.000 HD 
HETATM   11  N   UNL     1     -10.273   7.026  69.122  1.00  0.00    -0.181 NA 
HETATM   12  N   UNL     1     -11.274   6.507  66.978  1.00  0.00    -0.738 NA 
HETATM   13  H1  UNL     1     -11.292   5.523  67.245  1.00  0.00     0.000 HD 
ENDROOT
BRANCH   6  14
HETATM   14  N   UNL     1     -10.387  11.030  68.081  1.00  0.00    -0.176 NA 
HETATM   15  C   UNL     1     -11.674  11.647  68.406  1.00  0.00    -0.307 C  
HETATM   16  C   UNL     1     -10.721  13.794  67.468  1.00  0.00    -0.262 C  
HETATM   17  C   UNL     1     -11.410  13.133  68.663  1.00  0.00    -0.327 C  
HETATM   18  C   UNL     1      -9.484  13.010  67.019  1.00  0.00    -0.237 C  
HETATM   19  C   UNL     1      -9.785  11.520  66.841  1.00  0.00    -0.186 C  
ENDBRANCH   6  14
TORSDOF 1
ENDMDL
MODEL      135
REMARK 921   NORMALIZED FREE ENERGY PREDICTED BY IDOCK:   -3.46 KCAL/MOL
REMARK 922        TOTAL FREE ENERGY PREDICTED BY IDOCK:   -3.94 KCAL/MOL
REMARK 923 INTER-LIGAND FREE ENERGY PREDICTED BY IDOCK:   -3.69 KCAL/MOL
REMARK 924 INTRA-LIGAND FREE ENERGY PREDICTED BY IDOCK:   -0.25 KCAL/MOL
REMARK 927      BINDING AFFINITY PREDICTED BY RF-SCORE:    0.00 PKD
ROOT
HETATM    1  N   UNL     1     -11.159   9.409  71.563  1.00  0.00    -0.376 NA 
HETATM    2  H1  UNL     1     -11.471  10.240  72.067  1.00  0.00     0.000 HD 
HETATM    3  C   UNL     1     -11.071   9.408  70.147  1.00  0.00    -0.242 A  
HETATM    4  H2  UNL     1     -10.252   9.133  71.938  1.00  0.00     0.000 HD 
HETATM    5  C   UNL     1     -10.647   8.279  69.463  1.00  0.00    -0.216 A  
HETATM    6  C   UNL     1     -10.541   8.319  68.081  1.00  0.00    -0.111 A  
HETATM    7  N   UNL     1     -10.890   9.422  67.383  1.00  0.00    -0.208 NA 
HETATM    8  O   UNL     1     -11.841  11.601  70.062  1.00  0.00    -0.320 OA 
HETATM    9  C   UNL     1     -11.323  10.531  68.036  1.00  0.00    -0.246 A  
HETATM   10  H2  UNL     1     -12.362  11.400  66.594  1.00  0.00     0.000 HD 
HETATM   11  N   UNL     1     -11.430  10.552  69.431  1.00  0.00    -0.260 NA 
HETATM   12  N   UNL     1     -11.666  11.664  67.291  1.00  0.00    -0.611 NA 
HETATM   13  H1  UNL     1     -11.992  12.497  67.781  1.00  0.00     0.000 HD 
ENDROOT
BRANCH   6  14
HETATM   14  N   UNL     1      -9.937   7.254  67.427  1.00  0.00    -0.158 NA 
HETATM   15  C   UNL     1      -8.682   7.537  66.729  1.00  0.00    -0.133 C  
HETATM   16  C   UNL     1      -8.673   5.099  66.051  1.00  0.00    -0.130 C  
HETATM   17  C   UNL     1      -7.878   6.234  66.699  1.00  0.00    -0.104 C  
HETATM   18  C   UNL     1     -10.068   4.958  66.669  1.00  0.00    -0.280 C  
HETATM   19  C   UNL     1     -10.803   6.298  66.736  1.00  0.00    -0.296 C  
ENDBRANCH   6  14
TORSDOF 1
ENDMDL
MODEL      136
REMARK 921   NORMALIZED FREE ENERGY PREDICTED BY IDOCK:   -3.44 KCAL/MOL
REMARK 922        TOTAL FREE ENERGY PREDICTED BY IDOCK:   -3.92 KCAL/MOL
REMARK 923 INTER-LIGAND FREE ENERGY PREDICTED BY IDOCK:   -3.65 KCAL/MOL
REMARK 924 INTRA-LIGAND FREE ENERGY PREDICTED BY IDOCK:   -0.27 KCAL/MOL
REMARK 927      BINDING AFFINITY PREDICTED BY RF-SCORE:    0.00 PKD
ROOT
HETATM    1  N   UNL     1     -12.401  11.754  70.544  1.00  0.00    -0.325 NA 
HETATM    2  H1  UNL     1     -12.813  12.641  70.833  1.00  0.00     0.000 HD 
HETATM    3  C   UNL     1     -11.756  11.629  69.287  1.00  0.00    -0.331 A  
HETATM    4  H2  UNL     1     -11.747  11.456  71.268  1.00  0.00     0.000 HD 
HETATM    5  C   UNL     1     -11.196  10.422  68.893  1.00  0.00    -0.290 A  
HETATM    6  C   UNL     1     -10.544  10.339  67.672  1.00  0.00    -0.263 A  
HETATM    7  N   UNL     1     -10.485  11.398  66.836  1.00  0.00    -0.230 NA 
HETATM    8  O   UNL     1     -12.229  13.849  68.781  1.00  0.00    -0.348 OA 
HETATM    9  C   UNL     1     -11.043  12.582  67.197  1.00  0.00    -0.276 A  
HETATM   10  H2  UNL     1     -11.338  13.388  65.415  1.00  0.00     0.000 HD 
HETATM   11  N   UNL     1     -11.695  12.727  68.427  1.00  0.00    -0.322 NA 
HETATM   12  N   UNL     1     -10.958  13.667  66.319  1.00  0.00    -0.298 NA 
HETATM   13  H1  UNL     1     -11.377  14.557  66.590  1.00  0.00     0.000 HD 
ENDROOT
BRANCH   6  14
HETATM   14  N   UNL     1      -9.826   9.188  67.377  1.00  0.00    -0.173 NA 
HETATM   15  C   UNL     1      -9.750   8.805  65.966  1.00  0.00    -0.206 C  
HETATM   16  C   UNL     1      -8.381   6.817  66.726  1.00  0.00    -0.115 C  
HETATM   17  C   UNL     1      -8.449   8.019  65.782  1.00  0.00    -0.159 C  
HETATM   18  C   UNL     1      -8.668   7.218  68.177  1.00  0.00    -0.128 C  
HETATM   19  C   UNL     1      -9.941   8.058  68.298  1.00  0.00    -0.185 C  
ENDBRANCH   6  14
TORSDOF 1
ENDMDL
MODEL      137
REMARK 921   NORMALIZED FREE ENERGY PREDICTED BY IDOCK:   -3.42 KCAL/MOL
REMARK 922        TOTAL FREE ENERGY PREDICTED BY IDOCK:   -3.89 KCAL/MOL
REMARK 923 INTER-LIGAND FREE ENERGY PREDICTED BY IDOCK:   -3.64 KCAL/MOL
REMARK 924 INTRA-LIGAND FREE ENERGY PREDICTED BY IDOCK:   -0.26 KCAL/MOL
REMARK 927      BINDING AFFINITY PREDICTED BY RF-SCORE:    0.00 PKD
ROOT
HETATM    1  N   UNL     1      -7.036   6.725  70.002  1.00  0.00    -0.061 NA 
HETATM    2  H1  UNL     1      -6.381   6.203  69.420  1.00  0.00     0.000 HD 
HETATM    3  C   UNL     1      -8.179   7.343  69.433  1.00  0.00    -0.131 A  
HETATM    4  H2  UNL     1      -7.347   6.114  70.757  1.00  0.00     0.000 HD 
HETATM    5  C   UNL     1      -9.070   8.053  70.225  1.00  0.00    -0.148 A  
HETATM    6  C   UNL     1     -10.196   8.619  69.646  1.00  0.00    -0.208 A  
HETATM    7  N   UNL     1     -10.417   8.534  68.316  1.00  0.00    -0.199 NA 
HETATM    8  O   UNL     1      -7.571   6.603  67.314  1.00  0.00    -0.096 OA 
HETATM    9  C   UNL     1      -9.547   7.857  67.523  1.00  0.00    -0.152 A  
HETATM   10  H2  UNL     1      -9.922   8.715  65.781  1.00  0.00     0.000 HD 
HETATM   11  N   UNL     1      -8.405   7.250  68.059  1.00  0.00    -0.123 NA 
HETATM   12  N   UNL     1      -9.805   7.772  66.152  1.00  0.00    -0.460 NA 
HETATM   13  H1  UNL     1      -9.152   7.264  65.556  1.00  0.00     0.000 HD 
ENDROOT
BRANCH   6  14
HETATM   14  N   UNL     1     -11.171   9.159  70.473  1.00  0.00    -0.258 NA 
HETATM   15  C   UNL     1     -12.072   8.212  71.133  1.00  0.00    -0.260 C  
HETATM   16  C   UNL     1     -13.206  10.225  72.162  1.00  0.00    -0.443 C  
HETATM   17  C   UNL     1     -12.547   8.871  72.430  1.00  0.00    -0.423 C  
HETATM   18  C   UNL     1     -12.322  11.125  71.293  1.00  0.00    -0.402 C  
HETATM   19  C   UNL     1     -11.819  10.399  70.044  1.00  0.00    -0.273 C  
ENDBRANCH   6  14
TORSDOF 1
ENDMDL
MODEL      138
REMARK 921   NORMALIZED FREE ENERGY PREDICTED BY IDOCK:   -3.40 KCAL/MOL
REMARK 922        TOTAL FREE ENERGY PREDICTED BY IDOCK:   -3.88 KCAL/MOL
REMARK 923 INTER-LIGAND FREE ENERGY PREDICTED BY IDOCK:   -3.60 KCAL/MOL
REMARK 924 INTRA-LIGAND FREE ENERGY PREDICTED BY IDOCK:   -0.28 KCAL/MOL
REMARK 927      BINDING AFFINITY PREDICTED BY RF-SCORE:    0.00 PKD
ROOT
HETATM    1  N   UNL     1     -13.292   6.769  71.970  1.00  0.00    -0.514 NA 
HETATM    2  H1  UNL     1     -13.672   6.330  72.808  1.00  0.00     0.000 HD 
HETATM    3  C   UNL     1     -11.978   6.470  71.525  1.00  0.00    -0.329 A  
HETATM    4  H2  UNL     1     -13.936   6.593  71.199  1.00  0.00     0.000 HD 
HETATM    5  C   UNL     1     -11.461   7.067  70.385  1.00  0.00    -0.355 A  
HETATM    6  C   UNL     1     -10.186   6.730  69.958  1.00  0.00    -0.191 A  
HETATM    7  N   UNL     1      -9.417   5.867  70.658  1.00  0.00    -0.169 NA 
HETATM    8  O   UNL     1     -11.660   5.028  73.322  1.00  0.00    -0.322 OA 
HETATM    9  C   UNL     1      -9.901   5.286  71.786  1.00  0.00    -0.170 A  
HETATM   10  H2  UNL     1      -8.207   4.844  72.706  1.00  0.00     0.000 HD 
HETATM   11  N   UNL     1     -11.189   5.575  72.251  1.00  0.00    -0.246 NA 
HETATM   12  N   UNL     1      -9.091   4.387  72.485  1.00  0.00    -0.118 NA 
HETATM   13  H1  UNL     1      -9.454   3.950  73.333  1.00  0.00     0.000 HD 
ENDROOT
BRANCH   6  14
HETATM   14  N   UNL     1      -9.755   7.185  68.719  1.00  0.00    -0.144 NA 
HETATM   15  C   UNL     1     -10.783   7.367  67.692  1.00  0.00    -0.207 C  
HETATM   16  C   UNL     1      -8.913   8.096  66.151  1.00  0.00    -0.218 C  
HETATM   17  C   UNL     1     -10.279   8.454  66.738  1.00  0.00    -0.376 C  
HETATM   18  C   UNL     1      -7.909   7.710  67.242  1.00  0.00    -0.117 C  
HETATM   19  C   UNL     1      -8.484   6.671  68.208  1.00  0.00    -0.120 C  
ENDBRANCH   6  14
TORSDOF 1
ENDMDL
MODEL      139
REMARK 921   NORMALIZED FREE ENERGY PREDICTED BY IDOCK:   -3.40 KCAL/MOL
REMARK 922        TOTAL FREE ENERGY PREDICTED BY IDOCK:   -3.87 KCAL/MOL
REMARK 923 INTER-LIGAND FREE ENERGY PREDICTED BY IDOCK:   -3.61 KCAL/MOL
REMARK 924 INTRA-LIGAND FREE ENERGY PREDICTED BY IDOCK:   -0.26 KCAL/MOL
REMARK 927      BINDING AFFINITY PREDICTED BY RF-SCORE:    0.00 PKD
ROOT
HETATM    1  N   UNL     1      -7.662  10.944  69.333  1.00  0.00    -0.313 NA 
HETATM    2  H1  UNL     1      -7.629   9.971  69.638  1.00  0.00     0.000 HD 
HETATM    3  C   UNL     1      -8.896  11.556  68.991  1.00  0.00     0.152 A  
HETATM    4  H2  UNL     1      -7.210  11.516  70.046  1.00  0.00     0.000 HD 
HETATM    5  C   UNL     1      -8.942  12.878  68.577  1.00  0.00    -0.047 A  
HETATM    6  C   UNL     1     -10.167  13.458  68.280  1.00  0.00    -0.250 A  
HETATM    7  N   UNL     1     -11.312  12.745  68.340  1.00  0.00    -0.272 NA 
HETATM    8  O   UNL     1     -10.039   9.578  69.428  1.00  0.00    -0.179 OA 
HETATM    9  C   UNL     1     -11.284  11.443  68.728  1.00  0.00    -0.247 A  
HETATM   10  H2  UNL     1     -12.955  10.793  67.891  1.00  0.00     0.000 HD 
HETATM   11  N   UNL     1     -10.078  10.815  69.058  1.00  0.00    -0.208 NA 
HETATM   12  N   UNL     1     -12.484  10.730  68.794  1.00  0.00    -0.721 NA 
HETATM   13  H1  UNL     1     -12.464   9.753  69.085  1.00  0.00     0.000 HD 
ENDROOT
BRANCH   6  14
HETATM   14  N   UNL     1     -10.219  14.826  68.054  1.00  0.00    -0.224 NA 
HETATM   15  C   UNL     1      -9.950  15.694  69.201  1.00  0.00    -0.244 C  
HETATM   16  C   UNL     1     -10.341  17.645  67.639  1.00  0.00    -0.368 C  
HETATM   17  C   UNL     1      -9.387  17.008  68.651  1.00  0.00    -0.270 C  
HETATM   18  C   UNL     1     -10.770  16.649  66.557  1.00  0.00    -0.127 C  
HETATM   19  C   UNL     1     -11.260  15.329  67.156  1.00  0.00    -0.291 C  
ENDBRANCH   6  14
TORSDOF 1
ENDMDL
MODEL      140
REMARK 921   NORMALIZED FREE ENERGY PREDICTED BY IDOCK:   -3.40 KCAL/MOL
REMARK 922        TOTAL FREE ENERGY PREDICTED BY IDOCK:   -3.87 KCAL/MOL
REMARK 923 INTER-LIGAND FREE ENERGY PREDICTED BY IDOCK:   -3.61 KCAL/MOL
REMARK 924 INTRA-LIGAND FREE ENERGY PREDICTED BY IDOCK:   -0.26 KCAL/MOL
REMARK 927      BINDING AFFINITY PREDICTED BY RF-SCORE:    0.00 PKD
ROOT
HETATM    1  N   UNL     1      -9.409  17.329  65.754  1.00  0.00    -0.508 NA 
HETATM    2  H1  UNL     1      -9.124  17.630  64.822  1.00  0.00     0.000 HD 
HETATM    3  C   UNL     1     -10.406  16.334  65.923  1.00  0.00    -0.365 A  
HETATM    4  H2  UNL     1      -8.574  17.032  66.260  1.00  0.00     0.000 HD 
HETATM    5  C   UNL     1     -10.793  15.925  67.191  1.00  0.00    -0.267 A  
HETATM    6  C   UNL     1     -11.747  14.927  67.323  1.00  0.00    -0.291 A  
HETATM    7  N   UNL     1     -12.344  14.380  66.242  1.00  0.00    -0.373 NA 
HETATM    8  O   UNL     1     -10.673  16.159  63.620  1.00  0.00     0.943 OA 
HETATM    9  C   UNL     1     -11.990  14.782  64.994  1.00  0.00    -0.318 A  
HETATM   10  H2  UNL     1     -13.624  14.289  63.993  1.00  0.00     0.000 HD 
HETATM   11  N   UNL     1     -11.018  15.770  64.802  1.00  0.00    -0.488 NA 
HETATM   12  N   UNL     1     -12.614  14.191  63.891  1.00  0.00    -0.840 NA 
HETATM   13  H1  UNL     1     -12.348  14.492  62.953  1.00  0.00     0.000 HD 
ENDROOT
BRANCH   6  14
HETATM   14  N   UNL     1     -11.984  14.394  68.583  1.00  0.00    -0.320 NA 
HETATM   15  C   UNL     1     -12.294  12.965  68.645  1.00  0.00     0.234 C  
HETATM   16  C   UNL     1     -12.502  13.263  71.149  1.00  0.00    -0.397 C  
HETATM   17  C   UNL     1     -11.845  12.466  70.021  1.00  0.00    -0.363 C  
HETATM   18  C   UNL     1     -12.335  14.773  70.949  1.00  0.00    -0.388 C  
HETATM   19  C   UNL     1     -12.734  15.211  69.538  1.00  0.00     0.130 C  
ENDBRANCH   6  14
TORSDOF 1
ENDMDL
MODEL      141
REMARK 921   NORMALIZED FREE ENERGY PREDICTED BY IDOCK:   -3.38 KCAL/MOL
REMARK 922        TOTAL FREE ENERGY PREDICTED BY IDOCK:   -3.85 KCAL/MOL
REMARK 923 INTER-LIGAND FREE ENERGY PREDICTED BY IDOCK:   -3.61 KCAL/MOL
REMARK 924 INTRA-LIGAND FREE ENERGY PREDICTED BY IDOCK:   -0.25 KCAL/MOL
REMARK 927      BINDING AFFINITY PREDICTED BY RF-SCORE:    0.00 PKD
ROOT
HETATM    1  N   UNL     1      -7.668  10.697  63.926  1.00  0.00    -0.354 NA 
HETATM    2  H1  UNL     1      -7.765  11.105  62.996  1.00  0.00     0.000 HD 
HETATM    3  C   UNL     1      -8.709  10.814  64.882  1.00  0.00    -0.126 A  
HETATM    4  H2  UNL     1      -7.446   9.708  63.817  1.00  0.00     0.000 HD 
HETATM    5  C   UNL     1      -8.577  10.259  66.147  1.00  0.00    -0.146 A  
HETATM    6  C   UNL     1      -9.625  10.363  67.049  1.00  0.00    -0.166 A  
HETATM    7  N   UNL     1     -10.754  11.036  66.738  1.00  0.00    -0.267 NA 
HETATM    8  O   UNL     1      -9.997  12.041  63.384  1.00  0.00    -0.417 OA 
HETATM    9  C   UNL     1     -10.893  11.600  65.511  1.00  0.00    -0.279 A  
HETATM   10  H2  UNL     1     -12.235  12.996  65.918  1.00  0.00     0.000 HD 
HETATM   11  N   UNL     1      -9.875  11.509  64.555  1.00  0.00    -0.245 NA 
HETATM   12  N   UNL     1     -12.077  12.281  65.208  1.00  0.00    -0.481 NA 
HETATM   13  H1  UNL     1     -12.182  12.705  64.287  1.00  0.00     0.000 HD 
ENDROOT
BRANCH   6  14
HETATM   14  N   UNL     1      -9.558   9.643  68.235  1.00  0.00    -0.140 NA 
HETATM   15  C   UNL     1      -8.282   9.674  68.951  1.00  0.00    -0.110 C  
HETATM   16  C   UNL     1      -9.367   8.159  70.662  1.00  0.00    -0.165 C  
HETATM   17  C   UNL     1      -8.593   9.458  70.435  1.00  0.00    -0.266 C  
HETATM   18  C   UNL     1     -10.592   8.061  69.748  1.00  0.00    -0.238 C  
HETATM   19  C   UNL     1     -10.241   8.350  68.287  1.00  0.00    -0.205 C  
ENDBRANCH   6  14
TORSDOF 1
ENDMDL
MODEL      142
REMARK 921   NORMALIZED FREE ENERGY PREDICTED BY IDOCK:   -3.38 KCAL/MOL
REMARK 922        TOTAL FREE ENERGY PREDICTED BY IDOCK:   -3.85 KCAL/MOL
REMARK 923 INTER-LIGAND FREE ENERGY PREDICTED BY IDOCK:   -3.58 KCAL/MOL
REMARK 924 INTRA-LIGAND FREE ENERGY PREDICTED BY IDOCK:   -0.27 KCAL/MOL
REMARK 927      BINDING AFFINITY PREDICTED BY RF-SCORE:    0.00 PKD
ROOT
HETATM    1  N   UNL     1     -11.246   4.766  65.373  1.00  0.00    -0.970 NA 
HETATM    2  H1  UNL     1     -11.034   4.125  64.609  1.00  0.00     0.000 HD 
HETATM    3  C   UNL     1     -10.371   4.888  66.483  1.00  0.00    -0.270 A  
HETATM    4  H2  UNL     1     -11.390   5.695  64.977  1.00  0.00     0.000 HD 
HETATM    5  C   UNL     1     -10.660   5.761  67.522  1.00  0.00    -0.327 A  
HETATM    6  C   UNL     1      -9.769   5.882  68.578  1.00  0.00    -0.126 A  
HETATM    7  N   UNL     1      -8.648   5.132  68.638  1.00  0.00    -0.087 NA 
HETATM    8  O   UNL     1      -8.946   3.287  65.582  1.00  0.00    -0.132 OA 
HETATM    9  C   UNL     1      -8.358   4.260  67.638  1.00  0.00    -0.098 A  
HETATM   10  H2  UNL     1      -7.179   2.999  68.605  1.00  0.00     0.000 HD 
HETATM   11  N   UNL     1      -9.212   4.112  66.540  1.00  0.00    -0.144 NA 
HETATM   12  N   UNL     1      -7.185   3.504  67.718  1.00  0.00    -0.058 NA 
HETATM   13  H1  UNL     1      -6.967   2.849  66.967  1.00  0.00     0.000 HD 
ENDROOT
BRANCH   6  14
HETATM   14  N   UNL     1      -9.973   6.891  69.509  1.00  0.00    -0.162 NA 
HETATM   15  C   UNL     1     -10.177   8.242  68.982  1.00  0.00    -0.217 C  
HETATM   16  C   UNL     1     -10.371   8.999  71.388  1.00  0.00    -0.396 C  
HETATM   17  C   UNL     1     -11.025   9.002  70.006  1.00  0.00    -0.230 C  
HETATM   18  C   UNL     1      -9.980   7.585  71.830  1.00  0.00    -0.200 C  
HETATM   19  C   UNL     1      -9.193   6.844  70.747  1.00  0.00    -0.158 C  
ENDBRANCH   6  14
TORSDOF 1
ENDMDL
MODEL      143
REMARK 921   NORMALIZED FREE ENERGY PREDICTED BY IDOCK:   -3.35 KCAL/MOL
REMARK 922        TOTAL FREE ENERGY PREDICTED BY IDOCK:   -3.82 KCAL/MOL
REMARK 923 INTER-LIGAND FREE ENERGY PREDICTED BY IDOCK:   -3.55 KCAL/MOL
REMARK 924 INTRA-LIGAND FREE ENERGY PREDICTED BY IDOCK:   -0.28 KCAL/MOL
REMARK 927      BINDING AFFINITY PREDICTED BY RF-SCORE:    0.00 PKD
ROOT
HETATM    1  N   UNL     1     -11.231   5.503  73.495  1.00  0.00    -0.465 NA 
HETATM    2  H1  UNL     1     -11.577   6.095  74.250  1.00  0.00     0.000 HD 
HETATM    3  C   UNL     1     -11.183   5.980  72.160  1.00  0.00    -0.291 A  
HETATM    4  H2  UNL     1     -10.298   5.177  73.750  1.00  0.00     0.000 HD 
HETATM    5  C   UNL     1     -10.713   5.174  71.134  1.00  0.00    -0.141 A  
HETATM    6  C   UNL     1     -10.648   5.681  69.844  1.00  0.00    -0.328 A  
HETATM    7  N   UNL     1     -11.081   6.928  69.559  1.00  0.00    -0.246 NA 
HETATM    8  O   UNL     1     -12.084   8.021  72.820  1.00  0.00    -0.297 OA 
HETATM    9  C   UNL     1     -11.561   7.724  70.548  1.00  0.00    -0.158 A  
HETATM   10  H2  UNL     1     -12.689   8.956  69.488  1.00  0.00     0.000 HD 
HETATM   11  N   UNL     1     -11.629   7.272  71.871  1.00  0.00    -0.269 NA 
HETATM   12  N   UNL     1     -11.991   9.016  70.229  1.00  0.00    -0.455 NA 
HETATM   13  H1  UNL     1     -12.352   9.615  70.972  1.00  0.00     0.000 HD 
ENDROOT
BRANCH   6  14
HETATM   14  N   UNL     1     -10.001   4.937  68.868  1.00  0.00    -0.169 NA 
HETATM   15  C   UNL     1      -9.479   3.631  69.274  1.00  0.00    -0.174 C  
HETATM   16  C   UNL     1      -8.642   3.384  66.899  1.00  0.00    -0.118 C  
HETATM   17  C   UNL     1      -9.457   2.745  68.024  1.00  0.00    -0.212 C  
HETATM   18  C   UNL     1      -9.076   4.829  66.632  1.00  0.00    -0.117 C  
HETATM   19  C   UNL     1      -9.147   5.653  67.919  1.00  0.00    -0.107 C  
ENDBRANCH   6  14
TORSDOF 1
ENDMDL
MODEL      144
REMARK 921   NORMALIZED FREE ENERGY PREDICTED BY IDOCK:   -3.33 KCAL/MOL
REMARK 922        TOTAL FREE ENERGY PREDICTED BY IDOCK:   -3.80 KCAL/MOL
REMARK 923 INTER-LIGAND FREE ENERGY PREDICTED BY IDOCK:   -3.55 KCAL/MOL
REMARK 924 INTRA-LIGAND FREE ENERGY PREDICTED BY IDOCK:   -0.25 KCAL/MOL
REMARK 927      BINDING AFFINITY PREDICTED BY RF-SCORE:    0.00 PKD
ROOT
HETATM    1  N   UNL     1     -10.534   6.995  66.551  1.00  0.00    -0.506 NA 
HETATM    2  H1  UNL     1     -10.666   7.309  65.589  1.00  0.00     0.000 HD 
HETATM    3  C   UNL     1     -10.474   7.929  67.617  1.00  0.00    -0.234 A  
HETATM    4  H2  UNL     1     -11.262   6.313  66.765  1.00  0.00     0.000 HD 
HETATM    5  C   UNL     1     -10.294   7.502  68.925  1.00  0.00    -0.220 A  
HETATM    6  C   UNL     1     -10.272   8.436  69.950  1.00  0.00    -0.201 A  
HETATM    7  N   UNL     1     -10.372   9.758  69.695  1.00  0.00    -0.220 NA 
HETATM    8  O   UNL     1     -10.733   9.698  66.131  1.00  0.00    -0.002 OA 
HETATM    9  C   UNL     1     -10.532  10.195  68.419  1.00  0.00    -0.208 A  
HETATM   10  H2  UNL     1      -9.841  12.040  68.593  1.00  0.00     0.000 HD 
HETATM   11  N   UNL     1     -10.582   9.295  67.349  1.00  0.00    -0.278 NA 
HETATM   12  N   UNL     1     -10.646  11.568  68.182  1.00  0.00    -0.188 NA 
HETATM   13  H1  UNL     1     -10.765  11.897  67.224  1.00  0.00     0.000 HD 
ENDROOT
BRANCH   6  14
HETATM   14  N   UNL     1     -10.285   7.985  71.263  1.00  0.00    -0.190 NA 
HETATM   15  C   UNL     1     -11.586   7.607  71.816  1.00  0.00    -0.270 C  
HETATM   16  C   UNL     1     -10.360   7.076  73.965  1.00  0.00    -0.310 C  
HETATM   17  C   UNL     1     -11.327   6.557  72.900  1.00  0.00    -0.172 C  
HETATM   18  C   UNL     1      -9.086   7.656  73.342  1.00  0.00    -0.296 C  
HETATM   19  C   UNL     1      -9.399   8.649  72.220  1.00  0.00    -0.252 C  
ENDBRANCH   6  14
TORSDOF 1
ENDMDL
MODEL      145
REMARK 921   NORMALIZED FREE ENERGY PREDICTED BY IDOCK:   -3.33 KCAL/MOL
REMARK 922        TOTAL FREE ENERGY PREDICTED BY IDOCK:   -3.80 KCAL/MOL
REMARK 923 INTER-LIGAND FREE ENERGY PREDICTED BY IDOCK:   -3.56 KCAL/MOL
REMARK 924 INTRA-LIGAND FREE ENERGY PREDICTED BY IDOCK:   -0.24 KCAL/MOL
REMARK 927      BINDING AFFINITY PREDICTED BY RF-SCORE:    0.00 PKD
ROOT
HETATM    1  N   UNL     1     -13.346   7.300  71.082  1.00  0.00    -0.577 NA 
HETATM    2  H1  UNL     1     -13.716   8.053  71.662  1.00  0.00     0.000 HD 
HETATM    3  C   UNL     1     -12.003   7.329  70.625  1.00  0.00    -0.220 A  
HETATM    4  H2  UNL     1     -13.496   6.418  71.572  1.00  0.00     0.000 HD 
HETATM    5  C   UNL     1     -11.499   6.305  69.836  1.00  0.00    -0.459 A  
HETATM    6  C   UNL     1     -10.173   6.345  69.432  1.00  0.00    -0.192 A  
HETATM    7  N   UNL     1      -9.375   7.387  69.750  1.00  0.00    -0.148 NA 
HETATM    8  O   UNL     1     -11.649   9.371  71.680  1.00  0.00    -0.362 OA 
HETATM    9  C   UNL     1      -9.856   8.406  70.508  1.00  0.00    -0.184 A  
HETATM   10  H2  UNL     1      -8.616   9.853  69.974  1.00  0.00     0.000 HD 
HETATM   11  N   UNL     1     -11.180   8.407  70.960  1.00  0.00    -0.260 NA 
HETATM   12  N   UNL     1      -9.006   9.467  70.834  1.00  0.00    -0.334 NA 
HETATM   13  H1  UNL     1      -9.367  10.233  71.403  1.00  0.00     0.000 HD 
ENDROOT
BRANCH   6  14
HETATM   14  N   UNL     1      -9.632   5.229  68.809  1.00  0.00    -0.128 NA 
HETATM   15  C   UNL     1      -9.899   5.079  67.378  1.00  0.00    -0.176 C  
HETATM   16  C   UNL     1      -8.559   2.937  67.494  1.00  0.00    -0.118 C  
HETATM   17  C   UNL     1      -8.737   4.279  66.783  1.00  0.00    -0.113 C  
HETATM   18  C   UNL     1      -8.485   3.106  69.016  1.00  0.00    -0.095 C  
HETATM   19  C   UNL     1      -9.630   3.968  69.552  1.00  0.00    -0.195 C  
ENDBRANCH   6  14
TORSDOF 1
ENDMDL
MODEL      146
REMARK 921   NORMALIZED FREE ENERGY PREDICTED BY IDOCK:   -3.33 KCAL/MOL
REMARK 922        TOTAL FREE ENERGY PREDICTED BY IDOCK:   -3.79 KCAL/MOL
REMARK 923 INTER-LIGAND FREE ENERGY PREDICTED BY IDOCK:   -3.52 KCAL/MOL
REMARK 924 INTRA-LIGAND FREE ENERGY PREDICTED BY IDOCK:   -0.27 KCAL/MOL
REMARK 927      BINDING AFFINITY PREDICTED BY RF-SCORE:    0.00 PKD
ROOT
HETATM    1  N   UNL     1     -13.975   7.344  71.385  1.00  0.00    -0.557 NA 
HETATM    2  H1  UNL     1     -14.664   8.083  71.526  1.00  0.00     0.000 HD 
HETATM    3  C   UNL     1     -12.648   7.655  70.991  1.00  0.00    -0.147 A  
HETATM    4  H2  UNL     1     -13.931   6.784  72.237  1.00  0.00     0.000 HD 
HETATM    5  C   UNL     1     -11.711   6.650  70.800  1.00  0.00    -0.445 A  
HETATM    6  C   UNL     1     -10.413   6.987  70.446  1.00  0.00    -0.206 A  
HETATM    7  N   UNL     1     -10.055   8.272  70.236  1.00  0.00    -0.190 NA 
HETATM    8  O   UNL     1     -13.155   9.923  70.941  1.00  0.00    -0.348 OA 
HETATM    9  C   UNL     1     -10.964   9.267  70.403  1.00  0.00    -0.255 A  
HETATM   10  H2  UNL     1     -10.162  10.668  69.259  1.00  0.00     0.000 HD 
HETATM   11  N   UNL     1     -12.282   8.985  70.779  1.00  0.00    -0.153 NA 
HETATM   12  N   UNL     1     -10.565  10.591  70.192  1.00  0.00    -0.457 NA 
HETATM   13  H1  UNL     1     -11.248  11.339  70.317  1.00  0.00     0.000 HD 
ENDROOT
BRANCH   6  14
HETATM   14  N   UNL     1      -9.443   5.994  70.445  1.00  0.00    -0.162 NA 
HETATM   15  C   UNL     1      -8.120   6.367  69.942  1.00  0.00    -0.121 C  
HETATM   16  C   UNL     1      -7.426   3.978  70.402  1.00  0.00    -0.045 C  
HETATM   17  C   UNL     1      -7.101   5.455  70.631  1.00  0.00    -0.061 C  
HETATM   18  C   UNL     1      -8.884   3.657  70.746  1.00  0.00    -0.136 C  
HETATM   19  C   UNL     1      -9.857   4.637  70.087  1.00  0.00    -0.236 C  
ENDBRANCH   6  14
TORSDOF 1
ENDMDL
MODEL      147
REMARK 921   NORMALIZED FREE ENERGY PREDICTED BY IDOCK:   -3.32 KCAL/MOL
REMARK 922        TOTAL FREE ENERGY PREDICTED BY IDOCK:   -3.79 KCAL/MOL
REMARK 923 INTER-LIGAND FREE ENERGY PREDICTED BY IDOCK:   -3.53 KCAL/MOL
REMARK 924 INTRA-LIGAND FREE ENERGY PREDICTED BY IDOCK:   -0.25 KCAL/MOL
REMARK 927      BINDING AFFINITY PREDICTED BY RF-SCORE:    0.00 PKD
ROOT
HETATM    1  N   UNL     1      -5.999  11.315  69.744  1.00  0.00    -0.088 NA 
HETATM    2  H1  UNL     1      -5.448  10.899  70.494  1.00  0.00     0.000 HD 
HETATM    3  C   UNL     1      -7.335  10.898  69.507  1.00  0.00    -0.093 A  
HETATM    4  H2  UNL     1      -6.000  12.327  69.874  1.00  0.00     0.000 HD 
HETATM    5  C   UNL     1      -8.085  11.464  68.487  1.00  0.00    -0.149 A  
HETATM    6  C   UNL     1      -9.398  11.059  68.300  1.00  0.00    -0.172 A  
HETATM    7  N   UNL     1      -9.946  10.087  69.062  1.00  0.00    -0.185 NA 
HETATM    8  O   UNL     1      -7.198   9.353  71.239  1.00  0.00    -0.299 OA 
HETATM    9  C   UNL     1      -9.220   9.510  70.054  1.00  0.00    -0.234 A  
HETATM   10  H2  UNL     1     -10.171   7.783  70.222  1.00  0.00     0.000 HD 
HETATM   11  N   UNL     1      -7.898   9.895  70.299  1.00  0.00    -0.190 NA 
HETATM   12  N   UNL     1      -9.814   8.515  70.836  1.00  0.00    -0.180 NA 
HETATM   13  H1  UNL     1      -9.270   8.081  71.581  1.00  0.00     0.000 HD 
ENDROOT
BRANCH   6  14
HETATM   14  N   UNL     1     -10.193  11.764  67.407  1.00  0.00    -0.198 NA 
HETATM   15  C   UNL     1     -11.547  12.096  67.853  1.00  0.00    -0.347 C  
HETATM   16  C   UNL     1     -11.870  13.192  65.596  1.00  0.00    -0.430 C  
HETATM   17  C   UNL     1     -11.967  13.369  67.112  1.00  0.00    -0.415 C  
HETATM   18  C   UNL     1     -10.502  12.646  65.173  1.00  0.00    -0.319 C  
HETATM   19  C   UNL     1     -10.100  11.416  65.989  1.00  0.00    -0.234 C  
ENDBRANCH   6  14
TORSDOF 1
ENDMDL
MODEL      148
REMARK 921   NORMALIZED FREE ENERGY PREDICTED BY IDOCK:   -3.28 KCAL/MOL
REMARK 922        TOTAL FREE ENERGY PREDICTED BY IDOCK:   -3.75 KCAL/MOL
REMARK 923 INTER-LIGAND FREE ENERGY PREDICTED BY IDOCK:   -3.47 KCAL/MOL
REMARK 924 INTRA-LIGAND FREE ENERGY PREDICTED BY IDOCK:   -0.28 KCAL/MOL
REMARK 927      BINDING AFFINITY PREDICTED BY RF-SCORE:    0.00 PKD
ROOT
HETATM    1  N   UNL     1     -12.103   6.728  70.205  1.00  0.00    -0.617 NA 
HETATM    2  H1  UNL     1     -12.335   6.263  71.083  1.00  0.00     0.000 HD 
HETATM    3  C   UNL     1     -10.972   7.580  70.112  1.00  0.00    -0.254 A  
HETATM    4  H2  UNL     1     -12.026   6.016  69.479  1.00  0.00     0.000 HD 
HETATM    5  C   UNL     1     -10.657   8.212  68.918  1.00  0.00    -0.161 A  
HETATM    6  C   UNL     1      -9.526   9.013  68.849  1.00  0.00    -0.151 A  
HETATM    7  N   UNL     1      -8.753   9.229  69.935  1.00  0.00    -0.162 NA 
HETATM    8  O   UNL     1     -10.473   7.224  72.355  1.00  0.00    -0.212 OA 
HETATM    9  C   UNL     1      -9.057   8.631  71.116  1.00  0.00    -0.209 A  
HETATM   10  H2  UNL     1      -8.159   9.867  72.374  1.00  0.00     0.000 HD 
HETATM   11  N   UNL     1     -10.174   7.797  71.237  1.00  0.00    -0.193 NA 
HETATM   12  N   UNL     1      -8.234   8.861  72.223  1.00  0.00    -0.362 NA 
HETATM   13  H1  UNL     1      -8.461   8.412  73.110  1.00  0.00     0.000 HD 
ENDROOT
BRANCH   6  14
HETATM   14  N   UNL     1      -9.117   9.483  67.608  1.00  0.00    -0.121 NA 
HETATM   15  C   UNL     1      -9.678   8.814  66.434  1.00  0.00    -0.265 C  
HETATM   16  C   UNL     1      -8.285  10.400  65.040  1.00  0.00    -0.152 C  
HETATM   17  C   UNL     1      -9.683   9.835  65.293  1.00  0.00    -0.371 C  
HETATM   18  C   UNL     1      -7.636  10.911  66.330  1.00  0.00    -0.146 C  
HETATM   19  C   UNL     1      -7.716   9.880  67.458  1.00  0.00    -0.091 C  
ENDBRANCH   6  14
TORSDOF 1
ENDMDL
MODEL      149
REMARK 921   NORMALIZED FREE ENERGY PREDICTED BY IDOCK:   -3.23 KCAL/MOL
REMARK 922        TOTAL FREE ENERGY PREDICTED BY IDOCK:   -3.70 KCAL/MOL
REMARK 923 INTER-LIGAND FREE ENERGY PREDICTED BY IDOCK:   -3.43 KCAL/MOL
REMARK 924 INTRA-LIGAND FREE ENERGY PREDICTED BY IDOCK:   -0.27 KCAL/MOL
REMARK 927      BINDING AFFINITY PREDICTED BY RF-SCORE:    0.00 PKD
ROOT
HETATM    1  N   UNL     1     -13.125   8.028  71.574  1.00  0.00    -0.406 NA 
HETATM    2  H1  UNL     1     -13.339   8.382  72.506  1.00  0.00     0.000 HD 
HETATM    3  C   UNL     1     -11.922   7.317  71.327  1.00  0.00    -0.324 A  
HETATM    4  H2  UNL     1     -13.905   7.448  71.267  1.00  0.00     0.000 HD 
HETATM    5  C   UNL     1     -11.629   6.834  70.060  1.00  0.00    -0.367 A  
HETATM    6  C   UNL     1     -10.461   6.116  69.857  1.00  0.00    -0.233 A  
HETATM    7  N   UNL     1      -9.577   5.918  70.859  1.00  0.00    -0.168 NA 
HETATM    8  O   UNL     1     -11.272   7.574  73.546  1.00  0.00    -0.271 OA 
HETATM    9  C   UNL     1      -9.839   6.398  72.102  1.00  0.00    -0.158 A  
HETATM   10  H2  UNL     1      -8.002   6.512  72.826  1.00  0.00     0.000 HD 
HETATM   11  N   UNL     1     -11.012   7.112  72.367  1.00  0.00    -0.239 NA 
HETATM   12  N   UNL     1      -8.914   6.169  73.125  1.00  0.00    -0.131 NA 
HETATM   13  H1  UNL     1      -9.110   6.530  74.059  1.00  0.00     0.000 HD 
ENDROOT
BRANCH   6  14
HETATM   14  N   UNL     1     -10.274   5.478  68.639  1.00  0.00    -0.188 NA 
HETATM   15  C   UNL     1      -9.196   4.489  68.572  1.00  0.00    -0.133 C  
HETATM   16  C   UNL     1      -9.838   4.160  66.147  1.00  0.00    -0.207 C  
HETATM   17  C   UNL     1      -9.580   3.476  67.490  1.00  0.00    -0.177 C  
HETATM   18  C   UNL     1     -10.821   5.328  66.284  1.00  0.00    -0.181 C  
HETATM   19  C   UNL     1     -10.430   6.274  67.421  1.00  0.00    -0.248 C  
ENDBRANCH   6  14
TORSDOF 1
ENDMDL
MODEL      150
REMARK 921   NORMALIZED FREE ENERGY PREDICTED BY IDOCK:   -3.23 KCAL/MOL
REMARK 922        TOTAL FREE ENERGY PREDICTED BY IDOCK:   -3.69 KCAL/MOL
REMARK 923 INTER-LIGAND FREE ENERGY PREDICTED BY IDOCK:   -3.42 KCAL/MOL
REMARK 924 INTRA-LIGAND FREE ENERGY PREDICTED BY IDOCK:   -0.27 KCAL/MOL
REMARK 927      BINDING AFFINITY PREDICTED BY RF-SCORE:    0.00 PKD
ROOT
HETATM    1  N   UNL     1      -7.442   8.945  67.960  1.00  0.00    -0.091 NA 
HETATM    2  H1  UNL     1      -7.181   7.988  68.195  1.00  0.00     0.000 HD 
HETATM    3  C   UNL     1      -8.666   9.498  68.419  1.00  0.00    -0.124 A  
HETATM    4  H2  UNL     1      -6.684   9.562  68.253  1.00  0.00     0.000 HD 
HETATM    5  C   UNL     1      -9.021  10.800  68.098  1.00  0.00    -0.140 A  
HETATM    6  C   UNL     1     -10.208  11.323  68.588  1.00  0.00    -0.203 A  
HETATM    7  N   UNL     1     -11.050  10.573  69.332  1.00  0.00    -0.240 NA 
HETATM    8  O   UNL     1      -9.213   7.501  69.477  1.00  0.00    -0.147 OA 
HETATM    9  C   UNL     1     -10.726   9.291  69.641  1.00  0.00    -0.230 A  
HETATM   10  H2  UNL     1     -12.528   8.548  69.981  1.00  0.00     0.000 HD 
HETATM   11  N   UNL     1      -9.531   8.719  69.190  1.00  0.00    -0.156 NA 
HETATM   12  N   UNL     1     -11.608   8.539  70.422  1.00  0.00    -0.460 NA 
HETATM   13  H1  UNL     1     -11.366   7.576  70.654  1.00  0.00     0.000 HD 
ENDROOT
BRANCH   6  14
HETATM   14  N   UNL     1     -10.458  12.678  68.422  1.00  0.00    -0.234 NA 
HETATM   15  C   UNL     1     -11.863  13.085  68.365  1.00  0.00    -0.334 C  
HETATM   16  C   UNL     1     -11.019  15.450  68.057  1.00  0.00    -0.307 C  
HETATM   17  C   UNL     1     -11.934  14.530  68.867  1.00  0.00    -0.326 C  
HETATM   18  C   UNL     1      -9.595  14.893  67.960  1.00  0.00    -0.207 C  
HETATM   19  C   UNL     1      -9.582  13.427  67.520  1.00  0.00    -0.221 C  
ENDBRANCH   6  14
TORSDOF 1
ENDMDL
MODEL      151
REMARK 921   NORMALIZED FREE ENERGY PREDICTED BY IDOCK:   -3.21 KCAL/MOL
REMARK 922        TOTAL FREE ENERGY PREDICTED BY IDOCK:   -3.67 KCAL/MOL
REMARK 923 INTER-LIGAND FREE ENERGY PREDICTED BY IDOCK:   -3.42 KCAL/MOL
REMARK 924 INTRA-LIGAND FREE ENERGY PREDICTED BY IDOCK:   -0.25 KCAL/MOL
REMARK 927      BINDING AFFINITY PREDICTED BY RF-SCORE:    0.00 PKD
ROOT
HETATM    1  N   UNL     1      -8.214   7.617  73.745  1.00  0.00    -0.157 NA 
HETATM    2  H1  UNL     1      -7.868   6.773  74.201  1.00  0.00     0.000 HD 
HETATM    3  C   UNL     1      -8.810   7.557  72.459  1.00  0.00    -0.132 A  
HETATM    4  H2  UNL     1      -8.870   8.074  74.378  1.00  0.00     0.000 HD 
HETATM    5  C   UNL     1      -9.280   8.705  71.839  1.00  0.00    -0.345 A  
HETATM    6  C   UNL     1      -9.886   8.609  70.596  1.00  0.00    -0.183 A  
HETATM    7  N   UNL     1      -9.985   7.425  69.954  1.00  0.00    -0.186 NA 
HETATM    8  O   UNL     1      -8.461   5.259  72.366  1.00  0.00    -0.120 OA 
HETATM    9  C   UNL     1      -9.515   6.293  70.538  1.00  0.00    -0.162 A  
HETATM   10  H2  UNL     1      -9.215   5.172  68.936  1.00  0.00     0.000 HD 
HETATM   11  N   UNL     1      -8.912   6.329  71.801  1.00  0.00    -0.141 NA 
HETATM   12  N   UNL     1      -9.640   5.078  69.859  1.00  0.00    -0.159 NA 
HETATM   13  H1  UNL     1      -9.287   4.227  70.297  1.00  0.00     0.000 HD 
ENDROOT
BRANCH   6  14
HETATM   14  N   UNL     1     -10.520   9.729  70.075  1.00  0.00    -0.250 NA 
HETATM   15  C   UNL     1     -11.858  10.027  70.590  1.00  0.00    -0.325 C  
HETATM   16  C   UNL     1     -11.870  12.007  69.016  1.00  0.00    -0.372 C  
HETATM   17  C   UNL     1     -12.066  11.538  70.458  1.00  0.00    -0.472 C  
HETATM   18  C   UNL     1     -10.544  11.507  68.431  1.00  0.00    -0.227 C  
HETATM   19  C   UNL     1     -10.354  10.004  68.647  1.00  0.00    -0.190 C  
ENDBRANCH   6  14
TORSDOF 1
ENDMDL
MODEL      152
REMARK 921   NORMALIZED FREE ENERGY PREDICTED BY IDOCK:   -3.19 KCAL/MOL
REMARK 922        TOTAL FREE ENERGY PREDICTED BY IDOCK:   -3.65 KCAL/MOL
REMARK 923 INTER-LIGAND FREE ENERGY PREDICTED BY IDOCK:   -3.40 KCAL/MOL
REMARK 924 INTRA-LIGAND FREE ENERGY PREDICTED BY IDOCK:   -0.25 KCAL/MOL
REMARK 927      BINDING AFFINITY PREDICTED BY RF-SCORE:    0.00 PKD
ROOT
HETATM    1  N   UNL     1     -12.762   7.313  70.520  1.00  0.00    -0.528 NA 
HETATM    2  H1  UNL     1     -13.193   7.352  71.443  1.00  0.00     0.000 HD 
HETATM    3  C   UNL     1     -11.626   6.496  70.283  1.00  0.00    -0.409 A  
HETATM    4  H2  UNL     1     -13.482   7.061  69.843  1.00  0.00     0.000 HD 
HETATM    5  C   UNL     1     -11.039   6.443  69.027  1.00  0.00    -0.424 A  
HETATM    6  C   UNL     1      -9.950   5.610  68.819  1.00  0.00    -0.167 A  
HETATM    7  N   UNL     1      -9.418   4.886  69.827  1.00  0.00    -0.138 NA 
HETATM    8  O   UNL     1     -11.614   5.806  72.504  1.00  0.00    -0.303 OA 
HETATM    9  C   UNL     1      -9.969   4.939  71.067  1.00  0.00    -0.212 A  
HETATM   10  H2  UNL     1      -8.415   4.394  72.164  1.00  0.00     0.000 HD 
HETATM   11  N   UNL     1     -11.082   5.747  71.329  1.00  0.00    -0.238 NA 
HETATM   12  N   UNL     1      -9.408   4.171  72.091  1.00  0.00    -0.123 NA 
HETATM   13  H1  UNL     1      -9.822   4.211  73.023  1.00  0.00     0.000 HD 
ENDROOT
BRANCH   6  14
HETATM   14  N   UNL     1      -9.495   5.420  67.521  1.00  0.00    -0.117 NA 
HETATM   15  C   UNL     1      -9.393   6.613  66.678  1.00  0.00    -0.163 C  
HETATM   16  C   UNL     1      -8.587   5.074  64.840  1.00  0.00    -0.150 C  
HETATM   17  C   UNL     1      -8.298   6.343  65.644  1.00  0.00    -0.147 C  
HETATM   18  C   UNL     1      -8.891   3.881  65.752  1.00  0.00    -0.125 C  
HETATM   19  C   UNL     1      -9.943   4.223  66.810  1.00  0.00    -0.160 C  
ENDBRANCH   6  14
TORSDOF 1
ENDMDL
MODEL      153
REMARK 921   NORMALIZED FREE ENERGY PREDICTED BY IDOCK:   -3.12 KCAL/MOL
REMARK 922        TOTAL FREE ENERGY PREDICTED BY IDOCK:   -3.58 KCAL/MOL
REMARK 923 INTER-LIGAND FREE ENERGY PREDICTED BY IDOCK:   -3.31 KCAL/MOL
REMARK 924 INTRA-LIGAND FREE ENERGY PREDICTED BY IDOCK:   -0.27 KCAL/MOL
REMARK 927      BINDING AFFINITY PREDICTED BY RF-SCORE:    0.00 PKD
ROOT
HETATM    1  N   UNL     1     -12.258  15.600  68.404  1.00  0.00    -0.409 NA 
HETATM    2  H1  UNL     1     -12.677  14.790  68.861  1.00  0.00     0.000 HD 
HETATM    3  C   UNL     1     -10.865  15.851  68.503  1.00  0.00    -0.298 A  
HETATM    4  H2  UNL     1     -12.506  15.570  67.415  1.00  0.00     0.000 HD 
HETATM    5  C   UNL     1     -10.296  16.953  67.881  1.00  0.00    -0.332 A  
HETATM    6  C   UNL     1      -8.927  17.154  67.970  1.00  0.00    -0.233 A  
HETATM    7  N   UNL     1      -8.142  16.325  68.692  1.00  0.00    -0.200 NA 
HETATM    8  O   UNL     1     -10.585  13.971  69.842  1.00  0.00     0.162 OA 
HETATM    9  C   UNL     1      -8.685  15.251  69.321  1.00  0.00    -0.237 A  
HETATM   10  H2  UNL     1      -7.333  14.954  70.734  1.00  0.00     0.000 HD 
HETATM   11  N   UNL     1     -10.058  14.989  69.248  1.00  0.00    -0.239 NA 
HETATM   12  N   UNL     1      -7.850  14.400  70.051  1.00  0.00    -0.113 NA 
HETATM   13  H1  UNL     1      -8.257  13.593  70.524  1.00  0.00     0.000 HD 
ENDROOT
BRANCH   6  14
HETATM   14  N   UNL     1      -8.347  18.145  67.190  1.00  0.00    -0.233 NA 
HETATM   15  C   UNL     1      -6.884  18.180  67.152  1.00  0.00    -0.191 C  
HETATM   16  C   UNL     1      -7.112  20.179  65.618  1.00  0.00    -0.316 C  
HETATM   17  C   UNL     1      -6.482  18.799  65.810  1.00  0.00    -0.287 C  
HETATM   18  C   UNL     1      -8.624  20.153  65.864  1.00  0.00    -0.085 C  
HETATM   19  C   UNL     1      -8.977  19.466  67.186  1.00  0.00    -0.297 C  
ENDBRANCH   6  14
TORSDOF 1
ENDMDL
MODEL      154
REMARK 921   NORMALIZED FREE ENERGY PREDICTED BY IDOCK:   -3.00 KCAL/MOL
REMARK 922        TOTAL FREE ENERGY PREDICTED BY IDOCK:   -3.45 KCAL/MOL
REMARK 923 INTER-LIGAND FREE ENERGY PREDICTED BY IDOCK:   -3.18 KCAL/MOL
REMARK 924 INTRA-LIGAND FREE ENERGY PREDICTED BY IDOCK:   -0.27 KCAL/MOL
REMARK 927      BINDING AFFINITY PREDICTED BY RF-SCORE:    0.00 PKD
ROOT
HETATM    1  N   UNL     1     -10.608  13.517  67.031  1.00  0.00    -0.268 NA 
HETATM    2  H1  UNL     1     -11.185  14.072  67.663  1.00  0.00     0.000 HD 
HETATM    3  C   UNL     1     -10.466  12.117  67.219  1.00  0.00    -0.218 A  
HETATM    4  H2  UNL     1     -10.935  13.678  66.078  1.00  0.00     0.000 HD 
HETATM    5  C   UNL     1      -9.682  11.362  66.359  1.00  0.00    -0.231 A  
HETATM    6  C   UNL     1      -9.589   9.991  66.549  1.00  0.00    -0.187 A  
HETATM    7  N   UNL     1     -10.207   9.384  67.585  1.00  0.00    -0.212 NA 
HETATM    8  O   UNL     1     -11.828  12.195  69.102  1.00  0.00    -0.300 OA 
HETATM    9  C   UNL     1     -10.964  10.111  68.446  1.00  0.00    -0.244 A  
HETATM   10  H2  UNL     1     -10.909   8.936  70.037  1.00  0.00     0.000 HD 
HETATM   11  N   UNL     1     -11.110  11.494  68.290  1.00  0.00    -0.220 NA 
HETATM   12  N   UNL     1     -11.604   9.457  69.504  1.00  0.00    -0.418 NA 
HETATM   13  H1  UNL     1     -12.173  10.002  70.151  1.00  0.00     0.000 HD 
ENDROOT
BRANCH   6  14
HETATM   14  N   UNL     1      -8.962   9.225  65.577  1.00  0.00    -0.192 NA 
HETATM   15  C   UNL     1      -8.125   8.119  66.048  1.00  0.00    -0.112 C  
HETATM   16  C   UNL     1      -7.636   7.638  63.613  1.00  0.00    -0.118 C  
HETATM   17  C   UNL     1      -8.117   7.058  64.944  1.00  0.00    -0.107 C  
HETATM   18  C   UNL     1      -8.395   8.916  63.243  1.00  0.00    -0.180 C  
HETATM   19  C   UNL     1      -8.432   9.916  64.401  1.00  0.00    -0.177 C  
ENDBRANCH   6  14
TORSDOF 1
ENDMDL
MODEL      155
REMARK 921   NORMALIZED FREE ENERGY PREDICTED BY IDOCK:   -2.99 KCAL/MOL
REMARK 922        TOTAL FREE ENERGY PREDICTED BY IDOCK:   -3.44 KCAL/MOL
REMARK 923 INTER-LIGAND FREE ENERGY PREDICTED BY IDOCK:   -3.21 KCAL/MOL
REMARK 924 INTRA-LIGAND FREE ENERGY PREDICTED BY IDOCK:   -0.24 KCAL/MOL
REMARK 927      BINDING AFFINITY PREDICTED BY RF-SCORE:    0.00 PKD
ROOT
HETATM    1  N   UNL     1     -12.905   7.127  70.664  1.00  0.00    -0.578 NA 
HETATM    2  H1  UNL     1     -13.500   7.796  71.151  1.00  0.00     0.000 HD 
HETATM    3  C   UNL     1     -11.629   6.780  71.180  1.00  0.00    -0.329 A  
HETATM    4  H2  UNL     1     -13.438   6.268  70.528  1.00  0.00     0.000 HD 
HETATM    5  C   UNL     1     -10.819   5.870  70.516  1.00  0.00    -0.366 A  
HETATM    6  C   UNL     1      -9.592   5.526  71.062  1.00  0.00    -0.170 A  
HETATM    7  N   UNL     1      -9.147   6.097  72.203  1.00  0.00    -0.142 NA 
HETATM    8  O   UNL     1     -11.919   8.231  72.973  1.00  0.00    -0.265 OA 
HETATM    9  C   UNL     1      -9.920   7.003  72.856  1.00  0.00    -0.187 A  
HETATM   10  H2  UNL     1      -8.529   7.987  73.861  1.00  0.00     0.000 HD 
HETATM   11  N   UNL     1     -11.176   7.371  72.361  1.00  0.00    -0.275 NA 
HETATM   12  N   UNL     1      -9.443   7.570  74.041  1.00  0.00    -0.395 NA 
HETATM   13  H1  UNL     1     -10.023   8.251  74.532  1.00  0.00     0.000 HD 
ENDROOT
BRANCH   6  14
HETATM   14  N   UNL     1      -8.880   4.478  70.494  1.00  0.00    -0.096 NA 
HETATM   15  C   UNL     1      -8.073   4.795  69.315  1.00  0.00    -0.074 C  
HETATM   16  C   UNL     1      -7.419   2.351  69.281  1.00  0.00    -0.043 C  
HETATM   17  C   UNL     1      -6.914   3.795  69.280  1.00  0.00    -0.046 C  
HETATM   18  C   UNL     1      -8.424   2.102  70.411  1.00  0.00    -0.084 C  
HETATM   19  C   UNL     1      -9.523   3.165  70.444  1.00  0.00    -0.157 C  
ENDBRANCH   6  14
TORSDOF 1
ENDMDL
MODEL      156
REMARK 921   NORMALIZED FREE ENERGY PREDICTED BY IDOCK:   -2.98 KCAL/MOL
REMARK 922        TOTAL FREE ENERGY PREDICTED BY IDOCK:   -3.43 KCAL/MOL
REMARK 923 INTER-LIGAND FREE ENERGY PREDICTED BY IDOCK:   -3.17 KCAL/MOL
REMARK 924 INTRA-LIGAND FREE ENERGY PREDICTED BY IDOCK:   -0.26 KCAL/MOL
REMARK 927      BINDING AFFINITY PREDICTED BY RF-SCORE:    0.00 PKD
ROOT
HETATM    1  N   UNL     1     -10.412  12.993  66.335  1.00  0.00    -0.273 NA 
HETATM    2  H1  UNL     1     -10.979  13.832  66.218  1.00  0.00     0.000 HD 
HETATM    3  C   UNL     1     -10.495  12.220  67.522  1.00  0.00    -0.213 A  
HETATM    4  H2  UNL     1     -10.589  12.377  65.541  1.00  0.00     0.000 HD 
HETATM    5  C   UNL     1      -9.724  11.078  67.681  1.00  0.00    -0.184 A  
HETATM    6  C   UNL     1      -9.851  10.326  68.839  1.00  0.00    -0.195 A  
HETATM    7  N   UNL     1     -10.676  10.710  69.837  1.00  0.00    -0.242 NA 
HETATM    8  O   UNL     1     -12.059  13.692  68.413  1.00  0.00    -0.361 OA 
HETATM    9  C   UNL     1     -11.425  11.835  69.705  1.00  0.00    -0.245 A  
HETATM   10  H2  UNL     1     -11.739  12.270  71.610  1.00  0.00     0.000 HD 
HETATM   11  N   UNL     1     -11.351  12.620  68.550  1.00  0.00    -0.272 NA 
HETATM   12  N   UNL     1     -12.280  12.205  70.748  1.00  0.00    -0.426 NA 
HETATM   13  H1  UNL     1     -12.843  13.049  70.650  1.00  0.00     0.000 HD 
ENDROOT
BRANCH   6  14
HETATM   14  N   UNL     1      -9.221   9.090  68.904  1.00  0.00    -0.139 NA 
HETATM   15  C   UNL     1      -9.848   8.076  69.753  1.00  0.00    -0.183 C  
HETATM   16  C   UNL     1      -7.948   6.545  69.085  1.00  0.00    -0.111 C  
HETATM   17  C   UNL     1      -9.466   6.709  69.179  1.00  0.00    -0.136 C  
HETATM   18  C   UNL     1      -7.292   7.729  68.366  1.00  0.00    -0.095 C  
HETATM   19  C   UNL     1      -7.758   9.072  68.932  1.00  0.00    -0.094 C  
ENDBRANCH   6  14
TORSDOF 1
ENDMDL
MODEL      157
REMARK 921   NORMALIZED FREE ENERGY PREDICTED BY IDOCK:   -2.88 KCAL/MOL
REMARK 922        TOTAL FREE ENERGY PREDICTED BY IDOCK:   -3.32 KCAL/MOL
REMARK 923 INTER-LIGAND FREE ENERGY PREDICTED BY IDOCK:   -3.08 KCAL/MOL
REMARK 924 INTRA-LIGAND FREE ENERGY PREDICTED BY IDOCK:   -0.24 KCAL/MOL
REMARK 927      BINDING AFFINITY PREDICTED BY RF-SCORE:    0.00 PKD
ROOT
HETATM    1  N   UNL     1     -11.272  10.575  68.881  1.00  0.00    -0.258 NA 
HETATM    2  H1  UNL     1     -11.889  11.311  69.224  1.00  0.00     0.000 HD 
HETATM    3  C   UNL     1     -11.179   9.331  69.558  1.00  0.00     0.004 A  
HETATM    4  H2  UNL     1     -11.509  10.390  67.907  1.00  0.00     0.000 HD 
HETATM    5  C   UNL     1     -10.340   8.330  69.091  1.00  0.00    -0.225 A  
HETATM    6  C   UNL     1     -10.295   7.113  69.755  1.00  0.00    -0.214 A  
HETATM    7  N   UNL     1     -11.017   6.901  70.877  1.00  0.00    -0.244 NA 
HETATM    8  O   UNL     1     -12.700  10.050  71.163  1.00  0.00    -0.335 OA 
HETATM    9  C   UNL     1     -11.830   7.876  71.357  1.00  0.00    -0.299 A  
HETATM   10  H2  UNL     1     -11.943   7.332  73.256  1.00  0.00     0.000 HD 
HETATM   11  N   UNL     1     -11.929   9.115  70.715  1.00  0.00    -0.239 NA 
HETATM   12  N   UNL     1     -12.576   7.626  72.514  1.00  0.00    -0.526 NA 
HETATM   13  H1  UNL     1     -13.188   8.359  72.875  1.00  0.00     0.000 HD 
ENDROOT
BRANCH   6  14
HETATM   14  N   UNL     1      -9.603   6.061  69.172  1.00  0.00    -0.130 NA 
HETATM   15  C   UNL     1      -8.170   5.976  69.460  1.00  0.00    -0.115 C  
HETATM   16  C   UNL     1      -8.136   3.928  67.976  1.00  0.00    -0.088 C  
HETATM   17  C   UNL     1      -7.773   4.502  69.347  1.00  0.00    -0.055 C  
HETATM   18  C   UNL     1      -9.597   4.210  67.610  1.00  0.00    -0.213 C  
HETATM   19  C   UNL     1      -9.961   5.684  67.804  1.00  0.00    -0.146 C  
ENDBRANCH   6  14
TORSDOF 1
ENDMDL
MODEL      158
REMARK 921   NORMALIZED FREE ENERGY PREDICTED BY IDOCK:   -2.87 KCAL/MOL
REMARK 922        TOTAL FREE ENERGY PREDICTED BY IDOCK:   -3.31 KCAL/MOL
REMARK 923 INTER-LIGAND FREE ENERGY PREDICTED BY IDOCK:   -3.04 KCAL/MOL
REMARK 924 INTRA-LIGAND FREE ENERGY PREDICTED BY IDOCK:   -0.27 KCAL/MOL
REMARK 927      BINDING AFFINITY PREDICTED BY RF-SCORE:    0.00 PKD
ROOT
HETATM    1  N   UNL     1     -12.239   6.843  70.359  1.00  0.00    -0.615 NA 
HETATM    2  H1  UNL     1     -12.546   7.124  71.289  1.00  0.00     0.000 HD 
HETATM    3  C   UNL     1     -11.072   7.405  69.778  1.00  0.00    -0.152 A  
HETATM    4  H2  UNL     1     -12.141   5.828  70.349  1.00  0.00     0.000 HD 
HETATM    5  C   UNL     1     -10.654   7.023  68.512  1.00  0.00    -0.235 A  
HETATM    6  C   UNL     1      -9.492   7.567  67.985  1.00  0.00    -0.142 A  
HETATM    7  N   UNL     1      -8.785   8.498  68.661  1.00  0.00    -0.138 NA 
HETATM    8  O   UNL     1     -10.737   8.737  71.655  1.00  0.00    -0.272 OA 
HETATM    9  C   UNL     1      -9.189   8.896  69.895  1.00  0.00    -0.166 A  
HETATM   10  H2  UNL     1      -8.330  10.676  69.986  1.00  0.00     0.000 HD 
HETATM   11  N   UNL     1     -10.343   8.366  70.483  1.00  0.00    -0.196 NA 
HETATM   12  N   UNL     1      -8.433   9.853  70.579  1.00  0.00    -0.379 NA 
HETATM   13  H1  UNL     1      -8.736  10.152  71.506  1.00  0.00     0.000 HD 
ENDROOT
BRANCH   6  14
HETATM   14  N   UNL     1      -8.984   7.038  66.807  1.00  0.00    -0.127 NA 
HETATM   15  C   UNL     1      -8.825   5.584  66.753  1.00  0.00    -0.114 C  
HETATM   16  C   UNL     1      -7.919   5.910  64.413  1.00  0.00    -0.129 C  
HETATM   17  C   UNL     1      -8.938   5.172  65.283  1.00  0.00    -0.144 C  
HETATM   18  C   UNL     1      -7.969   7.425  64.642  1.00  0.00    -0.127 C  
HETATM   19  C   UNL     1      -7.920   7.781  66.129  1.00  0.00    -0.105 C  
ENDBRANCH   6  14
TORSDOF 1
ENDMDL
MODEL      159
REMARK 921   NORMALIZED FREE ENERGY PREDICTED BY IDOCK:   -2.85 KCAL/MOL
REMARK 922        TOTAL FREE ENERGY PREDICTED BY IDOCK:   -3.29 KCAL/MOL
REMARK 923 INTER-LIGAND FREE ENERGY PREDICTED BY IDOCK:   -3.06 KCAL/MOL
REMARK 924 INTRA-LIGAND FREE ENERGY PREDICTED BY IDOCK:   -0.23 KCAL/MOL
REMARK 927      BINDING AFFINITY PREDICTED BY RF-SCORE:    0.00 PKD
ROOT
HETATM    1  N   UNL     1     -11.609   9.995  71.071  1.00  0.00    -0.372 NA 
HETATM    2  H1  UNL     1     -12.094  10.219  71.939  1.00  0.00     0.000 HD 
HETATM    3  C   UNL     1     -11.046   8.708  70.865  1.00  0.00    -0.264 A  
HETATM    4  H2  UNL     1     -12.239  10.194  70.294  1.00  0.00     0.000 HD 
HETATM    5  C   UNL     1     -10.387   8.403  69.683  1.00  0.00    -0.218 A  
HETATM    6  C   UNL     1      -9.876   7.127  69.498  1.00  0.00    -0.162 A  
HETATM    7  N   UNL     1      -9.965   6.189  70.466  1.00  0.00    -0.178 NA 
HETATM    8  O   UNL     1     -11.742   8.026  72.976  1.00  0.00    -0.309 OA 
HETATM    9  C   UNL     1     -10.592   6.477  71.636  1.00  0.00    -0.217 A  
HETATM   10  H2  UNL     1      -9.744   5.141  72.824  1.00  0.00     0.000 HD 
HETATM   11  N   UNL     1     -11.143   7.742  71.868  1.00  0.00    -0.247 NA 
HETATM   12  N   UNL     1     -10.681   5.485  72.618  1.00  0.00    -0.228 NA 
HETATM   13  H1  UNL     1     -11.152   5.700  73.497  1.00  0.00     0.000 HD 
ENDROOT
BRANCH   6  14
HETATM   14  N   UNL     1      -9.391   6.778  68.245  1.00  0.00    -0.125 NA 
HETATM   15  C   UNL     1      -8.173   7.456  67.798  1.00  0.00    -0.119 C  
HETATM   16  C   UNL     1      -8.374   6.110  65.666  1.00  0.00    -0.146 C  
HETATM   17  C   UNL     1      -7.462   6.511  66.826  1.00  0.00    -0.079 C  
HETATM   18  C   UNL     1      -9.728   5.591  66.161  1.00  0.00    -0.147 C  
HETATM   19  C   UNL     1     -10.366   6.538  67.180  1.00  0.00    -0.247 C  
ENDBRANCH   6  14
TORSDOF 1
ENDMDL
MODEL      160
REMARK 921   NORMALIZED FREE ENERGY PREDICTED BY IDOCK:   -2.84 KCAL/MOL
REMARK 922        TOTAL FREE ENERGY PREDICTED BY IDOCK:   -3.28 KCAL/MOL
REMARK 923 INTER-LIGAND FREE ENERGY PREDICTED BY IDOCK:   -3.02 KCAL/MOL
REMARK 924 INTRA-LIGAND FREE ENERGY PREDICTED BY IDOCK:   -0.25 KCAL/MOL
REMARK 927      BINDING AFFINITY PREDICTED BY RF-SCORE:    0.00 PKD
ROOT
HETATM    1  N   UNL     1      -9.946  13.275  64.963  1.00  0.00    -0.546 NA 
HETATM    2  H1  UNL     1      -9.607  14.070  64.422  1.00  0.00     0.000 HD 
HETATM    3  C   UNL     1      -9.971  13.318  66.381  1.00  0.00    -0.288 A  
HETATM    4  H2  UNL     1     -10.884  13.045  64.635  1.00  0.00     0.000 HD 
HETATM    5  C   UNL     1     -10.433  12.236  67.116  1.00  0.00    -0.238 A  
HETATM    6  C   UNL     1     -10.475  12.321  68.500  1.00  0.00    -0.232 A  
HETATM    7  N   UNL     1     -10.031  13.419  69.148  1.00  0.00     0.188 NA 
HETATM    8  O   UNL     1      -9.067  15.461  66.367  1.00  0.00    -0.270 OA 
HETATM    9  C   UNL     1      -9.560  14.481  68.445  1.00  0.00    -0.213 A  
HETATM   10  H2  UNL     1      -8.408  15.324  69.815  1.00  0.00     0.000 HD 
HETATM   11  N   UNL     1      -9.513  14.457  67.046  1.00  0.00    -0.238 NA 
HETATM   12  N   UNL     1      -9.116  15.611  69.139  1.00  0.00    -0.239 NA 
HETATM   13  H1  UNL     1      -8.762  16.408  68.611  1.00  0.00     0.000 HD 
ENDROOT
BRANCH   6  14
HETATM   14  N   UNL     1     -11.114  11.314  69.210  1.00  0.00    -0.241 NA 
HETATM   15  C   UNL     1     -12.059  11.736  70.245  1.00  0.00    -0.342 C  
HETATM   16  C   UNL     1     -12.431   9.277  70.710  1.00  0.00    -0.099 C  
HETATM   17  C   UNL     1     -13.095  10.618  70.393  1.00  0.00    -0.099 C  
HETATM   18  C   UNL     1     -11.302   8.955  69.725  1.00  0.00     0.072 C  
HETATM   19  C   UNL     1     -10.333  10.128  69.562  1.00  0.00    -0.240 C  
ENDBRANCH   6  14
TORSDOF 1
ENDMDL
MODEL      161
REMARK 921   NORMALIZED FREE ENERGY PREDICTED BY IDOCK:   -2.81 KCAL/MOL
REMARK 922        TOTAL FREE ENERGY PREDICTED BY IDOCK:   -3.25 KCAL/MOL
REMARK 923 INTER-LIGAND FREE ENERGY PREDICTED BY IDOCK:   -2.98 KCAL/MOL
REMARK 924 INTRA-LIGAND FREE ENERGY PREDICTED BY IDOCK:   -0.27 KCAL/MOL
REMARK 927      BINDING AFFINITY PREDICTED BY RF-SCORE:    0.00 PKD
ROOT
HETATM    1  N   UNL     1      -7.756   6.320  71.314  1.00  0.00    -0.101 NA 
HETATM    2  H1  UNL     1      -7.979   5.923  72.227  1.00  0.00     0.000 HD 
HETATM    3  C   UNL     1      -8.748   6.989  70.552  1.00  0.00    -0.153 A  
HETATM    4  H2  UNL     1      -6.963   6.951  71.427  1.00  0.00     0.000 HD 
HETATM    5  C   UNL     1      -8.446   7.529  69.311  1.00  0.00    -0.136 A  
HETATM    6  C   UNL     1      -9.429   8.205  68.603  1.00  0.00    -0.147 A  
HETATM    7  N   UNL     1     -10.689   8.305  69.077  1.00  0.00    -0.139 NA 
HETATM    8  O   UNL     1     -10.341   6.577  72.196  1.00  0.00    -0.196 OA 
HETATM    9  C   UNL     1     -11.007   7.768  70.283  1.00  0.00    -0.247 A  
HETATM   10  H2  UNL     1     -12.958   7.529  70.055  1.00  0.00     0.000 HD 
HETATM   11  N   UNL     1     -10.050   7.093  71.048  1.00  0.00    -0.192 NA 
HETATM   12  N   UNL     1     -12.316   7.896  70.758  1.00  0.00    -0.509 NA 
HETATM   13  H1  UNL     1     -12.556   7.492  71.663  1.00  0.00     0.000 HD 
ENDROOT
BRANCH   6  14
HETATM   14  N   UNL     1      -9.066   8.902  67.459  1.00  0.00    -0.133 NA 
HETATM   15  C   UNL     1     -10.014   8.874  66.344  1.00  0.00    -0.284 C  
HETATM   16  C   UNL     1      -8.351  10.301  65.079  1.00  0.00    -0.169 C  
HETATM   17  C   UNL     1      -9.803  10.160  65.540  1.00  0.00    -0.365 C  
HETATM   18  C   UNL     1      -7.367  10.122  66.239  1.00  0.00    -0.112 C  
HETATM   19  C   UNL     1      -7.661   8.859  67.051  1.00  0.00    -0.098 C  
ENDBRANCH   6  14
TORSDOF 1
ENDMDL
MODEL      162
REMARK 921   NORMALIZED FREE ENERGY PREDICTED BY IDOCK:   -2.77 KCAL/MOL
REMARK 922        TOTAL FREE ENERGY PREDICTED BY IDOCK:   -3.21 KCAL/MOL
REMARK 923 INTER-LIGAND FREE ENERGY PREDICTED BY IDOCK:   -2.94 KCAL/MOL
REMARK 924 INTRA-LIGAND FREE ENERGY PREDICTED BY IDOCK:   -0.26 KCAL/MOL
REMARK 927      BINDING AFFINITY PREDICTED BY RF-SCORE:    0.00 PKD
ROOT
HETATM    1  N   UNL     1     -11.539   6.396  67.803  1.00  0.00    -0.512 NA 
HETATM    2  H1  UNL     1     -11.886   6.007  68.680  1.00  0.00     0.000 HD 
HETATM    3  C   UNL     1     -10.508   7.370  67.799  1.00  0.00    -0.232 A  
HETATM    4  H2  UNL     1     -11.248   5.622  67.205  1.00  0.00     0.000 HD 
HETATM    5  C   UNL     1     -10.035   7.899  66.606  1.00  0.00    -0.316 A  
HETATM    6  C   UNL     1      -9.004   8.826  66.633  1.00  0.00    -0.139 A  
HETATM    7  N   UNL     1      -8.483   9.261  67.801  1.00  0.00    -0.116 NA 
HETATM    8  O   UNL     1     -10.417   7.338  70.122  1.00  0.00    -0.208 OA 
HETATM    9  C   UNL     1      -8.945   8.767  68.978  1.00  0.00    -0.137 A  
HETATM   10  H2  UNL     1      -8.443  10.242  70.197  1.00  0.00     0.000 HD 
HETATM   11  N   UNL     1      -9.970   7.815  69.009  1.00  0.00    -0.178 NA 
HETATM   12  N   UNL     1      -8.381   9.224  70.173  1.00  0.00    -0.157 NA 
HETATM   13  H1  UNL     1      -8.728   8.854  71.057  1.00  0.00     0.000 HD 
ENDROOT
BRANCH   6  14
HETATM   14  N   UNL     1      -8.414   9.201  65.434  1.00  0.00    -0.140 NA 
HETATM   15  C   UNL     1      -7.023   9.653  65.498  1.00  0.00    -0.093 C  
HETATM   16  C   UNL     1      -7.169  10.005  62.997  1.00  0.00    -0.131 C  
HETATM   17  C   UNL     1      -6.388   9.352  64.138  1.00  0.00    -0.093 C  
HETATM   18  C   UNL     1      -8.665   9.678  63.073  1.00  0.00    -0.229 C  
HETATM   19  C   UNL     1      -9.236   9.933  64.469  1.00  0.00    -0.261 C  
ENDBRANCH   6  14
TORSDOF 1
ENDMDL
MODEL      163
REMARK 921   NORMALIZED FREE ENERGY PREDICTED BY IDOCK:   -2.72 KCAL/MOL
REMARK 922        TOTAL FREE ENERGY PREDICTED BY IDOCK:   -3.15 KCAL/MOL
REMARK 923 INTER-LIGAND FREE ENERGY PREDICTED BY IDOCK:   -2.89 KCAL/MOL
REMARK 924 INTRA-LIGAND FREE ENERGY PREDICTED BY IDOCK:   -0.26 KCAL/MOL
REMARK 927      BINDING AFFINITY PREDICTED BY RF-SCORE:    0.00 PKD
ROOT
HETATM    1  N   UNL     1     -10.478   9.741  67.188  1.00  0.00    -0.254 NA 
HETATM    2  H1  UNL     1     -10.359  10.647  66.737  1.00  0.00     0.000 HD 
HETATM    3  C   UNL     1      -9.684   9.377  68.307  1.00  0.00    -0.145 A  
HETATM    4  H2  UNL     1     -11.459   9.642  67.449  1.00  0.00     0.000 HD 
HETATM    5  C   UNL     1      -9.845   8.144  68.921  1.00  0.00    -0.178 A  
HETATM    6  C   UNL     1      -9.077   7.830  70.032  1.00  0.00    -0.150 A  
HETATM    7  N   UNL     1      -8.139   8.682  70.499  1.00  0.00    -0.102 NA 
HETATM    8  O   UNL     1      -8.551  11.406  68.209  1.00  0.00    -0.143 OA 
HETATM    9  C   UNL     1      -7.955   9.886  69.899  1.00  0.00    -0.182 A  
HETATM   10  H2  UNL     1      -6.092  10.267  70.444  1.00  0.00     0.000 HD 
HETATM   11  N   UNL     1      -8.717  10.263  68.787  1.00  0.00    -0.135 NA 
HETATM   12  N   UNL     1      -6.986  10.756  70.408  1.00  0.00    -0.483 NA 
HETATM   13  H1  UNL     1      -6.848  11.661  69.958  1.00  0.00     0.000 HD 
ENDROOT
BRANCH   6  14
HETATM   14  N   UNL     1      -9.380   6.680  70.749  1.00  0.00    -0.158 NA 
HETATM   15  C   UNL     1      -9.123   6.717  72.189  1.00  0.00    -0.138 C  
HETATM   16  C   UNL     1      -9.966   4.332  72.257  1.00  0.00    -0.236 C  
HETATM   17  C   UNL     1     -10.099   5.737  72.847  1.00  0.00    -0.205 C  
HETATM   18  C   UNL     1     -10.035   4.349  70.727  1.00  0.00    -0.247 C  
HETATM   19  C   UNL     1      -9.090   5.390  70.122  1.00  0.00    -0.135 C  
ENDBRANCH   6  14
TORSDOF 1
ENDMDL
MODEL      164
REMARK 921   NORMALIZED FREE ENERGY PREDICTED BY IDOCK:   -2.59 KCAL/MOL
REMARK 922        TOTAL FREE ENERGY PREDICTED BY IDOCK:   -3.01 KCAL/MOL
REMARK 923 INTER-LIGAND FREE ENERGY PREDICTED BY IDOCK:   -2.74 KCAL/MOL
REMARK 924 INTRA-LIGAND FREE ENERGY PREDICTED BY IDOCK:   -0.28 KCAL/MOL
REMARK 927      BINDING AFFINITY PREDICTED BY RF-SCORE:    0.00 PKD
ROOT
HETATM    1  N   UNL     1      -7.384   7.970  63.119  1.00  0.00    -0.098 NA 
HETATM    2  H1  UNL     1      -6.860   8.489  62.416  1.00  0.00     0.000 HD 
HETATM    3  C   UNL     1      -7.570   8.498  64.423  1.00  0.00    -0.117 A  
HETATM    4  H2  UNL     1      -8.302   7.748  62.733  1.00  0.00     0.000 HD 
HETATM    5  C   UNL     1      -8.283   7.792  65.381  1.00  0.00    -0.140 A  
HETATM    6  C   UNL     1      -8.475   8.349  66.636  1.00  0.00    -0.111 A  
HETATM    7  N   UNL     1      -7.939   9.545  66.961  1.00  0.00    -0.108 NA 
HETATM    8  O   UNL     1      -6.337  10.391  63.871  1.00  0.00    -0.121 OA 
HETATM    9  C   UNL     1      -7.223  10.242  66.042  1.00  0.00    -0.128 A  
HETATM   10  H2  UNL     1      -6.121  11.368  67.238  1.00  0.00     0.000 HD 
HETATM   11  N   UNL     1      -7.016   9.737  64.754  1.00  0.00    -0.116 NA 
HETATM   12  N   UNL     1      -6.689  11.484  66.399  1.00  0.00    -0.358 NA 
HETATM   13  H1  UNL     1      -6.151  12.008  65.709  1.00  0.00     0.000 HD 
ENDROOT
BRANCH   6  14
HETATM   14  N   UNL     1      -9.347   7.723  67.517  1.00  0.00    -0.138 NA 
HETATM   15  C   UNL     1      -9.991   6.496  67.045  1.00  0.00    -0.166 C  
HETATM   16  C   UNL     1     -11.165   6.418  69.284  1.00  0.00    -0.440 C  
HETATM   17  C   UNL     1     -10.306   5.648  68.280  1.00  0.00    -0.253 C  
HETATM   18  C   UNL     1     -10.568   7.792  69.607  1.00  0.00    -0.242 C  
HETATM   19  C   UNL     1     -10.209   8.572  68.340  1.00  0.00    -0.203 C  
ENDBRANCH   6  14
TORSDOF 1
ENDMDL
MODEL      165
REMARK 921   NORMALIZED FREE ENERGY PREDICTED BY IDOCK:   -2.52 KCAL/MOL
REMARK 922        TOTAL FREE ENERGY PREDICTED BY IDOCK:   -2.94 KCAL/MOL
REMARK 923 INTER-LIGAND FREE ENERGY PREDICTED BY IDOCK:   -2.69 KCAL/MOL
REMARK 924 INTRA-LIGAND FREE ENERGY PREDICTED BY IDOCK:   -0.25 KCAL/MOL
REMARK 927      BINDING AFFINITY PREDICTED BY RF-SCORE:    0.00 PKD
ROOT
HETATM    1  N   UNL     1     -11.284   7.291  68.085  1.00  0.00    -0.448 NA 
HETATM    2  H1  UNL     1     -11.236   7.992  67.346  1.00  0.00     0.000 HD 
HETATM    3  C   UNL     1     -10.233   7.157  69.028  1.00  0.00    -0.190 A  
HETATM    4  H2  UNL     1     -12.156   7.427  68.596  1.00  0.00     0.000 HD 
HETATM    5  C   UNL     1     -10.298   6.203  70.034  1.00  0.00    -0.267 A  
HETATM    6  C   UNL     1      -9.271   6.119  70.961  1.00  0.00    -0.157 A  
HETATM    7  N   UNL     1      -8.183   6.915  70.875  1.00  0.00    -0.117 NA 
HETATM    8  O   UNL     1      -9.039   8.863  67.994  1.00  0.00    -0.139 OA 
HETATM    9  C   UNL     1      -8.094   7.842  69.888  1.00  0.00    -0.118 A  
HETATM   10  H2  UNL     1      -6.131   8.074  69.801  1.00  0.00     0.000 HD 
HETATM   11  N   UNL     1      -9.112   7.985  68.938  1.00  0.00    -0.145 NA 
HETATM   12  N   UNL     1      -6.964   8.663  69.828  1.00  0.00    -0.046 NA 
HETATM   13  H1  UNL     1      -6.897   9.360  69.086  1.00  0.00     0.000 HD 
ENDROOT
BRANCH   6  14
HETATM   14  N   UNL     1      -9.436   5.296  72.067  1.00  0.00    -0.144 NA 
HETATM   15  C   UNL     1      -8.593   4.102  72.131  1.00  0.00    -0.106 C  
HETATM   16  C   UNL     1      -9.761   3.566  74.310  1.00  0.00    -0.144 C  
HETATM   17  C   UNL     1      -8.414   3.755  73.611  1.00  0.00    -0.087 C  
HETATM   18  C   UNL     1     -10.704   4.747  74.056  1.00  0.00    -0.358 C  
HETATM   19  C   UNL     1     -10.796   5.096  72.569  1.00  0.00    -0.223 C  
ENDBRANCH   6  14
TORSDOF 1
ENDMDL
MODEL      166
REMARK 921   NORMALIZED FREE ENERGY PREDICTED BY IDOCK:   -2.47 KCAL/MOL
REMARK 922        TOTAL FREE ENERGY PREDICTED BY IDOCK:   -2.89 KCAL/MOL
REMARK 923 INTER-LIGAND FREE ENERGY PREDICTED BY IDOCK:   -2.63 KCAL/MOL
REMARK 924 INTRA-LIGAND FREE ENERGY PREDICTED BY IDOCK:   -0.26 KCAL/MOL
REMARK 927      BINDING AFFINITY PREDICTED BY RF-SCORE:    0.00 PKD
ROOT
HETATM    1  N   UNL     1      -5.913   7.621  62.977  1.00  0.00    -0.054 NA 
HETATM    2  H1  UNL     1      -5.448   8.087  62.198  1.00  0.00     0.000 HD 
HETATM    3  C   UNL     1      -6.967   8.259  63.680  1.00  0.00    -0.084 A  
HETATM    4  H2  UNL     1      -6.252   6.717  62.649  1.00  0.00     0.000 HD 
HETATM    5  C   UNL     1      -7.600   7.625  64.739  1.00  0.00    -0.105 A  
HETATM    6  C   UNL     1      -8.649   8.261  65.387  1.00  0.00    -0.151 A  
HETATM    7  N   UNL     1      -9.034   9.508  65.038  1.00  0.00    -0.201 NA 
HETATM    8  O   UNL     1      -6.766  10.149  62.340  1.00  0.00    -0.113 OA 
HETATM    9  C   UNL     1      -8.414  10.151  64.015  1.00  0.00    -0.184 A  
HETATM   10  H2  UNL     1      -8.806  12.030  64.494  1.00  0.00     0.000 HD 
HETATM   11  N   UNL     1      -7.364   9.547  63.314  1.00  0.00    -0.108 NA 
HETATM   12  N   UNL     1      -8.839  11.436  63.666  1.00  0.00    -0.413 NA 
HETATM   13  H1  UNL     1      -8.374  11.919  62.897  1.00  0.00     0.000 HD 
ENDROOT
BRANCH   6  14
HETATM   14  N   UNL     1      -9.395   7.544  66.311  1.00  0.00    -0.154 NA 
HETATM   15  C   UNL     1      -9.553   8.144  67.637  1.00  0.00    -0.152 C  
HETATM   16  C   UNL     1     -10.900   6.093  68.251  1.00  0.00    -0.387 C  
HETATM   17  C   UNL     1     -10.871   7.621  68.215  1.00  0.00    -0.023 C  
HETATM   18  C   UNL     1     -10.530   5.485  66.893  1.00  0.00    -0.348 C  
HETATM   19  C   UNL     1      -9.242   6.088  66.329  1.00  0.00    -0.154 C  
ENDBRANCH   6  14
TORSDOF 1
ENDMDL
MODEL      167
REMARK 921   NORMALIZED FREE ENERGY PREDICTED BY IDOCK:   -2.46 KCAL/MOL
REMARK 922        TOTAL FREE ENERGY PREDICTED BY IDOCK:   -2.87 KCAL/MOL
REMARK 923 INTER-LIGAND FREE ENERGY PREDICTED BY IDOCK:   -2.60 KCAL/MOL
REMARK 924 INTRA-LIGAND FREE ENERGY PREDICTED BY IDOCK:   -0.27 KCAL/MOL
REMARK 927      BINDING AFFINITY PREDICTED BY RF-SCORE:    0.00 PKD
ROOT
HETATM    1  N   UNL     1      -7.668   5.450  64.875  1.00  0.00    -0.084 NA 
HETATM    2  H1  UNL     1      -7.171   4.761  64.311  1.00  0.00     0.000 HD 
HETATM    3  C   UNL     1      -8.374   5.061  66.042  1.00  0.00    -0.114 A  
HETATM    4  H2  UNL     1      -7.009   6.185  65.132  1.00  0.00     0.000 HD 
HETATM    5  C   UNL     1      -9.050   5.999  66.809  1.00  0.00    -0.134 A  
HETATM    6  C   UNL     1      -9.705   5.592  67.962  1.00  0.00    -0.126 A  
HETATM    7  N   UNL     1      -9.738   4.293  68.328  1.00  0.00    -0.131 NA 
HETATM    8  O   UNL     1      -7.789   2.837  65.698  1.00  0.00    -0.080 OA 
HETATM    9  C   UNL     1      -9.096   3.359  67.579  1.00  0.00    -0.169 A  
HETATM   10  H2  UNL     1     -10.110   1.740  68.097  1.00  0.00     0.000 HD 
HETATM   11  N   UNL     1      -8.403   3.716  66.418  1.00  0.00    -0.103 NA 
HETATM   12  N   UNL     1      -9.136   2.022  67.986  1.00  0.00    -0.149 NA 
HETATM   13  H1  UNL     1      -8.654   1.320  67.424  1.00  0.00     0.000 HD 
ENDROOT
BRANCH   6  14
HETATM   14  N   UNL     1     -10.211   6.561  68.818  1.00  0.00    -0.160 NA 
HETATM   15  C   UNL     1     -11.390   6.194  69.604  1.00  0.00    -0.372 C  
HETATM   16  C   UNL     1     -11.300   8.529  70.571  1.00  0.00    -0.235 C  
HETATM   17  C   UNL     1     -11.359   7.033  70.884  1.00  0.00    -0.334 C  
HETATM   18  C   UNL     1     -10.177   8.859  69.582  1.00  0.00    -0.209 C  
HETATM   19  C   UNL     1     -10.212   7.949  68.352  1.00  0.00    -0.202 C  
ENDBRANCH   6  14
TORSDOF 1
ENDMDL
MODEL      168
REMARK 921   NORMALIZED FREE ENERGY PREDICTED BY IDOCK:   -2.28 KCAL/MOL
REMARK 922        TOTAL FREE ENERGY PREDICTED BY IDOCK:   -2.69 KCAL/MOL
REMARK 923 INTER-LIGAND FREE ENERGY PREDICTED BY IDOCK:   -2.42 KCAL/MOL
REMARK 924 INTRA-LIGAND FREE ENERGY PREDICTED BY IDOCK:   -0.27 KCAL/MOL
REMARK 927      BINDING AFFINITY PREDICTED BY RF-SCORE:    0.00 PKD
ROOT
HETATM    1  N   UNL     1      -9.076  12.022  65.996  1.00  0.00    -0.391 NA 
HETATM    2  H1  UNL     1      -8.710  12.972  65.947  1.00  0.00     0.000 HD 
HETATM    3  C   UNL     1      -8.589  11.105  66.964  1.00  0.00    -0.147 A  
HETATM    4  H2  UNL     1     -10.090  12.076  66.092  1.00  0.00     0.000 HD 
HETATM    5  C   UNL     1      -9.087   9.812  67.031  1.00  0.00    -0.157 A  
HETATM    6  C   UNL     1      -8.614   8.949  68.009  1.00  0.00    -0.130 A  
HETATM    7  N   UNL     1      -7.642   9.328  68.867  1.00  0.00    -0.075 NA 
HETATM    8  O   UNL     1      -7.108  12.700  67.782  1.00  0.00    -0.098 OA 
HETATM    9  C   UNL     1      -7.131  10.584  68.804  1.00  0.00    -0.073 A  
HETATM   10  H2  UNL     1      -5.368  10.287  69.650  1.00  0.00     0.000 HD 
HETATM   11  N   UNL     1      -7.586  11.502  67.851  1.00  0.00    -0.107 NA 
HETATM   12  N   UNL     1      -6.135  10.956  69.712  1.00  0.00    -0.073 NA 
HETATM   13  H1  UNL     1      -5.750  11.900  69.665  1.00  0.00     0.000 HD 
ENDROOT
BRANCH   6  14
HETATM   14  N   UNL     1      -9.253   7.730  68.187  1.00  0.00    -0.139 NA 
HETATM   15  C   UNL     1      -8.732   6.863  69.245  1.00  0.00    -0.135 C  
HETATM   16  C   UNL     1     -10.520   5.204  68.572  1.00  0.00    -0.090 C  
HETATM   17  C   UNL     1      -9.894   5.990  69.726  1.00  0.00    -0.208 C  
HETATM   18  C   UNL     1     -10.871   6.114  67.390  1.00  0.00    -0.431 C  
HETATM   19  C   UNL     1      -9.699   7.013  66.992  1.00  0.00    -0.167 C  
ENDBRANCH   6  14
TORSDOF 1
ENDMDL
MODEL      169
REMARK 921   NORMALIZED FREE ENERGY PREDICTED BY IDOCK:   -2.20 KCAL/MOL
REMARK 922        TOTAL FREE ENERGY PREDICTED BY IDOCK:   -2.61 KCAL/MOL
REMARK 923 INTER-LIGAND FREE ENERGY PREDICTED BY IDOCK:   -2.35 KCAL/MOL
REMARK 924 INTRA-LIGAND FREE ENERGY PREDICTED BY IDOCK:   -0.26 KCAL/MOL
REMARK 927      BINDING AFFINITY PREDICTED BY RF-SCORE:    0.00 PKD
ROOT
HETATM    1  N   UNL     1      -5.345  10.657  67.390  1.00  0.00    -0.040 NA 
HETATM    2  H1  UNL     1      -4.935   9.736  67.546  1.00  0.00     0.000 HD 
HETATM    3  C   UNL     1      -6.698  10.916  67.730  1.00  0.00    -0.064 A  
HETATM    4  H2  UNL     1      -4.761  11.348  67.861  1.00  0.00     0.000 HD 
HETATM    5  C   UNL     1      -7.255  12.169  67.519  1.00  0.00    -0.133 A  
HETATM    6  C   UNL     1      -8.571  12.401  67.890  1.00  0.00    -0.171 A  
HETATM    7  N   UNL     1      -9.336  11.417  68.409  1.00  0.00    -0.189 NA 
HETATM    8  O   UNL     1      -6.975   8.723  68.453  1.00  0.00    -0.064 OA 
HETATM    9  C   UNL     1      -8.812  10.180  68.607  1.00  0.00    -0.136 A  
HETATM   10  H2  UNL     1     -10.465   9.093  68.592  1.00  0.00     0.000 HD 
HETATM   11  N   UNL     1      -7.484   9.896  68.269  1.00  0.00    -0.079 NA 
HETATM   12  N   UNL     1      -9.621   9.181  69.158  1.00  0.00    -0.158 NA 
HETATM   13  H1  UNL     1      -9.228   8.252  69.306  1.00  0.00     0.000 HD 
ENDROOT
BRANCH   6  14
HETATM   14  N   UNL     1      -9.055  13.701  67.852  1.00  0.00    -0.189 NA 
HETATM   15  C   UNL     1      -8.557  14.619  68.878  1.00  0.00    -0.131 C  
HETATM   16  C   UNL     1     -10.041  16.377  67.826  1.00  0.00    -0.262 C  
HETATM   17  C   UNL     1      -8.626  16.032  68.291  1.00  0.00    -0.179 C  
HETATM   18  C   UNL     1     -10.619  15.292  66.910  1.00  0.00    -0.304 C  
HETATM   19  C   UNL     1     -10.465  13.894  67.512  1.00  0.00    -0.248 C  
ENDBRANCH   6  14
TORSDOF 1
ENDMDL
MODEL      170
REMARK 921   NORMALIZED FREE ENERGY PREDICTED BY IDOCK:   -2.19 KCAL/MOL
REMARK 922        TOTAL FREE ENERGY PREDICTED BY IDOCK:   -2.59 KCAL/MOL
REMARK 923 INTER-LIGAND FREE ENERGY PREDICTED BY IDOCK:   -2.31 KCAL/MOL
REMARK 924 INTRA-LIGAND FREE ENERGY PREDICTED BY IDOCK:   -0.28 KCAL/MOL
REMARK 927      BINDING AFFINITY PREDICTED BY RF-SCORE:    0.00 PKD
ROOT
HETATM    1  N   UNL     1      -9.072   5.557  74.186  1.00  0.00    -0.122 NA 
HETATM    2  H1  UNL     1      -9.818   5.014  74.618  1.00  0.00     0.000 HD 
HETATM    3  C   UNL     1      -9.310   6.306  73.004  1.00  0.00    -0.138 A  
HETATM    4  H2  UNL     1      -8.689   6.188  74.890  1.00  0.00     0.000 HD 
HETATM    5  C   UNL     1      -8.295   7.046  72.416  1.00  0.00    -0.120 A  
HETATM    6  C   UNL     1      -8.567   7.793  71.279  1.00  0.00    -0.120 A  
HETATM    7  N   UNL     1      -9.790   7.776  70.706  1.00  0.00    -0.181 NA 
HETATM    8  O   UNL     1     -11.521   5.587  72.952  1.00  0.00    -0.304 OA 
HETATM    9  C   UNL     1     -10.790   7.044  71.259  1.00  0.00    -0.235 A  
HETATM   10  H2  UNL     1     -11.947   6.782  69.675  1.00  0.00     0.000 HD 
HETATM   11  N   UNL     1     -10.577   6.288  72.417  1.00  0.00    -0.204 NA 
HETATM   12  N   UNL     1     -12.050   7.053  70.653  1.00  0.00    -0.546 NA 
HETATM   13  H1  UNL     1     -12.803   6.503  71.068  1.00  0.00     0.000 HD 
ENDROOT
BRANCH   6  14
HETATM   14  N   UNL     1      -7.600   8.674  70.814  1.00  0.00    -0.073 NA 
HETATM   15  C   UNL     1      -6.614   9.143  71.788  1.00  0.00     0.050 C  
HETATM   16  C   UNL     1      -5.611  10.505  69.907  1.00  0.00    -0.048 C  
HETATM   17  C   UNL     1      -5.339   9.482  71.011  1.00  0.00    -0.047 C  
HETATM   18  C   UNL     1      -6.788  10.084  69.021  1.00  0.00    -0.055 C  
HETATM   19  C   UNL     1      -8.015   9.691  69.847  1.00  0.00    -0.167 C  
ENDBRANCH   6  14
TORSDOF 1
ENDMDL
MODEL      171
REMARK 921   NORMALIZED FREE ENERGY PREDICTED BY IDOCK:   -2.12 KCAL/MOL
REMARK 922        TOTAL FREE ENERGY PREDICTED BY IDOCK:   -2.52 KCAL/MOL
REMARK 923 INTER-LIGAND FREE ENERGY PREDICTED BY IDOCK:   -2.28 KCAL/MOL
REMARK 924 INTRA-LIGAND FREE ENERGY PREDICTED BY IDOCK:   -0.24 KCAL/MOL
REMARK 927      BINDING AFFINITY PREDICTED BY RF-SCORE:    0.00 PKD
ROOT
HETATM    1  N   UNL     1      -6.438  14.626  70.412  1.00  0.00    -0.247 NA 
HETATM    2  H1  UNL     1      -5.978  14.897  71.281  1.00  0.00     0.000 HD 
HETATM    3  C   UNL     1      -6.527  13.262  70.031  1.00  0.00     0.066 A  
HETATM    4  H2  UNL     1      -7.380  15.018  70.416  1.00  0.00     0.000 HD 
HETATM    5  C   UNL     1      -7.152  12.895  68.849  1.00  0.00    -0.063 A  
HETATM    6  C   UNL     1      -7.252  11.552  68.520  1.00  0.00    -0.096 A  
HETATM    7  N   UNL     1      -6.708  10.596  69.304  1.00  0.00    -0.065 NA 
HETATM    8  O   UNL     1      -5.368  12.616  71.941  1.00  0.00    -0.378 OA 
HETATM    9  C   UNL     1      -6.077  10.939  70.456  1.00  0.00    -0.102 A  
HETATM   10  H2  UNL     1      -4.900   9.367  70.691  1.00  0.00     0.000 HD 
HETATM   11  N   UNL     1      -5.966  12.278  70.847  1.00  0.00    -0.270 NA 
HETATM   12  N   UNL     1      -5.534   9.930  71.257  1.00  0.00    -0.072 NA 
HETATM   13  H1  UNL     1      -5.060  10.187  72.123  1.00  0.00     0.000 HD 
ENDROOT
BRANCH   6  14
HETATM   14  N   UNL     1      -8.042  11.187  67.438  1.00  0.00    -0.128 NA 
HETATM   15  C   UNL     1      -7.402  11.197  66.122  1.00  0.00    -0.007 C  
HETATM   16  C   UNL     1      -9.636  10.468  65.186  1.00  0.00    -0.316 C  
HETATM   17  C   UNL     1      -8.138  10.172  65.255  1.00  0.00    -0.151 C  
HETATM   18  C   UNL     1     -10.244  10.655  66.580  1.00  0.00    -0.284 C  
HETATM   19  C   UNL     1      -9.435  11.638  67.429  1.00  0.00    -0.167 C  
ENDBRANCH   6  14
TORSDOF 1
ENDMDL
MODEL      172
REMARK 921   NORMALIZED FREE ENERGY PREDICTED BY IDOCK:   -1.93 KCAL/MOL
REMARK 922        TOTAL FREE ENERGY PREDICTED BY IDOCK:   -2.32 KCAL/MOL
REMARK 923 INTER-LIGAND FREE ENERGY PREDICTED BY IDOCK:   -2.07 KCAL/MOL
REMARK 924 INTRA-LIGAND FREE ENERGY PREDICTED BY IDOCK:   -0.25 KCAL/MOL
REMARK 927      BINDING AFFINITY PREDICTED BY RF-SCORE:    0.00 PKD
ROOT
HETATM    1  N   UNL     1     -11.584   6.740  67.218  1.00  0.00    -0.613 NA 
HETATM    2  H1  UNL     1     -12.212   7.172  67.895  1.00  0.00     0.000 HD 
HETATM    3  C   UNL     1     -10.370   6.135  67.636  1.00  0.00    -0.201 A  
HETATM    4  H2  UNL     1     -12.116   6.051  66.687  1.00  0.00     0.000 HD 
HETATM    5  C   UNL     1      -9.516   5.547  66.715  1.00  0.00    -0.147 A  
HETATM    6  C   UNL     1      -8.353   4.935  67.158  1.00  0.00    -0.106 A  
HETATM    7  N   UNL     1      -8.010   4.944  68.464  1.00  0.00    -0.084 NA 
HETATM    8  O   UNL     1     -10.806   6.705  69.848  1.00  0.00    -0.234 OA 
HETATM    9  C   UNL     1      -8.826   5.530  69.377  1.00  0.00    -0.106 A  
HETATM   10  H2  UNL     1      -7.522   5.916  70.814  1.00  0.00     0.000 HD 
HETATM   11  N   UNL     1     -10.022   6.144  68.988  1.00  0.00    -0.146 NA 
HETATM   12  N   UNL     1      -8.455   5.515  70.725  1.00  0.00    -0.121 NA 
HETATM   13  H1  UNL     1      -9.068   5.956  71.412  1.00  0.00     0.000 HD 
ENDROOT
BRANCH   6  14
HETATM   14  N   UNL     1      -7.608   4.188  66.256  1.00  0.00    -0.088 NA 
HETATM   15  C   UNL     1      -6.360   4.785  65.779  1.00  0.00    -0.039 C  
HETATM   16  C   UNL     1      -6.058   2.697  64.383  1.00  0.00    -0.018 C  
HETATM   17  C   UNL     1      -5.420   3.633  65.411  1.00  0.00    -0.010 C  
HETATM   18  C   UNL     1      -7.457   2.246  64.817  1.00  0.00    -0.063 C  
HETATM   19  C   UNL     1      -8.334   3.427  65.238  1.00  0.00    -0.098 C  
ENDBRANCH   6  14
TORSDOF 1
ENDMDL
MODEL      173
REMARK 921   NORMALIZED FREE ENERGY PREDICTED BY IDOCK:   -1.80 KCAL/MOL
REMARK 922        TOTAL FREE ENERGY PREDICTED BY IDOCK:   -2.18 KCAL/MOL
REMARK 923 INTER-LIGAND FREE ENERGY PREDICTED BY IDOCK:   -1.90 KCAL/MOL
REMARK 924 INTRA-LIGAND FREE ENERGY PREDICTED BY IDOCK:   -0.28 KCAL/MOL
REMARK 927      BINDING AFFINITY PREDICTED BY RF-SCORE:    0.00 PKD
ROOT
HETATM    1  N   UNL     1     -10.343   7.826  69.624  1.00  0.00    -0.208 NA 
HETATM    2  H1  UNL     1     -10.865   8.700  69.686  1.00  0.00     0.000 HD 
HETATM    3  C   UNL     1      -9.814   7.212  70.789  1.00  0.00    -0.178 A  
HETATM    4  H2  UNL     1     -10.925   7.142  69.141  1.00  0.00     0.000 HD 
HETATM    5  C   UNL     1      -9.104   6.023  70.704  1.00  0.00    -0.157 A  
HETATM    6  C   UNL     1      -8.627   5.430  71.863  1.00  0.00    -0.131 A  
HETATM    7  N   UNL     1      -8.797   6.013  73.070  1.00  0.00    -0.123 NA 
HETATM    8  O   UNL     1     -10.641   8.933  72.116  1.00  0.00    -0.340 OA 
HETATM    9  C   UNL     1      -9.475   7.186  73.169  1.00  0.00    -0.167 A  
HETATM   10  H2  UNL     1      -8.735   7.873  74.870  1.00  0.00     0.000 HD 
HETATM   11  N   UNL     1      -9.995   7.817  72.034  1.00  0.00    -0.172 NA 
HETATM   12  N   UNL     1      -9.648   7.763  74.431  1.00  0.00    -0.115 NA 
HETATM   13  H1  UNL     1     -10.157   8.644  74.506  1.00  0.00     0.000 HD 
ENDROOT
BRANCH   6  14
HETATM   14  N   UNL     1      -8.089   4.153  71.786  1.00  0.00    -0.088 NA 
HETATM   15  C   UNL     1      -8.333   3.410  70.548  1.00  0.00    -0.060 C  
HETATM   16  C   UNL     1      -7.024   1.514  71.594  1.00  0.00    -0.023 C  
HETATM   17  C   UNL     1      -7.171   2.428  70.376  1.00  0.00    -0.033 C  
HETATM   18  C   UNL     1      -6.975   2.313  72.900  1.00  0.00    -0.027 C  
HETATM   19  C   UNL     1      -8.118   3.327  72.994  1.00  0.00    -0.076 C  
ENDBRANCH   6  14
TORSDOF 1
ENDMDL
MODEL      174
REMARK 921   NORMALIZED FREE ENERGY PREDICTED BY IDOCK:   -1.59 KCAL/MOL
REMARK 922        TOTAL FREE ENERGY PREDICTED BY IDOCK:   -1.95 KCAL/MOL
REMARK 923 INTER-LIGAND FREE ENERGY PREDICTED BY IDOCK:   -1.68 KCAL/MOL
REMARK 924 INTRA-LIGAND FREE ENERGY PREDICTED BY IDOCK:   -0.28 KCAL/MOL
REMARK 927      BINDING AFFINITY PREDICTED BY RF-SCORE:    0.00 PKD
ROOT
HETATM    1  N   UNL     1      -5.449  15.048  71.620  1.00  0.00    -0.001 NA 
HETATM    2  H1  UNL     1      -5.321  15.466  72.541  1.00  0.00     0.000 HD 
HETATM    3  C   UNL     1      -5.480  13.638  71.460  1.00  0.00    -0.211 A  
HETATM    4  H2  UNL     1      -6.301  15.433  71.211  1.00  0.00     0.000 HD 
HETATM    5  C   UNL     1      -5.654  13.070  70.206  1.00  0.00    -0.145 A  
HETATM    6  C   UNL     1      -5.713  11.689  70.087  1.00  0.00    -0.141 A  
HETATM    7  N   UNL     1      -5.555  10.885  71.160  1.00  0.00    -0.306 NA 
HETATM    8  O   UNL     1      -5.140  13.336  73.740  1.00  0.00    -0.362 OA 
HETATM    9  C   UNL     1      -5.366  11.425  72.392  1.00  0.00     0.616 A  
HETATM   10  H2  UNL     1      -4.458   9.919  73.298  1.00  0.00     0.000 HD 
HETATM   11  N   UNL     1      -5.319  12.812  72.573  1.00  0.00    -0.327 NA 
HETATM   12  N   UNL     1      -5.218  10.572  73.490  1.00  0.00    -0.311 NA 
HETATM   13  H1  UNL     1      -5.076  10.976  74.415  1.00  0.00     0.000 HD 
ENDROOT
BRANCH   6  14
HETATM   14  N   UNL     1      -6.077  11.141  68.864  1.00  0.00    -0.044 NA 
HETATM   15  C   UNL     1      -6.318  12.080  67.768  1.00  0.00    -0.081 C  
HETATM   16  C   UNL     1      -6.852  10.060  66.342  1.00  0.00    -0.093 C  
HETATM   17  C   UNL     1      -6.018  11.336  66.463  1.00  0.00    -0.144 C  
HETATM   18  C   UNL     1      -6.740   9.187  67.597  1.00  0.00    -0.069 C  
HETATM   19  C   UNL     1      -6.983   9.991  68.876  1.00  0.00    -0.062 C  
ENDBRANCH   6  14
TORSDOF 1
ENDMDL
MODEL      175
REMARK 921   NORMALIZED FREE ENERGY PREDICTED BY IDOCK:    0.18 KCAL/MOL
REMARK 922        TOTAL FREE ENERGY PREDICTED BY IDOCK:   -0.08 KCAL/MOL
REMARK 923 INTER-LIGAND FREE ENERGY PREDICTED BY IDOCK:    0.17 KCAL/MOL
REMARK 924 INTRA-LIGAND FREE ENERGY PREDICTED BY IDOCK:   -0.25 KCAL/MOL
REMARK 927      BINDING AFFINITY PREDICTED BY RF-SCORE:    0.00 PKD
ROOT
HETATM    1  N   UNL     1     -11.114  15.937  69.190  1.00  0.00    -0.279 NA 
HETATM    2  H1  UNL     1     -11.870  15.418  68.745  1.00  0.00     0.000 HD 
HETATM    3  C   UNL     1     -10.152  16.630  68.410  1.00  0.00    -0.268 A  
HETATM    4  H2  UNL     1     -11.526  16.598  69.848  1.00  0.00     0.000 HD 
HETATM    5  C   UNL     1      -9.123  17.336  69.016  1.00  0.00    -0.096 A  
HETATM    6  C   UNL     1      -8.217  18.031  68.228  1.00  0.00    -0.292 A  
HETATM    7  N   UNL     1      -8.288  17.993  66.879  1.00  0.00    -0.240 NA 
HETATM    8  O   UNL     1     -11.179  15.922  66.448  1.00  0.00    -0.102 OA 
HETATM    9  C   UNL     1      -9.279  17.293  66.270  1.00  0.00    -0.215 A  
HETATM   10  H2  UNL     1      -8.441  16.963  64.509  1.00  0.00     0.000 HD 
HETATM   11  N   UNL     1     -10.232  16.591  67.017  1.00  0.00    -0.283 NA 
HETATM   12  N   UNL     1      -9.339  17.280  64.873  1.00  0.00     1.989 NA 
HETATM   13  H1  UNL     1     -10.083  16.754  64.415  1.00  0.00     0.000 HD 
ENDROOT
BRANCH   6  14
HETATM   14  N   UNL     1      -7.313  18.884  68.845  1.00  0.00    -0.317 NA 
HETATM   15  C   UNL     1      -6.637  18.374  70.039  1.00  0.00     0.215 C  
HETATM   16  C   UNL     1      -5.465  20.613  70.161  1.00  0.00    -0.359 C  
HETATM   17  C   UNL     1      -5.289  19.094  70.137  1.00  0.00    -0.229 C  
HETATM   18  C   UNL     1      -6.350  21.100  69.009  1.00  0.00     0.475 C  
HETATM   19  C   UNL     1      -7.655  20.305  68.913  1.00  0.00     0.168 C  
ENDBRANCH   6  14
TORSDOF 1
ENDMDL
MODEL      176
REMARK 921   NORMALIZED FREE ENERGY PREDICTED BY IDOCK:   12.94 KCAL/MOL
REMARK 922        TOTAL FREE ENERGY PREDICTED BY IDOCK:   13.43 KCAL/MOL
REMARK 923 INTER-LIGAND FREE ENERGY PREDICTED BY IDOCK:   13.70 KCAL/MOL
REMARK 924 INTRA-LIGAND FREE ENERGY PREDICTED BY IDOCK:   -0.27 KCAL/MOL
REMARK 927      BINDING AFFINITY PREDICTED BY RF-SCORE:    0.00 PKD
ROOT
HETATM    1  N   UNL     1      -8.861  10.527  69.266  1.00  0.00    -0.289 NA 
HETATM    2  H1  UNL     1      -8.916   9.514  69.368  1.00  0.00     0.000 HD 
HETATM    3  C   UNL     1      -8.035  11.300  70.122  1.00  0.00     1.726 A  
HETATM    4  H2  UNL     1      -8.603  10.735  68.301  1.00  0.00     0.000 HD 
HETATM    5  C   UNL     1      -7.960  12.678  69.982  1.00  0.00     2.596 A  
HETATM    6  C   UNL     1      -7.118  13.403  70.812  1.00  0.00     2.223 A  
HETATM    7  N   UNL     1      -6.406  12.799  71.788  1.00  0.00     1.544 NA 
HETATM    8  O   UNL     1      -7.377   9.389  71.272  1.00  0.00    -0.310 OA 
HETATM    9  C   UNL     1      -6.481  11.453  71.950  1.00  0.00     3.341 A  
HETATM   10  H2  UNL     1      -5.943  11.299  73.848  1.00  0.00     0.000 HD 
HETATM   11  N   UNL     1      -7.298  10.670  71.127  1.00  0.00     1.335 NA 
HETATM   12  N   UNL     1      -5.724  10.849  72.960  1.00  0.00     0.581 NA 
HETATM   13  H1  UNL     1      -5.780   9.838  73.082  1.00  0.00     0.000 HD 
ENDROOT
BRANCH   6  14
HETATM   14  N   UNL     1      -6.907  14.748  70.539  1.00  0.00     0.075 NA 
HETATM   15  C   UNL     1      -6.008  15.469  71.441  1.00  0.00     0.638 C  
HETATM   16  C   UNL     1      -6.464  17.518  70.028  1.00  0.00     0.203 C  
HETATM   17  C   UNL     1      -5.389  16.617  70.637  1.00  0.00    -0.173 C  
HETATM   18  C   UNL     1      -7.512  16.710  69.255  1.00  0.00    -0.165 C  
HETATM   19  C   UNL     1      -8.050  15.537  70.077  1.00  0.00     0.373 C  
ENDBRANCH   6  14
TORSDOF 1
ENDMDL
MODEL      177
REMARK 921   NORMALIZED FREE ENERGY PREDICTED BY IDOCK:   44.02 KCAL/MOL
REMARK 922        TOTAL FREE ENERGY PREDICTED BY IDOCK:   46.32 KCAL/MOL
REMARK 923 INTER-LIGAND FREE ENERGY PREDICTED BY IDOCK:   46.58 KCAL/MOL
REMARK 924 INTRA-LIGAND FREE ENERGY PREDICTED BY IDOCK:   -0.27 KCAL/MOL
REMARK 927      BINDING AFFINITY PREDICTED BY RF-SCORE:    0.00 PKD
ROOT
HETATM    1  N   UNL     1     -10.075  15.303  68.931  1.00  0.00    -0.216 NA 
HETATM    2  H1  UNL     1      -9.820  14.817  68.072  1.00  0.00     0.000 HD 
HETATM    3  C   UNL     1      -9.309  16.401  69.399  1.00  0.00    -0.090 A  
HETATM    4  H2  UNL     1     -11.046  15.605  68.848  1.00  0.00     0.000 HD 
HETATM    5  C   UNL     1      -9.656  17.063  70.568  1.00  0.00     2.653 A  
HETATM    6  C   UNL     1      -8.906  18.153  70.983  1.00  0.00     6.701 A  
HETATM    7  N   UNL     1      -7.814  18.554  70.297  1.00  0.00     1.840 NA 
HETATM    8  O   UNL     1      -7.844  16.191  67.605  1.00  0.00    -0.137 OA 
HETATM    9  C   UNL     1      -7.449  17.907  69.160  1.00  0.00    -0.082 A  
HETATM   10  H2  UNL     1      -5.526  18.366  69.099  1.00  0.00     0.000 HD 
HETATM   11  N   UNL     1      -8.182  16.814  68.685  1.00  0.00    -0.242 NA 
HETATM   12  N   UNL     1      -6.321  18.349  68.462  1.00  0.00    -0.211 NA 
HETATM   13  H1  UNL     1      -6.047  17.863  67.608  1.00  0.00     0.000 HD 
ENDROOT
BRANCH   6  14
HETATM   14  N   UNL     1      -9.374  18.919  72.042  1.00  0.00     6.424 NA 
HETATM   15  C   UNL     1      -8.684  20.186  72.292  1.00  0.00     2.783 C  
HETATM   16  C   UNL     1     -10.286  20.515  74.222  1.00  0.00    10.386 C  
HETATM   17  C   UNL     1      -9.695  21.128  72.951  1.00  0.00     5.516 C  
HETATM   18  C   UNL     1     -10.820  19.100  73.976  1.00  0.00     3.682 C  
HETATM   19  C   UNL     1      -9.797  18.220  73.255  1.00  0.00     7.576 C  
ENDBRANCH   6  14
TORSDOF 1
ENDMDL
