MODEL        1
REMARK 921   NORMALIZED FREE ENERGY PREDICTED BY IDOCK:   -7.79 KCAL/MOL
REMARK 922        TOTAL FREE ENERGY PREDICTED BY IDOCK:   -9.61 KCAL/MOL
REMARK 923 INTER-LIGAND FREE ENERGY PREDICTED BY IDOCK:   -9.15 KCAL/MOL
REMARK 924 INTRA-LIGAND FREE ENERGY PREDICTED BY IDOCK:   -0.46 KCAL/MOL
REMARK 927      BINDING AFFINITY PREDICTED BY RF-SCORE:    0.00 PKD
ROOT
HETATM    1  C   UNL     1     -10.620  15.542  68.627  1.00  0.00    -0.243 C  
HETATM    2  C   UNL     1     -11.263  15.149  69.943  1.00  0.00    -0.305 C  
HETATM    3  C   UNL     1     -11.682  13.729  70.100  1.00  0.00    -0.303 A  
HETATM    4  C   UNL     1     -11.053  12.756  69.283  1.00  0.00    -0.193 A  
HETATM    5  C   UNL     1     -11.458  11.422  69.391  1.00  0.00    -0.310 A  
HETATM    6  C   UNL     1      -9.941  13.125  68.339  1.00  0.00    -0.223 C  
HETATM    7  C   UNL     1     -12.450  11.063  70.292  1.00  0.00    -0.365 A  
HETATM    8  O   UNL     1      -9.303  12.246  67.758  1.00  0.00    -0.181 OA 
HETATM    9  C   UNL     1      -9.616  14.573  68.108  1.00  0.00    -0.212 C  
HETATM   10  O   UNL     1     -10.923  10.403  68.651  1.00  0.00    -0.215 OA 
HETATM   11  H   UNL     1     -11.198   9.497  68.724  1.00  0.00     0.000 HD 
HETATM   12  C   UNL     1     -13.027  12.028  71.124  1.00  0.00    -0.252 A  
HETATM   13  C   UNL     1      -8.547  15.002  67.391  1.00  0.00    -0.192 C  
HETATM   14  C   UNL     1      -8.280  16.495  67.049  1.00  0.00    -0.196 C  
HETATM   15  O   UNL     1      -7.702  14.110  66.739  1.00  0.00    -0.272 OA 
HETATM   16  C   UNL     1     -12.662  13.385  71.076  1.00  0.00    -0.307 A  
HETATM   17  O   UNL     1      -8.504  16.554  65.619  1.00  0.00    -0.301 OA 
HETATM   18  H   UNL     1      -6.954  14.410  66.237  1.00  0.00     0.000 HD 
HETATM   19  H   UNL     1      -6.938  20.347  69.578  1.00  0.00     0.000 HD 
HETATM   20  C   UNL     1      -6.830  17.013  67.190  1.00  0.00    -0.179 C  
HETATM   21  C   UNL     1      -6.598  18.480  66.982  1.00  0.00    -0.203 C  
HETATM   22  H   UNL     1      -8.341  17.466  65.410  1.00  0.00     0.000 HD 
HETATM   23  C   UNL     1      -9.949  16.860  68.935  1.00  0.00    -0.279 C  
HETATM   24  C   UNL     1      -9.241  17.500  67.746  1.00  0.00    -0.253 C  
HETATM   25  O   UNL     1      -5.868  16.319  67.520  1.00  0.00    -0.135 OA 
HETATM   26  O   UNL     1      -6.487  19.843  68.911  1.00  0.00    -0.284 OA 
HETATM   27  C   UNL     1      -7.236  19.193  67.925  1.00  0.00    -0.241 C  
HETATM   28  C   UNL     1      -8.614  18.796  68.388  1.00  0.00    -0.341 C  
ENDROOT
BRANCH  16  29
HETATM   29  N   UNL     1     -13.240  14.274  71.981  1.00  0.00    -0.357 NA 
HETATM   30  C   UNL     1     -14.390  15.090  71.592  1.00  0.00    -0.584 C  
HETATM   31  C   UNL     1     -12.665  14.648  73.273  1.00  0.00    -0.440 C  
ENDBRANCH  16  29
BRANCH  21  32
HETATM   32  C   UNL     1      -6.766  19.167  65.663  1.00  0.00    -0.279 C  
HETATM   33  O   UNL     1      -6.473  18.653  64.582  1.00  0.00    -0.437 OA 
HETATM   34  H2  UNL     1      -7.627  20.843  66.527  1.00  0.00     0.000 HD 
HETATM   35  N   UNL     1      -7.328  20.398  65.659  1.00  0.00    -0.521 N  
HETATM   36  H1  UNL     1      -7.442  20.867  64.761  1.00  0.00     0.000 HD 
ENDBRANCH  21  32
BRANCH  28  37
HETATM   37  N   UNL     1      -9.660  19.846  68.404  1.00  0.00    -0.332 NA 
HETATM   38  C   UNL     1     -10.629  19.709  67.320  1.00  0.00    -0.472 C  
HETATM   39  C   UNL     1     -10.360  19.993  69.682  1.00  0.00     0.256 C  
ENDBRANCH  28  37
TORSDOF 3
ENDMDL
MODEL        2
REMARK 921   NORMALIZED FREE ENERGY PREDICTED BY IDOCK:   -7.72 KCAL/MOL
REMARK 922        TOTAL FREE ENERGY PREDICTED BY IDOCK:   -9.53 KCAL/MOL
REMARK 923 INTER-LIGAND FREE ENERGY PREDICTED BY IDOCK:   -8.87 KCAL/MOL
REMARK 924 INTRA-LIGAND FREE ENERGY PREDICTED BY IDOCK:   -0.67 KCAL/MOL
REMARK 927      BINDING AFFINITY PREDICTED BY RF-SCORE:    0.00 PKD
ROOT
HETATM    1  C   UNL     1     -11.372  10.673  69.141  1.00  0.00    -0.338 C  
HETATM    2  C   UNL     1     -10.951  12.129  69.105  1.00  0.00    -0.215 C  
HETATM    3  C   UNL     1     -11.802  13.104  69.840  1.00  0.00    -0.378 A  
HETATM    4  C   UNL     1     -12.621  12.615  70.889  1.00  0.00    -0.338 A  
HETATM    5  C   UNL     1     -13.453  13.509  71.567  1.00  0.00    -0.240 A  
HETATM    6  C   UNL     1     -12.579  11.169  71.305  1.00  0.00    -0.398 C  
HETATM    7  C   UNL     1     -13.465  14.854  71.222  1.00  0.00    -0.500 A  
HETATM    8  O   UNL     1     -13.176  10.798  72.316  1.00  0.00    -0.402 OA 
HETATM    9  C   UNL     1     -11.808  10.182  70.477  1.00  0.00    -0.408 C  
HETATM   10  O   UNL     1     -14.286  13.146  72.591  1.00  0.00    -0.700 OA 
HETATM   11  H   UNL     1     -14.851  13.754  73.051  1.00  0.00     0.000 HD 
HETATM   12  C   UNL     1     -12.616  15.328  70.216  1.00  0.00    -0.388 A  
HETATM   13  C   UNL     1     -11.594   8.893  70.844  1.00  0.00    -0.283 C  
HETATM   14  C   UNL     1     -10.902   7.840  69.934  1.00  0.00    -0.226 C  
HETATM   15  O   UNL     1     -12.153   8.362  72.002  1.00  0.00    -0.312 OA 
HETATM   16  C   UNL     1     -11.747  14.487  69.500  1.00  0.00    -0.314 A  
HETATM   17  O   UNL     1     -11.981   6.934  69.594  1.00  0.00    -0.612 OA 
HETATM   18  H   UNL     1     -12.004   7.460  72.259  1.00  0.00     0.000 HD 
HETATM   19  H   UNL     1      -6.415   7.153  68.376  1.00  0.00     0.000 HD 
HETATM   20  C   UNL     1      -9.861   6.902  70.587  1.00  0.00    -0.182 C  
HETATM   21  C   UNL     1      -9.106   5.974  69.684  1.00  0.00    -0.139 C  
HETATM   22  H   UNL     1     -11.559   6.291  69.037  1.00  0.00     0.000 HD 
HETATM   23  C   UNL     1     -10.134   9.929  68.701  1.00  0.00    -0.191 C  
HETATM   24  C   UNL     1     -10.302   8.417  68.619  1.00  0.00    -0.222 C  
HETATM   25  O   UNL     1      -9.567   6.908  71.783  1.00  0.00    -0.160 OA 
HETATM   26  O   UNL     1      -6.954   6.659  68.982  1.00  0.00    -0.079 OA 
HETATM   27  C   UNL     1      -8.343   6.673  68.827  1.00  0.00    -0.120 C  
HETATM   28  C   UNL     1      -8.860   7.941  68.197  1.00  0.00    -0.125 C  
ENDROOT
BRANCH  16  29
HETATM   29  N   UNL     1     -10.888  15.048  68.555  1.00  0.00    -0.242 NA 
HETATM   30  C   UNL     1      -9.753  15.870  68.976  1.00  0.00    -0.243 C  
HETATM   31  C   UNL     1     -11.130  15.075  67.113  1.00  0.00    -0.332 C  
ENDBRANCH  16  29
BRANCH  21  32
HETATM   32  C   UNL     1      -9.739   4.836  68.947  1.00  0.00    -0.174 C  
HETATM   33  O   UNL     1     -10.503   4.980  67.991  1.00  0.00    -0.079 OA 
HETATM   34  H2  UNL     1      -8.738   3.411  70.073  1.00  0.00     0.000 HD 
HETATM   35  N   UNL     1      -9.402   3.578  69.317  1.00  0.00    -0.162 N  
HETATM   36  H1  UNL     1      -9.834   2.802  68.815  1.00  0.00     0.000 HD 
ENDBRANCH  21  32
BRANCH  28  37
HETATM   37  N   UNL     1      -8.754   8.066  66.723  1.00  0.00    -0.128 NA 
HETATM   38  C   UNL     1      -7.713   9.000  66.300  1.00  0.00    -0.095 C  
HETATM   39  C   UNL     1      -8.604   6.797  66.010  1.00  0.00    -0.145 C  
ENDBRANCH  28  37
TORSDOF 3
ENDMDL
MODEL        3
REMARK 921   NORMALIZED FREE ENERGY PREDICTED BY IDOCK:   -7.60 KCAL/MOL
REMARK 922        TOTAL FREE ENERGY PREDICTED BY IDOCK:   -9.39 KCAL/MOL
REMARK 923 INTER-LIGAND FREE ENERGY PREDICTED BY IDOCK:   -8.99 KCAL/MOL
REMARK 924 INTRA-LIGAND FREE ENERGY PREDICTED BY IDOCK:   -0.41 KCAL/MOL
REMARK 927      BINDING AFFINITY PREDICTED BY RF-SCORE:    0.00 PKD
ROOT
HETATM    1  C   UNL     1      -8.268  15.603  66.925  1.00  0.00    -0.288 C  
HETATM    2  C   UNL     1      -7.861  16.622  67.972  1.00  0.00    -0.173 C  
HETATM    3  C   UNL     1      -8.072  18.058  67.644  1.00  0.00    -0.232 A  
HETATM    4  C   UNL     1      -9.038  18.381  66.658  1.00  0.00    -0.301 A  
HETATM    5  C   UNL     1      -9.225  19.722  66.311  1.00  0.00    -0.388 A  
HETATM    6  C   UNL     1      -9.886  17.317  66.015  1.00  0.00    -0.200 C  
HETATM    7  C   UNL     1      -8.482  20.716  66.933  1.00  0.00    -0.202 A  
HETATM    8  O   UNL     1     -10.825  17.632  65.281  1.00  0.00    -0.600 OA 
HETATM    9  C   UNL     1      -9.578  15.870  66.269  1.00  0.00    -0.345 C  
HETATM   10  O   UNL     1     -10.127  20.147  65.373  1.00  0.00    -0.376 OA 
HETATM   11  H   UNL     1     -10.254  21.057  65.137  1.00  0.00     0.000 HD 
HETATM   12  C   UNL     1      -7.565  20.384  67.936  1.00  0.00    -0.243 A  
HETATM   13  C   UNL     1     -10.364  14.846  65.852  1.00  0.00    -0.314 C  
HETATM   14  C   UNL     1      -9.984  13.347  66.008  1.00  0.00    -0.293 C  
HETATM   15  O   UNL     1     -11.496  15.065  65.074  1.00  0.00    -0.366 OA 
HETATM   16  C   UNL     1      -7.334  19.058  68.342  1.00  0.00    -0.295 A  
HETATM   17  O   UNL     1      -9.739  12.921  64.645  1.00  0.00    -0.543 OA 
HETATM   18  H   UNL     1     -12.046  14.349  64.782  1.00  0.00     0.000 HD 
HETATM   19  H   UNL     1      -9.633  10.324  69.720  1.00  0.00     0.000 HD 
HETATM   20  C   UNL     1     -11.089  12.372  66.478  1.00  0.00    -0.301 C  
HETATM   21  C   UNL     1     -10.688  10.953  66.748  1.00  0.00    -0.309 C  
HETATM   22  H   UNL     1      -9.506  12.006  64.740  1.00  0.00     0.000 HD 
HETATM   23  C   UNL     1      -8.335  14.305  67.693  1.00  0.00    -0.187 C  
HETATM   24  C   UNL     1      -8.699  13.090  66.849  1.00  0.00    -0.158 C  
HETATM   25  O   UNL     1     -12.256  12.694  66.703  1.00  0.00    -0.517 OA 
HETATM   26  O   UNL     1     -10.245  10.362  68.995  1.00  0.00    -0.193 OA 
HETATM   27  C   UNL     1      -9.823  10.898  67.774  1.00  0.00    -0.175 C  
HETATM   28  C   UNL     1      -8.739  11.935  67.921  1.00  0.00    -0.167 C  
ENDROOT
BRANCH  16  29
HETATM   29  N   UNL     1      -6.449  18.816  69.392  1.00  0.00    -0.275 NA 
HETATM   30  C   UNL     1      -6.393  19.720  70.541  1.00  0.00    -0.156 C  
HETATM   31  C   UNL     1      -5.375  17.824  69.372  1.00  0.00    -0.194 C  
ENDBRANCH  16  29
BRANCH  21  32
HETATM   32  C   UNL     1     -10.235  10.002  65.685  1.00  0.00    -0.188 C  
HETATM   33  O   UNL     1     -10.243  10.268  64.481  1.00  0.00    -0.314 OA 
HETATM   34  H2  UNL     1      -9.666   8.564  67.065  1.00  0.00     0.000 HD 
HETATM   35  N   UNL     1      -9.734   8.808  66.078  1.00  0.00    -0.407 N  
HETATM   36  H1  UNL     1      -9.425   8.159  65.353  1.00  0.00     0.000 HD 
ENDBRANCH  21  32
BRANCH  28  37
HETATM   37  N   UNL     1      -7.351  11.453  68.121  1.00  0.00    -0.087 NA 
HETATM   38  C   UNL     1      -7.064  11.086  69.505  1.00  0.00    -0.113 C  
HETATM   39  C   UNL     1      -6.945  10.369  67.224  1.00  0.00    -0.086 C  
ENDBRANCH  28  37
TORSDOF 3
ENDMDL
MODEL        4
REMARK 921   NORMALIZED FREE ENERGY PREDICTED BY IDOCK:   -7.52 KCAL/MOL
REMARK 922        TOTAL FREE ENERGY PREDICTED BY IDOCK:   -9.30 KCAL/MOL
REMARK 923 INTER-LIGAND FREE ENERGY PREDICTED BY IDOCK:   -8.58 KCAL/MOL
REMARK 924 INTRA-LIGAND FREE ENERGY PREDICTED BY IDOCK:   -0.73 KCAL/MOL
REMARK 927      BINDING AFFINITY PREDICTED BY RF-SCORE:    0.00 PKD
ROOT
HETATM    1  C   UNL     1      -8.792  14.002  68.592  1.00  0.00    -0.104 C  
HETATM    2  C   UNL     1      -7.824  12.836  68.521  1.00  0.00    -0.099 C  
HETATM    3  C   UNL     1      -8.395  11.467  68.639  1.00  0.00    -0.123 A  
HETATM    4  C   UNL     1      -9.766  11.289  68.324  1.00  0.00    -0.199 A  
HETATM    5  C   UNL     1     -10.329  10.017  68.463  1.00  0.00    -0.193 A  
HETATM    6  C   UNL     1     -10.606  12.427  67.810  1.00  0.00    -0.217 C  
HETATM    7  C   UNL     1      -9.552   8.950  68.890  1.00  0.00    -0.160 A  
HETATM    8  O   UNL     1     -11.746  12.217  67.394  1.00  0.00    -0.431 OA 
HETATM    9  C   UNL     1     -10.047  13.820  67.812  1.00  0.00    -0.245 C  
HETATM   10  O   UNL     1     -11.640   9.732  68.191  1.00  0.00    -0.527 OA 
HETATM   11  H   UNL     1     -12.023   8.868  68.285  1.00  0.00     0.000 HD 
HETATM   12  C   UNL     1      -8.190   9.133  69.152  1.00  0.00    -0.117 A  
HETATM   13  C   UNL     1     -10.668  14.884  67.243  1.00  0.00    -0.294 C  
HETATM   14  C   UNL     1     -10.149  16.345  67.351  1.00  0.00    -0.262 C  
HETATM   15  O   UNL     1     -11.932  14.771  66.673  1.00  0.00    -0.314 OA 
HETATM   16  C   UNL     1      -7.556  10.382  69.024  1.00  0.00    -0.108 A  
HETATM   17  O   UNL     1     -11.135  16.986  68.198  1.00  0.00    -0.334 OA 
HETATM   18  H   UNL     1     -12.366  15.516  66.275  1.00  0.00     0.000 HD 
HETATM   19  H   UNL     1      -6.415  18.744  65.525  1.00  0.00     0.000 HD 
HETATM   20  C   UNL     1     -10.181  17.213  66.071  1.00  0.00    -0.321 C  
HETATM   21  C   UNL     1      -9.565  18.578  66.148  1.00  0.00    -0.203 C  
HETATM   22  H   UNL     1     -10.818  17.879  68.264  1.00  0.00     0.000 HD 
HETATM   23  C   UNL     1      -8.002  15.160  68.029  1.00  0.00    -0.136 C  
HETATM   24  C   UNL     1      -8.750  16.487  68.018  1.00  0.00    -0.189 C  
HETATM   25  O   UNL     1     -10.619  16.839  64.983  1.00  0.00    -0.695 OA 
HETATM   26  O   UNL     1      -7.347  18.811  65.360  1.00  0.00    -0.491 OA 
HETATM   27  C   UNL     1      -8.246  18.484  66.381  1.00  0.00    -0.268 C  
HETATM   28  C   UNL     1      -7.706  17.455  67.342  1.00  0.00    -0.192 C  
ENDROOT
BRANCH  16  29
HETATM   29  N   UNL     1      -6.182  10.469  69.244  1.00  0.00    -0.045 NA 
HETATM   30  C   UNL     1      -5.661  11.047  70.483  1.00  0.00    -0.133 C  
HETATM   31  C   UNL     1      -5.153  10.222  68.233  1.00  0.00    -0.035 C  
ENDBRANCH  16  29
BRANCH  21  32
HETATM   32  C   UNL     1     -10.121  19.693  66.975  1.00  0.00    -0.412 C  
HETATM   33  O   UNL     1     -11.119  19.584  67.690  1.00  0.00    -0.346 OA 
HETATM   34  H2  UNL     1      -8.595  20.992  66.442  1.00  0.00     0.000 HD 
HETATM   35  N   UNL     1      -9.452  20.870  66.982  1.00  0.00    -0.690 N  
HETATM   36  H1  UNL     1      -9.831  21.631  67.546  1.00  0.00     0.000 HD 
ENDBRANCH  21  32
BRANCH  28  37
HETATM   37  N   UNL     1      -6.773  17.924  68.395  1.00  0.00    -0.211 NA 
HETATM   38  C   UNL     1      -5.368  17.768  68.028  1.00  0.00    -0.145 C  
HETATM   39  C   UNL     1      -7.016  19.289  68.865  1.00  0.00    -0.338 C  
ENDBRANCH  28  37
TORSDOF 3
ENDMDL
MODEL        5
REMARK 921   NORMALIZED FREE ENERGY PREDICTED BY IDOCK:   -7.45 KCAL/MOL
REMARK 922        TOTAL FREE ENERGY PREDICTED BY IDOCK:   -9.22 KCAL/MOL
REMARK 923 INTER-LIGAND FREE ENERGY PREDICTED BY IDOCK:   -8.48 KCAL/MOL
REMARK 924 INTRA-LIGAND FREE ENERGY PREDICTED BY IDOCK:   -0.74 KCAL/MOL
REMARK 927      BINDING AFFINITY PREDICTED BY RF-SCORE:    0.00 PKD
ROOT
HETATM    1  C   UNL     1     -10.345   8.589  67.156  1.00  0.00    -0.377 C  
HETATM    2  C   UNL     1      -9.461   9.112  66.040  1.00  0.00    -0.321 C  
HETATM    3  C   UNL     1      -9.918  10.332  65.323  1.00  0.00    -0.387 A  
HETATM    4  C   UNL     1     -10.829  11.193  65.987  1.00  0.00    -0.230 A  
HETATM    5  C   UNL     1     -11.298  12.325  65.315  1.00  0.00    -0.338 A  
HETATM    6  C   UNL     1     -11.264  10.930  67.403  1.00  0.00    -0.273 C  
HETATM    7  C   UNL     1     -10.866  12.604  64.026  1.00  0.00    -0.452 A  
HETATM    8  O   UNL     1     -11.927  11.769  68.014  1.00  0.00    -0.553 OA 
HETATM    9  C   UNL     1     -10.888   9.635  68.065  1.00  0.00    -0.250 C  
HETATM   10  O   UNL     1     -12.179  13.221  65.858  1.00  0.00    -0.418 OA 
HETATM   11  H   UNL     1     -12.498  13.990  65.402  1.00  0.00     0.000 HD 
HETATM   12  C   UNL     1      -9.932  11.769  63.402  1.00  0.00    -0.446 A  
HETATM   13  C   UNL     1     -11.109   9.366  69.376  1.00  0.00    -0.076 C  
HETATM   14  C   UNL     1     -10.832   7.984  70.032  1.00  0.00    -0.235 C  
HETATM   15  O   UNL     1     -11.787  10.259  70.200  1.00  0.00    -0.264 OA 
HETATM   16  C   UNL     1      -9.411  10.620  64.022  1.00  0.00    -0.285 A  
HETATM   17  O   UNL     1     -12.160   7.481  70.324  1.00  0.00    -0.502 OA 
HETATM   18  H   UNL     1     -11.942  10.070  71.118  1.00  0.00     0.000 HD 
HETATM   19  H   UNL     1      -6.872   5.521  71.165  1.00  0.00     0.000 HD 
HETATM   20  C   UNL     1     -10.150   7.973  71.420  1.00  0.00    -0.185 C  
HETATM   21  C   UNL     1      -9.771   6.641  71.993  1.00  0.00    -0.156 C  
HETATM   22  H   UNL     1     -11.990   6.637  70.724  1.00  0.00     0.000 HD 
HETATM   23  C   UNL     1      -9.438   7.660  67.929  1.00  0.00    -0.156 C  
HETATM   24  C   UNL     1     -10.105   6.964  69.109  1.00  0.00    -0.180 C  
HETATM   25  O   UNL     1      -9.843   8.982  72.056  1.00  0.00    -0.311 OA 
HETATM   26  O   UNL     1      -7.530   5.938  71.707  1.00  0.00    -0.091 OA 
HETATM   27  C   UNL     1      -8.839   6.051  71.226  1.00  0.00    -0.136 C  
HETATM   28  C   UNL     1      -8.915   6.132  69.723  1.00  0.00    -0.138 C  
ENDROOT
BRANCH  16  29
HETATM   29  N   UNL     1      -8.437   9.875  63.358  1.00  0.00    -0.165 NA 
HETATM   30  C   UNL     1      -7.024  10.240  63.460  1.00  0.00    -0.078 C  
HETATM   31  C   UNL     1      -8.707   8.844  62.356  1.00  0.00    -0.180 C  
ENDBRANCH  16  29
BRANCH  21  32
HETATM   32  C   UNL     1     -10.765   5.609  72.421  1.00  0.00    -0.237 C  
HETATM   33  O   UNL     1     -10.515   4.404  72.491  1.00  0.00    -0.188 OA 
HETATM   34  H2  UNL     1     -12.226   7.027  72.814  1.00  0.00     0.000 HD 
HETATM   35  N   UNL     1     -11.990   6.035  72.811  1.00  0.00    -0.529 N  
HETATM   36  H1  UNL     1     -12.668   5.332  73.103  1.00  0.00     0.000 HD 
ENDBRANCH  21  32
BRANCH  28  37
HETATM   37  N   UNL     1      -8.808   4.864  68.962  1.00  0.00    -0.091 NA 
HETATM   38  C   UNL     1      -7.430   4.502  68.639  1.00  0.00    -0.064 C  
HETATM   39  C   UNL     1      -9.491   3.723  69.573  1.00  0.00    -0.187 C  
ENDBRANCH  28  37
TORSDOF 3
ENDMDL
MODEL        6
REMARK 921   NORMALIZED FREE ENERGY PREDICTED BY IDOCK:   -7.39 KCAL/MOL
REMARK 922        TOTAL FREE ENERGY PREDICTED BY IDOCK:   -9.14 KCAL/MOL
REMARK 923 INTER-LIGAND FREE ENERGY PREDICTED BY IDOCK:   -8.49 KCAL/MOL
REMARK 924 INTRA-LIGAND FREE ENERGY PREDICTED BY IDOCK:   -0.65 KCAL/MOL
REMARK 927      BINDING AFFINITY PREDICTED BY RF-SCORE:    0.00 PKD
ROOT
HETATM    1  C   UNL     1     -11.276  11.082  68.932  1.00  0.00    -0.326 C  
HETATM    2  C   UNL     1     -11.012  12.564  69.113  1.00  0.00    -0.198 C  
HETATM    3  C   UNL     1     -11.924  13.314  70.019  1.00  0.00    -0.399 A  
HETATM    4  C   UNL     1     -12.635  12.581  71.003  1.00  0.00    -0.350 A  
HETATM    5  C   UNL     1     -13.523  13.263  71.839  1.00  0.00    -0.438 A  
HETATM    6  C   UNL     1     -12.421  11.103  71.185  1.00  0.00    -0.393 C  
HETATM    7  C   UNL     1     -13.692  14.635  71.712  1.00  0.00    -0.502 A  
HETATM    8  O   UNL     1     -12.927  10.517  72.143  1.00  0.00    -0.435 OA 
HETATM    9  C   UNL     1     -11.592  10.346  70.188  1.00  0.00    -0.392 C  
HETATM   10  O   UNL     1     -14.262  12.657  72.819  1.00  0.00    -0.569 OA 
HETATM   11  H   UNL     1     -14.865  13.120  73.387  1.00  0.00     0.000 HD 
HETATM   12  C   UNL     1     -12.948  15.349  70.767  1.00  0.00    -0.510 A  
HETATM   13  C   UNL     1     -11.226   9.048  70.340  1.00  0.00    -0.241 C  
HETATM   14  C   UNL     1     -10.473   8.230  69.253  1.00  0.00    -0.210 C  
HETATM   15  O   UNL     1     -11.670   8.287  71.416  1.00  0.00    -0.272 OA 
HETATM   16  C   UNL     1     -12.031  14.730  69.900  1.00  0.00    -0.328 A  
HETATM   17  O   UNL     1     -11.466   7.273  68.809  1.00  0.00    -0.344 OA 
HETATM   18  H   UNL     1     -11.415   7.379  71.523  1.00  0.00     0.000 HD 
HETATM   19  H   UNL     1      -6.019   8.295  67.466  1.00  0.00     0.000 HD 
HETATM   20  C   UNL     1      -9.308   7.325  69.717  1.00  0.00    -0.150 C  
HETATM   21  C   UNL     1      -8.505   6.636  68.655  1.00  0.00    -0.122 C  
HETATM   22  H   UNL     1     -11.006   6.774  68.145  1.00  0.00     0.000 HD 
HETATM   23  C   UNL     1      -9.989  10.556  68.342  1.00  0.00    -0.177 C  
HETATM   24  C   UNL     1     -10.001   9.065  68.028  1.00  0.00    -0.213 C  
HETATM   25  O   UNL     1      -8.959   7.180  70.889  1.00  0.00    -0.150 OA 
HETATM   26  O   UNL     1      -6.473   7.656  68.003  1.00  0.00    -0.050 OA 
HETATM   27  C   UNL     1      -7.863   7.539  67.896  1.00  0.00    -0.117 C  
HETATM   28  C   UNL     1      -8.539   8.823  67.490  1.00  0.00    -0.127 C  
ENDROOT
BRANCH  16  29
HETATM   29  N   UNL     1     -11.283  15.521  69.029  1.00  0.00    -0.281 NA 
HETATM   30  C   UNL     1     -10.327  16.500  69.547  1.00  0.00    -0.266 C  
HETATM   31  C   UNL     1     -11.510  15.628  67.588  1.00  0.00    -0.167 C  
ENDBRANCH  16  29
BRANCH  21  32
HETATM   32  C   UNL     1      -9.050   5.562  67.769  1.00  0.00    -0.107 C  
HETATM   33  O   UNL     1     -10.067   5.689  67.084  1.00  0.00    -0.145 OA 
HETATM   34  H2  UNL     1      -7.477   4.276  68.183  1.00  0.00     0.000 HD 
HETATM   35  N   UNL     1      -8.349   4.408  67.670  1.00  0.00    -0.099 N  
HETATM   36  H1  UNL     1      -8.720   3.675  67.066  1.00  0.00     0.000 HD 
ENDBRANCH  21  32
BRANCH  28  37
HETATM   37  N   UNL     1      -8.519   9.185  66.052  1.00  0.00    -0.126 NA 
HETATM   38  C   UNL     1      -7.609  10.287  65.750  1.00  0.00    -0.143 C  
HETATM   39  C   UNL     1      -8.264   8.066  65.143  1.00  0.00    -0.144 C  
ENDBRANCH  28  37
TORSDOF 3
ENDMDL
MODEL        7
REMARK 921   NORMALIZED FREE ENERGY PREDICTED BY IDOCK:   -7.34 KCAL/MOL
REMARK 922        TOTAL FREE ENERGY PREDICTED BY IDOCK:   -9.09 KCAL/MOL
REMARK 923 INTER-LIGAND FREE ENERGY PREDICTED BY IDOCK:   -8.55 KCAL/MOL
REMARK 924 INTRA-LIGAND FREE ENERGY PREDICTED BY IDOCK:   -0.53 KCAL/MOL
REMARK 927      BINDING AFFINITY PREDICTED BY RF-SCORE:    0.00 PKD
ROOT
HETATM    1  C   UNL     1      -9.879  11.097  68.494  1.00  0.00    -0.199 C  
HETATM    2  C   UNL     1     -10.687  12.363  68.704  1.00  0.00    -0.260 C  
HETATM    3  C   UNL     1     -10.714  13.348  67.589  1.00  0.00    -0.257 A  
HETATM    4  C   UNL     1     -10.430  12.880  66.281  1.00  0.00    -0.282 A  
HETATM    5  C   UNL     1     -10.415  13.797  65.226  1.00  0.00    -0.363 A  
HETATM    6  C   UNL     1     -10.187  11.420  66.007  1.00  0.00    -0.245 C  
HETATM    7  C   UNL     1     -10.685  15.138  65.459  1.00  0.00    -0.379 A  
HETATM    8  O   UNL     1     -10.101  11.013  64.848  1.00  0.00    -0.258 OA 
HETATM    9  C   UNL     1     -10.046  10.465  67.156  1.00  0.00    -0.254 C  
HETATM   10  O   UNL     1     -10.152  13.456  63.927  1.00  0.00    -0.734 OA 
HETATM   11  H   UNL     1     -10.142  14.079  63.210  1.00  0.00     0.000 HD 
HETATM   12  C   UNL     1     -11.009  15.575  66.748  1.00  0.00    -0.257 A  
HETATM   13  C   UNL     1      -9.967   9.117  67.013  1.00  0.00    -0.230 C  
HETATM   14  C   UNL     1      -9.698   8.138  68.190  1.00  0.00    -0.161 C  
HETATM   15  O   UNL     1      -9.931   8.518  65.758  1.00  0.00    -0.441 OA 
HETATM   16  C   UNL     1     -11.052  14.707  67.854  1.00  0.00    -0.291 A  
HETATM   17  O   UNL     1      -8.365   7.644  67.914  1.00  0.00    -0.121 OA 
HETATM   18  H   UNL     1      -9.875   7.576  65.657  1.00  0.00     0.000 HD 
HETATM   19  H   UNL     1     -12.236   6.641  71.978  1.00  0.00     0.000 HD 
HETATM   20  C   UNL     1     -10.539   6.842  68.250  1.00  0.00    -0.230 C  
HETATM   21  C   UNL     1     -10.367   5.962  69.451  1.00  0.00    -0.313 C  
HETATM   22  H   UNL     1      -8.201   7.046  68.634  1.00  0.00     0.000 HD 
HETATM   23  C   UNL     1     -10.388  10.164  69.568  1.00  0.00    -0.263 C  
HETATM   24  C   UNL     1      -9.702   8.803  69.597  1.00  0.00    -0.173 C  
HETATM   25  O   UNL     1     -11.380   6.515  67.412  1.00  0.00    -0.304 OA 
HETATM   26  O   UNL     1     -11.949   6.189  71.194  1.00  0.00    -0.187 OA 
HETATM   27  C   UNL     1     -10.773   6.601  70.561  1.00  0.00    -0.247 C  
HETATM   28  C   UNL     1     -10.472   8.065  70.758  1.00  0.00    -0.206 C  
ENDROOT
BRANCH  16  29
HETATM   29  N   UNL     1     -11.443  15.209  69.094  1.00  0.00    -0.287 NA 
HETATM   30  C   UNL     1     -10.547  16.073  69.864  1.00  0.00    -0.314 C  
HETATM   31  C   UNL     1     -12.626  14.778  69.838  1.00  0.00    -0.174 C  
ENDBRANCH  16  29
BRANCH  21  32
HETATM   32  C   UNL     1      -9.107   5.216  69.759  1.00  0.00    -0.116 C  
HETATM   33  O   UNL     1      -8.225   4.991  68.929  1.00  0.00    -0.084 OA 
HETATM   34  H2  UNL     1      -9.586   5.026  71.768  1.00  0.00     0.000 HD 
HETATM   35  N   UNL     1      -8.904   4.821  71.038  1.00  0.00    -0.115 N  
HETATM   36  H1  UNL     1      -8.045   4.312  71.248  1.00  0.00     0.000 HD 
ENDBRANCH  21  32
BRANCH  28  37
HETATM   37  N   UNL     1      -9.851   8.470  72.043  1.00  0.00    -0.284 NA 
HETATM   38  C   UNL     1     -10.454   7.817  73.203  1.00  0.00    -0.349 C  
HETATM   39  C   UNL     1      -8.396   8.326  72.092  1.00  0.00    -0.174 C  
ENDBRANCH  28  37
TORSDOF 3
ENDMDL
MODEL        8
REMARK 921   NORMALIZED FREE ENERGY PREDICTED BY IDOCK:   -7.29 KCAL/MOL
REMARK 922        TOTAL FREE ENERGY PREDICTED BY IDOCK:   -9.03 KCAL/MOL
REMARK 923 INTER-LIGAND FREE ENERGY PREDICTED BY IDOCK:   -8.65 KCAL/MOL
REMARK 924 INTRA-LIGAND FREE ENERGY PREDICTED BY IDOCK:   -0.38 KCAL/MOL
REMARK 927      BINDING AFFINITY PREDICTED BY RF-SCORE:    0.00 PKD
ROOT
HETATM    1  C   UNL     1      -9.857  10.994  68.423  1.00  0.00    -0.186 C  
HETATM    2  C   UNL     1     -10.651  12.275  68.591  1.00  0.00    -0.249 C  
HETATM    3  C   UNL     1     -10.650  13.232  67.451  1.00  0.00    -0.250 A  
HETATM    4  C   UNL     1     -10.355  12.728  66.159  1.00  0.00    -0.283 A  
HETATM    5  C   UNL     1     -10.315  13.617  65.082  1.00  0.00    -0.364 A  
HETATM    6  C   UNL     1     -10.127  11.258  65.925  1.00  0.00    -0.245 C  
HETATM    7  C   UNL     1     -10.571  14.967  65.278  1.00  0.00    -0.421 A  
HETATM    8  O   UNL     1     -10.030  10.821  64.778  1.00  0.00    -0.269 OA 
HETATM    9  C   UNL     1     -10.013  10.331  67.100  1.00  0.00    -0.243 C  
HETATM   10  O   UNL     1     -10.038  13.241  63.795  1.00  0.00    -0.712 OA 
HETATM   11  H   UNL     1     -10.011  13.845  63.063  1.00  0.00     0.000 HD 
HETATM   12  C   UNL     1     -10.905  15.440  66.551  1.00  0.00    -0.298 A  
HETATM   13  C   UNL     1      -9.949   8.979  66.991  1.00  0.00    -0.230 C  
HETATM   14  C   UNL     1      -9.709   8.027  68.196  1.00  0.00    -0.160 C  
HETATM   15  O   UNL     1      -9.904   8.348  65.752  1.00  0.00    -0.455 OA 
HETATM   16  C   UNL     1     -10.974  14.601  67.677  1.00  0.00    -0.293 A  
HETATM   17  O   UNL     1      -8.378   7.509  67.951  1.00  0.00    -0.122 OA 
HETATM   18  H   UNL     1      -9.860   7.403  65.676  1.00  0.00     0.000 HD 
HETATM   19  H   UNL     1     -12.316   6.657  71.986  1.00  0.00     0.000 HD 
HETATM   20  C   UNL     1     -10.567   6.743  68.277  1.00  0.00    -0.230 C  
HETATM   21  C   UNL     1     -10.422   5.891  69.502  1.00  0.00    -0.346 C  
HETATM   22  H   UNL     1      -8.231   6.927  68.687  1.00  0.00     0.000 HD 
HETATM   23  C   UNL     1     -10.391  10.094  69.513  1.00  0.00    -0.263 C  
HETATM   24  C   UNL     1      -9.723   8.727  69.586  1.00  0.00    -0.173 C  
HETATM   25  O   UNL     1     -11.401   6.405  67.436  1.00  0.00    -0.283 OA 
HETATM   26  O   UNL     1     -12.025   6.182  71.217  1.00  0.00    -0.203 OA 
HETATM   27  C   UNL     1     -10.835   6.563  70.590  1.00  0.00    -0.266 C  
HETATM   28  C   UNL     1     -10.517   8.028  70.755  1.00  0.00    -0.206 C  
ENDROOT
BRANCH  16  29
HETATM   29  N   UNL     1     -11.375  15.139  68.899  1.00  0.00    -0.283 NA 
HETATM   30  C   UNL     1     -12.535  14.596  69.607  1.00  0.00    -0.158 C  
HETATM   31  C   UNL     1     -10.862  16.381  69.478  1.00  0.00    -0.338 C  
ENDBRANCH  16  29
BRANCH  21  32
HETATM   32  C   UNL     1      -9.176   5.138  69.846  1.00  0.00    -0.127 C  
HETATM   33  O   UNL     1      -8.302   4.851  69.026  1.00  0.00    -0.082 OA 
HETATM   34  H2  UNL     1      -9.650   5.065  71.863  1.00  0.00     0.000 HD 
HETATM   35  N   UNL     1      -8.975   4.808  71.143  1.00  0.00    -0.128 N  
HETATM   36  H1  UNL     1      -8.126   4.294  71.378  1.00  0.00     0.000 HD 
ENDBRANCH  21  32
BRANCH  28  37
HETATM   37  N   UNL     1      -9.909   8.457  72.037  1.00  0.00    -0.254 NA 
HETATM   38  C   UNL     1     -10.522   7.826  73.203  1.00  0.00    -0.349 C  
HETATM   39  C   UNL     1      -8.454   8.315  72.102  1.00  0.00    -0.179 C  
ENDBRANCH  28  37
TORSDOF 3
ENDMDL
MODEL        9
REMARK 921   NORMALIZED FREE ENERGY PREDICTED BY IDOCK:   -7.20 KCAL/MOL
REMARK 922        TOTAL FREE ENERGY PREDICTED BY IDOCK:   -8.92 KCAL/MOL
REMARK 923 INTER-LIGAND FREE ENERGY PREDICTED BY IDOCK:   -8.60 KCAL/MOL
REMARK 924 INTRA-LIGAND FREE ENERGY PREDICTED BY IDOCK:   -0.32 KCAL/MOL
REMARK 927      BINDING AFFINITY PREDICTED BY RF-SCORE:    0.00 PKD
ROOT
HETATM    1  C   UNL     1      -8.774  15.790  67.979  1.00  0.00    -0.171 C  
HETATM    2  C   UNL     1      -8.314  17.114  67.400  1.00  0.00    -0.203 C  
HETATM    3  C   UNL     1      -7.431  17.960  68.248  1.00  0.00    -0.260 A  
HETATM    4  C   UNL     1      -6.692  17.326  69.279  1.00  0.00    -0.230 A  
HETATM    5  C   UNL     1      -5.885  18.109  70.109  1.00  0.00    -0.182 A  
HETATM    6  C   UNL     1      -6.731  15.833  69.466  1.00  0.00    -0.187 C  
HETATM    7  C   UNL     1      -5.804  19.481  69.915  1.00  0.00    -0.301 A  
HETATM    8  O   UNL     1      -5.964  15.288  70.260  1.00  0.00    -0.144 OA 
HETATM    9  C   UNL     1      -7.715  15.014  68.682  1.00  0.00    -0.128 C  
HETATM   10  O   UNL     1      -5.132  17.604  71.134  1.00  0.00    -0.383 OA 
HETATM   11  H   UNL     1      -4.584  18.136  71.698  1.00  0.00     0.000 HD 
HETATM   12  C   UNL     1      -6.504  20.084  68.864  1.00  0.00    -0.354 A  
HETATM   13  C   UNL     1      -7.732  13.657  68.675  1.00  0.00    -0.107 C  
HETATM   14  C   UNL     1      -8.825  12.811  67.962  1.00  0.00    -0.195 C  
HETATM   15  O   UNL     1      -6.870  12.913  69.473  1.00  0.00    -0.300 OA 
HETATM   16  C   UNL     1      -7.326  19.357  67.986  1.00  0.00    -0.274 A  
HETATM   17  O   UNL     1      -9.556  12.217  69.062  1.00  0.00    -0.409 OA 
HETATM   18  H   UNL     1      -6.882  11.964  69.469  1.00  0.00     0.000 HD 
HETATM   19  H   UNL     1      -9.940  11.911  63.381  1.00  0.00     0.000 HD 
HETATM   20  C   UNL     1      -8.361  11.578  67.153  1.00  0.00    -0.160 C  
HETATM   21  C   UNL     1      -9.401  10.839  66.365  1.00  0.00    -0.198 C  
HETATM   22  H   UNL     1     -10.224  11.700  68.627  1.00  0.00     0.000 HD 
HETATM   23  C   UNL     1      -9.260  15.019  66.774  1.00  0.00    -0.280 C  
HETATM   24  C   UNL     1      -9.816  13.637  67.092  1.00  0.00    -0.242 C  
HETATM   25  O   UNL     1      -7.193  11.200  67.062  1.00  0.00    -0.112 OA 
HETATM   26  O   UNL     1      -9.585  11.354  64.064  1.00  0.00    -0.232 OA 
HETATM   27  C   UNL     1      -9.902  11.625  65.399  1.00  0.00    -0.238 C  
HETATM   28  C   UNL     1     -10.178  13.084  65.661  1.00  0.00    -0.287 C  
ENDROOT
BRANCH  16  29
HETATM   29  N   UNL     1      -7.941  20.023  66.926  1.00  0.00    -0.298 NA 
HETATM   30  C   UNL     1      -9.318  20.500  67.045  1.00  0.00    -0.345 C  
HETATM   31  C   UNL     1      -7.402  20.118  65.569  1.00  0.00    -0.221 C  
ENDBRANCH  16  29
BRANCH  21  32
HETATM   32  C   UNL     1     -10.521  10.068  66.989  1.00  0.00    -0.238 C  
HETATM   33  O   UNL     1     -11.510  10.593  67.503  1.00  0.00    -0.460 OA 
HETATM   34  H2  UNL     1      -9.692   8.239  66.472  1.00  0.00     0.000 HD 
HETATM   35  N   UNL     1     -10.469   8.717  66.928  1.00  0.00    -0.287 N  
HETATM   36  H1  UNL     1     -11.232   8.191  67.353  1.00  0.00     0.000 HD 
ENDBRANCH  21  32
BRANCH  28  37
HETATM   37  N   UNL     1     -11.519  13.604  65.299  1.00  0.00    -0.303 NA 
HETATM   38  C   UNL     1     -12.273  12.698  64.436  1.00  0.00    -0.443 C  
HETATM   39  C   UNL     1     -12.345  14.011  66.436  1.00  0.00    -0.431 C  
ENDBRANCH  28  37
TORSDOF 3
ENDMDL
MODEL       10
REMARK 921   NORMALIZED FREE ENERGY PREDICTED BY IDOCK:   -7.20 KCAL/MOL
REMARK 922        TOTAL FREE ENERGY PREDICTED BY IDOCK:   -8.92 KCAL/MOL
REMARK 923 INTER-LIGAND FREE ENERGY PREDICTED BY IDOCK:   -8.40 KCAL/MOL
REMARK 924 INTRA-LIGAND FREE ENERGY PREDICTED BY IDOCK:   -0.53 KCAL/MOL
REMARK 927      BINDING AFFINITY PREDICTED BY RF-SCORE:    0.00 PKD
ROOT
HETATM    1  C   UNL     1     -11.177  11.730  68.571  1.00  0.00    -0.306 C  
HETATM    2  C   UNL     1     -10.966  10.686  69.650  1.00  0.00    -0.331 C  
HETATM    3  C   UNL     1     -10.891   9.264  69.218  1.00  0.00    -0.170 A  
HETATM    4  C   UNL     1     -10.534   8.995  67.873  1.00  0.00    -0.291 A  
HETATM    5  C   UNL     1     -10.493   7.667  67.439  1.00  0.00    -0.297 A  
HETATM    6  C   UNL     1     -10.163  10.103  66.924  1.00  0.00    -0.236 C  
HETATM    7  C   UNL     1     -10.786   6.634  68.318  1.00  0.00    -0.322 A  
HETATM    8  O   UNL     1      -9.705   9.840  65.812  1.00  0.00    -0.234 OA 
HETATM    9  C   UNL     1     -10.360  11.532  67.342  1.00  0.00    -0.235 C  
HETATM   10  O   UNL     1     -10.164   7.293  66.164  1.00  0.00    -0.428 OA 
HETATM   11  H   UNL     1     -10.136   6.391  65.869  1.00  0.00     0.000 HD 
HETATM   12  C   UNL     1     -11.092   6.914  69.655  1.00  0.00    -0.302 A  
HETATM   13  C   UNL     1      -9.928  12.596  66.619  1.00  0.00    -0.242 C  
HETATM   14  C   UNL     1     -10.238  14.074  66.989  1.00  0.00    -0.261 C  
HETATM   15  O   UNL     1      -9.328  12.437  65.374  1.00  0.00    -0.445 OA 
HETATM   16  C   UNL     1     -11.142   8.225  70.161  1.00  0.00    -0.189 A  
HETATM   17  O   UNL     1     -11.148  14.495  65.942  1.00  0.00    -0.315 OA 
HETATM   18  H   UNL     1      -9.026  13.182  64.869  1.00  0.00     0.000 HD 
HETATM   19  H   UNL     1      -8.808  17.053  70.470  1.00  0.00     0.000 HD 
HETATM   20  C   UNL     1      -9.086  15.099  66.874  1.00  0.00    -0.247 C  
HETATM   21  C   UNL     1      -9.354  16.495  67.350  1.00  0.00    -0.223 C  
HETATM   22  H   UNL     1     -11.338  15.398  66.168  1.00  0.00     0.000 HD 
HETATM   23  C   UNL     1     -10.786  13.026  69.242  1.00  0.00    -0.048 C  
HETATM   24  C   UNL     1     -10.941  14.262  68.365  1.00  0.00    -0.267 C  
HETATM   25  O   UNL     1      -7.951  14.833  66.478  1.00  0.00     0.174 OA 
HETATM   26  O   UNL     1      -8.639  17.049  69.535  1.00  0.00     0.170 OA 
HETATM   27  C   UNL     1      -9.593  16.500  68.672  1.00  0.00    -0.241 C  
HETATM   28  C   UNL     1     -10.416  15.411  69.309  1.00  0.00    -0.251 C  
ENDROOT
BRANCH  16  29
HETATM   29  N   UNL     1     -11.392   8.417  71.519  1.00  0.00    -0.262 NA 
HETATM   30  C   UNL     1     -10.333   8.215  72.507  1.00  0.00    -0.330 C  
HETATM   31  C   UNL     1     -12.718   8.606  72.109  1.00  0.00    -0.392 C  
ENDBRANCH  16  29
BRANCH  21  32
HETATM   32  C   UNL     1     -10.314  17.428  66.683  1.00  0.00    -0.306 C  
HETATM   33  O   UNL     1     -10.747  17.264  65.541  1.00  0.00    -0.515 OA 
HETATM   34  H2  UNL     1     -10.480  18.628  68.366  1.00  0.00     0.000 HD 
HETATM   35  N   UNL     1     -10.776  18.479  67.402  1.00  0.00    -0.421 N  
HETATM   36  H1  UNL     1     -11.430  19.116  66.947  1.00  0.00     0.000 HD 
ENDBRANCH  21  32
BRANCH  28  37
HETATM   37  N   UNL     1     -11.537  15.823  70.188  1.00  0.00    -0.332 NA 
HETATM   38  C   UNL     1     -12.826  15.281  69.768  1.00  0.00     0.087 C  
HETATM   39  C   UNL     1     -11.327  15.560  71.612  1.00  0.00    -0.388 C  
ENDBRANCH  28  37
TORSDOF 3
ENDMDL
MODEL       11
REMARK 921   NORMALIZED FREE ENERGY PREDICTED BY IDOCK:   -7.12 KCAL/MOL
REMARK 922        TOTAL FREE ENERGY PREDICTED BY IDOCK:   -8.83 KCAL/MOL
REMARK 923 INTER-LIGAND FREE ENERGY PREDICTED BY IDOCK:   -8.64 KCAL/MOL
REMARK 924 INTRA-LIGAND FREE ENERGY PREDICTED BY IDOCK:   -0.19 KCAL/MOL
REMARK 927      BINDING AFFINITY PREDICTED BY RF-SCORE:    0.00 PKD
ROOT
HETATM    1  C   UNL     1     -10.429  10.431  69.551  1.00  0.00    -0.274 C  
HETATM    2  C   UNL     1     -10.735   8.955  69.380  1.00  0.00    -0.192 C  
HETATM    3  C   UNL     1     -11.512   8.290  70.461  1.00  0.00    -0.180 A  
HETATM    4  C   UNL     1     -12.316   9.103  71.299  1.00  0.00    -0.382 A  
HETATM    5  C   UNL     1     -13.025   8.500  72.342  1.00  0.00    -0.307 A  
HETATM    6  C   UNL     1     -12.449  10.583  71.061  1.00  0.00    -0.400 C  
HETATM    7  C   UNL     1     -12.948   7.129  72.541  1.00  0.00     0.414 A  
HETATM    8  O   UNL     1     -13.272  11.242  71.698  1.00  0.00    -0.419 OA 
HETATM    9  C   UNL     1     -11.568  11.251  70.046  1.00  0.00    -0.404 C  
HETATM   10  O   UNL     1     -13.828   9.188  73.212  1.00  0.00    -1.118 OA 
HETATM   11  H   UNL     1     -14.310   8.779  73.920  1.00  0.00     0.000 HD 
HETATM   12  C   UNL     1     -12.186   6.336  71.677  1.00  0.00    -0.161 A  
HETATM   13  C   UNL     1     -11.707  12.545  69.660  1.00  0.00    -0.302 C  
HETATM   14  C   UNL     1     -10.722  13.272  68.703  1.00  0.00    -0.259 C  
HETATM   15  O   UNL     1     -12.647  13.384  70.249  1.00  0.00    -0.229 OA 
HETATM   16  C   UNL     1     -11.456   6.873  70.602  1.00  0.00    -0.336 A  
HETATM   17  O   UNL     1     -10.061  14.228  69.567  1.00  0.00    -0.424 OA 
HETATM   18  H   UNL     1     -12.745  14.290  69.980  1.00  0.00     0.000 HD 
HETATM   19  H   UNL     1      -9.730  12.966  64.016  1.00  0.00     0.000 HD 
HETATM   20  C   UNL     1     -11.326  14.169  67.598  1.00  0.00    -0.319 C  
HETATM   21  C   UNL     1     -10.381  14.767  66.600  1.00  0.00    -0.273 C  
HETATM   22  H   UNL     1      -9.458  14.671  68.982  1.00  0.00     0.000 HD 
HETATM   23  C   UNL     1     -10.038  10.881  68.163  1.00  0.00    -0.190 C  
HETATM   24  C   UNL     1      -9.644  12.349  68.063  1.00  0.00    -0.211 C  
HETATM   25  O   UNL     1     -12.531  14.376  67.447  1.00  0.00    -0.184 OA 
HETATM   26  O   UNL     1     -10.145  13.649  64.529  1.00  0.00    -0.349 OA 
HETATM   27  C   UNL     1      -9.795  13.801  65.875  1.00  0.00    -0.260 C  
HETATM   28  C   UNL     1      -9.352  12.514  66.523  1.00  0.00    -0.233 C  
ENDROOT
BRANCH  16  29
HETATM   29  N   UNL     1     -10.772   6.008  69.749  1.00  0.00    -0.296 NA 
HETATM   30  C   UNL     1     -11.017   6.036  68.307  1.00  0.00    -0.256 C  
HETATM   31  C   UNL     1      -9.947   4.880  70.183  1.00  0.00    -0.255 C  
ENDBRANCH  16  29
BRANCH  21  32
HETATM   32  C   UNL     1      -9.356  15.800  66.944  1.00  0.00    -0.227 C  
HETATM   33  O   UNL     1      -9.382  16.473  67.977  1.00  0.00    -0.213 OA 
HETATM   34  H2  UNL     1      -8.222  15.390  65.258  1.00  0.00     0.000 HD 
HETATM   35  N   UNL     1      -8.309  15.958  66.100  1.00  0.00    -0.307 N  
HETATM   36  H1  UNL     1      -7.609  16.662  66.335  1.00  0.00     0.000 HD 
ENDBRANCH  21  32
BRANCH  28  37
HETATM   37  N   UNL     1      -7.961  12.064  66.274  1.00  0.00     0.203 NA 
HETATM   38  C   UNL     1      -7.071  12.293  67.408  1.00  0.00    -0.151 C  
HETATM   39  C   UNL     1      -7.839  10.679  65.817  1.00  0.00    -0.141 C  
ENDBRANCH  28  37
TORSDOF 3
ENDMDL
MODEL       12
REMARK 921   NORMALIZED FREE ENERGY PREDICTED BY IDOCK:   -7.00 KCAL/MOL
REMARK 922        TOTAL FREE ENERGY PREDICTED BY IDOCK:   -8.69 KCAL/MOL
REMARK 923 INTER-LIGAND FREE ENERGY PREDICTED BY IDOCK:   -8.19 KCAL/MOL
REMARK 924 INTRA-LIGAND FREE ENERGY PREDICTED BY IDOCK:   -0.50 KCAL/MOL
REMARK 927      BINDING AFFINITY PREDICTED BY RF-SCORE:    0.00 PKD
ROOT
HETATM    1  C   UNL     1     -10.853  10.553  67.640  1.00  0.00    -0.355 C  
HETATM    2  C   UNL     1     -10.431  11.969  67.982  1.00  0.00    -0.224 C  
HETATM    3  C   UNL     1     -11.194  12.669  69.050  1.00  0.00    -0.322 A  
HETATM    4  C   UNL     1     -11.901  11.878  69.991  1.00  0.00    -0.407 A  
HETATM    5  C   UNL     1     -12.652  12.519  70.980  1.00  0.00    -0.256 A  
HETATM    6  C   UNL     1     -11.822  10.375  69.967  1.00  0.00    -0.273 C  
HETATM    7  C   UNL     1     -12.693  13.904  71.041  1.00  0.00    -0.428 A  
HETATM    8  O   UNL     1     -12.311   9.714  70.884  1.00  0.00    -0.299 OA 
HETATM    9  C   UNL     1     -11.147   9.688  68.815  1.00  0.00    -0.093 C  
HETATM   10  O   UNL     1     -13.373  11.855  71.936  1.00  0.00    -0.454 OA 
HETATM   11  H   UNL     1     -13.884  12.290  72.608  1.00  0.00     0.000 HD 
HETATM   12  C   UNL     1     -11.954  14.670  70.133  1.00  0.00    -0.372 A  
HETATM   13  C   UNL     1     -10.902   8.354  68.771  1.00  0.00     0.052 C  
HETATM   14  C   UNL     1     -10.316   7.624  67.530  1.00  0.00    -0.257 C  
HETATM   15  O   UNL     1     -11.339   7.498  69.778  1.00  0.00    -0.449 OA 
HETATM   16  C   UNL     1     -11.169  14.092  69.119  1.00  0.00    -0.272 A  
HETATM   17  O   UNL     1     -11.429   6.827  67.056  1.00  0.00    -0.735 OA 
HETATM   18  H   UNL     1     -11.167   6.565  69.747  1.00  0.00     0.000 HD 
HETATM   19  H   UNL     1      -6.021   7.530  65.389  1.00  0.00     0.000 HD 
HETATM   20  C   UNL     1      -9.216   6.566  67.774  1.00  0.00    -0.113 C  
HETATM   21  C   UNL     1      -8.565   5.955  66.569  1.00  0.00    -0.123 C  
HETATM   22  H   UNL     1     -11.071   6.382  66.297  1.00  0.00     0.000 HD 
HETATM   23  C   UNL     1      -9.672   9.998  66.879  1.00  0.00    -0.237 C  
HETATM   24  C   UNL     1      -9.855   8.570  66.383  1.00  0.00    -0.327 C  
HETATM   25  O   UNL     1      -8.797   6.236  68.884  1.00  0.00    -0.124 OA 
HETATM   26  O   UNL     1      -6.496   6.869  65.878  1.00  0.00    -0.048 OA 
HETATM   27  C   UNL     1      -7.894   6.890  65.877  1.00  0.00    -0.106 C  
HETATM   28  C   UNL     1      -8.468   8.272  65.696  1.00  0.00    -0.158 C  
ENDROOT
BRANCH  16  29
HETATM   29  N   UNL     1     -10.412  14.922  68.293  1.00  0.00    -0.235 NA 
HETATM   30  C   UNL     1     -10.915  15.324  66.979  1.00  0.00    -0.324 C  
HETATM   31  C   UNL     1      -9.014  15.286  68.523  1.00  0.00    -0.187 C  
ENDBRANCH  16  29
BRANCH  21  32
HETATM   32  C   UNL     1      -9.278   5.061  65.605  1.00  0.00    -0.157 C  
HETATM   33  O   UNL     1      -8.947   4.923  64.426  1.00  0.00    -0.147 OA 
HETATM   34  H2  UNL     1     -10.586   4.365  67.055  1.00  0.00     0.000 HD 
HETATM   35  N   UNL     1     -10.307   4.317  66.075  1.00  0.00    -0.444 N  
HETATM   36  H1  UNL     1     -10.793   3.708  65.418  1.00  0.00     0.000 HD 
ENDBRANCH  21  32
BRANCH  28  37
HETATM   37  N   UNL     1      -8.517   8.819  64.318  1.00  0.00    -0.150 NA 
HETATM   38  C   UNL     1      -7.701  10.017  64.145  1.00  0.00    -0.144 C  
HETATM   39  C   UNL     1      -8.209   7.851  63.264  1.00  0.00    -0.026 C  
ENDBRANCH  28  37
TORSDOF 3
ENDMDL
MODEL       13
REMARK 921   NORMALIZED FREE ENERGY PREDICTED BY IDOCK:   -6.92 KCAL/MOL
REMARK 922        TOTAL FREE ENERGY PREDICTED BY IDOCK:   -8.60 KCAL/MOL
REMARK 923 INTER-LIGAND FREE ENERGY PREDICTED BY IDOCK:   -8.00 KCAL/MOL
REMARK 924 INTRA-LIGAND FREE ENERGY PREDICTED BY IDOCK:   -0.60 KCAL/MOL
REMARK 927      BINDING AFFINITY PREDICTED BY RF-SCORE:    0.00 PKD
ROOT
HETATM    1  C   UNL     1     -10.697  11.700  67.843  1.00  0.00    -0.241 C  
HETATM    2  C   UNL     1     -10.338  13.116  68.249  1.00  0.00    -0.256 C  
HETATM    3  C   UNL     1     -11.194  13.768  69.277  1.00  0.00    -0.291 A  
HETATM    4  C   UNL     1     -11.943  12.935  70.146  1.00  0.00    -0.373 A  
HETATM    5  C   UNL     1     -12.780  13.529  71.094  1.00  0.00    -0.344 A  
HETATM    6  C   UNL     1     -11.822  11.435  70.090  1.00  0.00    -0.355 C  
HETATM    7  C   UNL     1     -12.863  14.911  71.187  1.00  0.00    -0.426 A  
HETATM    8  O   UNL     1     -12.356  10.738  70.953  1.00  0.00    -0.328 OA 
HETATM    9  C   UNL     1     -11.050  10.796  68.973  1.00  0.00    -0.308 C  
HETATM   10  O   UNL     1     -13.549  12.822  71.979  1.00  0.00    -0.466 OA 
HETATM   11  H   UNL     1     -14.117  13.226  72.624  1.00  0.00     0.000 HD 
HETATM   12  C   UNL     1     -12.082  15.719  70.353  1.00  0.00    -0.399 A  
HETATM   13  C   UNL     1     -10.765   9.470  68.913  1.00  0.00    -0.195 C  
HETATM   14  C   UNL     1     -10.073   8.790  67.699  1.00  0.00    -0.216 C  
HETATM   15  O   UNL     1     -11.248   8.578  69.864  1.00  0.00    -0.421 OA 
HETATM   16  C   UNL     1     -11.212  15.189  69.384  1.00  0.00    -0.283 A  
HETATM   17  O   UNL     1     -11.128   7.977  67.127  1.00  0.00    -0.447 OA 
HETATM   18  H   UNL     1     -11.050   7.650  69.822  1.00  0.00     0.000 HD 
HETATM   19  H   UNL     1      -5.638   8.862  65.867  1.00  0.00     0.000 HD 
HETATM   20  C   UNL     1      -8.965   7.753  67.995  1.00  0.00    -0.126 C  
HETATM   21  C   UNL     1      -8.214   7.192  66.824  1.00  0.00    -0.114 C  
HETATM   22  H   UNL     1     -10.705   7.562  66.385  1.00  0.00     0.000 HD 
HETATM   23  C   UNL     1      -9.450  11.196  67.155  1.00  0.00    -0.187 C  
HETATM   24  C   UNL     1      -9.559   9.777  66.611  1.00  0.00    -0.239 C  
HETATM   25  O   UNL     1      -8.617   7.404  69.123  1.00  0.00    -0.135 OA 
HETATM   26  O   UNL     1      -6.127   8.176  66.305  1.00  0.00    -0.044 OA 
HETATM   27  C   UNL     1      -7.522   8.162  66.205  1.00  0.00    -0.078 C  
HETATM   28  C   UNL     1      -8.119   9.533  66.017  1.00  0.00    -0.111 C  
ENDROOT
BRANCH  16  29
HETATM   29  N   UNL     1     -10.422  16.060  68.635  1.00  0.00    -0.239 NA 
HETATM   30  C   UNL     1     -10.881  16.550  67.335  1.00  0.00    -0.202 C  
HETATM   31  C   UNL     1      -9.027  16.390  68.927  1.00  0.00    -0.256 C  
ENDBRANCH  16  29
BRANCH  21  32
HETATM   32  C   UNL     1      -8.832   6.306  65.790  1.00  0.00    -0.111 C  
HETATM   33  O   UNL     1      -8.437   6.235  64.624  1.00  0.00    -0.076 OA 
HETATM   34  H2  UNL     1     -10.173   5.486  67.142  1.00  0.00     0.000 HD 
HETATM   35  N   UNL     1      -9.844   5.494  66.177  1.00  0.00    -0.278 N  
HETATM   36  H1  UNL     1     -10.266   4.890  65.471  1.00  0.00     0.000 HD 
ENDBRANCH  21  32
BRANCH  28  37
HETATM   37  N   UNL     1      -8.086  10.115  64.654  1.00  0.00    -0.151 NA 
HETATM   38  C   UNL     1      -6.786   9.980  64.003  1.00  0.00    -0.128 C  
HETATM   39  C   UNL     1      -9.142   9.638  63.759  1.00  0.00    -0.178 C  
ENDBRANCH  28  37
TORSDOF 3
ENDMDL
MODEL       14
REMARK 921   NORMALIZED FREE ENERGY PREDICTED BY IDOCK:   -6.92 KCAL/MOL
REMARK 922        TOTAL FREE ENERGY PREDICTED BY IDOCK:   -8.60 KCAL/MOL
REMARK 923 INTER-LIGAND FREE ENERGY PREDICTED BY IDOCK:   -8.21 KCAL/MOL
REMARK 924 INTRA-LIGAND FREE ENERGY PREDICTED BY IDOCK:   -0.39 KCAL/MOL
REMARK 927      BINDING AFFINITY PREDICTED BY RF-SCORE:    0.00 PKD
ROOT
HETATM    1  C   UNL     1      -9.417   7.701  67.537  1.00  0.00    -0.168 C  
HETATM    2  C   UNL     1      -9.653   6.411  66.775  1.00  0.00    -0.189 C  
HETATM    3  C   UNL     1      -9.570   5.139  67.544  1.00  0.00    -0.159 A  
HETATM    4  C   UNL     1      -9.765   5.196  68.947  1.00  0.00    -0.220 A  
HETATM    5  C   UNL     1      -9.656   4.018  69.691  1.00  0.00    -0.200 A  
HETATM    6  C   UNL     1     -10.124   6.485  69.637  1.00  0.00    -0.181 C  
HETATM    7  C   UNL     1      -9.372   2.815  69.060  1.00  0.00    -0.211 A  
HETATM    8  O   UNL     1     -10.444   6.484  70.826  1.00  0.00    -0.210 OA 
HETATM    9  C   UNL     1     -10.085   7.773  68.865  1.00  0.00    -0.201 C  
HETATM   10  O   UNL     1      -9.821   3.958  71.048  1.00  0.00    -0.183 OA 
HETATM   11  H   UNL     1      -9.747   3.157  71.554  1.00  0.00     0.000 HD 
HETATM   12  C   UNL     1      -9.229   2.769  67.669  1.00  0.00    -0.240 A  
HETATM   13  C   UNL     1     -10.525   8.960  69.355  1.00  0.00    -0.222 C  
HETATM   14  C   UNL     1     -10.373  10.313  68.605  1.00  0.00    -0.184 C  
HETATM   15  O   UNL     1     -10.979   9.085  70.664  1.00  0.00    -0.234 OA 
HETATM   16  C   UNL     1      -9.335   3.913  66.858  1.00  0.00    -0.188 A  
HETATM   17  O   UNL     1      -9.397  11.028  69.403  1.00  0.00    -0.405 OA 
HETATM   18  H   UNL     1     -11.287   9.916  71.007  1.00  0.00     0.000 HD 
HETATM   19  H   UNL     1     -12.385  12.251  64.702  1.00  0.00     0.000 HD 
HETATM   20  C   UNL     1     -11.585  11.272  68.604  1.00  0.00    -0.318 C  
HETATM   21  C   UNL     1     -11.480  12.518  67.777  1.00  0.00    -0.378 C  
HETATM   22  H   UNL     1      -9.304  11.855  68.944  1.00  0.00     0.000 HD 
HETATM   23  C   UNL     1      -9.977   8.766  66.624  1.00  0.00    -0.355 C  
HETATM   24  C   UNL     1      -9.832  10.188  67.151  1.00  0.00    -0.231 C  
HETATM   25  O   UNL     1     -12.649  11.055  69.185  1.00  0.00    -0.378 OA 
HETATM   26  O   UNL     1     -12.456  12.472  65.623  1.00  0.00    -0.648 OA 
HETATM   27  C   UNL     1     -11.379  12.206  66.474  1.00  0.00    -0.350 C  
HETATM   28  C   UNL     1     -10.541  11.036  66.026  1.00  0.00    -0.213 C  
ENDROOT
BRANCH  16  29
HETATM   29  N   UNL     1      -9.241   3.773  65.474  1.00  0.00    -0.146 NA 
HETATM   30  C   UNL     1      -7.940   3.825  64.808  1.00  0.00    -0.090 C  
HETATM   31  C   UNL     1     -10.375   3.786  64.550  1.00  0.00    -0.200 C  
ENDBRANCH  16  29
BRANCH  21  32
HETATM   32  C   UNL     1     -10.534  13.637  68.079  1.00  0.00    -0.248 C  
HETATM   33  O   UNL     1     -10.009  14.341  67.214  1.00  0.00    -0.246 OA 
HETATM   34  H2  UNL     1     -10.741  13.399  70.128  1.00  0.00     0.000 HD 
HETATM   35  N   UNL     1     -10.293  13.926  69.379  1.00  0.00    -0.430 N  
HETATM   36  H1  UNL     1      -9.648  14.689  69.585  1.00  0.00     0.000 HD 
ENDBRANCH  21  32
BRANCH  28  37
HETATM   37  N   UNL     1      -9.552  11.274  64.947  1.00  0.00    -0.233 NA 
HETATM   38  C   UNL     1      -8.184  10.946  65.338  1.00  0.00    -0.016 C  
HETATM   39  C   UNL     1      -9.872  10.632  63.671  1.00  0.00    -0.333 C  
ENDBRANCH  28  37
TORSDOF 3
ENDMDL
MODEL       15
REMARK 921   NORMALIZED FREE ENERGY PREDICTED BY IDOCK:   -6.88 KCAL/MOL
REMARK 922        TOTAL FREE ENERGY PREDICTED BY IDOCK:   -8.54 KCAL/MOL
REMARK 923 INTER-LIGAND FREE ENERGY PREDICTED BY IDOCK:   -7.90 KCAL/MOL
REMARK 924 INTRA-LIGAND FREE ENERGY PREDICTED BY IDOCK:   -0.65 KCAL/MOL
REMARK 927      BINDING AFFINITY PREDICTED BY RF-SCORE:    0.00 PKD
ROOT
HETATM    1  C   UNL     1      -8.731  10.276  67.074  1.00  0.00    -0.133 C  
HETATM    2  C   UNL     1      -9.022   8.845  67.485  1.00  0.00    -0.142 C  
HETATM    3  C   UNL     1      -8.092   8.213  68.460  1.00  0.00    -0.124 A  
HETATM    4  C   UNL     1      -7.325   9.064  69.296  1.00  0.00    -0.070 A  
HETATM    5  C   UNL     1      -6.420   8.490  70.193  1.00  0.00    -0.038 A  
HETATM    6  C   UNL     1      -7.498  10.559  69.261  1.00  0.00    -0.122 C  
HETATM    7  C   UNL     1      -6.287   7.110  70.267  1.00  0.00    -0.034 A  
HETATM    8  O   UNL     1      -6.941  11.266  70.102  1.00  0.00    -0.090 OA 
HETATM    9  C   UNL     1      -8.349  11.181  68.192  1.00  0.00    -0.136 C  
HETATM   10  O   UNL     1      -5.629   9.214  71.043  1.00  0.00    -0.035 OA 
HETATM   11  H   UNL     1      -5.014   8.824  71.653  1.00  0.00     0.000 HD 
HETATM   12  C   UNL     1      -7.085   6.284  69.468  1.00  0.00    -0.073 A  
HETATM   13  C   UNL     1      -8.679  12.497  68.161  1.00  0.00    -0.190 C  
HETATM   14  C   UNL     1      -9.456  13.165  66.992  1.00  0.00    -0.242 C  
HETATM   15  O   UNL     1      -8.175  13.398  69.094  1.00  0.00    -0.324 OA 
HETATM   16  C   UNL     1      -8.022   6.793  68.551  1.00  0.00    -0.119 A  
HETATM   17  O   UNL     1      -8.460  14.016  66.373  1.00  0.00    -0.380 OA 
HETATM   18  H   UNL     1      -8.406  14.318  69.072  1.00  0.00     0.000 HD 
HETATM   19  H   UNL     1     -13.978  12.961  65.396  1.00  0.00     0.000 HD 
HETATM   20  C   UNL     1     -10.581  14.161  67.356  1.00  0.00    -0.279 C  
HETATM   21  C   UNL     1     -11.410  14.707  66.232  1.00  0.00    -0.347 C  
HETATM   22  H   UNL     1      -8.935  14.423  65.658  1.00  0.00     0.000 HD 
HETATM   23  C   UNL     1     -10.029  10.744  66.458  1.00  0.00    -0.260 C  
HETATM   24  C   UNL     1      -9.995  12.170  65.923  1.00  0.00    -0.267 C  
HETATM   25  O   UNL     1     -10.879  14.489  68.504  1.00  0.00    -0.235 OA 
HETATM   26  O   UNL     1     -13.489  13.659  65.814  1.00  0.00    -0.318 OA 
HETATM   27  C   UNL     1     -12.102  13.720  65.641  1.00  0.00    -0.418 C  
HETATM   28  C   UNL     1     -11.471  12.370  65.409  1.00  0.00    -0.358 C  
ENDROOT
BRANCH  16  29
HETATM   29  N   UNL     1      -8.821   5.902  67.836  1.00  0.00    -0.107 NA 
HETATM   30  C   UNL     1     -10.072   5.401  68.407  1.00  0.00    -0.173 C  
HETATM   31  C   UNL     1      -8.425   5.222  66.603  1.00  0.00    -0.107 C  
ENDBRANCH  16  29
BRANCH  21  32
HETATM   32  C   UNL     1     -10.876  15.621  65.176  1.00  0.00    -0.431 C  
HETATM   33  O   UNL     1      -9.841  16.278  65.298  1.00  0.00    -0.470 OA 
HETATM   34  H2  UNL     1     -12.376  15.119  63.835  1.00  0.00     0.000 HD 
HETATM   35  N   UNL     1     -11.540  15.680  63.997  1.00  0.00    -0.891 N  
HETATM   36  H1  UNL     1     -11.177  16.304  63.276  1.00  0.00     0.000 HD 
ENDBRANCH  21  32
BRANCH  28  37
HETATM   37  N   UNL     1     -11.558  11.799  64.043  1.00  0.00    -0.361 NA 
HETATM   38  C   UNL     1     -12.709  12.287  63.288  1.00  0.00    -0.232 C  
HETATM   39  C   UNL     1     -10.341  11.942  63.242  1.00  0.00    -0.391 C  
ENDBRANCH  28  37
TORSDOF 3
ENDMDL
MODEL       16
REMARK 921   NORMALIZED FREE ENERGY PREDICTED BY IDOCK:   -6.86 KCAL/MOL
REMARK 922        TOTAL FREE ENERGY PREDICTED BY IDOCK:   -8.52 KCAL/MOL
REMARK 923 INTER-LIGAND FREE ENERGY PREDICTED BY IDOCK:   -8.98 KCAL/MOL
REMARK 924 INTRA-LIGAND FREE ENERGY PREDICTED BY IDOCK:    0.46 KCAL/MOL
REMARK 927      BINDING AFFINITY PREDICTED BY RF-SCORE:    0.00 PKD
ROOT
HETATM    1  C   UNL     1     -10.057  10.138  67.433  1.00  0.00    -0.251 C  
HETATM    2  C   UNL     1     -10.659  10.868  66.248  1.00  0.00    -0.276 C  
HETATM    3  C   UNL     1      -9.986  10.703  64.931  1.00  0.00    -0.382 A  
HETATM    4  C   UNL     1      -9.175   9.556  64.738  1.00  0.00    -0.267 A  
HETATM    5  C   UNL     1      -8.507   9.401  63.520  1.00  0.00    -0.201 A  
HETATM    6  C   UNL     1      -9.056   8.493  65.797  1.00  0.00    -0.167 C  
HETATM    7  C   UNL     1      -8.648  10.351  62.518  1.00  0.00    -0.232 A  
HETATM    8  O   UNL     1      -8.478   7.434  65.550  1.00  0.00    -0.144 OA 
HETATM    9  C   UNL     1      -9.643   8.735  67.157  1.00  0.00    -0.228 C  
HETATM   10  O   UNL     1      -7.698   8.337  63.227  1.00  0.00    -0.127 OA 
HETATM   11  H   UNL     1      -7.244   8.232  62.400  1.00  0.00     0.000 HD 
HETATM   12  C   UNL     1      -9.488  11.453  62.709  1.00  0.00    -0.314 A  
HETATM   13  C   UNL     1      -9.712   7.790  68.129  1.00  0.00    -0.155 C  
HETATM   14  C   UNL     1     -10.206   8.073  69.575  1.00  0.00    -0.209 C  
HETATM   15  O   UNL     1      -9.159   6.525  67.956  1.00  0.00    -0.117 OA 
HETATM   16  C   UNL     1     -10.198  11.667  63.903  1.00  0.00    -0.365 A  
HETATM   17  O   UNL     1      -9.002   7.944  70.370  1.00  0.00    -0.144 OA 
HETATM   18  H   UNL     1      -9.207   5.864  68.636  1.00  0.00     0.000 HD 
HETATM   19  H   UNL     1     -14.467   9.064  71.550  1.00  0.00     0.000 HD 
HETATM   20  C   UNL     1     -11.156   7.038  70.223  1.00  0.00    -0.285 C  
HETATM   21  C   UNL     1     -11.730   7.375  71.566  1.00  0.00    -0.314 C  
HETATM   22  H   UNL     1      -9.304   8.117  71.254  1.00  0.00     0.000 HD 
HETATM   23  C   UNL     1     -11.161  10.153  68.464  1.00  0.00    -0.226 C  
HETATM   24  C   UNL     1     -10.795   9.497  69.790  1.00  0.00    -0.264 C  
HETATM   25  O   UNL     1     -11.520   5.991  69.687  1.00  0.00    -0.394 OA 
HETATM   26  O   UNL     1     -13.906   8.300  71.612  1.00  0.00    -0.368 OA 
HETATM   27  C   UNL     1     -12.523   8.455  71.479  1.00  0.00    -0.312 C  
HETATM   28  C   UNL     1     -12.137   9.624  70.608  1.00  0.00    -0.194 C  
ENDROOT
BRANCH  16  29
HETATM   29  N   UNL     1     -11.063  12.757  63.991  1.00  0.00    -0.387 NA 
HETATM   30  C   UNL     1     -12.387  12.708  63.370  1.00  0.00    -0.456 C  
HETATM   31  C   UNL     1     -10.694  14.084  64.484  1.00  0.00    -0.336 C  
ENDBRANCH  16  29
BRANCH  21  32
HETATM   32  C   UNL     1     -10.913   7.477  72.815  1.00  0.00    -0.359 C  
HETATM   33  O   UNL     1     -10.144   8.410  73.056  1.00  0.00    -0.226 OA 
HETATM   34  H2  UNL     1     -11.736   5.753  73.621  1.00  0.00     0.000 HD 
HETATM   35  N   UNL     1     -11.077   6.519  73.758  1.00  0.00    -0.382 N  
HETATM   36  H1  UNL     1     -10.520   6.589  74.609  1.00  0.00     0.000 HD 
ENDBRANCH  21  32
BRANCH  28  37
HETATM   37  N   UNL     1     -12.170  10.974  71.220  1.00  0.00    -0.304 NA 
HETATM   38  C   UNL     1     -11.915  12.046  70.260  1.00  0.00    -0.314 C  
HETATM   39  C   UNL     1     -13.381  11.270  71.985  1.00  0.00    -0.280 C  
ENDBRANCH  28  37
TORSDOF 3
ENDMDL
MODEL       17
REMARK 921   NORMALIZED FREE ENERGY PREDICTED BY IDOCK:   -6.78 KCAL/MOL
REMARK 922        TOTAL FREE ENERGY PREDICTED BY IDOCK:   -8.43 KCAL/MOL
REMARK 923 INTER-LIGAND FREE ENERGY PREDICTED BY IDOCK:   -7.67 KCAL/MOL
REMARK 924 INTRA-LIGAND FREE ENERGY PREDICTED BY IDOCK:   -0.76 KCAL/MOL
REMARK 927      BINDING AFFINITY PREDICTED BY RF-SCORE:    0.00 PKD
ROOT
HETATM    1  C   UNL     1     -11.111  10.597  68.323  1.00  0.00    -0.334 C  
HETATM    2  C   UNL     1     -10.942   9.517  69.374  1.00  0.00    -0.192 C  
HETATM    3  C   UNL     1     -10.779   8.118  68.894  1.00  0.00    -0.090 A  
HETATM    4  C   UNL     1     -10.312   7.918  67.570  1.00  0.00    -0.329 A  
HETATM    5  C   UNL     1     -10.187   6.612  67.090  1.00  0.00    -0.213 A  
HETATM    6  C   UNL     1      -9.914   9.078  66.697  1.00  0.00    -0.278 C  
HETATM    7  C   UNL     1     -10.505   5.533  67.903  1.00  0.00    -0.244 A  
HETATM    8  O   UNL     1      -9.364   8.878  65.614  1.00  0.00    -0.231 OA 
HETATM    9  C   UNL     1     -10.197  10.480  67.154  1.00  0.00    -0.270 C  
HETATM   10  O   UNL     1      -9.749   6.304  65.830  1.00  0.00    -0.384 OA 
HETATM   11  H   UNL     1      -9.664   5.417  65.503  1.00  0.00     0.000 HD 
HETATM   12  C   UNL     1     -10.921   5.746  69.221  1.00  0.00    -0.330 A  
HETATM   13  C   UNL     1      -9.754  11.588  66.508  1.00  0.00    -0.203 C  
HETATM   14  C   UNL     1     -10.148  13.037  66.910  1.00  0.00    -0.243 C  
HETATM   15  O   UNL     1      -9.056  11.503  65.308  1.00  0.00    -0.376 OA 
HETATM   16  C   UNL     1     -11.060   7.032  69.773  1.00  0.00    -0.241 A  
HETATM   17  O   UNL     1     -10.992  13.469  65.814  1.00  0.00    -0.278 OA 
HETATM   18  H   UNL     1      -8.746  12.278  64.856  1.00  0.00     0.000 HD 
HETATM   19  H   UNL     1      -9.100  15.917  70.604  1.00  0.00     0.000 HD 
HETATM   20  C   UNL     1      -9.031  14.106  66.925  1.00  0.00    -0.230 C  
HETATM   21  C   UNL     1      -9.387  15.471  67.432  1.00  0.00    -0.211 C  
HETATM   22  H   UNL     1     -11.233  14.354  66.060  1.00  0.00     0.000 HD 
HETATM   23  C   UNL     1     -10.822  11.877  69.072  1.00  0.00    -0.235 C  
HETATM   24  C   UNL     1     -10.958  13.143  68.235  1.00  0.00    -0.278 C  
HETATM   25  O   UNL     1      -7.860  13.898  66.606  1.00  0.00     0.352 OA 
HETATM   26  O   UNL     1      -8.861  15.958  69.686  1.00  0.00    -0.195 OA 
HETATM   27  C   UNL     1      -9.725  15.413  68.731  1.00  0.00    -0.210 C  
HETATM   28  C   UNL     1     -10.551  14.269  69.260  1.00  0.00    -0.141 C  
ENDROOT
BRANCH  16  29
HETATM   29  N   UNL     1     -11.419   7.158  71.114  1.00  0.00    -0.277 NA 
HETATM   30  C   UNL     1     -12.827   7.250  71.502  1.00  0.00    -0.388 C  
HETATM   31  C   UNL     1     -10.489   7.429  72.211  1.00  0.00    -0.223 C  
ENDBRANCH  16  29
BRANCH  21  32
HETATM   32  C   UNL     1     -10.330  16.397  66.731  1.00  0.00    -0.293 C  
HETATM   33  O   UNL     1     -10.863  16.141  65.649  1.00  0.00    -0.314 OA 
HETATM   34  H2  UNL     1     -10.279  17.785  68.270  1.00  0.00     0.000 HD 
HETATM   35  N   UNL     1     -10.660  17.553  67.353  1.00  0.00    -0.340 N  
HETATM   36  H1  UNL     1     -11.303  18.185  66.875  1.00  0.00     0.000 HD 
ENDBRANCH  21  32
BRANCH  28  37
HETATM   37  N   UNL     1     -11.750  14.604  70.066  1.00  0.00    -0.278 NA 
HETATM   38  C   UNL     1     -11.428  15.022  71.428  1.00  0.00    -0.318 C  
HETATM   39  C   UNL     1     -12.651  15.577  69.447  1.00  0.00     0.145 C  
ENDBRANCH  28  37
TORSDOF 3
ENDMDL
MODEL       18
REMARK 921   NORMALIZED FREE ENERGY PREDICTED BY IDOCK:   -6.65 KCAL/MOL
REMARK 922        TOTAL FREE ENERGY PREDICTED BY IDOCK:   -8.27 KCAL/MOL
REMARK 923 INTER-LIGAND FREE ENERGY PREDICTED BY IDOCK:   -8.48 KCAL/MOL
REMARK 924 INTRA-LIGAND FREE ENERGY PREDICTED BY IDOCK:    0.20 KCAL/MOL
REMARK 927      BINDING AFFINITY PREDICTED BY RF-SCORE:    0.00 PKD
ROOT
HETATM    1  C   UNL     1     -11.101   9.890  68.390  1.00  0.00    -0.193 C  
HETATM    2  C   UNL     1     -10.473   9.284  69.631  1.00  0.00    -0.234 C  
HETATM    3  C   UNL     1     -10.200   7.821  69.612  1.00  0.00    -0.206 A  
HETATM    4  C   UNL     1     -10.072   7.184  68.352  1.00  0.00    -0.182 A  
HETATM    5  C   UNL     1      -9.851   5.804  68.314  1.00  0.00    -0.139 A  
HETATM    6  C   UNL     1     -10.128   7.968  67.068  1.00  0.00    -0.279 C  
HETATM    7  C   UNL     1      -9.749   5.079  69.492  1.00  0.00    -0.259 A  
HETATM    8  O   UNL     1      -9.857   7.424  65.997  1.00  0.00     0.062 OA 
HETATM    9  C   UNL     1     -10.523   9.416  67.103  1.00  0.00    -0.315 C  
HETATM   10  O   UNL     1      -9.714   5.088  67.156  1.00  0.00    -0.142 OA 
HETATM   11  H   UNL     1      -9.564   4.151  67.129  1.00  0.00     0.000 HD 
HETATM   12  C   UNL     1      -9.832   5.730  70.728  1.00  0.00    -0.235 A  
HETATM   13  C   UNL     1     -10.467  10.240  66.025  1.00  0.00    -0.111 C  
HETATM   14  C   UNL     1     -10.989  11.704  66.030  1.00  0.00    -0.286 C  
HETATM   15  O   UNL     1     -10.107   9.770  64.766  1.00  0.00    -0.371 OA 
HETATM   16  C   UNL     1     -10.043   7.116  70.840  1.00  0.00    -0.193 A  
HETATM   17  O   UNL     1     -12.154  11.645  65.171  1.00  0.00    -0.151 OA 
HETATM   18  H   UNL     1     -10.068  10.346  64.012  1.00  0.00     0.000 HD 
HETATM   19  H   UNL     1      -9.524  15.802  68.055  1.00  0.00     0.000 HD 
HETATM   20  C   UNL     1     -10.113  12.779  65.345  1.00  0.00    -0.259 C  
HETATM   21  C   UNL     1     -10.556  14.207  65.460  1.00  0.00    -0.335 C  
HETATM   22  H   UNL     1     -12.473  12.539  65.174  1.00  0.00     0.000 HD 
HETATM   23  C   UNL     1     -10.854  11.371  68.549  1.00  0.00    -0.251 C  
HETATM   24  C   UNL     1     -11.426  12.230  67.428  1.00  0.00    -0.422 C  
HETATM   25  O   UNL     1      -9.050  12.551  64.768  1.00  0.00     0.565 OA 
HETATM   26  O   UNL     1      -9.548  15.521  67.148  1.00  0.00    -0.217 OA 
HETATM   27  C   UNL     1     -10.524  14.604  66.743  1.00  0.00    -0.277 C  
HETATM   28  C   UNL     1     -10.967  13.679  67.846  1.00  0.00    -0.259 C  
ENDROOT
BRANCH  16  29
HETATM   29  N   UNL     1     -10.052   7.698  72.107  1.00  0.00    -0.188 NA 
HETATM   30  C   UNL     1     -11.315   7.949  72.802  1.00  0.00    -0.393 C  
HETATM   31  C   UNL     1      -8.892   8.304  72.760  1.00  0.00    -0.239 C  
ENDBRANCH  16  29
BRANCH  21  32
HETATM   32  C   UNL     1     -11.798  14.743  64.822  1.00  0.00    -0.423 C  
HETATM   33  O   UNL     1     -12.928  14.305  65.047  1.00  0.00    -0.693 OA 
HETATM   34  H2  UNL     1     -10.765  16.234  63.818  1.00  0.00     0.000 HD 
HETATM   35  N   UNL     1     -11.674  15.810  63.997  1.00  0.00    -0.952 N  
HETATM   36  H1  UNL     1     -12.521  16.176  63.561  1.00  0.00     0.000 HD 
ENDBRANCH  21  32
BRANCH  28  37
HETATM   37  N   UNL     1     -11.949  14.201  68.826  1.00  0.00    -0.343 NA 
HETATM   38  C   UNL     1     -11.788  13.632  70.162  1.00  0.00    -0.281 C  
HETATM   39  C   UNL     1     -12.012  15.661  68.912  1.00  0.00    -0.279 C  
ENDBRANCH  28  37
TORSDOF 3
ENDMDL
MODEL       19
REMARK 921   NORMALIZED FREE ENERGY PREDICTED BY IDOCK:   -6.63 KCAL/MOL
REMARK 922        TOTAL FREE ENERGY PREDICTED BY IDOCK:   -8.26 KCAL/MOL
REMARK 923 INTER-LIGAND FREE ENERGY PREDICTED BY IDOCK:   -7.46 KCAL/MOL
REMARK 924 INTRA-LIGAND FREE ENERGY PREDICTED BY IDOCK:   -0.80 KCAL/MOL
REMARK 927      BINDING AFFINITY PREDICTED BY RF-SCORE:    0.00 PKD
ROOT
HETATM    1  C   UNL     1     -10.109  10.189  68.347  1.00  0.00    -0.184 C  
HETATM    2  C   UNL     1      -9.107   9.695  69.373  1.00  0.00    -0.194 C  
HETATM    3  C   UNL     1      -8.866   8.228  69.439  1.00  0.00    -0.146 A  
HETATM    4  C   UNL     1      -9.169   7.450  68.293  1.00  0.00    -0.137 A  
HETATM    5  C   UNL     1      -8.983   6.066  68.349  1.00  0.00    -0.114 A  
HETATM    6  C   UNL     1      -9.646   8.090  67.017  1.00  0.00    -0.196 C  
HETATM    7  C   UNL     1      -8.498   5.471  69.505  1.00  0.00    -0.105 A  
HETATM    8  O   UNL     1      -9.751   7.420  65.989  1.00  0.00     0.011 OA 
HETATM    9  C   UNL     1      -9.996   9.550  67.006  1.00  0.00    -0.273 C  
HETATM   10  O   UNL     1      -9.245   5.221  67.305  1.00  0.00    -0.112 OA 
HETATM   11  H   UNL     1      -9.119   4.281  67.342  1.00  0.00     0.000 HD 
HETATM   12  C   UNL     1      -8.160   6.258  70.611  1.00  0.00    -0.113 A  
HETATM   13  C   UNL     1     -10.297  10.246  65.881  1.00  0.00    -0.171 C  
HETATM   14  C   UNL     1     -10.778  11.725  65.883  1.00  0.00    -0.282 C  
HETATM   15  O   UNL     1     -10.382   9.625  64.640  1.00  0.00    -0.149 OA 
HETATM   16  C   UNL     1      -8.312   7.656  70.621  1.00  0.00    -0.125 A  
HETATM   17  O   UNL     1     -12.164  11.625  65.471  1.00  0.00    -0.127 OA 
HETATM   18  H   UNL     1     -10.593  10.111  63.852  1.00  0.00     0.000 HD 
HETATM   19  H   UNL     1      -8.695  15.949  66.807  1.00  0.00     0.000 HD 
HETATM   20  C   UNL     1     -10.174  12.676  64.825  1.00  0.00    -0.283 C  
HETATM   21  C   UNL     1     -10.544  14.127  64.909  1.00  0.00    -0.449 C  
HETATM   22  H   UNL     1     -12.458  12.528  65.473  1.00  0.00     0.000 HD 
HETATM   23  C   UNL     1      -9.813  11.666  68.237  1.00  0.00    -0.199 C  
HETATM   24  C   UNL     1     -10.720  12.421  67.274  1.00  0.00    -0.259 C  
HETATM   25  O   UNL     1      -9.366  12.337  63.960  1.00  0.00     0.153 OA 
HETATM   26  O   UNL     1      -9.021  15.571  65.999  1.00  0.00    -0.324 OA 
HETATM   27  C   UNL     1     -10.082  14.661  66.051  1.00  0.00    -0.311 C  
HETATM   28  C   UNL     1     -10.138  13.884  67.341  1.00  0.00    -0.244 C  
ENDROOT
BRANCH  16  29
HETATM   29  N   UNL     1      -7.894   8.374  71.741  1.00  0.00    -0.117 NA 
HETATM   30  C   UNL     1      -6.539   8.922  71.810  1.00  0.00    -0.050 C  
HETATM   31  C   UNL     1      -8.630   8.467  73.002  1.00  0.00    -0.147 C  
ENDBRANCH  16  29
BRANCH  21  32
HETATM   32  C   UNL     1     -11.924  14.646  64.657  1.00  0.00    -0.462 C  
HETATM   33  O   UNL     1     -12.933  14.208  65.215  1.00  0.00    -0.725 OA 
HETATM   34  H2  UNL     1     -11.248  16.121  63.366  1.00  0.00     0.000 HD 
HETATM   35  N   UNL     1     -12.060  15.697  63.815  1.00  0.00    -0.956 N  
HETATM   36  H1  UNL     1     -13.001  16.051  63.643  1.00  0.00     0.000 HD 
ENDBRANCH  21  32
BRANCH  28  37
HETATM   37  N   UNL     1     -10.734  14.556  68.521  1.00  0.00    -0.243 NA 
HETATM   38  C   UNL     1      -9.736  15.118  69.427  1.00  0.00    -0.202 C  
HETATM   39  C   UNL     1     -11.744  15.567  68.205  1.00  0.00    -0.229 C  
ENDBRANCH  28  37
TORSDOF 3
ENDMDL
MODEL       20
REMARK 921   NORMALIZED FREE ENERGY PREDICTED BY IDOCK:   -6.59 KCAL/MOL
REMARK 922        TOTAL FREE ENERGY PREDICTED BY IDOCK:   -8.21 KCAL/MOL
REMARK 923 INTER-LIGAND FREE ENERGY PREDICTED BY IDOCK:   -7.52 KCAL/MOL
REMARK 924 INTRA-LIGAND FREE ENERGY PREDICTED BY IDOCK:   -0.69 KCAL/MOL
REMARK 927      BINDING AFFINITY PREDICTED BY RF-SCORE:    0.00 PKD
ROOT
HETATM    1  C   UNL     1     -10.511  10.369  68.344  1.00  0.00    -0.216 C  
HETATM    2  C   UNL     1     -10.717   9.461  69.541  1.00  0.00    -0.238 C  
HETATM    3  C   UNL     1     -10.487   8.005  69.340  1.00  0.00    -0.223 A  
HETATM    4  C   UNL     1      -9.655   7.605  68.263  1.00  0.00    -0.160 A  
HETATM    5  C   UNL     1      -9.456   6.240  68.037  1.00  0.00    -0.116 A  
HETATM    6  C   UNL     1      -8.957   8.617  67.395  1.00  0.00    -0.133 C  
HETATM    7  C   UNL     1     -10.056   5.298  68.861  1.00  0.00    -0.254 A  
HETATM    8  O   UNL     1      -8.118   8.252  66.571  1.00  0.00    -0.101 OA 
HETATM    9  C   UNL     1      -9.295  10.073  67.537  1.00  0.00    -0.162 C  
HETATM   10  O   UNL     1      -8.677   5.743  67.028  1.00  0.00    -0.111 OA 
HETATM   11  H   UNL     1      -8.542   4.816  66.873  1.00  0.00     0.000 HD 
HETATM   12  C   UNL     1     -10.837   5.711  69.946  1.00  0.00    -0.370 A  
HETATM   13  C   UNL     1      -8.625  11.069  66.905  1.00  0.00    -0.143 C  
HETATM   14  C   UNL     1      -9.049  12.563  66.955  1.00  0.00    -0.213 C  
HETATM   15  O   UNL     1      -7.604  10.800  65.998  1.00  0.00    -0.149 OA 
HETATM   16  C   UNL     1     -11.071   7.066  70.239  1.00  0.00    -0.285 A  
HETATM   17  O   UNL     1      -9.504  12.826  65.604  1.00  0.00    -0.454 OA 
HETATM   18  H   UNL     1      -7.135  11.496  65.555  1.00  0.00     0.000 HD 
HETATM   19  H   UNL     1      -9.016  15.968  70.338  1.00  0.00     0.000 HD 
HETATM   20  C   UNL     1      -7.937  13.618  67.154  1.00  0.00    -0.041 C  
HETATM   21  C   UNL     1      -8.361  15.045  67.327  1.00  0.00    -0.228 C  
HETATM   22  H   UNL     1      -9.764  13.739  65.635  1.00  0.00     0.000 HD 
HETATM   23  C   UNL     1     -10.397  11.747  68.953  1.00  0.00    -0.151 C  
HETATM   24  C   UNL     1     -10.213  12.871  67.941  1.00  0.00    -0.233 C  
HETATM   25  O   UNL     1      -6.736  13.360  67.239  1.00  0.00    -0.196 OA 
HETATM   26  O   UNL     1      -8.511  15.868  69.539  1.00  0.00    -0.234 OA 
HETATM   27  C   UNL     1      -9.075  15.186  68.456  1.00  0.00    -0.191 C  
HETATM   28  C   UNL     1     -10.077  14.139  68.868  1.00  0.00    -0.150 C  
ENDROOT
BRANCH  16  29
HETATM   29  N   UNL     1     -11.809   7.395  71.375  1.00  0.00    -0.287 NA 
HETATM   30  C   UNL     1     -11.145   7.586  72.665  1.00  0.00    -0.347 C  
HETATM   31  C   UNL     1     -13.269   7.367  71.464  1.00  0.00    -0.372 C  
ENDBRANCH  16  29
BRANCH  21  32
HETATM   32  C   UNL     1      -9.004  15.857  66.247  1.00  0.00    -0.346 C  
HETATM   33  O   UNL     1      -9.993  15.489  65.611  1.00  0.00    -0.328 OA 
HETATM   34  H2  UNL     1      -7.713  17.454  66.533  1.00  0.00     0.000 HD 
HETATM   35  N   UNL     1      -8.502  17.090  66.000  1.00  0.00    -0.213 N  
HETATM   36  H1  UNL     1      -8.940  17.643  65.263  1.00  0.00     0.000 HD 
ENDBRANCH  21  32
BRANCH  28  37
HETATM   37  N   UNL     1     -11.444  14.596  69.215  1.00  0.00    -0.275 NA 
HETATM   38  C   UNL     1     -11.755  14.454  70.635  1.00  0.00    -0.252 C  
HETATM   39  C   UNL     1     -11.767  15.952  68.769  1.00  0.00    -0.349 C  
ENDBRANCH  28  37
TORSDOF 3
ENDMDL
MODEL       21
REMARK 921   NORMALIZED FREE ENERGY PREDICTED BY IDOCK:   -6.52 KCAL/MOL
REMARK 922        TOTAL FREE ENERGY PREDICTED BY IDOCK:   -8.12 KCAL/MOL
REMARK 923 INTER-LIGAND FREE ENERGY PREDICTED BY IDOCK:   -7.44 KCAL/MOL
REMARK 924 INTRA-LIGAND FREE ENERGY PREDICTED BY IDOCK:   -0.68 KCAL/MOL
REMARK 927      BINDING AFFINITY PREDICTED BY RF-SCORE:    0.00 PKD
ROOT
HETATM    1  C   UNL     1      -9.055   7.406  69.222  1.00  0.00    -0.135 C  
HETATM    2  C   UNL     1      -9.180   5.900  69.087  1.00  0.00    -0.131 C  
HETATM    3  C   UNL     1      -9.586   5.138  70.298  1.00  0.00    -0.249 A  
HETATM    4  C   UNL     1     -10.283   5.833  71.319  1.00  0.00    -0.270 A  
HETATM    5  C   UNL     1     -10.641   5.142  72.481  1.00  0.00    -0.220 A  
HETATM    6  C   UNL     1     -10.675   7.277  71.157  1.00  0.00    -0.228 C  
HETATM    7  C   UNL     1     -10.327   3.798  72.621  1.00  0.00    -0.226 A  
HETATM    8  O   UNL     1     -11.415   7.815  71.982  1.00  0.00    -0.262 OA 
HETATM    9  C   UNL     1     -10.155   8.058  69.985  1.00  0.00    -0.196 C  
HETATM   10  O   UNL     1     -11.312   5.713  73.528  1.00  0.00    -0.462 OA 
HETATM   11  H   UNL     1     -11.555   5.244  74.317  1.00  0.00     0.000 HD 
HETATM   12  C   UNL     1      -9.680   3.116  71.585  1.00  0.00    -0.235 A  
HETATM   13  C   UNL     1     -10.561   9.315  69.675  1.00  0.00    -0.229 C  
HETATM   14  C   UNL     1      -9.934  10.169  68.537  1.00  0.00    -0.163 C  
HETATM   15  O   UNL     1     -11.449  10.015  70.485  1.00  0.00    -0.281 OA 
HETATM   16  C   UNL     1      -9.300   3.745  70.386  1.00  0.00    -0.165 A  
HETATM   17  O   UNL     1      -9.234  11.216  69.253  1.00  0.00    -0.397 OA 
HETATM   18  H   UNL     1     -11.733  10.895  70.269  1.00  0.00     0.000 HD 
HETATM   19  H   UNL     1     -10.013   9.976  63.742  1.00  0.00     0.000 HD 
HETATM   20  C   UNL     1     -10.897  10.962  67.624  1.00  0.00    -0.266 C  
HETATM   21  C   UNL     1     -10.301  11.683  66.452  1.00  0.00    -0.266 C  
HETATM   22  H   UNL     1      -8.852  11.738  68.557  1.00  0.00     0.000 HD 
HETATM   23  C   UNL     1      -9.062   7.897  67.793  1.00  0.00    -0.138 C  
HETATM   24  C   UNL     1      -8.913   9.406  67.645  1.00  0.00    -0.125 C  
HETATM   25  O   UNL     1     -12.121  10.993  67.757  1.00  0.00    -0.534 OA 
HETATM   26  O   UNL     1     -10.391  10.596  64.354  1.00  0.00    -0.363 OA 
HETATM   27  C   UNL     1      -9.766  10.806  65.587  1.00  0.00    -0.237 C  
HETATM   28  C   UNL     1      -9.009   9.601  66.083  1.00  0.00    -0.154 C  
ENDROOT
BRANCH  16  29
HETATM   29  N   UNL     1      -8.714   2.981  69.377  1.00  0.00    -0.069 NA 
HETATM   30  C   UNL     1      -7.259   2.909  69.248  1.00  0.00    -0.044 C  
HETATM   31  C   UNL     1      -9.434   2.382  68.254  1.00  0.00    -0.162 C  
ENDBRANCH  16  29
BRANCH  21  32
HETATM   32  C   UNL     1      -9.381  12.855  66.580  1.00  0.00    -0.240 C  
HETATM   33  O   UNL     1      -8.378  12.863  67.297  1.00  0.00    -0.178 OA 
HETATM   34  H2  UNL     1     -10.427  13.965  65.176  1.00  0.00     0.000 HD 
HETATM   35  N   UNL     1      -9.634  13.944  65.817  1.00  0.00    -0.509 N  
HETATM   36  H1  UNL     1      -9.007  14.744  65.904  1.00  0.00     0.000 HD 
ENDBRANCH  21  32
BRANCH  28  37
HETATM   37  N   UNL     1      -7.664   9.353  65.511  1.00  0.00    -0.098 NA 
HETATM   38  C   UNL     1      -7.701   8.596  64.262  1.00  0.00    -0.128 C  
HETATM   39  C   UNL     1      -6.840  10.551  65.342  1.00  0.00    -0.078 C  
ENDBRANCH  28  37
TORSDOF 3
ENDMDL
MODEL       22
REMARK 921   NORMALIZED FREE ENERGY PREDICTED BY IDOCK:   -6.42 KCAL/MOL
REMARK 922        TOTAL FREE ENERGY PREDICTED BY IDOCK:   -8.00 KCAL/MOL
REMARK 923 INTER-LIGAND FREE ENERGY PREDICTED BY IDOCK:   -7.36 KCAL/MOL
REMARK 924 INTRA-LIGAND FREE ENERGY PREDICTED BY IDOCK:   -0.64 KCAL/MOL
REMARK 927      BINDING AFFINITY PREDICTED BY RF-SCORE:    0.00 PKD
ROOT
HETATM    1  C   UNL     1      -8.848  12.284  67.352  1.00  0.00    -0.185 C  
HETATM    2  C   UNL     1      -8.784  13.791  67.513  1.00  0.00    -0.194 C  
HETATM    3  C   UNL     1      -9.642  14.610  66.616  1.00  0.00    -0.294 A  
HETATM    4  C   UNL     1     -10.781  13.993  66.038  1.00  0.00    -0.294 A  
HETATM    5  C   UNL     1     -11.580  14.736  65.164  1.00  0.00    -0.358 A  
HETATM    6  C   UNL     1     -11.161  12.577  66.378  1.00  0.00    -0.306 C  
HETATM    7  C   UNL     1     -11.265  16.057  64.880  1.00  0.00    -0.319 A  
HETATM    8  O   UNL     1     -12.235  12.114  65.992  1.00  0.00    -0.609 OA 
HETATM    9  C   UNL     1     -10.221  11.732  67.188  1.00  0.00    -0.236 C  
HETATM   10  O   UNL     1     -12.698  14.241  64.549  1.00  0.00    -0.662 OA 
HETATM   11  H   UNL     1     -13.240  14.745  63.956  1.00  0.00     0.000 HD 
HETATM   12  C   UNL     1     -10.165  16.665  65.495  1.00  0.00    -0.227 A  
HETATM   13  C   UNL     1     -10.532  10.499  67.663  1.00  0.00    -0.234 C  
HETATM   14  C   UNL     1      -9.519   9.575  68.395  1.00  0.00    -0.137 C  
HETATM   15  O   UNL     1     -11.743   9.885  67.361  1.00  0.00    -0.128 OA 
HETATM   16  C   UNL     1      -9.325  15.981  66.391  1.00  0.00    -0.298 A  
HETATM   17  O   UNL     1      -9.307   8.498  67.449  1.00  0.00    -0.143 OA 
HETATM   18  H   UNL     1     -11.961   9.023  67.693  1.00  0.00     0.000 HD 
HETATM   19  H   UNL     1      -7.369   9.654  72.686  1.00  0.00     0.000 HD 
HETATM   20  C   UNL     1     -10.010   8.830  69.658  1.00  0.00    -0.191 C  
HETATM   21  C   UNL     1      -8.998   8.040  70.431  1.00  0.00    -0.146 C  
HETATM   22  H   UNL     1      -8.687   7.933  67.896  1.00  0.00     0.000 HD 
HETATM   23  C   UNL     1      -8.234  11.759  68.629  1.00  0.00    -0.091 C  
HETATM   24  C   UNL     1      -8.147  10.240  68.708  1.00  0.00    -0.120 C  
HETATM   25  O   UNL     1     -11.157   8.891  70.103  1.00  0.00    -0.242 OA 
HETATM   26  O   UNL     1      -8.032   9.078  72.324  1.00  0.00    -0.352 OA 
HETATM   27  C   UNL     1      -8.061   8.855  70.943  1.00  0.00    -0.166 C  
HETATM   28  C   UNL     1      -7.529  10.014  70.141  1.00  0.00    -0.166 C  
ENDROOT
BRANCH  16  29
HETATM   29  N   UNL     1      -8.285  16.675  67.009  1.00  0.00    -0.176 NA 
HETATM   30  C   UNL     1      -8.452  17.221  68.356  1.00  0.00    -0.254 C  
HETATM   31  C   UNL     1      -7.059  17.117  66.344  1.00  0.00    -0.275 C  
ENDBRANCH  16  29
BRANCH  21  32
HETATM   32  C   UNL     1      -8.331   6.808  69.907  1.00  0.00    -0.135 C  
HETATM   33  O   UNL     1      -7.552   6.806  68.951  1.00  0.00    -0.100 OA 
HETATM   34  H2  UNL     1      -9.151   5.606  71.383  1.00  0.00     0.000 HD 
HETATM   35  N   UNL     1      -8.550   5.643  70.560  1.00  0.00    -0.127 N  
HETATM   36  H1  UNL     1      -8.095   4.803  70.203  1.00  0.00     0.000 HD 
ENDBRANCH  21  32
BRANCH  28  37
HETATM   37  N   UNL     1      -6.057  10.150  70.027  1.00  0.00    -0.055 NA 
HETATM   38  C   UNL     1      -5.534  11.327  70.716  1.00  0.00    -0.124 C  
HETATM   39  C   UNL     1      -5.299   8.963  70.425  1.00  0.00    -0.020 C  
ENDBRANCH  28  37
TORSDOF 3
ENDMDL
MODEL       23
REMARK 921   NORMALIZED FREE ENERGY PREDICTED BY IDOCK:   -6.39 KCAL/MOL
REMARK 922        TOTAL FREE ENERGY PREDICTED BY IDOCK:   -7.97 KCAL/MOL
REMARK 923 INTER-LIGAND FREE ENERGY PREDICTED BY IDOCK:   -7.32 KCAL/MOL
REMARK 924 INTRA-LIGAND FREE ENERGY PREDICTED BY IDOCK:   -0.65 KCAL/MOL
REMARK 927      BINDING AFFINITY PREDICTED BY RF-SCORE:    0.00 PKD
ROOT
HETATM    1  C   UNL     1     -10.521   8.714  68.378  1.00  0.00    -0.220 C  
HETATM    2  C   UNL     1      -9.642   9.387  67.341  1.00  0.00    -0.184 C  
HETATM    3  C   UNL     1     -10.082  10.715  66.832  1.00  0.00    -0.260 A  
HETATM    4  C   UNL     1     -10.962  11.479  67.639  1.00  0.00    -0.296 A  
HETATM    5  C   UNL     1     -11.414  12.712  67.162  1.00  0.00    -0.346 A  
HETATM    6  C   UNL     1     -11.382  11.006  69.005  1.00  0.00    -0.277 C  
HETATM    7  C   UNL     1     -10.996  13.180  65.924  1.00  0.00    -0.288 A  
HETATM    8  O   UNL     1     -12.016  11.753  69.752  1.00  0.00    -0.310 OA 
HETATM    9  C   UNL     1     -11.026   9.617  69.449  1.00  0.00    -0.215 C  
HETATM   10  O   UNL     1     -12.267  13.529  67.854  1.00  0.00    -0.305 OA 
HETATM   11  H   UNL     1     -12.574  14.367  67.530  1.00  0.00     0.000 HD 
HETATM   12  C   UNL     1     -10.091  12.435  65.161  1.00  0.00    -0.276 A  
HETATM   13  C   UNL     1     -11.234   9.149  70.706  1.00  0.00    -0.277 C  
HETATM   14  C   UNL     1     -10.979   7.676  71.133  1.00  0.00    -0.246 C  
HETATM   15  O   UNL     1     -11.878   9.916  71.672  1.00  0.00    -0.379 OA 
HETATM   16  C   UNL     1      -9.588  11.192  65.583  1.00  0.00    -0.224 A  
HETATM   17  O   UNL     1     -12.313   7.162  71.367  1.00  0.00    -0.337 OA 
HETATM   18  H   UNL     1     -12.023   9.589  72.551  1.00  0.00     0.000 HD 
HETATM   19  H   UNL     1      -7.060   4.985  71.793  1.00  0.00     0.000 HD 
HETATM   20  C   UNL     1     -10.276   7.434  72.489  1.00  0.00    -0.216 C  
HETATM   21  C   UNL     1      -9.920   6.021  72.839  1.00  0.00    -0.187 C  
HETATM   22  H   UNL     1     -12.158   6.262  71.627  1.00  0.00     0.000 HD 
HETATM   23  C   UNL     1      -9.624   7.658  68.979  1.00  0.00    -0.151 C  
HETATM   24  C   UNL     1     -10.290   6.799  70.048  1.00  0.00    -0.225 C  
HETATM   25  O   UNL     1      -9.936   8.324  73.269  1.00  0.00    -0.201 OA 
HETATM   26  O   UNL     1      -7.701   5.325  72.406  1.00  0.00    -0.097 OA 
HETATM   27  C   UNL     1      -9.014   5.539  71.972  1.00  0.00    -0.134 C  
HETATM   28  C   UNL     1      -9.111   5.856  70.502  1.00  0.00    -0.148 C  
ENDROOT
BRANCH  16  29
HETATM   29  N   UNL     1      -8.642  10.540  64.793  1.00  0.00    -0.178 NA 
HETATM   30  C   UNL     1      -9.051   9.801  63.599  1.00  0.00    -0.232 C  
HETATM   31  C   UNL     1      -7.241  10.333  65.161  1.00  0.00    -0.125 C  
ENDBRANCH  16  29
BRANCH  21  32
HETATM   32  C   UNL     1     -10.932   4.955  73.119  1.00  0.00    -0.306 C  
HETATM   33  O   UNL     1     -12.150   5.140  73.078  1.00  0.00    -0.176 OA 
HETATM   34  H2  UNL     1      -9.481   3.496  73.371  1.00  0.00     0.000 HD 
HETATM   35  N   UNL     1     -10.479   3.705  73.372  1.00  0.00    -0.165 N  
HETATM   36  H1  UNL     1     -11.169   2.978  73.563  1.00  0.00     0.000 HD 
ENDBRANCH  21  32
BRANCH  28  37
HETATM   37  N   UNL     1      -9.045   4.722  69.550  1.00  0.00    -0.097 NA 
HETATM   38  C   UNL     1      -7.751   4.606  68.883  1.00  0.00    -0.071 C  
HETATM   39  C   UNL     1      -9.431   3.427  70.113  1.00  0.00    -0.173 C  
ENDBRANCH  28  37
TORSDOF 3
ENDMDL
MODEL       24
REMARK 921   NORMALIZED FREE ENERGY PREDICTED BY IDOCK:   -6.32 KCAL/MOL
REMARK 922        TOTAL FREE ENERGY PREDICTED BY IDOCK:   -7.89 KCAL/MOL
REMARK 923 INTER-LIGAND FREE ENERGY PREDICTED BY IDOCK:   -7.07 KCAL/MOL
REMARK 924 INTRA-LIGAND FREE ENERGY PREDICTED BY IDOCK:   -0.82 KCAL/MOL
REMARK 927      BINDING AFFINITY PREDICTED BY RF-SCORE:    0.00 PKD
ROOT
HETATM    1  C   UNL     1     -10.709   9.361  68.689  1.00  0.00    -0.196 C  
HETATM    2  C   UNL     1     -10.444  10.846  68.532  1.00  0.00    -0.209 C  
HETATM    3  C   UNL     1     -11.288  11.777  69.328  1.00  0.00    -0.348 A  
HETATM    4  C   UNL     1     -11.915  11.274  70.496  1.00  0.00    -0.467 A  
HETATM    5  C   UNL     1     -12.741  12.125  71.237  1.00  0.00    -0.261 A  
HETATM    6  C   UNL     1     -11.676   9.866  70.969  1.00  0.00    -0.382 C  
HETATM    7  C   UNL     1     -12.930  13.440  70.837  1.00  0.00    -0.195 A  
HETATM    8  O   UNL     1     -12.100   9.499  72.065  1.00  0.00    -0.355 OA 
HETATM    9  C   UNL     1     -10.921   8.909  70.092  1.00  0.00    -0.245 C  
HETATM   10  O   UNL     1     -13.396  11.745  72.377  1.00  0.00    -0.596 OA 
HETATM   11  H   UNL     1     -13.957  12.322  72.880  1.00  0.00     0.000 HD 
HETATM   12  C   UNL     1     -12.267  13.933  69.708  1.00  0.00    -0.388 A  
HETATM   13  C   UNL     1     -10.534   7.669  70.485  1.00  0.00    -0.220 C  
HETATM   14  C   UNL     1      -9.861   6.634  69.540  1.00  0.00    -0.152 C  
HETATM   15  O   UNL     1     -10.886   7.155  71.729  1.00  0.00    -0.223 OA 
HETATM   16  C   UNL     1     -11.415  13.137  68.922  1.00  0.00    -0.298 A  
HETATM   17  O   UNL     1     -10.878   5.613  69.386  1.00  0.00    -0.320 OA 
HETATM   18  H   UNL     1     -10.616   6.288  72.005  1.00  0.00     0.000 HD 
HETATM   19  H   UNL     1      -5.560   6.282  67.439  1.00  0.00     0.000 HD 
HETATM   20  C   UNL     1      -8.656   5.837  70.092  1.00  0.00    -0.128 C  
HETATM   21  C   UNL     1      -7.932   4.933  69.141  1.00  0.00    -0.075 C  
HETATM   22  H   UNL     1     -10.466   4.982  68.808  1.00  0.00     0.000 HD 
HETATM   23  C   UNL     1      -9.468   8.711  68.124  1.00  0.00    -0.152 C  
HETATM   24  C   UNL     1      -9.492   7.188  68.133  1.00  0.00    -0.132 C  
HETATM   25  O   UNL     1      -8.216   5.940  71.238  1.00  0.00    -0.119 OA 
HETATM   26  O   UNL     1      -5.966   5.775  68.132  1.00  0.00    -0.015 OA 
HETATM   27  C   UNL     1      -7.358   5.650  68.160  1.00  0.00    -0.073 C  
HETATM   28  C   UNL     1      -8.075   6.826  67.547  1.00  0.00    -0.115 C  
ENDROOT
BRANCH  16  29
HETATM   29  N   UNL     1     -10.744  13.720  67.848  1.00  0.00    -0.244 NA 
HETATM   30  C   UNL     1      -9.558  14.548  68.073  1.00  0.00    -0.217 C  
HETATM   31  C   UNL     1     -11.240  13.766  66.473  1.00  0.00    -0.312 C  
ENDBRANCH  16  29
BRANCH  21  32
HETATM   32  C   UNL     1      -8.536   3.701  68.546  1.00  0.00    -0.087 C  
HETATM   33  O   UNL     1      -9.636   3.251  68.872  1.00  0.00    -0.159 OA 
HETATM   34  H2  UNL     1      -6.965   3.445  67.217  1.00  0.00     0.000 HD 
HETATM   35  N   UNL     1      -7.858   3.082  67.550  1.00  0.00    -0.075 N  
HETATM   36  H1  UNL     1      -8.269   2.241  67.145  1.00  0.00     0.000 HD 
ENDBRANCH  21  32
BRANCH  28  37
HETATM   37  N   UNL     1      -8.169   6.876  66.068  1.00  0.00    -0.119 NA 
HETATM   38  C   UNL     1      -6.901   7.206  65.423  1.00  0.00    -0.052 C  
HETATM   39  C   UNL     1      -8.745   5.680  65.450  1.00  0.00    -0.137 C  
ENDBRANCH  28  37
TORSDOF 3
ENDMDL
MODEL       25
REMARK 921   NORMALIZED FREE ENERGY PREDICTED BY IDOCK:   -6.29 KCAL/MOL
REMARK 922        TOTAL FREE ENERGY PREDICTED BY IDOCK:   -7.86 KCAL/MOL
REMARK 923 INTER-LIGAND FREE ENERGY PREDICTED BY IDOCK:   -7.59 KCAL/MOL
REMARK 924 INTRA-LIGAND FREE ENERGY PREDICTED BY IDOCK:   -0.27 KCAL/MOL
REMARK 927      BINDING AFFINITY PREDICTED BY RF-SCORE:    0.00 PKD
ROOT
HETATM    1  C   UNL     1      -9.280  10.684  68.926  1.00  0.00    -0.189 C  
HETATM    2  C   UNL     1      -8.399  11.915  68.824  1.00  0.00     0.019 C  
HETATM    3  C   UNL     1      -8.881  13.030  67.965  1.00  0.00    -0.191 A  
HETATM    4  C   UNL     1     -10.272  13.113  67.701  1.00  0.00    -0.224 A  
HETATM    5  C   UNL     1     -10.740  14.132  66.867  1.00  0.00    -0.286 A  
HETATM    6  C   UNL     1     -11.247  12.154  68.330  1.00  0.00    -0.268 C  
HETATM    7  C   UNL     1      -9.855  15.051  66.320  1.00  0.00    -0.307 A  
HETATM    8  O   UNL     1     -12.459  12.339  68.216  1.00  0.00    -0.032 OA 
HETATM    9  C   UNL     1     -10.732  10.968  69.093  1.00  0.00    -0.274 C  
HETATM   10  O   UNL     1     -12.058  14.304  66.543  1.00  0.00    -0.431 OA 
HETATM   11  H   UNL     1     -12.377  14.997  65.977  1.00  0.00     0.000 HD 
HETATM   12  C   UNL     1      -8.492  14.983  66.628  1.00  0.00    -0.192 A  
HETATM   13  C   UNL     1     -11.522  10.131  69.811  1.00  0.00    -0.228 C  
HETATM   14  C   UNL     1     -11.007   8.836  70.500  1.00  0.00    -0.239 C  
HETATM   15  O   UNL     1     -12.906  10.269  69.827  1.00  0.00    -0.579 OA 
HETATM   16  C   UNL     1      -7.954  13.990  67.467  1.00  0.00    -0.187 A  
HETATM   17  O   UNL     1     -11.620   7.778  69.722  1.00  0.00    -0.450 OA 
HETATM   18  H   UNL     1     -13.460   9.683  70.329  1.00  0.00     0.000 HD 
HETATM   19  H   UNL     1      -8.204   7.915  74.286  1.00  0.00     0.000 HD 
HETATM   20  C   UNL     1     -11.506   8.540  71.934  1.00  0.00    -0.335 C  
HETATM   21  C   UNL     1     -10.911   7.359  72.641  1.00  0.00    -0.363 C  
HETATM   22  H   UNL     1     -11.305   6.987  70.143  1.00  0.00     0.000 HD 
HETATM   23  C   UNL     1      -8.755   9.966  70.147  1.00  0.00    -0.142 C  
HETATM   24  C   UNL     1      -9.462   8.653  70.460  1.00  0.00    -0.206 C  
HETATM   25  O   UNL     1     -12.308   9.239  72.553  1.00  0.00    -0.252 OA 
HETATM   26  O   UNL     1      -9.133   7.780  74.143  1.00  0.00    -0.240 OA 
HETATM   27  C   UNL     1      -9.597   7.549  72.844  1.00  0.00    -0.195 C  
HETATM   28  C   UNL     1      -8.740   8.190  71.782  1.00  0.00    -0.151 C  
ENDROOT
BRANCH  16  29
HETATM   29  N   UNL     1      -6.595  14.028  67.774  1.00  0.00    -0.168 NA 
HETATM   30  C   UNL     1      -5.921  15.305  68.013  1.00  0.00    -0.145 C  
HETATM   31  C   UNL     1      -5.680  12.890  67.676  1.00  0.00    -0.130 C  
ENDBRANCH  16  29
BRANCH  21  32
HETATM   32  C   UNL     1     -11.134   5.941  72.220  1.00  0.00    -0.280 C  
HETATM   33  O   UNL     1     -10.609   5.432  71.227  1.00  0.00    -0.235 OA 
HETATM   34  H2  UNL     1     -12.324   5.527  73.866  1.00  0.00     0.000 HD 
HETATM   35  N   UNL     1     -11.907   5.161  73.011  1.00  0.00    -0.470 N  
HETATM   36  H1  UNL     1     -12.059   4.194  72.723  1.00  0.00     0.000 HD 
ENDBRANCH  21  32
BRANCH  28  37
HETATM   37  N   UNL     1      -7.490   7.491  71.396  1.00  0.00    -0.078 NA 
HETATM   38  C   UNL     1      -6.297   8.064  72.015  1.00  0.00    -0.050 C  
HETATM   39  C   UNL     1      -7.510   6.043  71.602  1.00  0.00    -0.094 C  
ENDBRANCH  28  37
TORSDOF 3
ENDMDL
MODEL       26
REMARK 921   NORMALIZED FREE ENERGY PREDICTED BY IDOCK:   -6.26 KCAL/MOL
REMARK 922        TOTAL FREE ENERGY PREDICTED BY IDOCK:   -7.82 KCAL/MOL
REMARK 923 INTER-LIGAND FREE ENERGY PREDICTED BY IDOCK:   -7.02 KCAL/MOL
REMARK 924 INTRA-LIGAND FREE ENERGY PREDICTED BY IDOCK:   -0.80 KCAL/MOL
REMARK 927      BINDING AFFINITY PREDICTED BY RF-SCORE:    0.00 PKD
ROOT
HETATM    1  C   UNL     1     -10.661   8.723  67.223  1.00  0.00    -0.217 C  
HETATM    2  C   UNL     1     -10.513   9.945  66.339  1.00  0.00    -0.197 C  
HETATM    3  C   UNL     1     -11.022  11.238  66.871  1.00  0.00    -0.348 A  
HETATM    4  C   UNL     1     -11.154  11.374  68.276  1.00  0.00    -0.300 A  
HETATM    5  C   UNL     1     -11.664  12.569  68.793  1.00  0.00    -0.327 A  
HETATM    6  C   UNL     1     -10.719  10.279  69.213  1.00  0.00    -0.234 C  
HETATM    7  C   UNL     1     -12.023  13.603  67.940  1.00  0.00    -0.382 A  
HETATM    8  O   UNL     1     -10.693  10.478  70.428  1.00  0.00    -0.217 OA 
HETATM    9  C   UNL     1     -10.322   8.943  68.656  1.00  0.00    -0.228 C  
HETATM   10  O   UNL     1     -11.836  12.807  70.129  1.00  0.00    -0.452 OA 
HETATM   11  H   UNL     1     -12.183  13.618  70.481  1.00  0.00     0.000 HD 
HETATM   12  C   UNL     1     -11.844  13.470  66.559  1.00  0.00    -0.441 A  
HETATM   13  C   UNL     1      -9.784   7.944  69.401  1.00  0.00    -0.170 C  
HETATM   14  C   UNL     1      -9.486   6.521  68.851  1.00  0.00    -0.129 C  
HETATM   15  O   UNL     1      -9.632   8.063  70.779  1.00  0.00    -0.161 OA 
HETATM   16  C   UNL     1     -11.327  12.301  65.972  1.00  0.00    -0.350 A  
HETATM   17  O   UNL     1     -10.460   5.691  69.531  1.00  0.00    -0.248 OA 
HETATM   18  H   UNL     1      -9.256   7.364  71.300  1.00  0.00     0.000 HD 
HETATM   19  H   UNL     1      -6.276   4.691  65.788  1.00  0.00     0.000 HD 
HETATM   20  C   UNL     1      -8.142   5.866  69.246  1.00  0.00    -0.106 C  
HETATM   21  C   UNL     1      -7.804   4.550  68.615  1.00  0.00    -0.075 C  
HETATM   22  H   UNL     1     -10.279   4.822  69.194  1.00  0.00     0.000 HD 
HETATM   23  C   UNL     1      -9.705   7.722  66.618  1.00  0.00    -0.292 C  
HETATM   24  C   UNL     1      -9.685   6.367  67.315  1.00  0.00    -0.155 C  
HETATM   25  O   UNL     1      -7.308   6.378  69.994  1.00  0.00    -0.081 OA 
HETATM   26  O   UNL     1      -6.379   4.590  66.727  1.00  0.00    -0.035 OA 
HETATM   27  C   UNL     1      -7.657   4.692  67.287  1.00  0.00    -0.086 C  
HETATM   28  C   UNL     1      -8.581   5.589  66.504  1.00  0.00    -0.118 C  
ENDROOT
BRANCH  16  29
HETATM   29  N   UNL     1     -11.121  12.271  64.594  1.00  0.00    -0.302 NA 
HETATM   30  C   UNL     1      -9.794  12.528  64.033  1.00  0.00    -0.082 C  
HETATM   31  C   UNL     1     -12.182  12.210  63.588  1.00  0.00    -0.562 C  
ENDBRANCH  16  29
BRANCH  21  32
HETATM   32  C   UNL     1      -8.554   3.284  68.883  1.00  0.00    -0.080 C  
HETATM   33  O   UNL     1      -9.443   3.181  69.731  1.00  0.00    -0.162 OA 
HETATM   34  H2  UNL     1      -7.583   2.262  67.362  1.00  0.00     0.000 HD 
HETATM   35  N   UNL     1      -8.279   2.209  68.106  1.00  0.00    -0.057 N  
HETATM   36  H1  UNL     1      -8.790   1.346  68.289  1.00  0.00     0.000 HD 
ENDBRANCH  21  32
BRANCH  28  37
HETATM   37  N   UNL     1      -9.222   5.021  65.293  1.00  0.00    -0.148 NA 
HETATM   38  C   UNL     1      -8.424   5.199  64.083  1.00  0.00    -0.127 C  
HETATM   39  C   UNL     1      -9.633   3.622  65.416  1.00  0.00    -0.156 C  
ENDBRANCH  28  37
TORSDOF 3
ENDMDL
MODEL       27
REMARK 921   NORMALIZED FREE ENERGY PREDICTED BY IDOCK:   -6.16 KCAL/MOL
REMARK 922        TOTAL FREE ENERGY PREDICTED BY IDOCK:   -7.70 KCAL/MOL
REMARK 923 INTER-LIGAND FREE ENERGY PREDICTED BY IDOCK:   -7.04 KCAL/MOL
REMARK 924 INTRA-LIGAND FREE ENERGY PREDICTED BY IDOCK:   -0.66 KCAL/MOL
REMARK 927      BINDING AFFINITY PREDICTED BY RF-SCORE:    0.00 PKD
ROOT
HETATM    1  C   UNL     1      -9.218  12.094  67.796  1.00  0.00    -0.189 C  
HETATM    2  C   UNL     1      -8.430  13.276  68.327  1.00  0.00    -0.160 C  
HETATM    3  C   UNL     1      -9.174  14.546  68.552  1.00  0.00    -0.195 A  
HETATM    4  C   UNL     1     -10.578  14.471  68.736  1.00  0.00    -0.248 A  
HETATM    5  C   UNL     1     -11.298  15.656  68.912  1.00  0.00    -0.339 A  
HETATM    6  C   UNL     1     -11.292  13.147  68.783  1.00  0.00    -0.291 C  
HETATM    7  C   UNL     1     -10.643  16.879  68.918  1.00  0.00    -0.353 A  
HETATM    8  O   UNL     1     -12.481  13.095  69.100  1.00  0.00    -0.040 OA 
HETATM    9  C   UNL     1     -10.547  11.891  68.436  1.00  0.00    -0.239 C  
HETATM   10  O   UNL     1     -12.654  15.701  69.095  1.00  0.00    -0.573 OA 
HETATM   11  H   UNL     1     -13.143  16.506  69.215  1.00  0.00     0.000 HD 
HETATM   12  C   UNL     1      -9.252  16.932  68.782  1.00  0.00    -0.260 A  
HETATM   13  C   UNL     1     -11.060  10.643  68.584  1.00  0.00    -0.263 C  
HETATM   14  C   UNL     1     -10.336   9.351  68.112  1.00  0.00    -0.211 C  
HETATM   15  O   UNL     1     -12.370  10.439  69.004  1.00  0.00    -0.730 OA 
HETATM   16  C   UNL     1      -8.464  15.780  68.610  1.00  0.00    -0.193 A  
HETATM   17  O   UNL     1     -11.149   8.902  67.000  1.00  0.00    -0.242 OA 
HETATM   18  H   UNL     1     -12.729   9.566  69.108  1.00  0.00     0.000 HD 
HETATM   19  H   UNL     1      -6.471   6.917  69.586  1.00  0.00     0.000 HD 
HETATM   20  C   UNL     1     -10.354   8.132  69.063  1.00  0.00    -0.218 C  
HETATM   21  C   UNL     1      -9.551   6.931  68.661  1.00  0.00    -0.133 C  
HETATM   22  H   UNL     1     -10.707   8.112  66.711  1.00  0.00     0.000 HD 
HETATM   23  C   UNL     1      -8.325  10.909  68.083  1.00  0.00    -0.123 C  
HETATM   24  C   UNL     1      -8.881   9.572  67.609  1.00  0.00    -0.121 C  
HETATM   25  O   UNL     1     -10.930   8.102  70.151  1.00  0.00    -0.249 OA 
HETATM   26  O   UNL     1      -7.396   6.703  69.609  1.00  0.00    -0.079 OA 
HETATM   27  C   UNL     1      -8.243   7.233  68.629  1.00  0.00    -0.125 C  
HETATM   28  C   UNL     1      -7.773   8.559  68.090  1.00  0.00    -0.102 C  
ENDROOT
BRANCH  16  29
HETATM   29  N   UNL     1      -7.077  15.912  68.544  1.00  0.00    -0.120 NA 
HETATM   30  C   UNL     1      -6.410  16.120  67.259  1.00  0.00    -0.169 C  
HETATM   31  C   UNL     1      -6.155  15.646  69.648  1.00  0.00    -0.157 C  
ENDBRANCH  16  29
BRANCH  21  32
HETATM   32  C   UNL     1      -9.876   6.074  67.479  1.00  0.00    -0.125 C  
HETATM   33  O   UNL     1      -9.041   5.403  66.870  1.00  0.00    -0.113 OA 
HETATM   34  H2  UNL     1     -11.904   6.488  67.603  1.00  0.00     0.000 HD 
HETATM   35  N   UNL     1     -11.173   5.986  67.100  1.00  0.00    -0.524 N  
HETATM   36  H1  UNL     1     -11.395   5.402  66.293  1.00  0.00     0.000 HD 
ENDBRANCH  21  32
BRANCH  28  37
HETATM   37  N   UNL     1      -6.699   8.541  67.067  1.00  0.00    -0.062 NA 
HETATM   38  C   UNL     1      -5.369   8.766  67.627  1.00  0.00    -0.035 C  
HETATM   39  C   UNL     1      -6.685   7.352  66.214  1.00  0.00    -0.060 C  
ENDBRANCH  28  37
TORSDOF 3
ENDMDL
MODEL       28
REMARK 921   NORMALIZED FREE ENERGY PREDICTED BY IDOCK:   -6.09 KCAL/MOL
REMARK 922        TOTAL FREE ENERGY PREDICTED BY IDOCK:   -7.62 KCAL/MOL
REMARK 923 INTER-LIGAND FREE ENERGY PREDICTED BY IDOCK:   -8.22 KCAL/MOL
REMARK 924 INTRA-LIGAND FREE ENERGY PREDICTED BY IDOCK:    0.60 KCAL/MOL
REMARK 927      BINDING AFFINITY PREDICTED BY RF-SCORE:    0.00 PKD
ROOT
HETATM    1  C   UNL     1      -9.451   8.179  68.076  1.00  0.00    -0.155 C  
HETATM    2  C   UNL     1      -9.794   6.705  67.972  1.00  0.00    -0.140 C  
HETATM    3  C   UNL     1      -9.810   5.918  69.235  1.00  0.00    -0.205 A  
HETATM    4  C   UNL     1      -9.992   6.619  70.454  1.00  0.00    -0.193 A  
HETATM    5  C   UNL     1      -9.975   5.901  71.653  1.00  0.00    -0.175 A  
HETATM    6  C   UNL     1     -10.243   8.103  70.474  1.00  0.00    -0.198 C  
HETATM    7  C   UNL     1      -9.792   4.525  71.643  1.00  0.00    -0.258 A  
HETATM    8  O   UNL     1     -10.556   8.664  71.525  1.00  0.00    -0.235 OA 
HETATM    9  C   UNL     1     -10.104   8.894  69.206  1.00  0.00    -0.205 C  
HETATM   10  O   UNL     1     -10.138   6.475  72.885  1.00  0.00    -0.172 OA 
HETATM   11  H   UNL     1     -10.126   5.987  73.700  1.00  0.00     0.000 HD 
HETATM   12  C   UNL     1      -9.659   3.843  70.429  1.00  0.00    -0.266 A  
HETATM   13  C   UNL     1     -10.445  10.203  69.092  1.00  0.00    -0.222 C  
HETATM   14  C   UNL     1     -10.188  11.054  67.817  1.00  0.00    -0.183 C  
HETATM   15  O   UNL     1     -10.881  10.941  70.187  1.00  0.00    -0.461 OA 
HETATM   16  C   UNL     1      -9.678   4.500  69.186  1.00  0.00    -0.179 A  
HETATM   17  O   UNL     1      -9.154  11.979  68.236  1.00  0.00    -0.188 OA 
HETATM   18  H   UNL     1     -11.119  11.857  70.108  1.00  0.00     0.000 HD 
HETATM   19  H   UNL     1     -12.056  11.156  63.397  1.00  0.00     0.000 HD 
HETATM   20  C   UNL     1     -11.319  11.996  67.343  1.00  0.00    -0.327 C  
HETATM   21  C   UNL     1     -11.118  12.719  66.046  1.00  0.00    -0.315 C  
HETATM   22  H   UNL     1      -8.997  12.498  67.456  1.00  0.00     0.000 HD 
HETATM   23  C   UNL     1      -9.927   8.752  66.763  1.00  0.00    -0.338 C  
HETATM   24  C   UNL     1      -9.666  10.244  66.594  1.00  0.00    -0.233 C  
HETATM   25  O   UNL     1     -12.394  12.144  67.925  1.00  0.00    -0.310 OA 
HETATM   26  O   UNL     1     -12.105  11.774  64.116  1.00  0.00    -0.301 OA 
HETATM   27  C   UNL     1     -11.049  11.845  65.029  1.00  0.00    -0.305 C  
HETATM   28  C   UNL     1     -10.309  10.540  65.186  1.00  0.00    -0.240 C  
ENDROOT
BRANCH  16  29
HETATM   29  N   UNL     1      -9.601   3.741  68.019  1.00  0.00    -0.155 NA 
HETATM   30  C   UNL     1      -9.987   4.317  66.730  1.00  0.00    -0.160 C  
HETATM   31  C   UNL     1      -9.363   2.299  67.969  1.00  0.00    -0.200 C  
ENDBRANCH  16  29
BRANCH  21  32
HETATM   32  C   UNL     1     -10.084  13.780  65.840  1.00  0.00    -0.313 C  
HETATM   33  O   UNL     1      -9.338  14.192  66.731  1.00  0.00    -0.261 OA 
HETATM   34  H2  UNL     1     -10.485  13.926  63.811  1.00  0.00     0.000 HD 
HETATM   35  N   UNL     1      -9.921  14.269  64.588  1.00  0.00    -0.549 N  
HETATM   36  H1  UNL     1      -9.216  14.993  64.447  1.00  0.00     0.000 HD 
ENDBRANCH  21  32
BRANCH  28  37
HETATM   37  N   UNL     1      -9.310  10.190  64.148  1.00  0.00    -0.270 NA 
HETATM   38  C   UNL     1      -9.404  11.027  62.954  1.00  0.00    -0.361 C  
HETATM   39  C   UNL     1      -7.925  10.149  64.619  1.00  0.00    -0.145 C  
ENDBRANCH  28  37
TORSDOF 3
ENDMDL
MODEL       29
REMARK 921   NORMALIZED FREE ENERGY PREDICTED BY IDOCK:   -6.09 KCAL/MOL
REMARK 922        TOTAL FREE ENERGY PREDICTED BY IDOCK:   -7.61 KCAL/MOL
REMARK 923 INTER-LIGAND FREE ENERGY PREDICTED BY IDOCK:   -6.82 KCAL/MOL
REMARK 924 INTRA-LIGAND FREE ENERGY PREDICTED BY IDOCK:   -0.80 KCAL/MOL
REMARK 927      BINDING AFFINITY PREDICTED BY RF-SCORE:    0.00 PKD
ROOT
HETATM    1  C   UNL     1      -9.289   9.338  67.311  1.00  0.00    -0.161 C  
HETATM    2  C   UNL     1     -10.164  10.304  66.535  1.00  0.00    -0.289 C  
HETATM    3  C   UNL     1      -9.806  10.557  65.114  1.00  0.00    -0.359 A  
HETATM    4  C   UNL     1      -9.032   9.580  64.437  1.00  0.00    -0.255 A  
HETATM    5  C   UNL     1      -8.656   9.817  63.112  1.00  0.00    -0.198 A  
HETATM    6  C   UNL     1      -8.648   8.287  65.104  1.00  0.00    -0.105 C  
HETATM    7  C   UNL     1      -9.045  10.985  62.472  1.00  0.00    -0.362 A  
HETATM    8  O   UNL     1      -8.115   7.388  64.452  1.00  0.00    -0.134 OA 
HETATM    9  C   UNL     1      -8.914   8.102  66.570  1.00  0.00    -0.191 C  
HETATM   10  O   UNL     1      -7.908   8.946  62.367  1.00  0.00    -0.118 OA 
HETATM   11  H   UNL     1      -7.652   9.107  61.467  1.00  0.00     0.000 HD 
HETATM   12  C   UNL     1      -9.848  11.918  63.139  1.00  0.00    -0.279 A  
HETATM   13  C   UNL     1      -8.735   6.929  67.228  1.00  0.00    -0.119 C  
HETATM   14  C   UNL     1      -8.893   6.768  68.766  1.00  0.00    -0.131 C  
HETATM   15  O   UNL     1      -8.205   5.810  66.593  1.00  0.00    -0.105 OA 
HETATM   16  C   UNL     1     -10.271  11.739  64.468  1.00  0.00    -0.284 A  
HETATM   17  O   UNL     1      -7.536   6.537  69.218  1.00  0.00    -0.090 OA 
HETATM   18  H   UNL     1      -8.079   4.989  67.053  1.00  0.00     0.000 HD 
HETATM   19  H   UNL     1     -12.613   6.815  71.798  1.00  0.00     0.000 HD 
HETATM   20  C   UNL     1      -9.644   5.519  69.283  1.00  0.00    -0.136 C  
HETATM   21  C   UNL     1      -9.904   5.430  70.757  1.00  0.00    -0.252 C  
HETATM   22  H   UNL     1      -7.632   6.440  70.158  1.00  0.00     0.000 HD 
HETATM   23  C   UNL     1     -10.129   8.978  68.514  1.00  0.00    -0.211 C  
HETATM   24  C   UNL     1      -9.453   8.025  69.493  1.00  0.00    -0.160 C  
HETATM   25  O   UNL     1     -10.093   4.626  68.564  1.00  0.00    -0.110 OA 
HETATM   26  O   UNL     1     -12.034   6.114  71.522  1.00  0.00    -0.249 OA 
HETATM   27  C   UNL     1     -10.723   6.421  71.147  1.00  0.00    -0.244 C  
HETATM   28  C   UNL     1     -10.575   7.809  70.579  1.00  0.00    -0.226 C  
ENDROOT
BRANCH  16  29
HETATM   29  N   UNL     1     -11.120  12.685  65.040  1.00  0.00    -0.284 NA 
HETATM   30  C   UNL     1     -12.566  12.611  64.830  1.00  0.00    -0.450 C  
HETATM   31  C   UNL     1     -10.683  13.922  65.689  1.00  0.00    -0.290 C  
ENDBRANCH  16  29
BRANCH  21  32
HETATM   32  C   UNL     1      -8.826   5.265  71.781  1.00  0.00    -0.135 C  
HETATM   33  O   UNL     1      -7.937   6.095  71.979  1.00  0.00    -0.105 OA 
HETATM   34  H2  UNL     1      -9.614   3.478  72.476  1.00  0.00     0.000 HD 
HETATM   35  N   UNL     1      -8.870   4.169  72.573  1.00  0.00    -0.106 N  
HETATM   36  H1  UNL     1      -8.135   4.055  73.272  1.00  0.00     0.000 HD 
ENDBRANCH  21  32
BRANCH  28  37
HETATM   37  N   UNL     1     -10.501   8.938  71.538  1.00  0.00    -0.295 NA 
HETATM   38  C   UNL     1     -11.765   9.658  71.677  1.00  0.00    -0.369 C  
HETATM   39  C   UNL     1      -9.982   8.585  72.860  1.00  0.00    -0.016 C  
ENDBRANCH  28  37
TORSDOF 3
ENDMDL
MODEL       30
REMARK 921   NORMALIZED FREE ENERGY PREDICTED BY IDOCK:   -6.06 KCAL/MOL
REMARK 922        TOTAL FREE ENERGY PREDICTED BY IDOCK:   -7.59 KCAL/MOL
REMARK 923 INTER-LIGAND FREE ENERGY PREDICTED BY IDOCK:   -7.69 KCAL/MOL
REMARK 924 INTRA-LIGAND FREE ENERGY PREDICTED BY IDOCK:    0.10 KCAL/MOL
REMARK 927      BINDING AFFINITY PREDICTED BY RF-SCORE:    0.00 PKD
ROOT
HETATM    1  C   UNL     1      -8.792  10.040  66.440  1.00  0.00    -0.158 C  
HETATM    2  C   UNL     1      -9.262   8.601  66.534  1.00  0.00    -0.236 C  
HETATM    3  C   UNL     1      -8.447   7.670  67.361  1.00  0.00    -0.122 A  
HETATM    4  C   UNL     1      -7.615   8.227  68.366  1.00  0.00    -0.101 A  
HETATM    5  C   UNL     1      -6.815   7.371  69.128  1.00  0.00    -0.060 A  
HETATM    6  C   UNL     1      -7.611   9.705  68.648  1.00  0.00    -0.080 C  
HETATM    7  C   UNL     1      -6.847   6.002  68.908  1.00  0.00    -0.066 A  
HETATM    8  O   UNL     1      -7.005  10.148  69.625  1.00  0.00    -0.074 OA 
HETATM    9  C   UNL     1      -8.345  10.637  67.728  1.00  0.00    -0.115 C  
HETATM   10  O   UNL     1      -5.975   7.799  70.120  1.00  0.00    -0.023 OA 
HETATM   11  H   UNL     1      -5.432   7.218  70.639  1.00  0.00     0.000 HD 
HETATM   12  C   UNL     1      -7.708   5.465  67.944  1.00  0.00    -0.092 A  
HETATM   13  C   UNL     1      -8.518  11.961  67.975  1.00  0.00    -0.162 C  
HETATM   14  C   UNL     1      -9.171  12.948  66.967  1.00  0.00    -0.226 C  
HETATM   15  O   UNL     1      -7.945  12.577  69.082  1.00  0.00    -0.323 OA 
HETATM   16  C   UNL     1      -8.546   6.265  67.149  1.00  0.00    -0.107 A  
HETATM   17  O   UNL     1      -8.061  13.783  66.553  1.00  0.00    -0.239 OA 
HETATM   18  H   UNL     1      -8.066  13.503  69.255  1.00  0.00     0.000 HD 
HETATM   19  H   UNL     1     -13.627  13.635  65.323  1.00  0.00     0.000 HD 
HETATM   20  C   UNL     1     -10.183  13.975  67.525  1.00  0.00    -0.244 C  
HETATM   21  C   UNL     1     -10.904  14.841  66.535  1.00  0.00    -0.319 C  
HETATM   22  H   UNL     1      -8.460  14.386  65.937  1.00  0.00     0.000 HD 
HETATM   23  C   UNL     1     -10.004  10.781  65.925  1.00  0.00    -0.304 C  
HETATM   24  C   UNL     1      -9.785  12.273  65.707  1.00  0.00    -0.228 C  
HETATM   25  O   UNL     1     -10.481  14.089  68.714  1.00  0.00    -0.239 OA 
HETATM   26  O   UNL     1     -13.075  14.165  65.885  1.00  0.00    -0.373 OA 
HETATM   27  C   UNL     1     -11.686  14.092  65.741  1.00  0.00    -0.363 C  
HETATM   28  C   UNL     1     -11.209  12.755  65.233  1.00  0.00    -0.293 C  
ENDROOT
BRANCH  16  29
HETATM   29  N   UNL     1      -9.419   5.648  66.253  1.00  0.00    -0.156 NA 
HETATM   30  C   UNL     1     -10.839   5.504  66.578  1.00  0.00    -0.163 C  
HETATM   31  C   UNL     1      -9.012   4.911  65.057  1.00  0.00    -0.147 C  
ENDBRANCH  16  29
BRANCH  21  32
HETATM   32  C   UNL     1     -10.231  15.885  65.702  1.00  0.00    -0.379 C  
HETATM   33  O   UNL     1     -10.731  16.382  64.691  1.00  0.00    -0.693 OA 
HETATM   34  H2  UNL     1      -8.600  16.002  66.977  1.00  0.00     0.000 HD 
HETATM   35  N   UNL     1      -9.030  16.351  66.121  1.00  0.00    -0.334 N  
HETATM   36  H1  UNL     1      -8.571  17.063  65.553  1.00  0.00     0.000 HD 
ENDBRANCH  21  32
BRANCH  28  37
HETATM   37  N   UNL     1     -11.314  12.498  63.776  1.00  0.00    -0.429 NA 
HETATM   38  C   UNL     1     -10.219  11.684  63.256  1.00  0.00    -0.407 C  
HETATM   39  C   UNL     1     -12.597  11.942  63.343  1.00  0.00    -0.431 C  
ENDBRANCH  28  37
TORSDOF 3
ENDMDL
MODEL       31
REMARK 921   NORMALIZED FREE ENERGY PREDICTED BY IDOCK:   -6.03 KCAL/MOL
REMARK 922        TOTAL FREE ENERGY PREDICTED BY IDOCK:   -7.55 KCAL/MOL
REMARK 923 INTER-LIGAND FREE ENERGY PREDICTED BY IDOCK:   -6.82 KCAL/MOL
REMARK 924 INTRA-LIGAND FREE ENERGY PREDICTED BY IDOCK:   -0.73 KCAL/MOL
REMARK 927      BINDING AFFINITY PREDICTED BY RF-SCORE:    0.00 PKD
ROOT
HETATM    1  C   UNL     1      -9.473   9.575  70.044  1.00  0.00    -0.265 C  
HETATM    2  C   UNL     1      -8.844   8.204  69.882  1.00  0.00    -0.139 C  
HETATM    3  C   UNL     1      -9.441   7.083  70.656  1.00  0.00    -0.165 A  
HETATM    4  C   UNL     1     -10.785   7.214  71.089  1.00  0.00    -0.252 A  
HETATM    5  C   UNL     1     -11.352   6.187  71.848  1.00  0.00    -0.296 A  
HETATM    6  C   UNL     1     -11.615   8.412  70.712  1.00  0.00    -0.232 C  
HETATM    7  C   UNL     1     -10.611   5.056  72.160  1.00  0.00    -0.259 A  
HETATM    8  O   UNL     1     -12.821   8.433  70.962  1.00  0.00    -0.143 OA 
HETATM    9  C   UNL     1     -10.962   9.583  70.036  1.00  0.00    -0.284 C  
HETATM   10  O   UNL     1     -12.637   6.210  72.319  1.00  0.00    -0.501 OA 
HETATM   11  H   UNL     1     -13.023   5.512  72.835  1.00  0.00     0.000 HD 
HETATM   12  C   UNL     1      -9.302   4.922  71.686  1.00  0.00    -0.192 A  
HETATM   13  C   UNL     1     -11.646  10.642  69.534  1.00  0.00    -0.288 C  
HETATM   14  C   UNL     1     -10.963  11.908  68.944  1.00  0.00    -0.238 C  
HETATM   15  O   UNL     1     -13.024  10.759  69.684  1.00  0.00    -0.472 OA 
HETATM   16  C   UNL     1      -8.672   5.911  70.910  1.00  0.00    -0.131 A  
HETATM   17  O   UNL     1     -11.272  12.937  69.917  1.00  0.00    -0.489 OA 
HETATM   18  H   UNL     1     -13.502  11.500  69.332  1.00  0.00     0.000 HD 
HETATM   19  H   UNL     1      -8.452  12.842  64.962  1.00  0.00     0.000 HD 
HETATM   20  C   UNL     1     -11.544  12.491  67.634  1.00  0.00    -0.355 C  
HETATM   21  C   UNL     1     -10.809  13.634  67.002  1.00  0.00    -0.291 C  
HETATM   22  H   UNL     1     -10.855  13.710  69.557  1.00  0.00     0.000 HD 
HETATM   23  C   UNL     1      -8.951  10.353  68.860  1.00  0.00    -0.170 C  
HETATM   24  C   UNL     1      -9.417  11.803  68.803  1.00  0.00    -0.037 C  
HETATM   25  O   UNL     1     -12.528  12.043  67.046  1.00  0.00    -0.018 OA 
HETATM   26  O   UNL     1      -9.316  13.119  65.241  1.00  0.00     0.218 OA 
HETATM   27  C   UNL     1      -9.586  13.242  66.607  1.00  0.00    -0.262 C  
HETATM   28  C   UNL     1      -8.763  12.313  67.463  1.00  0.00    -0.177 C  
ENDROOT
BRANCH  16  29
HETATM   29  N   UNL     1      -7.387   5.674  70.425  1.00  0.00    -0.076 NA 
HETATM   30  C   UNL     1      -6.214   6.128  71.171  1.00  0.00    -0.039 C  
HETATM   31  C   UNL     1      -7.074   5.178  69.084  1.00  0.00    -0.056 C  
ENDBRANCH  16  29
BRANCH  21  32
HETATM   32  C   UNL     1     -10.704  14.994  67.616  1.00  0.00    -0.274 C  
HETATM   33  O   UNL     1     -11.276  15.320  68.658  1.00  0.00    -0.264 OA 
HETATM   34  H2  UNL     1      -9.356  15.653  66.185  1.00  0.00     0.000 HD 
HETATM   35  N   UNL     1      -9.885  15.894  67.023  1.00  0.00    -0.228 N  
HETATM   36  H1  UNL     1      -9.813  16.822  67.441  1.00  0.00     0.000 HD 
ENDBRANCH  21  32
BRANCH  28  37
HETATM   37  N   UNL     1      -7.367  12.714  67.762  1.00  0.00    -0.114 NA 
HETATM   38  C   UNL     1      -6.376  11.951  67.008  1.00  0.00    -0.141 C  
HETATM   39  C   UNL     1      -7.099  14.146  67.629  1.00  0.00    -0.183 C  
ENDBRANCH  28  37
TORSDOF 3
ENDMDL
MODEL       32
REMARK 921   NORMALIZED FREE ENERGY PREDICTED BY IDOCK:   -5.94 KCAL/MOL
REMARK 922        TOTAL FREE ENERGY PREDICTED BY IDOCK:   -7.44 KCAL/MOL
REMARK 923 INTER-LIGAND FREE ENERGY PREDICTED BY IDOCK:   -6.82 KCAL/MOL
REMARK 924 INTRA-LIGAND FREE ENERGY PREDICTED BY IDOCK:   -0.63 KCAL/MOL
REMARK 927      BINDING AFFINITY PREDICTED BY RF-SCORE:    0.00 PKD
ROOT
HETATM    1  C   UNL     1      -9.759  11.089  67.873  1.00  0.00    -0.183 C  
HETATM    2  C   UNL     1      -9.957  11.620  66.466  1.00  0.00    -0.230 C  
HETATM    3  C   UNL     1      -9.730  13.075  66.249  1.00  0.00    -0.265 A  
HETATM    4  C   UNL     1      -8.906  13.766  67.174  1.00  0.00    -0.240 A  
HETATM    5  C   UNL     1      -8.710  15.139  67.006  1.00  0.00    -0.238 A  
HETATM    6  C   UNL     1      -8.215  13.043  68.299  1.00  0.00    -0.150 C  
HETATM    7  C   UNL     1      -9.304  15.807  65.944  1.00  0.00    -0.356 A  
HETATM    8  O   UNL     1      -7.383  13.629  68.992  1.00  0.00    -0.095 OA 
HETATM    9  C   UNL     1      -8.551  11.606  68.572  1.00  0.00    -0.134 C  
HETATM   10  O   UNL     1      -7.939  15.904  67.839  1.00  0.00    -0.133 OA 
HETATM   11  H   UNL     1      -7.806  16.838  67.725  1.00  0.00     0.000 HD 
HETATM   12  C   UNL     1     -10.076  15.102  65.014  1.00  0.00    -0.269 A  
HETATM   13  C   UNL     1      -7.885  10.832  69.466  1.00  0.00    -0.035 C  
HETATM   14  C   UNL     1      -8.308   9.383  69.838  1.00  0.00    -0.167 C  
HETATM   15  O   UNL     1      -6.872  11.349  70.267  1.00  0.00    -0.475 OA 
HETATM   16  C   UNL     1     -10.307  13.718  65.116  1.00  0.00    -0.372 A  
HETATM   17  O   UNL     1      -8.773   9.512  71.204  1.00  0.00    -0.313 OA 
HETATM   18  H   UNL     1      -6.406  10.808  70.893  1.00  0.00     0.000 HD 
HETATM   19  H   UNL     1      -8.245   5.159  67.559  1.00  0.00     0.000 HD 
HETATM   20  C   UNL     1      -7.193   8.318  69.955  1.00  0.00    -0.059 C  
HETATM   21  C   UNL     1      -7.616   6.899  70.190  1.00  0.00    -0.099 C  
HETATM   22  H   UNL     1      -9.032   8.627  71.431  1.00  0.00     0.000 HD 
HETATM   23  C   UNL     1      -9.640   9.595  67.680  1.00  0.00    -0.167 C  
HETATM   24  C   UNL     1      -9.464   8.805  68.971  1.00  0.00    -0.160 C  
HETATM   25  O   UNL     1      -5.992   8.545  69.809  1.00  0.00    -0.028 OA 
HETATM   26  O   UNL     1      -7.747   5.482  68.300  1.00  0.00    -0.083 OA 
HETATM   27  C   UNL     1      -8.320   6.442  69.141  1.00  0.00    -0.122 C  
HETATM   28  C   UNL     1      -9.319   7.327  68.442  1.00  0.00    -0.143 C  
ENDROOT
BRANCH  16  29
HETATM   29  N   UNL     1     -11.035  13.078  64.114  1.00  0.00    -0.393 NA 
HETATM   30  C   UNL     1     -10.386  12.125  63.215  1.00  0.00    -0.311 C  
HETATM   31  C   UNL     1     -12.398  13.428  63.714  1.00  0.00    -0.349 C  
ENDBRANCH  16  29
BRANCH  21  32
HETATM   32  C   UNL     1      -8.266   6.425  71.450  1.00  0.00    -0.121 C  
HETATM   33  O   UNL     1      -8.407   7.127  72.454  1.00  0.00    -0.108 OA 
HETATM   34  H2  UNL     1      -8.729   4.573  70.641  1.00  0.00     0.000 HD 
HETATM   35  N   UNL     1      -8.782   5.173  71.464  1.00  0.00    -0.131 N  
HETATM   36  H1  UNL     1      -9.225   4.849  72.323  1.00  0.00     0.000 HD 
ENDBRANCH  21  32
BRANCH  28  37
HETATM   37  N   UNL     1     -10.683   6.786  68.228  1.00  0.00    -0.230 NA 
HETATM   38  C   UNL     1     -10.795   5.969  67.022  1.00  0.00    -0.331 C  
HETATM   39  C   UNL     1     -11.241   6.062  69.372  1.00  0.00    -0.327 C  
ENDBRANCH  28  37
TORSDOF 3
ENDMDL
MODEL       33
REMARK 921   NORMALIZED FREE ENERGY PREDICTED BY IDOCK:   -5.91 KCAL/MOL
REMARK 922        TOTAL FREE ENERGY PREDICTED BY IDOCK:   -7.40 KCAL/MOL
REMARK 923 INTER-LIGAND FREE ENERGY PREDICTED BY IDOCK:   -6.99 KCAL/MOL
REMARK 924 INTRA-LIGAND FREE ENERGY PREDICTED BY IDOCK:   -0.41 KCAL/MOL
REMARK 927      BINDING AFFINITY PREDICTED BY RF-SCORE:    0.00 PKD
ROOT
HETATM    1  C   UNL     1     -10.163  10.474  69.185  1.00  0.00    -0.241 C  
HETATM    2  C   UNL     1     -11.118  11.536  69.695  1.00  0.00    -0.211 C  
HETATM    3  C   UNL     1     -11.451  12.654  68.771  1.00  0.00    -0.349 A  
HETATM    4  C   UNL     1     -11.286  12.439  67.379  1.00  0.00    -0.351 A  
HETATM    5  C   UNL     1     -11.559  13.489  66.499  1.00  0.00    -0.359 A  
HETATM    6  C   UNL     1     -10.862  11.100  66.839  1.00  0.00    -0.279 C  
HETATM    7  C   UNL     1     -11.996  14.714  66.983  1.00  0.00    -0.301 A  
HETATM    8  O   UNL     1     -10.878  10.889  65.626  1.00  0.00    -0.165 OA 
HETATM    9  C   UNL     1     -10.417  10.026  67.788  1.00  0.00    -0.282 C  
HETATM   10  O   UNL     1     -11.432  13.394  65.139  1.00  0.00    -0.290 OA 
HETATM   11  H   UNL     1     -11.617  14.107  64.540  1.00  0.00     0.000 HD 
HETATM   12  C   UNL     1     -12.199  14.895  68.356  1.00  0.00    -0.053 A  
HETATM   13  C   UNL     1     -10.153   8.748  67.413  1.00  0.00    -0.226 C  
HETATM   14  C   UNL     1      -9.575   7.669  68.370  1.00  0.00    -0.151 C  
HETATM   15  O   UNL     1     -10.202   8.355  66.079  1.00  0.00    -0.417 OA 
HETATM   16  C   UNL     1     -11.953  13.880  69.297  1.00  0.00    -0.357 A  
HETATM   17  O   UNL     1      -8.234   7.459  67.865  1.00  0.00    -0.118 OA 
HETATM   18  H   UNL     1     -10.017   7.462  65.816  1.00  0.00     0.000 HD 
HETATM   19  H   UNL     1     -11.298   5.215  72.118  1.00  0.00     0.000 HD 
HETATM   20  C   UNL     1     -10.191   6.252  68.307  1.00  0.00    -0.169 C  
HETATM   21  C   UNL     1      -9.719   5.248  69.317  1.00  0.00    -0.235 C  
HETATM   22  H   UNL     1      -7.881   6.800  68.451  1.00  0.00     0.000 HD 
HETATM   23  C   UNL     1     -10.367   9.319  70.138  1.00  0.00    -0.258 C  
HETATM   24  C   UNL     1      -9.484   8.109  69.860  1.00  0.00    -0.160 C  
HETATM   25  O   UNL     1     -11.081   5.910  67.528  1.00  0.00    -0.245 OA 
HETATM   26  O   UNL     1     -11.058   4.939  71.242  1.00  0.00     0.162 OA 
HETATM   27  C   UNL     1     -10.059   5.638  70.556  1.00  0.00    -0.217 C  
HETATM   28  C   UNL     1      -9.961   7.086  70.961  1.00  0.00    -0.188 C  
ENDROOT
BRANCH  16  29
HETATM   29  N   UNL     1     -12.239  14.119  70.641  1.00  0.00    -0.339 NA 
HETATM   30  C   UNL     1     -13.465  13.599  71.245  1.00  0.00    -0.126 C  
HETATM   31  C   UNL     1     -11.511  15.054  71.500  1.00  0.00    -0.320 C  
ENDBRANCH  16  29
BRANCH  21  32
HETATM   32  C   UNL     1      -8.330   4.695  69.349  1.00  0.00    -0.075 C  
HETATM   33  O   UNL     1      -7.528   4.803  68.419  1.00  0.00    -0.068 OA 
HETATM   34  H2  UNL     1      -8.529   4.026  71.302  1.00  0.00     0.000 HD 
HETATM   35  N   UNL     1      -7.915   4.097  70.491  1.00  0.00    -0.055 N  
HETATM   36  H1  UNL     1      -6.967   3.719  70.513  1.00  0.00     0.000 HD 
ENDBRANCH  21  32
BRANCH  28  37
HETATM   37  N   UNL     1      -9.236   7.400  72.216  1.00  0.00    -0.131 NA 
HETATM   38  C   UNL     1      -8.171   8.383  72.035  1.00  0.00    -0.155 C  
HETATM   39  C   UNL     1     -10.092   7.795  73.336  1.00  0.00    -0.263 C  
ENDBRANCH  28  37
TORSDOF 3
ENDMDL
MODEL       34
REMARK 921   NORMALIZED FREE ENERGY PREDICTED BY IDOCK:   -5.89 KCAL/MOL
REMARK 922        TOTAL FREE ENERGY PREDICTED BY IDOCK:   -7.39 KCAL/MOL
REMARK 923 INTER-LIGAND FREE ENERGY PREDICTED BY IDOCK:   -6.97 KCAL/MOL
REMARK 924 INTRA-LIGAND FREE ENERGY PREDICTED BY IDOCK:   -0.42 KCAL/MOL
REMARK 927      BINDING AFFINITY PREDICTED BY RF-SCORE:    0.00 PKD
ROOT
HETATM    1  C   UNL     1     -10.643   8.234  67.981  1.00  0.00    -0.188 C  
HETATM    2  C   UNL     1     -10.398   7.667  69.366  1.00  0.00    -0.214 C  
HETATM    3  C   UNL     1     -10.071   6.219  69.462  1.00  0.00    -0.217 A  
HETATM    4  C   UNL     1      -9.537   5.580  68.314  1.00  0.00    -0.148 A  
HETATM    5  C   UNL     1      -9.256   4.212  68.374  1.00  0.00    -0.144 A  
HETATM    6  C   UNL     1      -9.233   6.351  67.058  1.00  0.00    -0.129 C  
HETATM    7  C   UNL     1      -9.488   3.500  69.543  1.00  0.00    -0.236 A  
HETATM    8  O   UNL     1      -8.625   5.813  66.132  1.00  0.00    -0.125 OA 
HETATM    9  C   UNL     1      -9.680   7.780  66.940  1.00  0.00    -0.282 C  
HETATM   10  O   UNL     1      -8.743   3.495  67.328  1.00  0.00    -0.104 OA 
HETATM   11  H   UNL     1      -8.552   2.565  67.368  1.00  0.00     0.000 HD 
HETATM   12  C   UNL     1      -9.972   4.156  70.680  1.00  0.00    -0.185 A  
HETATM   13  C   UNL     1      -9.333   8.597  65.914  1.00  0.00    -0.195 C  
HETATM   14  C   UNL     1      -9.894  10.035  65.729  1.00  0.00    -0.278 C  
HETATM   15  O   UNL     1      -8.587   8.136  64.834  1.00  0.00    -0.336 OA 
HETATM   16  C   UNL     1     -10.266   5.530  70.694  1.00  0.00    -0.240 A  
HETATM   17  O   UNL     1     -10.738   9.915  64.557  1.00  0.00     0.197 OA 
HETATM   18  H   UNL     1      -8.345   8.707  64.116  1.00  0.00     0.000 HD 
HETATM   19  H   UNL     1      -9.292  14.211  68.017  1.00  0.00     0.000 HD 
HETATM   20  C   UNL     1      -8.897  11.146  65.321  1.00  0.00    -0.076 C  
HETATM   21  C   UNL     1      -9.415  12.551  65.265  1.00  0.00     0.144 C  
HETATM   22  H   UNL     1     -11.081  10.794  64.444  1.00  0.00     0.000 HD 
HETATM   23  C   UNL     1     -10.519   9.727  68.176  1.00  0.00    -0.258 C  
HETATM   24  C   UNL     1     -10.758  10.550  66.916  1.00  0.00    -0.281 C  
HETATM   25  O   UNL     1      -7.700  10.963  65.099  1.00  0.00     0.026 OA 
HETATM   26  O   UNL     1      -9.026  13.923  67.152  1.00  0.00    -0.215 OA 
HETATM   27  C   UNL     1      -9.792  12.959  66.488  1.00  0.00    -0.254 C  
HETATM   28  C   UNL     1     -10.510  12.022  67.424  1.00  0.00    -0.216 C  
ENDROOT
BRANCH  16  29
HETATM   29  N   UNL     1     -10.685   6.121  71.885  1.00  0.00    -0.224 NA 
HETATM   30  C   UNL     1      -9.886   5.988  73.104  1.00  0.00    -0.169 C  
HETATM   31  C   UNL     1     -12.004   6.713  72.110  1.00  0.00    -0.280 C  
ENDBRANCH  16  29
BRANCH  21  32
HETATM   32  C   UNL     1     -10.425  13.025  64.268  1.00  0.00    -0.402 C  
HETATM   33  O   UNL     1     -10.858  12.327  63.349  1.00  0.00    -0.449 OA 
HETATM   34  H2  UNL     1     -10.636  14.866  65.197  1.00  0.00     0.000 HD 
HETATM   35  N   UNL     1     -10.932  14.270  64.424  1.00  0.00    -0.610 N  
HETATM   36  H1  UNL     1     -11.620  14.593  63.744  1.00  0.00     0.000 HD 
ENDBRANCH  21  32
BRANCH  28  37
HETATM   37  N   UNL     1     -11.766  12.504  68.047  1.00  0.00    -0.346 NA 
HETATM   38  C   UNL     1     -11.699  12.565  69.505  1.00  0.00    -0.309 C  
HETATM   39  C   UNL     1     -12.262  13.776  67.519  1.00  0.00    -0.227 C  
ENDBRANCH  28  37
TORSDOF 3
ENDMDL
MODEL       35
REMARK 921   NORMALIZED FREE ENERGY PREDICTED BY IDOCK:   -5.83 KCAL/MOL
REMARK 922        TOTAL FREE ENERGY PREDICTED BY IDOCK:   -7.31 KCAL/MOL
REMARK 923 INTER-LIGAND FREE ENERGY PREDICTED BY IDOCK:   -6.74 KCAL/MOL
REMARK 924 INTRA-LIGAND FREE ENERGY PREDICTED BY IDOCK:   -0.58 KCAL/MOL
REMARK 927      BINDING AFFINITY PREDICTED BY RF-SCORE:    0.00 PKD
ROOT
HETATM    1  C   UNL     1      -8.835  10.429  67.944  1.00  0.00    -0.125 C  
HETATM    2  C   UNL     1      -9.575   9.257  68.559  1.00  0.00    -0.155 C  
HETATM    3  C   UNL     1      -8.759   8.213  69.236  1.00  0.00    -0.140 A  
HETATM    4  C   UNL     1      -7.466   8.573  69.694  1.00  0.00    -0.075 A  
HETATM    5  C   UNL     1      -6.671   7.596  70.300  1.00  0.00    -0.046 A  
HETATM    6  C   UNL     1      -6.958   9.985  69.577  1.00  0.00    -0.078 C  
HETATM    7  C   UNL     1      -7.148   6.303  70.457  1.00  0.00    -0.069 A  
HETATM    8  O   UNL     1      -5.903  10.311  70.121  1.00  0.00    -0.048 OA 
HETATM    9  C   UNL     1      -7.744  10.991  68.787  1.00  0.00    -0.135 C  
HETATM   10  O   UNL     1      -5.409   7.831  70.776  1.00  0.00    -0.026 OA 
HETATM   11  H   UNL     1      -4.868   7.168  71.188  1.00  0.00     0.000 HD 
HETATM   12  C   UNL     1      -8.443   5.976  70.041  1.00  0.00    -0.131 A  
HETATM   13  C   UNL     1      -7.445  12.314  68.740  1.00  0.00    -0.065 C  
HETATM   14  C   UNL     1      -8.183  13.334  67.828  1.00  0.00    -0.168 C  
HETATM   15  O   UNL     1      -6.317  12.830  69.371  1.00  0.00    -0.104 OA 
HETATM   16  C   UNL     1      -9.300   6.910  69.433  1.00  0.00    -0.146 A  
HETATM   17  O   UNL     1      -7.180  13.686  66.843  1.00  0.00    -0.333 OA 
HETATM   18  H   UNL     1      -6.108  13.755  69.338  1.00  0.00     0.000 HD 
HETATM   19  H   UNL     1     -12.567  15.287  67.809  1.00  0.00     0.000 HD 
HETATM   20  C   UNL     1      -8.557  14.704  68.441  1.00  0.00    -0.169 C  
HETATM   21  C   UNL     1      -9.377  15.635  67.601  1.00  0.00    -0.206 C  
HETATM   22  H   UNL     1      -7.631  14.309  66.286  1.00  0.00     0.000 HD 
HETATM   23  C   UNL     1      -9.911  11.469  67.739  1.00  0.00    -0.195 C  
HETATM   24  C   UNL     1      -9.427  12.759  67.091  1.00  0.00    -0.223 C  
HETATM   25  O   UNL     1      -8.280  15.055  69.588  1.00  0.00    -0.167 OA 
HETATM   26  O   UNL     1     -11.712  15.662  67.979  1.00  0.00    -0.306 OA 
HETATM   27  C   UNL     1     -10.588  15.105  67.361  1.00  0.00    -0.271 C  
HETATM   28  C   UNL     1     -10.738  13.634  67.065  1.00  0.00    -0.278 C  
ENDROOT
BRANCH  16  29
HETATM   29  N   UNL     1     -10.598   6.522  69.103  1.00  0.00    -0.219 NA 
HETATM   30  C   UNL     1     -10.935   6.141  67.731  1.00  0.00    -0.303 C  
HETATM   31  C   UNL     1     -11.763   6.660  69.977  1.00  0.00    -0.317 C  
ENDBRANCH  16  29
BRANCH  21  32
HETATM   32  C   UNL     1      -8.877  16.279  66.347  1.00  0.00    -0.311 C  
HETATM   33  O   UNL     1      -9.593  16.542  65.379  1.00  0.00    -0.462 OA 
HETATM   34  H2  UNL     1      -6.955  16.491  67.096  1.00  0.00     0.000 HD 
HETATM   35  N   UNL     1      -7.575  16.647  66.301  1.00  0.00    -0.263 N  
HETATM   36  H1  UNL     1      -7.233  17.086  65.446  1.00  0.00     0.000 HD 
ENDBRANCH  21  32
BRANCH  28  37
HETATM   37  N   UNL     1     -11.515  13.253  65.861  1.00  0.00    -0.322 NA 
HETATM   38  C   UNL     1     -12.729  14.046  65.686  1.00  0.00    -0.481 C  
HETATM   39  C   UNL     1     -10.747  13.239  64.616  1.00  0.00    -0.400 C  
ENDBRANCH  28  37
TORSDOF 3
ENDMDL
MODEL       36
REMARK 921   NORMALIZED FREE ENERGY PREDICTED BY IDOCK:   -5.78 KCAL/MOL
REMARK 922        TOTAL FREE ENERGY PREDICTED BY IDOCK:   -7.26 KCAL/MOL
REMARK 923 INTER-LIGAND FREE ENERGY PREDICTED BY IDOCK:   -6.80 KCAL/MOL
REMARK 924 INTRA-LIGAND FREE ENERGY PREDICTED BY IDOCK:   -0.46 KCAL/MOL
REMARK 927      BINDING AFFINITY PREDICTED BY RF-SCORE:    0.00 PKD
ROOT
HETATM    1  C   UNL     1      -8.730  11.997  67.614  1.00  0.00    -0.166 C  
HETATM    2  C   UNL     1      -9.279  13.347  68.032  1.00  0.00    -0.209 C  
HETATM    3  C   UNL     1      -9.883  14.196  66.969  1.00  0.00    -0.258 A  
HETATM    4  C   UNL     1     -10.351  13.558  65.793  1.00  0.00    -0.296 A  
HETATM    5  C   UNL     1     -10.889  14.343  64.769  1.00  0.00    -0.399 A  
HETATM    6  C   UNL     1     -10.316  12.060  65.648  1.00  0.00    -0.253 C  
HETATM    7  C   UNL     1     -10.970  15.721  64.911  1.00  0.00    -0.443 A  
HETATM    8  O   UNL     1     -10.870  11.517  64.691  1.00  0.00    -0.309 OA 
HETATM    9  C   UNL     1      -9.597  11.234  66.674  1.00  0.00    -0.218 C  
HETATM   10  O   UNL     1     -11.367  13.833  63.592  1.00  0.00    -0.538 OA 
HETATM   11  H   UNL     1     -11.732  14.366  62.896  1.00  0.00     0.000 HD 
HETATM   12  C   UNL     1     -10.546  16.330  66.097  1.00  0.00    -0.272 A  
HETATM   13  C   UNL     1      -9.629   9.877  66.709  1.00  0.00    -0.183 C  
HETATM   14  C   UNL     1      -8.788   9.019  67.695  1.00  0.00    -0.124 C  
HETATM   15  O   UNL     1     -10.280   9.138  65.727  1.00  0.00    -0.364 OA 
HETATM   16  C   UNL     1     -10.004  15.602  67.171  1.00  0.00    -0.240 A  
HETATM   17  O   UNL     1      -7.818   8.376  66.832  1.00  0.00    -0.094 OA 
HETATM   18  H   UNL     1     -10.302   8.189  65.750  1.00  0.00     0.000 HD 
HETATM   19  H   UNL     1      -8.928   8.203  72.423  1.00  0.00     0.000 HD 
HETATM   20  C   UNL     1      -9.487   7.820  68.377  1.00  0.00    -0.147 C  
HETATM   21  C   UNL     1      -8.713   7.072  69.420  1.00  0.00    -0.133 C  
HETATM   22  H   UNL     1      -7.304   7.852  67.435  1.00  0.00     0.000 HD 
HETATM   23  C   UNL     1      -8.600  11.243  68.917  1.00  0.00    -0.056 C  
HETATM   24  C   UNL     1      -8.028   9.838  68.778  1.00  0.00    -0.087 C  
HETATM   25  O   UNL     1     -10.651   7.478  68.168  1.00  0.00    -0.198 OA 
HETATM   26  O   UNL     1      -9.113   7.640  71.681  1.00  0.00    -0.132 OA 
HETATM   27  C   UNL     1      -8.452   7.868  70.469  1.00  0.00    -0.126 C  
HETATM   28  C   UNL     1      -8.068   9.311  70.263  1.00  0.00    -0.154 C  
ENDROOT
BRANCH  16  29
HETATM   29  N   UNL     1      -9.663  16.276  68.342  1.00  0.00    -0.217 NA 
HETATM   30  C   UNL     1     -10.638  16.437  69.421  1.00  0.00    -0.317 C  
HETATM   31  C   UNL     1      -8.441  17.058  68.534  1.00  0.00    -0.257 C  
ENDBRANCH  16  29
BRANCH  21  32
HETATM   32  C   UNL     1      -7.497   6.254  69.122  1.00  0.00    -0.094 C  
HETATM   33  O   UNL     1      -6.568   6.093  69.916  1.00  0.00    -0.041 OA 
HETATM   34  H2  UNL     1      -8.213   5.673  67.265  1.00  0.00     0.000 HD 
HETATM   35  N   UNL     1      -7.446   5.606  67.934  1.00  0.00    -0.076 N  
HETATM   36  H1  UNL     1      -6.617   5.048  67.730  1.00  0.00     0.000 HD 
ENDBRANCH  21  32
BRANCH  28  37
HETATM   37  N   UNL     1      -6.849   9.801  70.952  1.00  0.00    -0.302 NA 
HETATM   38  C   UNL     1      -6.406   8.922  72.030  1.00  0.00    -0.045 C  
HETATM   39  C   UNL     1      -5.726  10.107  70.065  1.00  0.00    -0.049 C  
ENDBRANCH  28  37
TORSDOF 3
ENDMDL
MODEL       37
REMARK 921   NORMALIZED FREE ENERGY PREDICTED BY IDOCK:   -5.77 KCAL/MOL
REMARK 922        TOTAL FREE ENERGY PREDICTED BY IDOCK:   -7.24 KCAL/MOL
REMARK 923 INTER-LIGAND FREE ENERGY PREDICTED BY IDOCK:   -7.19 KCAL/MOL
REMARK 924 INTRA-LIGAND FREE ENERGY PREDICTED BY IDOCK:   -0.05 KCAL/MOL
REMARK 927      BINDING AFFINITY PREDICTED BY RF-SCORE:    0.00 PKD
ROOT
HETATM    1  C   UNL     1     -10.033   7.942  67.765  1.00  0.00    -0.221 C  
HETATM    2  C   UNL     1      -9.116   8.547  66.720  1.00  0.00    -0.186 C  
HETATM    3  C   UNL     1      -9.614   9.740  65.983  1.00  0.00    -0.296 A  
HETATM    4  C   UNL     1     -10.633  10.519  66.588  1.00  0.00    -0.263 A  
HETATM    5  C   UNL     1     -11.138  11.622  65.896  1.00  0.00    -0.264 A  
HETATM    6  C   UNL     1     -11.145  10.203  67.968  1.00  0.00    -0.240 C  
HETATM    7  C   UNL     1     -10.640  11.951  64.643  1.00  0.00    -0.353 A  
HETATM    8  O   UNL     1     -11.911  10.980  68.538  1.00  0.00    -0.535 OA 
HETATM    9  C   UNL     1     -10.718   8.931  68.643  1.00  0.00    -0.118 C  
HETATM   10  O   UNL     1     -12.122  12.440  66.383  1.00  0.00    -0.607 OA 
HETATM   11  H   UNL     1     -12.466  13.190  65.913  1.00  0.00     0.000 HD 
HETATM   12  C   UNL     1      -9.603  11.200  64.080  1.00  0.00    -0.290 A  
HETATM   13  C   UNL     1     -11.009   8.626  69.932  1.00  0.00    -0.168 C  
HETATM   14  C   UNL     1     -10.674   7.260  70.594  1.00  0.00    -0.235 C  
HETATM   15  O   UNL     1     -11.810   9.453  70.714  1.00  0.00    -0.276 OA 
HETATM   16  C   UNL     1      -9.041  10.084  64.725  1.00  0.00    -0.224 A  
HETATM   17  O   UNL     1     -11.976   6.654  70.785  1.00  0.00    -0.382 OA 
HETATM   18  H   UNL     1     -12.014   9.239  71.617  1.00  0.00     0.000 HD 
HETATM   19  H   UNL     1      -6.626   5.087  71.983  1.00  0.00     0.000 HD 
HETATM   20  C   UNL     1     -10.092   7.280  72.026  1.00  0.00    -0.184 C  
HETATM   21  C   UNL     1      -9.653   5.972  72.612  1.00  0.00    -0.156 C  
HETATM   22  H   UNL     1     -11.771   5.819  71.188  1.00  0.00     0.000 HD 
HETATM   23  C   UNL     1      -9.114   7.074  68.592  1.00  0.00    -0.132 C  
HETATM   24  C   UNL     1      -9.807   6.312  69.714  1.00  0.00    -0.195 C  
HETATM   25  O   UNL     1      -9.909   8.300  72.691  1.00  0.00    -0.271 OA 
HETATM   26  O   UNL     1      -7.351   5.445  72.480  1.00  0.00    -0.090 OA 
HETATM   27  C   UNL     1      -8.627   5.466  71.908  1.00  0.00    -0.131 C  
HETATM   28  C   UNL     1      -8.604   5.563  70.404  1.00  0.00    -0.130 C  
ENDROOT
BRANCH  16  29
HETATM   29  N   UNL     1      -7.968   9.425  64.125  1.00  0.00    -0.126 NA 
HETATM   30  C   UNL     1      -6.619   9.989  64.187  1.00  0.00    -0.130 C  
HETATM   31  C   UNL     1      -8.085   8.282  63.220  1.00  0.00    -0.137 C  
ENDBRANCH  16  29
BRANCH  21  32
HETATM   32  C   UNL     1     -10.593   4.862  72.959  1.00  0.00    -0.223 C  
HETATM   33  O   UNL     1     -11.817   4.995  73.020  1.00  0.00    -0.269 OA 
HETATM   34  H2  UNL     1      -9.068   3.462  73.070  1.00  0.00     0.000 HD 
HETATM   35  N   UNL     1     -10.070   3.629  73.156  1.00  0.00    -0.140 N  
HETATM   36  H1  UNL     1     -10.711   2.871  73.393  1.00  0.00     0.000 HD 
ENDBRANCH  21  32
BRANCH  28  37
HETATM   37  N   UNL     1      -8.346   4.318  69.641  1.00  0.00    -0.061 NA 
HETATM   38  C   UNL     1      -8.963   4.318  68.317  1.00  0.00    -0.118 C  
HETATM   39  C   UNL     1      -6.935   3.948  69.531  1.00  0.00    -0.042 C  
ENDBRANCH  28  37
TORSDOF 3
ENDMDL
MODEL       38
REMARK 921   NORMALIZED FREE ENERGY PREDICTED BY IDOCK:   -5.63 KCAL/MOL
REMARK 922        TOTAL FREE ENERGY PREDICTED BY IDOCK:   -7.08 KCAL/MOL
REMARK 923 INTER-LIGAND FREE ENERGY PREDICTED BY IDOCK:   -7.29 KCAL/MOL
REMARK 924 INTRA-LIGAND FREE ENERGY PREDICTED BY IDOCK:    0.20 KCAL/MOL
REMARK 927      BINDING AFFINITY PREDICTED BY RF-SCORE:    0.00 PKD
ROOT
HETATM    1  C   UNL     1     -10.276  11.269  69.109  1.00  0.00    -0.123 C  
HETATM    2  C   UNL     1     -11.513  11.948  69.664  1.00  0.00    -0.337 C  
HETATM    3  C   UNL     1     -11.551  13.435  69.627  1.00  0.00    -0.334 A  
HETATM    4  C   UNL     1     -10.723  14.098  68.686  1.00  0.00    -0.263 A  
HETATM    5  C   UNL     1     -10.719  15.495  68.660  1.00  0.00    -0.252 A  
HETATM    6  C   UNL     1      -9.890  13.329  67.697  1.00  0.00    -0.230 C  
HETATM    7  C   UNL     1     -11.520  16.215  69.535  1.00  0.00    -0.292 A  
HETATM    8  O   UNL     1      -9.304  13.919  66.788  1.00  0.00    -0.260 OA 
HETATM    9  C   UNL     1      -9.773  11.838  67.828  1.00  0.00    -0.185 C  
HETATM   10  O   UNL     1      -9.958  16.237  67.797  1.00  0.00    -0.239 OA 
HETATM   11  H   UNL     1      -9.954  17.187  67.779  1.00  0.00     0.000 HD 
HETATM   12  C   UNL     1     -12.365  15.544  70.426  1.00  0.00    -0.451 A  
HETATM   13  C   UNL     1      -9.165  11.044  66.911  1.00  0.00    -0.155 C  
HETATM   14  C   UNL     1      -8.937   9.519  67.104  1.00  0.00    -0.134 C  
HETATM   15  O   UNL     1      -8.523  11.576  65.797  1.00  0.00    -0.368 OA 
HETATM   16  C   UNL     1     -12.428  14.142  70.500  1.00  0.00    -0.361 A  
HETATM   17  O   UNL     1      -7.500   9.414  67.262  1.00  0.00    -0.090 OA 
HETATM   18  H   UNL     1      -8.098  11.021  65.155  1.00  0.00     0.000 HD 
HETATM   19  H   UNL     1     -11.792   5.661  67.161  1.00  0.00     0.000 HD 
HETATM   20  C   UNL     1      -9.217   8.593  65.898  1.00  0.00    -0.202 C  
HETATM   21  C   UNL     1      -9.118   7.114  66.124  1.00  0.00    -0.155 C  
HETATM   22  H   UNL     1      -7.361   8.482  67.381  1.00  0.00     0.000 HD 
HETATM   23  C   UNL     1     -10.713   9.839  68.898  1.00  0.00    -0.241 C  
HETATM   24  C   UNL     1      -9.622   8.918  68.366  1.00  0.00    -0.157 C  
HETATM   25  O   UNL     1      -9.574   8.983  64.785  1.00  0.00     0.154 OA 
HETATM   26  O   UNL     1     -11.131   5.946  66.542  1.00  0.00    -0.205 OA 
HETATM   27  C   UNL     1     -10.053   6.711  66.999  1.00  0.00    -0.187 C  
HETATM   28  C   UNL     1     -10.387   7.549  68.207  1.00  0.00    -0.195 C  
ENDROOT
BRANCH  16  29
HETATM   29  N   UNL     1     -13.341  13.550  71.371  1.00  0.00    -0.271 NA 
HETATM   30  C   UNL     1     -14.383  14.351  72.014  1.00  0.00    -0.553 C  
HETATM   31  C   UNL     1     -13.238  12.189  71.898  1.00  0.00    -0.369 C  
ENDBRANCH  16  29
BRANCH  21  32
HETATM   32  C   UNL     1      -7.836   6.407  66.429  1.00  0.00    -0.104 C  
HETATM   33  O   UNL     1      -6.721   6.907  66.264  1.00  0.00    -0.050 OA 
HETATM   34  H2  UNL     1      -8.812   4.735  67.171  1.00  0.00     0.000 HD 
HETATM   35  N   UNL     1      -7.911   5.170  66.975  1.00  0.00    -0.100 N  
HETATM   36  H1  UNL     1      -7.037   4.687  67.183  1.00  0.00     0.000 HD 
ENDBRANCH  21  32
BRANCH  28  37
HETATM   37  N   UNL     1     -10.392   6.875  69.528  1.00  0.00    -0.199 NA 
HETATM   38  C   UNL     1     -10.587   5.430  69.436  1.00  0.00    -0.225 C  
HETATM   39  C   UNL     1      -9.229   7.167  70.368  1.00  0.00    -0.156 C  
ENDBRANCH  28  37
TORSDOF 3
ENDMDL
MODEL       39
REMARK 921   NORMALIZED FREE ENERGY PREDICTED BY IDOCK:   -5.40 KCAL/MOL
REMARK 922        TOTAL FREE ENERGY PREDICTED BY IDOCK:   -6.81 KCAL/MOL
REMARK 923 INTER-LIGAND FREE ENERGY PREDICTED BY IDOCK:   -6.56 KCAL/MOL
REMARK 924 INTRA-LIGAND FREE ENERGY PREDICTED BY IDOCK:   -0.25 KCAL/MOL
REMARK 927      BINDING AFFINITY PREDICTED BY RF-SCORE:    0.00 PKD
ROOT
HETATM    1  C   UNL     1      -9.107   9.788  67.067  1.00  0.00    -0.157 C  
HETATM    2  C   UNL     1     -10.260  10.484  67.764  1.00  0.00    -0.223 C  
HETATM    3  C   UNL     1     -10.885  11.639  67.063  1.00  0.00    -0.311 A  
HETATM    4  C   UNL     1     -10.734  11.723  65.655  1.00  0.00    -0.328 A  
HETATM    5  C   UNL     1     -11.283  12.819  64.984  1.00  0.00    -0.298 A  
HETATM    6  C   UNL     1     -10.034  10.642  64.876  1.00  0.00    -0.318 C  
HETATM    7  C   UNL     1     -11.972  13.798  65.686  1.00  0.00    -0.410 A  
HETATM    8  O   UNL     1     -10.052  10.655  63.645  1.00  0.00    -0.326 OA 
HETATM    9  C   UNL     1      -9.309   9.552  65.611  1.00  0.00    -0.302 C  
HETATM   10  O   UNL     1     -11.195  13.003  63.630  1.00  0.00    -0.541 OA 
HETATM   11  H   UNL     1     -11.568  13.747  63.174  1.00  0.00     0.000 HD 
HETATM   12  C   UNL     1     -12.152  13.675  67.068  1.00  0.00    -0.423 A  
HETATM   13  C   UNL     1      -8.771   8.462  65.006  1.00  0.00    -0.056 C  
HETATM   14  C   UNL     1      -7.917   7.396  65.747  1.00  0.00    -0.118 C  
HETATM   15  O   UNL     1      -8.785   8.316  63.622  1.00  0.00    -0.402 OA 
HETATM   16  C   UNL     1     -11.635  12.595  67.806  1.00  0.00    -0.348 A  
HETATM   17  O   UNL     1      -6.587   7.605  65.213  1.00  0.00    -0.044 OA 
HETATM   18  H   UNL     1      -8.409   7.554  63.199  1.00  0.00     0.000 HD 
HETATM   19  H   UNL     1      -8.856   3.971  68.975  1.00  0.00     0.000 HD 
HETATM   20  C   UNL     1      -8.187   5.909  65.423  1.00  0.00    -0.139 C  
HETATM   21  C   UNL     1      -7.452   4.882  66.229  1.00  0.00    -0.086 C  
HETATM   22  H   UNL     1      -6.065   6.954  65.667  1.00  0.00     0.000 HD 
HETATM   23  C   UNL     1      -8.995   8.466  67.789  1.00  0.00    -0.140 C  
HETATM   24  C   UNL     1      -7.867   7.570  67.293  1.00  0.00    -0.118 C  
HETATM   25  O   UNL     1      -9.006   5.512  64.593  1.00  0.00    -0.027 OA 
HETATM   26  O   UNL     1      -8.597   3.922  68.063  1.00  0.00    -0.092 OA 
HETATM   27  C   UNL     1      -7.819   4.950  67.520  1.00  0.00    -0.094 C  
HETATM   28  C   UNL     1      -8.044   6.283  68.185  1.00  0.00    -0.115 C  
ENDROOT
BRANCH  16  29
HETATM   29  N   UNL     1     -11.911  12.514  69.170  1.00  0.00    -0.306 NA 
HETATM   30  C   UNL     1     -12.379  11.261  69.762  1.00  0.00    -0.209 C  
HETATM   31  C   UNL     1     -11.983  13.657  70.081  1.00  0.00    -0.337 C  
ENDBRANCH  16  29
BRANCH  21  32
HETATM   32  C   UNL     1      -5.971   4.677  66.160  1.00  0.00    -0.023 C  
HETATM   33  O   UNL     1      -5.206   5.417  65.539  1.00  0.00    -0.009 OA 
HETATM   34  H2  UNL     1      -6.030   3.045  67.438  1.00  0.00     0.000 HD 
HETATM   35  N   UNL     1      -5.441   3.655  66.872  1.00  0.00    -0.016 N  
HETATM   36  H1  UNL     1      -4.431   3.516  66.825  1.00  0.00     0.000 HD 
ENDBRANCH  21  32
BRANCH  28  37
HETATM   37  N   UNL     1      -7.359   6.528  69.477  1.00  0.00    -0.089 NA 
HETATM   38  C   UNL     1      -8.192   6.223  70.637  1.00  0.00    -0.125 C  
HETATM   39  C   UNL     1      -6.057   5.873  69.614  1.00  0.00    -0.026 C  
ENDBRANCH  28  37
TORSDOF 3
ENDMDL
MODEL       40
REMARK 921   NORMALIZED FREE ENERGY PREDICTED BY IDOCK:   -5.37 KCAL/MOL
REMARK 922        TOTAL FREE ENERGY PREDICTED BY IDOCK:   -6.77 KCAL/MOL
REMARK 923 INTER-LIGAND FREE ENERGY PREDICTED BY IDOCK:   -6.67 KCAL/MOL
REMARK 924 INTRA-LIGAND FREE ENERGY PREDICTED BY IDOCK:   -0.10 KCAL/MOL
REMARK 927      BINDING AFFINITY PREDICTED BY RF-SCORE:    0.00 PKD
ROOT
HETATM    1  C   UNL     1     -10.547   8.187  68.508  1.00  0.00    -0.142 C  
HETATM    2  C   UNL     1     -10.044   7.405  69.706  1.00  0.00    -0.193 C  
HETATM    3  C   UNL     1      -9.800   5.950  69.517  1.00  0.00    -0.216 A  
HETATM    4  C   UNL     1      -9.573   5.479  68.199  1.00  0.00    -0.144 A  
HETATM    5  C   UNL     1      -9.377   4.109  67.998  1.00  0.00    -0.162 A  
HETATM    6  C   UNL     1      -9.499   6.425  67.031  1.00  0.00    -0.139 C  
HETATM    7  C   UNL     1      -9.395   3.233  69.074  1.00  0.00    -0.234 A  
HETATM    8  O   UNL     1      -9.144   6.017  65.925  1.00  0.00    -0.155 OA 
HETATM    9  C   UNL     1      -9.865   7.868  67.223  1.00  0.00    -0.256 C  
HETATM   10  O   UNL     1      -9.152   3.546  66.771  1.00  0.00    -0.140 OA 
HETATM   11  H   UNL     1      -9.019   2.616  66.633  1.00  0.00     0.000 HD 
HETATM   12  C   UNL     1      -9.575   3.721  70.373  1.00  0.00    -0.262 A  
HETATM   13  C   UNL     1      -9.697   8.823  66.273  1.00  0.00    -0.272 C  
HETATM   14  C   UNL     1     -10.188  10.290  66.427  1.00  0.00    -0.225 C  
HETATM   15  O   UNL     1      -9.236   8.510  64.999  1.00  0.00    -0.425 OA 
HETATM   16  C   UNL     1      -9.768   5.085  70.650  1.00  0.00    -0.198 A  
HETATM   17  O   UNL     1     -11.273  10.380  65.471  1.00  0.00     0.413 OA 
HETATM   18  H   UNL     1      -9.119   9.178  64.334  1.00  0.00     0.000 HD 
HETATM   19  H   UNL     1      -8.828  14.040  69.097  1.00  0.00     0.000 HD 
HETATM   20  C   UNL     1      -9.233  11.417  65.969  1.00  0.00    -0.214 C  
HETATM   21  C   UNL     1      -9.656  12.830  66.234  1.00  0.00    -0.242 C  
HETATM   22  H   UNL     1     -11.573  11.276  65.566  1.00  0.00     0.000 HD 
HETATM   23  C   UNL     1     -10.285   9.627  68.882  1.00  0.00    -0.214 C  
HETATM   24  C   UNL     1     -10.737  10.642  67.840  1.00  0.00    -0.292 C  
HETATM   25  O   UNL     1      -8.127  11.232  65.460  1.00  0.00     0.054 OA 
HETATM   26  O   UNL     1      -8.776  13.880  68.162  1.00  0.00    -0.168 OA 
HETATM   27  C   UNL     1      -9.730  13.056  67.556  1.00  0.00    -0.206 C  
HETATM   28  C   UNL     1     -10.288  12.009  68.485  1.00  0.00    -0.217 C  
ENDROOT
BRANCH  16  29
HETATM   29  N   UNL     1      -9.878   5.498  71.977  1.00  0.00    -0.163 NA 
HETATM   30  C   UNL     1     -11.190   5.614  72.614  1.00  0.00    -0.300 C  
HETATM   31  C   UNL     1      -8.785   6.052  72.777  1.00  0.00    -0.124 C  
ENDBRANCH  16  29
BRANCH  21  32
HETATM   32  C   UNL     1     -10.825  13.485  65.568  1.00  0.00    -0.288 C  
HETATM   33  O   UNL     1     -11.999  13.244  65.855  1.00  0.00    -0.375 OA 
HETATM   34  H2  UNL     1      -9.615  14.703  64.406  1.00  0.00     0.000 HD 
HETATM   35  N   UNL     1     -10.572  14.439  64.642  1.00  0.00    -0.588 N  
HETATM   36  H1  UNL     1     -11.368  14.885  64.187  1.00  0.00     0.000 HD 
ENDBRANCH  21  32
BRANCH  28  37
HETATM   37  N   UNL     1     -11.344  12.430  69.438  1.00  0.00    -0.246 NA 
HETATM   38  C   UNL     1     -11.813  13.794  69.209  1.00  0.00    -0.344 C  
HETATM   39  C   UNL     1     -12.486  11.519  69.528  1.00  0.00     0.004 C  
ENDBRANCH  28  37
TORSDOF 3
ENDMDL
MODEL       41
REMARK 921   NORMALIZED FREE ENERGY PREDICTED BY IDOCK:   -5.10 KCAL/MOL
REMARK 922        TOTAL FREE ENERGY PREDICTED BY IDOCK:   -6.46 KCAL/MOL
REMARK 923 INTER-LIGAND FREE ENERGY PREDICTED BY IDOCK:   -6.36 KCAL/MOL
REMARK 924 INTRA-LIGAND FREE ENERGY PREDICTED BY IDOCK:   -0.10 KCAL/MOL
REMARK 927      BINDING AFFINITY PREDICTED BY RF-SCORE:    0.00 PKD
ROOT
HETATM    1  C   UNL     1      -8.680  14.753  66.243  1.00  0.00     0.062 C  
HETATM    2  C   UNL     1      -9.976  13.992  66.043  1.00  0.00    -0.331 C  
HETATM    3  C   UNL     1      -9.890  12.508  65.960  1.00  0.00    -0.266 A  
HETATM    4  C   UNL     1      -8.761  11.874  66.536  1.00  0.00    -0.158 A  
HETATM    5  C   UNL     1      -8.645  10.484  66.436  1.00  0.00    -0.144 A  
HETATM    6  C   UNL     1      -7.715  12.660  67.280  1.00  0.00    -0.140 C  
HETATM    7  C   UNL     1      -9.627   9.744  65.794  1.00  0.00    -0.318 A  
HETATM    8  O   UNL     1      -6.830  12.076  67.906  1.00  0.00    -0.074 OA 
HETATM    9  C   UNL     1      -7.757  14.160  67.250  1.00  0.00    -0.132 C  
HETATM   10  O   UNL     1      -7.598   9.770  66.952  1.00  0.00    -0.094 OA 
HETATM   11  H   UNL     1      -7.519   8.826  66.885  1.00  0.00     0.000 HD 
HETATM   12  C   UNL     1     -10.758  10.381  65.271  1.00  0.00     0.086 A  
HETATM   13  C   UNL     1      -6.949  14.953  67.999  1.00  0.00    -0.140 C  
HETATM   14  C   UNL     1      -6.907  16.502  67.878  1.00  0.00    -0.139 C  
HETATM   15  O   UNL     1      -5.950  14.420  68.807  1.00  0.00    -0.080 OA 
HETATM   16  C   UNL     1     -10.944  11.773  65.344  1.00  0.00    -0.297 A  
HETATM   17  O   UNL     1      -5.607  16.756  67.292  1.00  0.00    -0.129 OA 
HETATM   18  H   UNL     1      -5.385  14.975  69.331  1.00  0.00     0.000 HD 
HETATM   19  H   UNL     1      -9.909  20.060  69.049  1.00  0.00     0.000 HD 
HETATM   20  C   UNL     1      -6.858  17.322  69.189  1.00  0.00    -0.234 C  
HETATM   21  C   UNL     1      -6.944  18.814  69.073  1.00  0.00    -0.323 C  
HETATM   22  H   UNL     1      -5.581  17.702  67.218  1.00  0.00     0.000 HD 
HETATM   23  C   UNL     1      -9.132  16.119  66.704  1.00  0.00    -0.282 C  
HETATM   24  C   UNL     1      -8.000  17.108  66.950  1.00  0.00    -0.250 C  
HETATM   25  O   UNL     1      -6.814  16.833  70.318  1.00  0.00     0.490 OA 
HETATM   26  O   UNL     1      -9.066  19.805  69.404  1.00  0.00    -0.095 OA 
HETATM   27  C   UNL     1      -8.136  19.176  68.570  1.00  0.00    -0.359 C  
HETATM   28  C   UNL     1      -8.773  18.384  67.458  1.00  0.00    -0.258 C  
ENDROOT
BRANCH  16  29
HETATM   29  N   UNL     1     -12.128  12.324  64.855  1.00  0.00    -0.385 NA 
HETATM   30  C   UNL     1     -12.706  11.849  63.597  1.00  0.00    -0.390 C  
HETATM   31  C   UNL     1     -12.775  13.526  65.381  1.00  0.00    -0.442 C  
ENDBRANCH  16  29
BRANCH  21  32
HETATM   32  C   UNL     1      -5.881  19.661  68.448  1.00  0.00    -0.221 C  
HETATM   33  O   UNL     1      -5.354  19.407  67.362  1.00  0.00    -0.166 OA 
HETATM   34  H2  UNL     1      -5.967  21.074  69.962  1.00  0.00     0.000 HD 
HETATM   35  N   UNL     1      -5.525  20.801  69.085  1.00  0.00    -0.341 N  
HETATM   36  H1  UNL     1      -4.799  21.378  68.658  1.00  0.00     0.000 HD 
ENDBRANCH  21  32
BRANCH  28  37
HETATM   37  N   UNL     1      -9.246  19.132  66.268  1.00  0.00    -0.390 NA 
HETATM   38  C   UNL     1     -10.654  19.511  66.349  1.00  0.00    -0.472 C  
HETATM   39  C   UNL     1      -8.436  20.299  65.917  1.00  0.00     0.046 C  
ENDBRANCH  28  37
TORSDOF 3
ENDMDL
MODEL       42
REMARK 921   NORMALIZED FREE ENERGY PREDICTED BY IDOCK:   -5.09 KCAL/MOL
REMARK 922        TOTAL FREE ENERGY PREDICTED BY IDOCK:   -6.44 KCAL/MOL
REMARK 923 INTER-LIGAND FREE ENERGY PREDICTED BY IDOCK:   -6.51 KCAL/MOL
REMARK 924 INTRA-LIGAND FREE ENERGY PREDICTED BY IDOCK:    0.07 KCAL/MOL
REMARK 927      BINDING AFFINITY PREDICTED BY RF-SCORE:    0.00 PKD
ROOT
HETATM    1  C   UNL     1     -11.020   9.211  68.099  1.00  0.00    -0.020 C  
HETATM    2  C   UNL     1     -10.519  10.259  67.124  1.00  0.00    -0.311 C  
HETATM    3  C   UNL     1     -11.044  11.643  67.281  1.00  0.00    -0.346 A  
HETATM    4  C   UNL     1     -11.558  12.020  68.548  1.00  0.00    -0.363 A  
HETATM    5  C   UNL     1     -12.089  13.303  68.705  1.00  0.00    -0.219 A  
HETATM    6  C   UNL     1     -11.505  11.083  69.725  1.00  0.00    -0.311 C  
HETATM    7  C   UNL     1     -12.099  14.192  67.639  1.00  0.00    -0.337 A  
HETATM    8  O   UNL     1     -11.810  11.483  70.849  1.00  0.00    -0.224 OA 
HETATM    9  C   UNL     1     -11.084   9.657  69.518  1.00  0.00    -0.198 C  
HETATM   10  O   UNL     1     -12.613  13.771  69.880  1.00  0.00    -0.253 OA 
HETATM   11  H   UNL     1     -12.973  14.643  69.987  1.00  0.00     0.000 HD 
HETATM   12  C   UNL     1     -11.546  13.820  66.409  1.00  0.00    -0.380 A  
HETATM   13  C   UNL     1     -10.870   8.779  70.530  1.00  0.00    -0.233 C  
HETATM   14  C   UNL     1     -10.553   7.272  70.313  1.00  0.00    -0.229 C  
HETATM   15  O   UNL     1     -11.107   9.123  71.857  1.00  0.00    -0.364 OA 
HETATM   16  C   UNL     1     -10.987  12.549  66.184  1.00  0.00    -0.284 A  
HETATM   17  O   UNL     1     -11.749   6.608  70.792  1.00  0.00    -0.353 OA 
HETATM   18  H   UNL     1     -10.957   8.508  72.565  1.00  0.00     0.000 HD 
HETATM   19  H   UNL     1      -6.775   4.825  68.647  1.00  0.00     0.000 HD 
HETATM   20  C   UNL     1      -9.440   6.642  71.182  1.00  0.00    -0.163 C  
HETATM   21  C   UNL     1      -9.051   5.225  70.884  1.00  0.00    -0.168 C  
HETATM   22  H   UNL     1     -11.555   5.688  70.659  1.00  0.00     0.000 HD 
HETATM   23  C   UNL     1     -10.021   8.086  67.961  1.00  0.00    -0.216 C  
HETATM   24  C   UNL     1     -10.319   6.869  68.828  1.00  0.00    -0.200 C  
HETATM   25  O   UNL     1      -8.812   7.240  72.056  1.00  0.00    -0.124 OA 
HETATM   26  O   UNL     1      -7.150   4.889  69.517  1.00  0.00    -0.052 OA 
HETATM   27  C   UNL     1      -8.520   5.135  69.653  1.00  0.00    -0.093 C  
HETATM   28  C   UNL     1      -9.101   5.921  68.506  1.00  0.00    -0.111 C  
ENDROOT
BRANCH  16  29
HETATM   29  N   UNL     1     -10.400  12.278  64.948  1.00  0.00    -0.283 NA 
HETATM   30  C   UNL     1     -11.117  12.563  63.705  1.00  0.00    -0.448 C  
HETATM   31  C   UNL     1      -9.170  11.511  64.754  1.00  0.00     0.035 C  
ENDBRANCH  16  29
BRANCH  21  32
HETATM   32  C   UNL     1      -9.954   4.053  71.106  1.00  0.00    -0.127 C  
HETATM   33  O   UNL     1      -9.946   3.040  70.403  1.00  0.00     0.034 OA 
HETATM   34  H2  UNL     1     -10.790   4.885  72.811  1.00  0.00     0.000 HD 
HETATM   35  N   UNL     1     -10.782   4.087  72.176  1.00  0.00     0.078 N  
HETATM   36  H1  UNL     1     -11.398   3.288  72.328  1.00  0.00     0.000 HD 
ENDBRANCH  21  32
BRANCH  28  37
HETATM   37  N   UNL     1      -9.418   5.182  67.260  1.00  0.00    -0.125 NA 
HETATM   38  C   UNL     1     -10.833   5.238  66.903  1.00  0.00     0.007 C  
HETATM   39  C   UNL     1      -8.599   5.552  66.104  1.00  0.00    -0.129 C  
ENDBRANCH  28  37
TORSDOF 3
ENDMDL
MODEL       43
REMARK 921   NORMALIZED FREE ENERGY PREDICTED BY IDOCK:   -4.98 KCAL/MOL
REMARK 922        TOTAL FREE ENERGY PREDICTED BY IDOCK:   -6.31 KCAL/MOL
REMARK 923 INTER-LIGAND FREE ENERGY PREDICTED BY IDOCK:   -6.11 KCAL/MOL
REMARK 924 INTRA-LIGAND FREE ENERGY PREDICTED BY IDOCK:   -0.20 KCAL/MOL
REMARK 927      BINDING AFFINITY PREDICTED BY RF-SCORE:    0.00 PKD
ROOT
HETATM    1  C   UNL     1      -8.481  13.741  67.608  1.00  0.00    -0.183 C  
HETATM    2  C   UNL     1      -7.616  12.590  67.131  1.00  0.00    -0.087 C  
HETATM    3  C   UNL     1      -8.290  11.494  66.384  1.00  0.00    -0.118 A  
HETATM    4  C   UNL     1      -9.523  11.784  65.746  1.00  0.00    -0.232 A  
HETATM    5  C   UNL     1     -10.189  10.759  65.069  1.00  0.00    -0.306 A  
HETATM    6  C   UNL     1     -10.101  13.174  65.753  1.00  0.00    -0.285 C  
HETATM    7  C   UNL     1      -9.642   9.484  65.015  1.00  0.00    -0.218 A  
HETATM    8  O   UNL     1     -11.086  13.439  65.063  1.00  0.00    -0.300 OA 
HETATM    9  C   UNL     1      -9.470  14.233  66.610  1.00  0.00    -0.302 C  
HETATM   10  O   UNL     1     -11.384  10.925  64.422  1.00  0.00    -0.077 OA 
HETATM   11  H   UNL     1     -11.836  10.229  63.962  1.00  0.00     0.000 HD 
HETATM   12  C   UNL     1      -8.402   9.227  65.610  1.00  0.00    -0.128 A  
HETATM   13  C   UNL     1      -9.827  15.542  66.577  1.00  0.00    -0.264 C  
HETATM   14  C   UNL     1      -9.262  16.616  67.549  1.00  0.00    -0.207 C  
HETATM   15  O   UNL     1     -10.880  15.991  65.787  1.00  0.00    -0.305 OA 
HETATM   16  C   UNL     1      -7.673  10.213  66.299  1.00  0.00    -0.110 A  
HETATM   17  O   UNL     1     -10.401  16.946  68.381  1.00  0.00    -0.297 OA 
HETATM   18  H   UNL     1     -11.131  16.907  65.764  1.00  0.00     0.000 HD 
HETATM   19  H   UNL     1      -5.005  18.764  68.095  1.00  0.00     0.000 HD 
HETATM   20  C   UNL     1      -8.866  17.986  66.951  1.00  0.00    -0.258 C  
HETATM   21  C   UNL     1      -8.205  18.973  67.866  1.00  0.00    -0.311 C  
HETATM   22  H   UNL     1     -10.056  17.601  68.975  1.00  0.00     0.000 HD 
HETATM   23  C   UNL     1      -7.485  14.833  67.923  1.00  0.00    -0.156 C  
HETATM   24  C   UNL     1      -8.106  16.116  68.463  1.00  0.00    -0.181 C  
HETATM   25  O   UNL     1      -9.000  18.297  65.767  1.00  0.00    -0.440 OA 
HETATM   26  O   UNL     1      -5.844  19.096  67.801  1.00  0.00    -0.191 OA 
HETATM   27  C   UNL     1      -7.017  18.504  68.280  1.00  0.00    -0.249 C  
HETATM   28  C   UNL     1      -6.847  17.049  68.637  1.00  0.00    -0.187 C  
ENDROOT
BRANCH  16  29
HETATM   29  N   UNL     1      -6.417   9.892  66.810  1.00  0.00    -0.069 NA 
HETATM   30  C   UNL     1      -5.216  10.048  65.989  1.00  0.00    -0.044 C  
HETATM   31  C   UNL     1      -6.178   9.187  68.070  1.00  0.00    -0.051 C  
ENDBRANCH  16  29
BRANCH  21  32
HETATM   32  C   UNL     1      -8.896  19.624  69.022  1.00  0.00    -0.118 C  
HETATM   33  O   UNL     1      -8.303  20.154  69.964  1.00  0.00     0.628 OA 
HETATM   34  H2  UNL     1     -10.779  19.301  68.216  1.00  0.00     0.000 HD 
HETATM   35  N   UNL     1     -10.249  19.685  68.997  1.00  0.00    -0.619 N  
HETATM   36  H1  UNL     1     -10.720  20.128  69.786  1.00  0.00     0.000 HD 
ENDBRANCH  21  32
BRANCH  28  37
HETATM   37  N   UNL     1      -6.224  16.732  69.944  1.00  0.00    -0.206 NA 
HETATM   38  C   UNL     1      -5.242  15.654  69.866  1.00  0.00    -0.110 C  
HETATM   39  C   UNL     1      -5.646  17.882  70.642  1.00  0.00    -0.131 C  
ENDBRANCH  28  37
TORSDOF 3
ENDMDL
MODEL       44
REMARK 921   NORMALIZED FREE ENERGY PREDICTED BY IDOCK:   -4.94 KCAL/MOL
REMARK 922        TOTAL FREE ENERGY PREDICTED BY IDOCK:   -6.26 KCAL/MOL
REMARK 923 INTER-LIGAND FREE ENERGY PREDICTED BY IDOCK:   -6.23 KCAL/MOL
REMARK 924 INTRA-LIGAND FREE ENERGY PREDICTED BY IDOCK:   -0.04 KCAL/MOL
REMARK 927      BINDING AFFINITY PREDICTED BY RF-SCORE:    0.00 PKD
ROOT
HETATM    1  C   UNL     1      -9.617   8.714  70.851  1.00  0.00    -0.252 C  
HETATM    2  C   UNL     1     -10.897   9.516  70.990  1.00  0.00    -0.423 C  
HETATM    3  C   UNL     1     -11.049  10.714  70.121  1.00  0.00    -0.341 A  
HETATM    4  C   UNL     1     -10.286  10.771  68.926  1.00  0.00    -0.220 A  
HETATM    5  C   UNL     1     -10.389  11.904  68.115  1.00  0.00    -0.199 A  
HETATM    6  C   UNL     1      -9.408   9.625  68.503  1.00  0.00    -0.137 C  
HETATM    7  C   UNL     1     -11.233  12.946  68.471  1.00  0.00    -0.310 A  
HETATM    8  O   UNL     1      -8.880   9.627  67.390  1.00  0.00    -0.128 OA 
HETATM    9  C   UNL     1      -9.175   8.482  69.448  1.00  0.00    -0.153 C  
HETATM   10  O   UNL     1      -9.699  12.066  66.944  1.00  0.00    -0.197 OA 
HETATM   11  H   UNL     1      -9.768  12.836  66.393  1.00  0.00     0.000 HD 
HETATM   12  C   UNL     1     -12.013  12.854  69.629  1.00  0.00    -0.358 A  
HETATM   13  C   UNL     1      -8.519   7.343  69.109  1.00  0.00    -0.133 C  
HETATM   14  C   UNL     1      -8.172   6.213  70.119  1.00  0.00    -0.120 C  
HETATM   15  O   UNL     1      -7.933   7.184  67.857  1.00  0.00    -0.112 OA 
HETATM   16  C   UNL     1     -11.967  11.740  70.486  1.00  0.00    -0.289 A  
HETATM   17  O   UNL     1      -6.729   6.299  70.231  1.00  0.00    -0.049 OA 
HETATM   18  H   UNL     1      -7.474   6.388  67.620  1.00  0.00     0.000 HD 
HETATM   19  H   UNL     1     -10.720   2.916  72.500  1.00  0.00     0.000 HD 
HETATM   20  C   UNL     1      -8.394   4.752  69.664  1.00  0.00    -0.078 C  
HETATM   21  C   UNL     1      -8.178   3.672  70.681  1.00  0.00    -0.073 C  
HETATM   22  H   UNL     1      -6.518   5.609  70.848  1.00  0.00     0.000 HD 
HETATM   23  C   UNL     1      -9.945   7.395  71.509  1.00  0.00    -0.193 C  
HETATM   24  C   UNL     1      -8.794   6.398  71.534  1.00  0.00    -0.137 C  
HETATM   25  O   UNL     1      -8.793   4.421  68.547  1.00  0.00    -0.097 OA 
HETATM   26  O   UNL     1     -10.090   2.836  71.794  1.00  0.00    -0.149 OA 
HETATM   27  C   UNL     1      -9.070   3.785  71.679  1.00  0.00    -0.113 C  
HETATM   28  C   UNL     1      -9.453   5.140  72.218  1.00  0.00    -0.138 C  
ENDROOT
BRANCH  16  29
HETATM   29  N   UNL     1     -12.822  11.698  71.587  1.00  0.00    -0.383 NA 
HETATM   30  C   UNL     1     -13.373  10.425  72.053  1.00  0.00    -0.335 C  
HETATM   31  C   UNL     1     -13.420  12.867  72.231  1.00  0.00    -0.531 C  
ENDBRANCH  16  29
BRANCH  21  32
HETATM   32  C   UNL     1      -6.842   3.337  71.264  1.00  0.00    -0.032 C  
HETATM   33  O   UNL     1      -5.780   3.814  70.860  1.00  0.00    -0.012 OA 
HETATM   34  H2  UNL     1      -7.668   2.128  72.732  1.00  0.00     0.000 HD 
HETATM   35  N   UNL     1      -6.809   2.510  72.335  1.00  0.00    -0.022 N  
HETATM   36  H1  UNL     1      -5.898   2.282  72.733  1.00  0.00     0.000 HD 
ENDBRANCH  21  32
BRANCH  28  37
HETATM   37  N   UNL     1      -9.389   5.337  73.686  1.00  0.00    -0.133 NA 
HETATM   38  C   UNL     1     -10.475   4.672  74.403  1.00  0.00    -0.282 C  
HETATM   39  C   UNL     1      -8.105   4.989  74.296  1.00  0.00    -0.099 C  
ENDBRANCH  28  37
TORSDOF 3
ENDMDL
MODEL       45
REMARK 921   NORMALIZED FREE ENERGY PREDICTED BY IDOCK:   -4.92 KCAL/MOL
REMARK 922        TOTAL FREE ENERGY PREDICTED BY IDOCK:   -6.25 KCAL/MOL
REMARK 923 INTER-LIGAND FREE ENERGY PREDICTED BY IDOCK:   -5.94 KCAL/MOL
REMARK 924 INTRA-LIGAND FREE ENERGY PREDICTED BY IDOCK:   -0.31 KCAL/MOL
REMARK 927      BINDING AFFINITY PREDICTED BY RF-SCORE:    0.00 PKD
ROOT
HETATM    1  C   UNL     1      -9.216   7.704  68.121  1.00  0.00    -0.138 C  
HETATM    2  C   UNL     1     -10.370   8.171  68.987  1.00  0.00    -0.229 C  
HETATM    3  C   UNL     1     -10.878   9.551  68.761  1.00  0.00    -0.173 A  
HETATM    4  C   UNL     1     -10.631  10.153  67.501  1.00  0.00    -0.327 A  
HETATM    5  C   UNL     1     -11.069  11.462  67.282  1.00  0.00    -0.303 A  
HETATM    6  C   UNL     1      -9.945   9.399  66.394  1.00  0.00    -0.276 C  
HETATM    7  C   UNL     1     -11.745  12.151  68.280  1.00  0.00    -0.401 A  
HETATM    8  O   UNL     1      -9.881   9.881  65.262  1.00  0.00    -0.302 OA 
HETATM    9  C   UNL     1      -9.335   8.057  66.679  1.00  0.00    -0.249 C  
HETATM   10  O   UNL     1     -10.882  12.140  66.108  1.00  0.00    -0.262 OA 
HETATM   11  H   UNL     1     -11.180  13.029  65.959  1.00  0.00     0.000 HD 
HETATM   12  C   UNL     1     -12.022  11.525  69.500  1.00  0.00    -0.402 A  
HETATM   13  C   UNL     1      -8.823   7.242  65.723  1.00  0.00    -0.066 C  
HETATM   14  C   UNL     1      -8.083   5.909  66.030  1.00  0.00    -0.115 C  
HETATM   15  O   UNL     1      -8.754   7.634  64.390  1.00  0.00    -0.354 OA 
HETATM   16  C   UNL     1     -11.619  10.209  69.785  1.00  0.00    -0.182 A  
HETATM   17  O   UNL     1      -6.710   6.200  65.669  1.00  0.00    -0.046 OA 
HETATM   18  H   UNL     1      -8.396   7.064  63.721  1.00  0.00     0.000 HD 
HETATM   19  H   UNL     1      -9.431   1.598  67.653  1.00  0.00     0.000 HD 
HETATM   20  C   UNL     1      -8.418   4.684  65.148  1.00  0.00    -0.130 C  
HETATM   21  C   UNL     1      -7.798   3.372  65.525  1.00  0.00    -0.085 C  
HETATM   22  H   UNL     1      -6.258   5.386  65.857  1.00  0.00     0.000 HD 
HETATM   23  C   UNL     1      -9.229   6.203  68.283  1.00  0.00    -0.114 C  
HETATM   24  C   UNL     1      -8.125   5.477  67.524  1.00  0.00    -0.101 C  
HETATM   25  O   UNL     1      -9.202   4.699  64.199  1.00  0.00    -0.145 OA 
HETATM   26  O   UNL     1      -9.115   1.881  66.803  1.00  0.00    -0.119 OA 
HETATM   27  C   UNL     1      -8.245   2.973  66.727  1.00  0.00    -0.089 C  
HETATM   28  C   UNL     1      -8.435   3.965  67.845  1.00  0.00    -0.094 C  
ENDROOT
BRANCH  16  29
HETATM   29  N   UNL     1     -11.988   9.636  71.002  1.00  0.00    -0.322 NA 
HETATM   30  C   UNL     1     -10.979   9.053  71.887  1.00  0.00    -0.353 C  
HETATM   31  C   UNL     1     -13.363   9.358  71.415  1.00  0.00    -0.346 C  
ENDBRANCH  16  29
BRANCH  21  32
HETATM   32  C   UNL     1      -6.331   3.093  65.440  1.00  0.00    -0.031 C  
HETATM   33  O   UNL     1      -5.766   2.200  66.074  1.00  0.00    -0.016 OA 
HETATM   34  H2  UNL     1      -6.032   4.544  63.989  1.00  0.00     0.000 HD 
HETATM   35  N   UNL     1      -5.598   3.826  64.569  1.00  0.00    -0.013 N  
HETATM   36  H1  UNL     1      -4.597   3.636  64.510  1.00  0.00     0.000 HD 
ENDBRANCH  21  32
BRANCH  28  37
HETATM   37  N   UNL     1      -7.823   3.645  69.157  1.00  0.00    -0.052 NA 
HETATM   38  C   UNL     1      -8.758   3.023  70.091  1.00  0.00    -0.071 C  
HETATM   39  C   UNL     1      -6.594   2.853  69.083  1.00  0.00    -0.033 C  
ENDBRANCH  28  37
TORSDOF 3
ENDMDL
MODEL       46
REMARK 921   NORMALIZED FREE ENERGY PREDICTED BY IDOCK:   -4.91 KCAL/MOL
REMARK 922        TOTAL FREE ENERGY PREDICTED BY IDOCK:   -6.23 KCAL/MOL
REMARK 923 INTER-LIGAND FREE ENERGY PREDICTED BY IDOCK:   -5.94 KCAL/MOL
REMARK 924 INTRA-LIGAND FREE ENERGY PREDICTED BY IDOCK:   -0.30 KCAL/MOL
REMARK 927      BINDING AFFINITY PREDICTED BY RF-SCORE:    0.00 PKD
ROOT
HETATM    1  C   UNL     1      -8.502  14.229  67.856  1.00  0.00    -0.168 C  
HETATM    2  C   UNL     1      -9.394  13.154  68.444  1.00  0.00    -0.154 C  
HETATM    3  C   UNL     1      -8.789  11.813  68.669  1.00  0.00    -0.062 A  
HETATM    4  C   UNL     1      -7.379  11.732  68.795  1.00  0.00    -0.114 A  
HETATM    5  C   UNL     1      -6.790  10.477  68.971  1.00  0.00    -0.068 A  
HETATM    6  C   UNL     1      -6.519  12.967  68.784  1.00  0.00    -0.085 C  
HETATM    7  C   UNL     1      -7.577   9.335  69.031  1.00  0.00    -0.074 A  
HETATM    8  O   UNL     1      -5.320  12.890  69.053  1.00  0.00    -0.067 OA 
HETATM    9  C   UNL     1      -7.133  14.293  68.437  1.00  0.00    -0.105 C  
HETATM   10  O   UNL     1      -5.441  10.282  69.101  1.00  0.00    -0.039 OA 
HETATM   11  H   UNL     1      -5.040   9.429  69.220  1.00  0.00     0.000 HD 
HETATM   12  C   UNL     1      -8.970   9.438  68.950  1.00  0.00    -0.136 A  
HETATM   13  C   UNL     1      -6.478  15.477  68.537  1.00  0.00    -0.103 C  
HETATM   14  C   UNL     1      -7.070  16.834  68.064  1.00  0.00    -0.152 C  
HETATM   15  O   UNL     1      -5.136  15.540  68.899  1.00  0.00    -0.097 OA 
HETATM   16  C   UNL     1      -9.630  10.668  68.784  1.00  0.00    -0.186 A  
HETATM   17  O   UNL     1      -6.259  17.168  66.910  1.00  0.00    -0.158 OA 
HETATM   18  H   UNL     1      -4.677  16.368  68.969  1.00  0.00     0.000 HD 
HETATM   19  H   UNL     1     -10.573  19.716  69.633  1.00  0.00     0.000 HD 
HETATM   20  C   UNL     1      -6.876  18.061  68.985  1.00  0.00    -0.248 C  
HETATM   21  C   UNL     1      -7.555  19.337  68.587  1.00  0.00    -0.385 C  
HETATM   22  H   UNL     1      -6.622  17.996  66.621  1.00  0.00     0.000 HD 
HETATM   23  C   UNL     1      -9.243  15.513  68.150  1.00  0.00    -0.189 C  
HETATM   24  C   UNL     1      -8.562  16.769  67.623  1.00  0.00    -0.211 C  
HETATM   25  O   UNL     1      -6.256  18.045  70.049  1.00  0.00    -0.181 OA 
HETATM   26  O   UNL     1      -9.630  19.824  69.614  1.00  0.00    -0.116 OA 
HETATM   27  C   UNL     1      -8.890  19.184  68.614  1.00  0.00    -0.365 C  
HETATM   28  C   UNL     1      -9.528  17.910  68.124  1.00  0.00    -0.288 C  
ENDROOT
BRANCH  16  29
HETATM   29  N   UNL     1     -11.024  10.693  68.775  1.00  0.00    -0.228 NA 
HETATM   30  C   UNL     1     -11.758  10.885  67.524  1.00  0.00     0.175 C  
HETATM   31  C   UNL     1     -11.869  10.756  69.967  1.00  0.00    -0.344 C  
ENDBRANCH  16  29
BRANCH  21  32
HETATM   32  C   UNL     1      -7.186  20.130  67.374  1.00  0.00    -0.276 C  
HETATM   33  O   UNL     1      -6.121  19.997  66.768  1.00  0.00    -0.174 OA 
HETATM   34  H2  UNL     1      -9.014  21.107  67.325  1.00  0.00     0.000 HD 
HETATM   35  N   UNL     1      -8.102  20.997  66.883  1.00  0.00    -0.548 N  
HETATM   36  H1  UNL     1      -7.850  21.539  66.056  1.00  0.00     0.000 HD 
ENDBRANCH  21  32
BRANCH  28  37
HETATM   37  N   UNL     1     -10.634  18.030  67.145  1.00  0.00    -0.358 NA 
HETATM   38  C   UNL     1     -11.115  19.400  66.985  1.00  0.00    -0.165 C  
HETATM   39  C   UNL     1     -10.357  17.445  65.832  1.00  0.00    -0.269 C  
ENDBRANCH  28  37
TORSDOF 3
ENDMDL
MODEL       47
REMARK 921   NORMALIZED FREE ENERGY PREDICTED BY IDOCK:   -4.91 KCAL/MOL
REMARK 922        TOTAL FREE ENERGY PREDICTED BY IDOCK:   -6.23 KCAL/MOL
REMARK 923 INTER-LIGAND FREE ENERGY PREDICTED BY IDOCK:   -6.09 KCAL/MOL
REMARK 924 INTRA-LIGAND FREE ENERGY PREDICTED BY IDOCK:   -0.14 KCAL/MOL
REMARK 927      BINDING AFFINITY PREDICTED BY RF-SCORE:    0.00 PKD
ROOT
HETATM    1  C   UNL     1      -8.937  14.495  68.547  1.00  0.00    -0.188 C  
HETATM    2  C   UNL     1      -9.085  15.837  67.857  1.00  0.00    -0.186 C  
HETATM    3  C   UNL     1      -8.325  16.983  68.425  1.00  0.00    -0.241 A  
HETATM    4  C   UNL     1      -7.181  16.698  69.214  1.00  0.00    -0.200 A  
HETATM    5  C   UNL     1      -6.475  17.761  69.785  1.00  0.00    -0.058 A  
HETATM    6  C   UNL     1      -6.698  15.287  69.411  1.00  0.00    -0.164 C  
HETATM    7  C   UNL     1      -6.884  19.069  69.570  1.00  0.00    -0.206 A  
HETATM    8  O   UNL     1      -5.619  15.073  69.965  1.00  0.00    -0.110 OA 
HETATM    9  C   UNL     1      -7.543  14.141  68.934  1.00  0.00    -0.098 C  
HETATM   10  O   UNL     1      -5.362  17.601  70.565  1.00  0.00    -0.248 OA 
HETATM   11  H   UNL     1      -4.882  18.323  70.953  1.00  0.00     0.000 HD 
HETATM   12  C   UNL     1      -7.987  19.335  68.751  1.00  0.00    -0.392 A  
HETATM   13  C   UNL     1      -7.133  12.848  68.938  1.00  0.00    -0.063 C  
HETATM   14  C   UNL     1      -8.049  11.650  68.559  1.00  0.00    -0.145 C  
HETATM   15  O   UNL     1      -5.904  12.474  69.470  1.00  0.00    -0.087 OA 
HETATM   16  C   UNL     1      -8.737  18.317  68.137  1.00  0.00    -0.281 A  
HETATM   17  O   UNL     1      -8.243  10.966  69.821  1.00  0.00    -0.347 OA 
HETATM   18  H   UNL     1      -5.617  11.569  69.474  1.00  0.00     0.000 HD 
HETATM   19  H   UNL     1      -9.978  10.042  64.469  1.00  0.00     0.000 HD 
HETATM   20  C   UNL     1      -7.449  10.546  67.658  1.00  0.00    -0.092 C  
HETATM   21  C   UNL     1      -8.370   9.459  67.192  1.00  0.00    -0.124 C  
HETATM   22  H   UNL     1      -8.803  10.235  69.589  1.00  0.00     0.000 HD 
HETATM   23  C   UNL     1      -9.451  13.507  67.527  1.00  0.00    -0.222 C  
HETATM   24  C   UNL     1      -9.441  12.056  67.993  1.00  0.00    -0.199 C  
HETATM   25  O   UNL     1      -6.287  10.531  67.250  1.00  0.00    -0.060 OA 
HETATM   26  O   UNL     1      -9.301   9.683  65.029  1.00  0.00    -0.242 OA 
HETATM   27  C   UNL     1      -9.328   9.966  66.399  1.00  0.00    -0.167 C  
HETATM   28  C   UNL     1      -9.970  11.291  66.720  1.00  0.00    -0.206 C  
ENDROOT
BRANCH  16  29
HETATM   29  N   UNL     1      -9.784  18.667  67.285  1.00  0.00    -0.296 NA 
HETATM   30  C   UNL     1     -10.984  19.319  67.810  1.00  0.00    -0.194 C  
HETATM   31  C   UNL     1      -9.907  18.246  65.890  1.00  0.00    -0.017 C  
ENDBRANCH  16  29
BRANCH  21  32
HETATM   32  C   UNL     1      -8.987   8.446  68.104  1.00  0.00    -0.139 C  
HETATM   33  O   UNL     1     -10.183   8.147  68.086  1.00  0.00    -0.196 OA 
HETATM   34  H2  UNL     1      -7.167   7.963  68.972  1.00  0.00     0.000 HD 
HETATM   35  N   UNL     1      -8.170   7.781  68.954  1.00  0.00    -0.126 N  
HETATM   36  H1  UNL     1      -8.591   7.090  69.577  1.00  0.00     0.000 HD 
ENDBRANCH  21  32
BRANCH  28  37
HETATM   37  N   UNL     1     -11.452  11.347  66.740  1.00  0.00    -0.436 NA 
HETATM   38  C   UNL     1     -12.015  11.190  68.078  1.00  0.00     0.002 C  
HETATM   39  C   UNL     1     -12.029  12.527  66.094  1.00  0.00    -0.366 C  
ENDBRANCH  28  37
TORSDOF 3
ENDMDL
MODEL       48
REMARK 921   NORMALIZED FREE ENERGY PREDICTED BY IDOCK:   -4.84 KCAL/MOL
REMARK 922        TOTAL FREE ENERGY PREDICTED BY IDOCK:   -6.15 KCAL/MOL
REMARK 923 INTER-LIGAND FREE ENERGY PREDICTED BY IDOCK:   -6.21 KCAL/MOL
REMARK 924 INTRA-LIGAND FREE ENERGY PREDICTED BY IDOCK:    0.06 KCAL/MOL
REMARK 927      BINDING AFFINITY PREDICTED BY RF-SCORE:    0.00 PKD
ROOT
HETATM    1  C   UNL     1      -9.389   8.615  68.684  1.00  0.00    -0.142 C  
HETATM    2  C   UNL     1     -10.544   9.462  69.184  1.00  0.00    -0.234 C  
HETATM    3  C   UNL     1     -10.949  10.624  68.347  1.00  0.00    -0.303 A  
HETATM    4  C   UNL     1     -10.611  10.604  66.970  1.00  0.00    -0.317 A  
HETATM    5  C   UNL     1     -10.952  11.702  66.176  1.00  0.00    -0.288 A  
HETATM    6  C   UNL     1      -9.932   9.413  66.348  1.00  0.00    -0.276 C  
HETATM    7  C   UNL     1     -11.621  12.785  66.729  1.00  0.00    -0.431 A  
HETATM    8  O   UNL     1      -9.790   9.348  65.127  1.00  0.00    -0.182 OA 
HETATM    9  C   UNL     1      -9.425   8.307  67.228  1.00  0.00    -0.193 C  
HETATM   10  O   UNL     1     -10.672  11.789  64.839  1.00  0.00    -0.275 OA 
HETATM   11  H   UNL     1     -10.904  12.535  64.299  1.00  0.00     0.000 HD 
HETATM   12  C   UNL     1     -11.988  12.769  68.079  1.00  0.00    -0.315 A  
HETATM   13  C   UNL     1      -8.930   7.134  66.757  1.00  0.00    -0.137 C  
HETATM   14  C   UNL     1      -8.293   6.041  67.660  1.00  0.00    -0.108 C  
HETATM   15  O   UNL     1      -8.780   6.901  65.394  1.00  0.00    -0.316 OA 
HETATM   16  C   UNL     1     -11.686  11.694  68.933  1.00  0.00    -0.334 A  
HETATM   17  O   UNL     1      -6.891   6.086  67.300  1.00  0.00    -0.059 OA 
HETATM   18  H   UNL     1      -8.433   6.081  65.064  1.00  0.00     0.000 HD 
HETATM   19  H   UNL     1      -9.990   2.935  70.902  1.00  0.00     0.000 HD 
HETATM   20  C   UNL     1      -8.672   4.568  67.378  1.00  0.00    -0.104 C  
HETATM   21  C   UNL     1      -8.157   3.529  68.327  1.00  0.00    -0.079 C  
HETATM   22  H   UNL     1      -6.502   5.418  67.852  1.00  0.00     0.000 HD 
HETATM   23  C   UNL     1      -9.508   7.338  69.481  1.00  0.00    -0.155 C  
HETATM   24  C   UNL     1      -8.425   6.308  69.188  1.00  0.00    -0.120 C  
HETATM   25  O   UNL     1      -9.414   4.200  66.467  1.00  0.00    -0.161 OA 
HETATM   26  O   UNL     1      -9.622   2.803  70.037  1.00  0.00    -0.131 OA 
HETATM   27  C   UNL     1      -8.678   3.714  69.551  1.00  0.00    -0.077 C  
HETATM   28  C   UNL     1      -8.848   5.103  70.112  1.00  0.00    -0.115 C  
ENDROOT
BRANCH  16  29
HETATM   29  N   UNL     1     -12.142  11.727  70.250  1.00  0.00    -0.351 NA 
HETATM   30  C   UNL     1     -12.715  10.532  70.870  1.00  0.00    -0.402 C  
HETATM   31  C   UNL     1     -12.306  12.941  71.051  1.00  0.00    -0.225 C  
ENDBRANCH  16  29
BRANCH  21  32
HETATM   32  C   UNL     1      -6.709   3.179  68.468  1.00  0.00    -0.044 C  
HETATM   33  O   UNL     1      -5.840   3.985  68.806  1.00  0.00    -0.021 OA 
HETATM   34  H2  UNL     1      -7.042   1.179  68.036  1.00  0.00     0.000 HD 
HETATM   35  N   UNL     1      -6.349   1.889  68.272  1.00  0.00    -0.025 N  
HETATM   36  H1  UNL     1      -5.362   1.650  68.368  1.00  0.00     0.000 HD 
ENDBRANCH  21  32
BRANCH  28  37
HETATM   37  N   UNL     1      -8.313   5.363  71.470  1.00  0.00    -0.121 NA 
HETATM   38  C   UNL     1      -9.085   4.714  72.527  1.00  0.00    -0.124 C  
HETATM   39  C   UNL     1      -6.890   5.061  71.637  1.00  0.00    -0.048 C  
ENDBRANCH  28  37
TORSDOF 3
ENDMDL
MODEL       49
REMARK 921   NORMALIZED FREE ENERGY PREDICTED BY IDOCK:   -4.78 KCAL/MOL
REMARK 922        TOTAL FREE ENERGY PREDICTED BY IDOCK:   -6.09 KCAL/MOL
REMARK 923 INTER-LIGAND FREE ENERGY PREDICTED BY IDOCK:   -5.31 KCAL/MOL
REMARK 924 INTRA-LIGAND FREE ENERGY PREDICTED BY IDOCK:   -0.77 KCAL/MOL
REMARK 927      BINDING AFFINITY PREDICTED BY RF-SCORE:    0.00 PKD
ROOT
HETATM    1  C   UNL     1      -9.526   7.316  68.385  1.00  0.00    -0.142 C  
HETATM    2  C   UNL     1      -9.593   7.363  69.899  1.00  0.00    -0.163 C  
HETATM    3  C   UNL     1      -9.822   6.076  70.611  1.00  0.00    -0.222 A  
HETATM    4  C   UNL     1      -9.486   4.874  69.939  1.00  0.00    -0.229 A  
HETATM    5  C   UNL     1      -9.727   3.654  70.578  1.00  0.00    -0.140 A  
HETATM    6  C   UNL     1      -8.842   4.891  68.578  1.00  0.00    -0.102 C  
HETATM    7  C   UNL     1     -10.275   3.628  71.852  1.00  0.00    -0.111 A  
HETATM    8  O   UNL     1      -8.415   3.849  68.081  1.00  0.00    -0.090 OA 
HETATM    9  C   UNL     1      -8.730   6.188  67.829  1.00  0.00    -0.112 C  
HETATM   10  O   UNL     1      -9.444   2.436  70.022  1.00  0.00    -0.123 OA 
HETATM   11  H   UNL     1      -9.608   1.608  70.455  1.00  0.00     0.000 HD 
HETATM   12  C   UNL     1     -10.558   4.824  72.520  1.00  0.00    -0.262 A  
HETATM   13  C   UNL     1      -8.045   6.331  66.666  1.00  0.00    -0.110 C  
HETATM   14  C   UNL     1      -8.031   7.640  65.828  1.00  0.00    -0.116 C  
HETATM   15  O   UNL     1      -7.452   5.244  66.031  1.00  0.00    -0.080 OA 
HETATM   16  C   UNL     1     -10.332   6.086  71.942  1.00  0.00    -0.209 A  
HETATM   17  O   UNL     1      -8.785   7.285  64.642  1.00  0.00    -0.347 OA 
HETATM   18  H   UNL     1      -6.973   5.344  65.217  1.00  0.00     0.000 HD 
HETATM   19  H   UNL     1      -6.097  11.994  66.407  1.00  0.00     0.000 HD 
HETATM   20  C   UNL     1      -6.675   8.103  65.246  1.00  0.00    -0.052 C  
HETATM   21  C   UNL     1      -6.641   9.428  64.546  1.00  0.00    -0.089 C  
HETATM   22  H   UNL     1      -8.776   8.085  64.131  1.00  0.00     0.000 HD 
HETATM   23  C   UNL     1      -8.880   8.630  68.013  1.00  0.00    -0.141 C  
HETATM   24  C   UNL     1      -8.722   8.854  66.514  1.00  0.00    -0.145 C  
HETATM   25  O   UNL     1      -5.615   7.490  65.370  1.00  0.00    -0.032 OA 
HETATM   26  O   UNL     1      -5.900  11.294  65.797  1.00  0.00    -0.107 OA 
HETATM   27  C   UNL     1      -6.920  10.420  65.409  1.00  0.00    -0.118 C  
HETATM   28  C   UNL     1      -7.988  10.248  66.458  1.00  0.00    -0.118 C  
ENDROOT
BRANCH  16  29
HETATM   29  N   UNL     1     -10.582   7.231  72.697  1.00  0.00    -0.243 NA 
HETATM   30  C   UNL     1      -9.749   7.556  73.855  1.00  0.00    -0.178 C  
HETATM   31  C   UNL     1     -11.772   8.074  72.574  1.00  0.00    -0.387 C  
ENDBRANCH  16  29
BRANCH  21  32
HETATM   32  C   UNL     1      -7.343   9.703  63.254  1.00  0.00    -0.117 C  
HETATM   33  O   UNL     1      -7.956   8.847  62.613  1.00  0.00    -0.130 OA 
HETATM   34  H2  UNL     1      -6.900  11.727  63.321  1.00  0.00     0.000 HD 
HETATM   35  N   UNL     1      -7.355  10.978  62.799  1.00  0.00    -0.363 N  
HETATM   36  H1  UNL     1      -7.833  11.165  61.918  1.00  0.00     0.000 HD 
ENDBRANCH  21  32
BRANCH  28  37
HETATM   37  N   UNL     1      -9.020  11.308  66.566  1.00  0.00    -0.178 NA 
HETATM   38  C   UNL     1      -8.568  12.474  67.320  1.00  0.00    -0.191 C  
HETATM   39  C   UNL     1      -9.596  11.734  65.290  1.00  0.00    -0.168 C  
ENDBRANCH  28  37
TORSDOF 3
ENDMDL
MODEL       50
REMARK 921   NORMALIZED FREE ENERGY PREDICTED BY IDOCK:   -4.71 KCAL/MOL
REMARK 922        TOTAL FREE ENERGY PREDICTED BY IDOCK:   -6.00 KCAL/MOL
REMARK 923 INTER-LIGAND FREE ENERGY PREDICTED BY IDOCK:   -6.45 KCAL/MOL
REMARK 924 INTRA-LIGAND FREE ENERGY PREDICTED BY IDOCK:    0.45 KCAL/MOL
REMARK 927      BINDING AFFINITY PREDICTED BY RF-SCORE:    0.00 PKD
ROOT
HETATM    1  C   UNL     1      -8.457  14.869  67.791  1.00  0.00    -0.160 C  
HETATM    2  C   UNL     1      -7.696  16.012  68.434  1.00  0.00    -0.147 C  
HETATM    3  C   UNL     1      -8.280  17.375  68.312  1.00  0.00    -0.247 A  
HETATM    4  C   UNL     1      -9.672  17.483  68.064  1.00  0.00    -0.287 A  
HETATM    5  C   UNL     1     -10.233  18.754  67.911  1.00  0.00    -0.396 A  
HETATM    6  C   UNL     1     -10.553  16.264  68.004  1.00  0.00    -0.308 C  
HETATM    7  C   UNL     1      -9.438  19.887  68.012  1.00  0.00    -0.458 A  
HETATM    8  O   UNL     1     -11.777  16.387  67.946  1.00  0.00    -0.007 OA 
HETATM    9  C   UNL     1      -9.930  14.898  68.009  1.00  0.00    -0.220 C  
HETATM   10  O   UNL     1     -11.562  18.974  67.666  1.00  0.00     0.284 OA 
HETATM   11  H   UNL     1     -11.943  19.837  67.562  1.00  0.00     0.000 HD 
HETATM   12  C   UNL     1      -8.075  19.764  68.303  1.00  0.00    -0.322 A  
HETATM   13  C   UNL     1     -10.639  13.745  68.099  1.00  0.00    -0.253 C  
HETATM   14  C   UNL     1     -10.005  12.330  67.982  1.00  0.00    -0.202 C  
HETATM   15  O   UNL     1     -12.030  13.743  68.115  1.00  0.00    -0.362 OA 
HETATM   16  C   UNL     1      -7.447  18.519  68.479  1.00  0.00    -0.297 A  
HETATM   17  O   UNL     1     -10.514  11.841  66.717  1.00  0.00    -0.214 OA 
HETATM   18  H   UNL     1     -12.526  12.936  68.178  1.00  0.00     0.000 HD 
HETATM   19  H   UNL     1      -7.132   9.679  70.768  1.00  0.00     0.000 HD 
HETATM   20  C   UNL     1     -10.475  11.249  68.983  1.00  0.00    -0.194 C  
HETATM   21  C   UNL     1      -9.773   9.925  68.949  1.00  0.00    -0.176 C  
HETATM   22  H   UNL     1     -10.127  10.977  66.646  1.00  0.00     0.000 HD 
HETATM   23  C   UNL     1      -7.868  13.636  68.436  1.00  0.00    -0.140 C  
HETATM   24  C   UNL     1      -8.449  12.322  67.930  1.00  0.00    -0.165 C  
HETATM   25  O   UNL     1     -11.341  11.420  69.842  1.00  0.00    -0.270 OA 
HETATM   26  O   UNL     1      -8.044   9.576  70.525  1.00  0.00    -0.174 OA 
HETATM   27  C   UNL     1      -8.483  10.071  69.292  1.00  0.00    -0.163 C  
HETATM   28  C   UNL     1      -7.689  11.258  68.811  1.00  0.00    -0.138 C  
ENDROOT
BRANCH  16  29
HETATM   29  N   UNL     1      -6.098  18.485  68.828  1.00  0.00    -0.211 NA 
HETATM   30  C   UNL     1      -5.559  17.370  69.607  1.00  0.00    -0.213 C  
HETATM   31  C   UNL     1      -5.161  19.597  68.669  1.00  0.00    -0.191 C  
ENDBRANCH  16  29
BRANCH  21  32
HETATM   32  C   UNL     1      -9.860   8.969  67.801  1.00  0.00    -0.168 C  
HETATM   33  O   UNL     1      -8.893   8.356  67.346  1.00  0.00    -0.133 OA 
HETATM   34  H2  UNL     1     -11.918   9.171  67.652  1.00  0.00     0.000 HD 
HETATM   35  N   UNL     1     -11.083   8.721  67.277  1.00  0.00    -0.285 N  
HETATM   36  H1  UNL     1     -11.143   8.070  66.494  1.00  0.00     0.000 HD 
ENDBRANCH  21  32
BRANCH  28  37
HETATM   37  N   UNL     1      -6.378  10.992  68.170  1.00  0.00    -0.056 NA 
HETATM   38  C   UNL     1      -6.278  11.537  66.819  1.00  0.00    -0.140 C  
HETATM   39  C   UNL     1      -5.216  11.403  68.960  1.00  0.00    -0.043 C  
ENDBRANCH  28  37
TORSDOF 3
ENDMDL
MODEL       51
REMARK 921   NORMALIZED FREE ENERGY PREDICTED BY IDOCK:   -4.66 KCAL/MOL
REMARK 922        TOTAL FREE ENERGY PREDICTED BY IDOCK:   -5.94 KCAL/MOL
REMARK 923 INTER-LIGAND FREE ENERGY PREDICTED BY IDOCK:   -5.52 KCAL/MOL
REMARK 924 INTRA-LIGAND FREE ENERGY PREDICTED BY IDOCK:   -0.42 KCAL/MOL
REMARK 927      BINDING AFFINITY PREDICTED BY RF-SCORE:    0.00 PKD
ROOT
HETATM    1  C   UNL     1      -9.209  11.740  67.580  1.00  0.00    -0.180 C  
HETATM    2  C   UNL     1      -9.945  12.585  66.558  1.00  0.00    -0.252 C  
HETATM    3  C   UNL     1      -9.594  14.029  66.488  1.00  0.00    -0.307 A  
HETATM    4  C   UNL     1      -8.327  14.432  66.980  1.00  0.00    -0.172 A  
HETATM    5  C   UNL     1      -7.994  15.789  66.955  1.00  0.00    -0.250 A  
HETATM    6  C   UNL     1      -7.329  13.426  67.487  1.00  0.00    -0.156 C  
HETATM    7  C   UNL     1      -8.889  16.720  66.445  1.00  0.00    -0.331 A  
HETATM    8  O   UNL     1      -6.180  13.777  67.761  1.00  0.00    -0.150 OA 
HETATM    9  C   UNL     1      -7.744  11.994  67.662  1.00  0.00    -0.144 C  
HETATM   10  O   UNL     1      -6.803  16.288  67.406  1.00  0.00    -0.144 OA 
HETATM   11  H   UNL     1      -6.576  17.210  67.389  1.00  0.00     0.000 HD 
HETATM   12  C   UNL     1     -10.116  16.301  65.921  1.00  0.00    -0.381 A  
HETATM   13  C   UNL     1      -6.885  10.992  67.976  1.00  0.00    -0.067 C  
HETATM   14  C   UNL     1      -7.332   9.533  68.276  1.00  0.00    -0.077 C  
HETATM   15  O   UNL     1      -5.542  11.239  68.242  1.00  0.00    -0.046 OA 
HETATM   16  C   UNL     1     -10.511  14.951  65.905  1.00  0.00    -0.315 A  
HETATM   17  O   UNL     1      -7.072   9.391  69.695  1.00  0.00    -0.056 OA 
HETATM   18  H   UNL     1      -4.941  10.538  68.462  1.00  0.00     0.000 HD 
HETATM   19  H   UNL     1      -9.086   5.931  65.634  1.00  0.00     0.000 HD 
HETATM   20  C   UNL     1      -6.499   8.387  67.658  1.00  0.00    -0.057 C  
HETATM   21  C   UNL     1      -7.004   6.988  67.845  1.00  0.00    -0.083 C  
HETATM   22  H   UNL     1      -7.346   8.500  69.878  1.00  0.00     0.000 HD 
HETATM   23  C   UNL     1      -9.458  10.322  67.122  1.00  0.00    -0.184 C  
HETATM   24  C   UNL     1      -8.840   9.253  68.015  1.00  0.00    -0.128 C  
HETATM   25  O   UNL     1      -5.487   8.547  66.975  1.00  0.00    -0.036 OA 
HETATM   26  O   UNL     1      -8.251   6.042  66.072  1.00  0.00    -0.114 OA 
HETATM   27  C   UNL     1      -8.185   6.831  67.225  1.00  0.00    -0.121 C  
HETATM   28  C   UNL     1      -9.222   7.924  67.259  1.00  0.00    -0.142 C  
ENDROOT
BRANCH  16  29
HETATM   29  N   UNL     1     -11.724  14.608  65.308  1.00  0.00    -0.356 NA 
HETATM   30  C   UNL     1     -12.117  15.199  64.028  1.00  0.00    -0.049 C  
HETATM   31  C   UNL     1     -12.790  13.843  65.954  1.00  0.00    -0.339 C  
ENDBRANCH  16  29
BRANCH  21  32
HETATM   32  C   UNL     1      -7.060   6.296  69.171  1.00  0.00    -0.077 C  
HETATM   33  O   UNL     1      -6.422   6.660  70.160  1.00  0.00    -0.038 OA 
HETATM   34  H2  UNL     1      -8.490   4.942  68.523  1.00  0.00     0.000 HD 
HETATM   35  N   UNL     1      -7.908   5.249  69.302  1.00  0.00    -0.087 N  
HETATM   36  H1  UNL     1      -7.947   4.778  70.205  1.00  0.00     0.000 HD 
ENDBRANCH  21  32
BRANCH  28  37
HETATM   37  N   UNL     1     -10.599   7.550  67.666  1.00  0.00    -0.243 NA 
HETATM   38  C   UNL     1     -11.099   6.363  66.977  1.00  0.00    -0.329 C  
HETATM   39  C   UNL     1     -10.793   7.405  69.109  1.00  0.00    -0.111 C  
ENDBRANCH  28  37
TORSDOF 3
ENDMDL
MODEL       52
REMARK 921   NORMALIZED FREE ENERGY PREDICTED BY IDOCK:   -4.48 KCAL/MOL
REMARK 922        TOTAL FREE ENERGY PREDICTED BY IDOCK:   -5.72 KCAL/MOL
REMARK 923 INTER-LIGAND FREE ENERGY PREDICTED BY IDOCK:   -5.73 KCAL/MOL
REMARK 924 INTRA-LIGAND FREE ENERGY PREDICTED BY IDOCK:    0.01 KCAL/MOL
REMARK 927      BINDING AFFINITY PREDICTED BY RF-SCORE:    0.00 PKD
ROOT
HETATM    1  C   UNL     1      -9.461   8.228  69.159  1.00  0.00    -0.155 C  
HETATM    2  C   UNL     1      -8.932   8.030  70.567  1.00  0.00    -0.152 C  
HETATM    3  C   UNL     1      -8.221   6.755  70.855  1.00  0.00    -0.123 A  
HETATM    4  C   UNL     1      -7.657   6.046  69.764  1.00  0.00    -0.081 A  
HETATM    5  C   UNL     1      -7.016   4.829  70.011  1.00  0.00    -0.049 A  
HETATM    6  C   UNL     1      -7.702   6.597  68.365  1.00  0.00    -0.105 C  
HETATM    7  C   UNL     1      -6.927   4.334  71.305  1.00  0.00    -0.036 A  
HETATM    8  O   UNL     1      -7.071   6.047  67.461  1.00  0.00    -0.070 OA 
HETATM    9  C   UNL     1      -8.524   7.820  68.077  1.00  0.00    -0.123 C  
HETATM   10  O   UNL     1      -6.440   4.061  69.036  1.00  0.00    -0.035 OA 
HETATM   11  H   UNL     1      -6.005   3.234  69.203  1.00  0.00     0.000 HD 
HETATM   12  C   UNL     1      -7.448   5.069  72.375  1.00  0.00    -0.094 A  
HETATM   13  C   UNL     1      -8.517   8.472  66.886  1.00  0.00    -0.113 C  
HETATM   14  C   UNL     1      -9.458   9.662  66.548  1.00  0.00    -0.181 C  
HETATM   15  O   UNL     1      -7.790   7.996  65.799  1.00  0.00    -0.089 OA 
HETATM   16  C   UNL     1      -8.096   6.304  72.201  1.00  0.00    -0.109 A  
HETATM   17  O   UNL     1     -10.355   9.106  65.556  1.00  0.00    -0.145 OA 
HETATM   18  H   UNL     1      -7.785   8.452  64.966  1.00  0.00     0.000 HD 
HETATM   19  H   UNL     1      -9.762  14.233  67.979  1.00  0.00     0.000 HD 
HETATM   20  C   UNL     1      -8.842  10.875  65.812  1.00  0.00    -0.191 C  
HETATM   21  C   UNL     1      -9.720  12.071  65.599  1.00  0.00    -0.241 C  
HETATM   22  H   UNL     1     -10.930   9.833  65.350  1.00  0.00     0.000 HD 
HETATM   23  C   UNL     1      -9.722   9.713  69.078  1.00  0.00    -0.169 C  
HETATM   24  C   UNL     1     -10.301  10.181  67.749  1.00  0.00    -0.253 C  
HETATM   25  O   UNL     1      -7.669  10.948  65.444  1.00  0.00    -0.044 OA 
HETATM   26  O   UNL     1      -9.519  13.849  67.145  1.00  0.00    -0.229 OA 
HETATM   27  C   UNL     1     -10.064  12.614  66.778  1.00  0.00    -0.237 C  
HETATM   28  C   UNL     1     -10.405  11.740  67.957  1.00  0.00    -0.198 C  
ENDROOT
BRANCH  16  29
HETATM   29  N   UNL     1      -8.533   7.004  73.325  1.00  0.00    -0.118 NA 
HETATM   30  C   UNL     1      -7.581   7.725  74.170  1.00  0.00    -0.157 C  
HETATM   31  C   UNL     1      -9.878   6.920  73.896  1.00  0.00    -0.307 C  
ENDBRANCH  16  29
BRANCH  21  32
HETATM   32  C   UNL     1     -10.917  12.073  64.701  1.00  0.00    -0.317 C  
HETATM   33  O   UNL     1     -11.939  12.723  64.924  1.00  0.00    -0.355 OA 
HETATM   34  H2  UNL     1     -10.000  10.849  63.301  1.00  0.00     0.000 HD 
HETATM   35  N   UNL     1     -10.843  11.365  63.549  1.00  0.00    -0.581 N  
HETATM   36  H1  UNL     1     -11.659  11.366  62.937  1.00  0.00     0.000 HD 
ENDBRANCH  21  32
BRANCH  28  37
HETATM   37  N   UNL     1     -11.673  12.019  68.673  1.00  0.00    -0.309 NA 
HETATM   38  C   UNL     1     -12.266  10.828  69.277  1.00  0.00    -0.114 C  
HETATM   39  C   UNL     1     -11.593  13.092  69.665  1.00  0.00    -0.253 C  
ENDBRANCH  28  37
TORSDOF 3
ENDMDL
MODEL       53
REMARK 921   NORMALIZED FREE ENERGY PREDICTED BY IDOCK:   -4.38 KCAL/MOL
REMARK 922        TOTAL FREE ENERGY PREDICTED BY IDOCK:   -5.61 KCAL/MOL
REMARK 923 INTER-LIGAND FREE ENERGY PREDICTED BY IDOCK:   -5.24 KCAL/MOL
REMARK 924 INTRA-LIGAND FREE ENERGY PREDICTED BY IDOCK:   -0.37 KCAL/MOL
REMARK 927      BINDING AFFINITY PREDICTED BY RF-SCORE:    0.00 PKD
ROOT
HETATM    1  C   UNL     1      -8.415  11.239  68.814  1.00  0.00    -0.112 C  
HETATM    2  C   UNL     1      -9.330  12.443  68.700  1.00  0.00    -0.004 C  
HETATM    3  C   UNL     1      -8.692  13.764  68.450  1.00  0.00    -0.162 A  
HETATM    4  C   UNL     1      -7.401  13.779  67.864  1.00  0.00    -0.155 A  
HETATM    5  C   UNL     1      -6.771  15.009  67.654  1.00  0.00    -0.177 A  
HETATM    6  C   UNL     1      -6.722  12.507  67.431  1.00  0.00    -0.147 C  
HETATM    7  C   UNL     1      -7.407  16.191  68.006  1.00  0.00    -0.138 A  
HETATM    8  O   UNL     1      -5.676  12.553  66.783  1.00  0.00    -0.275 OA 
HETATM    9  C   UNL     1      -7.327  11.183  67.800  1.00  0.00    -0.093 C  
HETATM   10  O   UNL     1      -5.526  15.140  67.100  1.00  0.00    -0.262 OA 
HETATM   11  H   UNL     1      -5.098  15.976  66.957  1.00  0.00     0.000 HD 
HETATM   12  C   UNL     1      -8.700  16.160  68.540  1.00  0.00    -0.200 A  
HETATM   13  C   UNL     1      -6.871   9.991  67.339  1.00  0.00    -0.082 C  
HETATM   14  C   UNL     1      -7.418   8.615  67.815  1.00  0.00    -0.097 C  
HETATM   15  O   UNL     1      -5.737   9.904  66.539  1.00  0.00    -0.051 OA 
HETATM   16  C   UNL     1      -9.397  14.961  68.769  1.00  0.00    -0.203 A  
HETATM   17  O   UNL     1      -6.314   8.063  68.575  1.00  0.00    -0.050 OA 
HETATM   18  H   UNL     1      -5.417   9.069  66.217  1.00  0.00     0.000 HD 
HETATM   19  H   UNL     1     -11.528   6.218  67.186  1.00  0.00     0.000 HD 
HETATM   20  C   UNL     1      -7.668   7.533  66.740  1.00  0.00    -0.102 C  
HETATM   21  C   UNL     1      -8.312   6.254  67.184  1.00  0.00    -0.109 C  
HETATM   22  H   UNL     1      -6.649   7.223  68.866  1.00  0.00     0.000 HD 
HETATM   23  C   UNL     1      -9.344  10.062  68.634  1.00  0.00    -0.156 C  
HETATM   24  C   UNL     1      -8.667   8.701  68.740  1.00  0.00    -0.135 C  
HETATM   25  O   UNL     1      -7.432   7.672  65.539  1.00  0.00    -0.071 OA 
HETATM   26  O   UNL     1     -10.648   6.053  66.870  1.00  0.00    -0.251 OA 
HETATM   27  C   UNL     1      -9.557   6.488  67.630  1.00  0.00    -0.122 C  
HETATM   28  C   UNL     1      -9.860   7.710  68.460  1.00  0.00    -0.167 C  
ENDROOT
BRANCH  16  29
HETATM   29  N   UNL     1     -10.705  15.019  69.246  1.00  0.00    -0.240 NA 
HETATM   30  C   UNL     1     -11.838  14.872  68.332  1.00  0.00    -0.278 C  
HETATM   31  C   UNL     1     -11.088  15.435  70.595  1.00  0.00    -0.335 C  
ENDBRANCH  16  29
BRANCH  21  32
HETATM   32  C   UNL     1      -7.653   5.266  68.093  1.00  0.00    -0.080 C  
HETATM   33  O   UNL     1      -7.440   5.473  69.289  1.00  0.00    -0.074 OA 
HETATM   34  H2  UNL     1      -7.529   3.824  66.609  1.00  0.00     0.000 HD 
HETATM   35  N   UNL     1      -7.330   4.055  67.582  1.00  0.00    -0.067 N  
HETATM   36  H1  UNL     1      -6.880   3.381  68.202  1.00  0.00     0.000 HD 
ENDBRANCH  21  32
BRANCH  28  37
HETATM   37  N   UNL     1     -10.591   7.509  69.734  1.00  0.00    -0.238 NA 
HETATM   38  C   UNL     1     -11.378   6.278  69.757  1.00  0.00    -0.436 C  
HETATM   39  C   UNL     1      -9.760   7.590  70.936  1.00  0.00    -0.173 C  
ENDBRANCH  28  37
TORSDOF 3
ENDMDL
MODEL       54
REMARK 921   NORMALIZED FREE ENERGY PREDICTED BY IDOCK:   -4.38 KCAL/MOL
REMARK 922        TOTAL FREE ENERGY PREDICTED BY IDOCK:   -5.60 KCAL/MOL
REMARK 923 INTER-LIGAND FREE ENERGY PREDICTED BY IDOCK:   -5.33 KCAL/MOL
REMARK 924 INTRA-LIGAND FREE ENERGY PREDICTED BY IDOCK:   -0.27 KCAL/MOL
REMARK 927      BINDING AFFINITY PREDICTED BY RF-SCORE:    0.00 PKD
ROOT
HETATM    1  C   UNL     1      -8.812  15.889  68.549  1.00  0.00    -0.195 C  
HETATM    2  C   UNL     1      -9.456  17.183  68.091  1.00  0.00    -0.269 C  
HETATM    3  C   UNL     1      -8.552  18.257  67.596  1.00  0.00    -0.261 A  
HETATM    4  C   UNL     1      -7.269  17.882  67.124  1.00  0.00    -0.206 A  
HETATM    5  C   UNL     1      -6.393  18.880  66.688  1.00  0.00    -0.186 A  
HETATM    6  C   UNL     1      -6.854  16.437  67.048  1.00  0.00    -0.210 C  
HETATM    7  C   UNL     1      -6.783  20.212  66.709  1.00  0.00    -0.255 A  
HETATM    8  O   UNL     1      -5.801  16.123  66.491  1.00  0.00    -0.135 OA 
HETATM    9  C   UNL     1      -7.728  15.382  67.662  1.00  0.00    -0.180 C  
HETATM   10  O   UNL     1      -5.132  18.632  66.217  1.00  0.00    -0.134 OA 
HETATM   11  H   UNL     1      -4.537  19.310  65.921  1.00  0.00     0.000 HD 
HETATM   12  C   UNL     1      -8.070  20.560  67.134  1.00  0.00    -0.358 A  
HETATM   13  C   UNL     1      -7.514  14.049  67.524  1.00  0.00    -0.170 C  
HETATM   14  C   UNL     1      -8.346  12.960  68.258  1.00  0.00    -0.157 C  
HETATM   15  O   UNL     1      -6.398  13.556  66.855  1.00  0.00    -0.307 OA 
HETATM   16  C   UNL     1      -9.005  19.608  67.576  1.00  0.00    -0.317 A  
HETATM   17  O   UNL     1      -7.403  12.405  69.208  1.00  0.00    -0.314 OA 
HETATM   18  H   UNL     1      -6.248  12.623  66.759  1.00  0.00     0.000 HD 
HETATM   19  H   UNL     1     -12.841  11.321  67.876  1.00  0.00     0.000 HD 
HETATM   20  C   UNL     1      -8.781  11.721  67.442  1.00  0.00    -0.162 C  
HETATM   21  C   UNL     1      -9.688  10.735  68.116  1.00  0.00    -0.169 C  
HETATM   22  H   UNL     1      -7.912  11.740  69.656  1.00  0.00     0.000 HD 
HETATM   23  C   UNL     1      -9.957  14.904  68.571  1.00  0.00    -0.223 C  
HETATM   24  C   UNL     1      -9.577  13.505  69.038  1.00  0.00     0.251 C  
HETATM   25  O   UNL     1      -8.486  11.520  66.264  1.00  0.00    -0.174 OA 
HETATM   26  O   UNL     1     -12.004  10.918  67.676  1.00  0.00    -0.512 OA 
HETATM   27  C   UNL     1     -10.871  11.305  68.398  1.00  0.00    -0.205 C  
HETATM   28  C   UNL     1     -10.940  12.724  68.900  1.00  0.00    -0.231 C  
ENDROOT
BRANCH  16  29
HETATM   29  N   UNL     1     -10.287  20.030  67.924  1.00  0.00    -0.395 NA 
HETATM   30  C   UNL     1     -11.392  19.917  66.972  1.00  0.00     0.516 C  
HETATM   31  C   UNL     1     -10.621  20.800  69.122  1.00  0.00     0.775 C  
ENDBRANCH  16  29
BRANCH  21  32
HETATM   32  C   UNL     1      -9.273   9.886  69.276  1.00  0.00    -0.200 C  
HETATM   33  O   UNL     1      -8.225  10.048  69.903  1.00  0.00    -0.176 OA 
HETATM   34  H2  UNL     1     -11.030   8.785  69.234  1.00  0.00     0.000 HD 
HETATM   35  N   UNL     1     -10.131   8.925  69.694  1.00  0.00    -0.194 N  
HETATM   36  H1  UNL     1      -9.848   8.346  70.485  1.00  0.00     0.000 HD 
ENDBRANCH  21  32
BRANCH  28  37
HETATM   37  N   UNL     1     -11.735  12.979  70.126  1.00  0.00    -0.231 NA 
HETATM   38  C   UNL     1     -12.745  14.020  69.949  1.00  0.00    -0.009 C  
HETATM   39  C   UNL     1     -12.346  11.789  70.719  1.00  0.00    -0.337 C  
ENDBRANCH  28  37
TORSDOF 3
ENDMDL
MODEL       55
REMARK 921   NORMALIZED FREE ENERGY PREDICTED BY IDOCK:   -4.32 KCAL/MOL
REMARK 922        TOTAL FREE ENERGY PREDICTED BY IDOCK:   -5.54 KCAL/MOL
REMARK 923 INTER-LIGAND FREE ENERGY PREDICTED BY IDOCK:   -5.84 KCAL/MOL
REMARK 924 INTRA-LIGAND FREE ENERGY PREDICTED BY IDOCK:    0.29 KCAL/MOL
REMARK 927      BINDING AFFINITY PREDICTED BY RF-SCORE:    0.00 PKD
ROOT
HETATM    1  C   UNL     1      -8.567  10.649  68.170  1.00  0.00    -0.123 C  
HETATM    2  C   UNL     1      -7.333  10.615  69.051  1.00  0.00    -0.108 C  
HETATM    3  C   UNL     1      -6.677   9.295  69.254  1.00  0.00    -0.049 A  
HETATM    4  C   UNL     1      -6.903   8.283  68.286  1.00  0.00    -0.065 A  
HETATM    5  C   UNL     1      -6.324   7.025  68.478  1.00  0.00    -0.035 A  
HETATM    6  C   UNL     1      -7.716   8.551  67.048  1.00  0.00    -0.092 C  
HETATM    7  C   UNL     1      -5.534   6.781  69.592  1.00  0.00    -0.015 A  
HETATM    8  O   UNL     1      -7.768   7.712  66.148  1.00  0.00    -0.085 OA 
HETATM    9  C   UNL     1      -8.466   9.845  66.921  1.00  0.00    -0.125 C  
HETATM   10  O   UNL     1      -6.478   5.977  67.612  1.00  0.00    -0.043 OA 
HETATM   11  H   UNL     1      -6.085   5.123  67.742  1.00  0.00     0.000 HD 
HETATM   12  C   UNL     1      -5.283   7.805  70.513  1.00  0.00    -0.023 A  
HETATM   13  C   UNL     1      -9.107  10.238  65.791  1.00  0.00    -0.170 C  
HETATM   14  C   UNL     1      -9.985  11.518  65.697  1.00  0.00    -0.236 C  
HETATM   15  O   UNL     1      -9.184   9.415  64.672  1.00  0.00    -0.363 OA 
HETATM   16  C   UNL     1      -5.824   9.095  70.378  1.00  0.00    -0.036 A  
HETATM   17  O   UNL     1     -11.328  10.992  65.558  1.00  0.00     0.066 OA 
HETATM   18  H   UNL     1      -9.633   9.690  63.882  1.00  0.00     0.000 HD 
HETATM   19  H   UNL     1      -9.084  16.233  65.698  1.00  0.00     0.000 HD 
HETATM   20  C   UNL     1      -9.831  12.402  64.437  1.00  0.00    -0.090 C  
HETATM   21  C   UNL     1     -10.584  13.698  64.407  1.00  0.00    -0.360 C  
HETATM   22  H   UNL     1     -11.863  11.774  65.501  1.00  0.00     0.000 HD 
HETATM   23  C   UNL     1      -8.723  12.112  67.826  1.00  0.00    -0.171 C  
HETATM   24  C   UNL     1      -9.934  12.430  66.957  1.00  0.00    -0.218 C  
HETATM   25  O   UNL     1      -9.089  12.144  63.489  1.00  0.00     0.142 OA 
HETATM   26  O   UNL     1      -9.399  15.652  65.016  1.00  0.00     0.045 OA 
HETATM   27  C   UNL     1     -10.139  14.519  65.371  1.00  0.00    -0.364 C  
HETATM   28  C   UNL     1      -9.789  13.984  66.736  1.00  0.00    -0.273 C  
ENDROOT
BRANCH  16  29
HETATM   29  N   UNL     1      -5.476  10.076  71.305  1.00  0.00    -0.077 NA 
HETATM   30  C   UNL     1      -5.407   9.760  72.732  1.00  0.00     0.073 C  
HETATM   31  C   UNL     1      -5.369  11.506  71.014  1.00  0.00    -0.096 C  
ENDBRANCH  16  29
BRANCH  21  32
HETATM   32  C   UNL     1     -12.076  13.789  64.347  1.00  0.00    -0.436 C  
HETATM   33  O   UNL     1     -12.797  13.877  65.343  1.00  0.00    -0.662 OA 
HETATM   34  H2  UNL     1     -12.096  13.815  62.274  1.00  0.00     0.000 HD 
HETATM   35  N   UNL     1     -12.657  13.839  63.125  1.00  0.00    -0.971 N  
HETATM   36  H1  UNL     1     -13.674  13.901  63.084  1.00  0.00     0.000 HD 
ENDBRANCH  21  32
BRANCH  28  37
HETATM   37  N   UNL     1     -10.381  14.667  67.912  1.00  0.00    -0.236 NA 
HETATM   38  C   UNL     1     -10.688  16.074  67.666  1.00  0.00    -0.320 C  
HETATM   39  C   UNL     1     -11.549  13.996  68.486  1.00  0.00    -0.322 C  
ENDBRANCH  28  37
TORSDOF 3
ENDMDL
MODEL       56
REMARK 921   NORMALIZED FREE ENERGY PREDICTED BY IDOCK:   -4.27 KCAL/MOL
REMARK 922        TOTAL FREE ENERGY PREDICTED BY IDOCK:   -5.48 KCAL/MOL
REMARK 923 INTER-LIGAND FREE ENERGY PREDICTED BY IDOCK:   -5.54 KCAL/MOL
REMARK 924 INTRA-LIGAND FREE ENERGY PREDICTED BY IDOCK:    0.06 KCAL/MOL
REMARK 927      BINDING AFFINITY PREDICTED BY RF-SCORE:    0.00 PKD
ROOT
HETATM    1  C   UNL     1     -10.011   8.149  70.118  1.00  0.00    -0.187 C  
HETATM    2  C   UNL     1      -9.604   9.549  69.703  1.00  0.00    -0.216 C  
HETATM    3  C   UNL     1     -10.577  10.646  69.957  1.00  0.00    -0.150 A  
HETATM    4  C   UNL     1     -11.559  10.446  70.960  1.00  0.00    -0.384 A  
HETATM    5  C   UNL     1     -12.504  11.451  71.188  1.00  0.00    -0.360 A  
HETATM    6  C   UNL     1     -11.574   9.199  71.803  1.00  0.00    -0.387 C  
HETATM    7  C   UNL     1     -12.469  12.625  70.450  1.00  0.00    -0.219 A  
HETATM    8  O   UNL     1     -12.332   9.114  72.770  1.00  0.00    -0.133 OA 
HETATM    9  C   UNL     1     -10.664   8.058  71.453  1.00  0.00    -0.270 C  
HETATM   10  O   UNL     1     -13.495  11.363  72.128  1.00  0.00    -0.548 OA 
HETATM   11  H   UNL     1     -14.137  12.045  72.283  1.00  0.00     0.000 HD 
HETATM   12  C   UNL     1     -11.466  12.825  69.495  1.00  0.00    -0.293 A  
HETATM   13  C   UNL     1     -10.503   6.956  72.228  1.00  0.00    -0.207 C  
HETATM   14  C   UNL     1      -9.656   5.721  71.809  1.00  0.00    -0.155 C  
HETATM   15  O   UNL     1     -11.247   6.765  73.389  1.00  0.00    -0.503 OA 
HETATM   16  C   UNL     1     -10.479  11.863  69.221  1.00  0.00     0.091 A  
HETATM   17  O   UNL     1     -10.652   4.691  71.597  1.00  0.00    -0.110 OA 
HETATM   18  H   UNL     1     -11.134   5.994  73.931  1.00  0.00     0.000 HD 
HETATM   19  H   UNL     1      -4.962   4.875  71.275  1.00  0.00     0.000 HD 
HETATM   20  C   UNL     1      -8.732   5.090  72.876  1.00  0.00    -0.118 C  
HETATM   21  C   UNL     1      -7.825   3.981  72.435  1.00  0.00    -0.081 C  
HETATM   22  H   UNL     1     -10.134   3.937  71.340  1.00  0.00     0.000 HD 
HETATM   23  C   UNL     1      -8.708   7.384  70.132  1.00  0.00    -0.143 C  
HETATM   24  C   UNL     1      -8.846   5.911  70.494  1.00  0.00    -0.147 C  
HETATM   25  O   UNL     1      -8.647   5.475  74.043  1.00  0.00    -0.115 OA 
HETATM   26  O   UNL     1      -5.591   4.555  71.909  1.00  0.00    -0.007 OA 
HETATM   27  C   UNL     1      -6.934   4.435  71.538  1.00  0.00    -0.038 C  
HETATM   28  C   UNL     1      -7.348   5.419  70.474  1.00  0.00    -0.071 C  
ENDROOT
BRANCH  16  29
HETATM   29  N   UNL     1      -9.477  12.164  68.299  1.00  0.00    -0.207 NA 
HETATM   30  C   UNL     1      -8.067  12.112  68.688  1.00  0.00    -0.048 C  
HETATM   31  C   UNL     1      -9.701  12.755  66.980  1.00  0.00    -0.224 C  
ENDBRANCH  16  29
BRANCH  21  32
HETATM   32  C   UNL     1      -8.312   2.638  71.994  1.00  0.00    -0.058 C  
HETATM   33  O   UNL     1      -8.495   2.330  70.814  1.00  0.00    -0.049 OA 
HETATM   34  H2  UNL     1      -8.318   1.887  73.927  1.00  0.00     0.000 HD 
HETATM   35  N   UNL     1      -8.501   1.691  72.943  1.00  0.00    -0.057 N  
HETATM   36  H1  UNL     1      -8.834   0.775  72.642  1.00  0.00     0.000 HD 
ENDBRANCH  21  32
BRANCH  28  37
HETATM   37  N   UNL     1      -6.993   5.101  69.070  1.00  0.00    -0.054 NA 
HETATM   38  C   UNL     1      -5.683   4.469  68.938  1.00  0.00    -0.017 C  
HETATM   39  C   UNL     1      -7.997   4.320  68.347  1.00  0.00    -0.078 C  
ENDBRANCH  28  37
TORSDOF 3
ENDMDL
MODEL       57
REMARK 921   NORMALIZED FREE ENERGY PREDICTED BY IDOCK:   -4.25 KCAL/MOL
REMARK 922        TOTAL FREE ENERGY PREDICTED BY IDOCK:   -5.45 KCAL/MOL
REMARK 923 INTER-LIGAND FREE ENERGY PREDICTED BY IDOCK:   -5.00 KCAL/MOL
REMARK 924 INTRA-LIGAND FREE ENERGY PREDICTED BY IDOCK:   -0.46 KCAL/MOL
REMARK 927      BINDING AFFINITY PREDICTED BY RF-SCORE:    0.00 PKD
ROOT
HETATM    1  C   UNL     1      -8.634  10.012  68.447  1.00  0.00    -0.113 C  
HETATM    2  C   UNL     1      -8.691  11.507  68.701  1.00  0.00    -0.103 C  
HETATM    3  C   UNL     1      -9.152  12.371  67.581  1.00  0.00    -0.186 A  
HETATM    4  C   UNL     1      -9.946  11.779  66.566  1.00  0.00    -0.229 A  
HETATM    5  C   UNL     1     -10.359  12.567  65.488  1.00  0.00    -0.280 A  
HETATM    6  C   UNL     1     -10.381  10.341  66.651  1.00  0.00    -0.219 C  
HETATM    7  C   UNL     1     -10.004  13.907  65.424  1.00  0.00    -0.274 A  
HETATM    8  O   UNL     1     -11.197   9.891  65.846  1.00  0.00     0.735 OA 
HETATM    9  C   UNL     1      -9.809   9.457  67.721  1.00  0.00    -0.207 C  
HETATM   10  O   UNL     1     -11.124  12.100  64.454  1.00  0.00    -0.301 OA 
HETATM   11  H   UNL     1     -11.404  12.635  63.721  1.00  0.00     0.000 HD 
HETATM   12  C   UNL     1      -9.259  14.487  66.457  1.00  0.00    -0.282 A  
HETATM   13  C   UNL     1     -10.239   8.193  67.967  1.00  0.00    -0.212 C  
HETATM   14  C   UNL     1      -9.567   7.236  68.990  1.00  0.00    -0.147 C  
HETATM   15  O   UNL     1     -11.209   7.587  67.175  1.00  0.00    -0.504 OA 
HETATM   16  C   UNL     1      -8.819  13.757  67.575  1.00  0.00    -0.197 A  
HETATM   17  O   UNL     1      -8.961   6.223  68.150  1.00  0.00    -0.117 OA 
HETATM   18  H   UNL     1     -11.511   6.703  67.347  1.00  0.00     0.000 HD 
HETATM   19  H   UNL     1      -9.298   7.068  73.780  1.00  0.00     0.000 HD 
HETATM   20  C   UNL     1     -10.493   6.407  69.912  1.00  0.00    -0.213 C  
HETATM   21  C   UNL     1      -9.843   5.581  70.980  1.00  0.00    -0.238 C  
HETATM   22  H   UNL     1      -8.550   5.638  68.776  1.00  0.00     0.000 HD 
HETATM   23  C   UNL     1      -8.558   9.415  69.832  1.00  0.00    -0.201 C  
HETATM   24  C   UNL     1      -8.456   7.895  69.859  1.00  0.00    -0.127 C  
HETATM   25  O   UNL     1     -11.723   6.427  69.867  1.00  0.00    -0.426 OA 
HETATM   26  O   UNL     1      -9.742   6.508  73.154  1.00  0.00    -0.152 OA 
HETATM   27  C   UNL     1      -9.215   6.372  71.866  1.00  0.00    -0.149 C  
HETATM   28  C   UNL     1      -8.449   7.586  71.404  1.00  0.00    -0.112 C  
ENDROOT
BRANCH  16  29
HETATM   29  N   UNL     1      -8.135  14.422  68.591  1.00  0.00    -0.145 NA 
HETATM   30  C   UNL     1      -8.820  15.406  69.430  1.00  0.00    -0.251 C  
HETATM   31  C   UNL     1      -6.685  14.393  68.785  1.00  0.00    -0.093 C  
ENDBRANCH  16  29
BRANCH  21  32
HETATM   32  C   UNL     1      -8.980   4.392  70.700  1.00  0.00    -0.107 C  
HETATM   33  O   UNL     1      -8.989   3.777  69.632  1.00  0.00    -0.086 OA 
HETATM   34  H2  UNL     1      -8.023   4.521  72.534  1.00  0.00     0.000 HD 
HETATM   35  N   UNL     1      -8.097   4.013  71.653  1.00  0.00    -0.076 N  
HETATM   36  H1  UNL     1      -7.508   3.202  71.462  1.00  0.00     0.000 HD 
ENDBRANCH  21  32
BRANCH  28  37
HETATM   37  N   UNL     1      -7.058   7.745  71.893  1.00  0.00    -0.064 NA 
HETATM   38  C   UNL     1      -6.082   7.879  70.814  1.00  0.00    -0.033 C  
HETATM   39  C   UNL     1      -6.871   8.818  72.869  1.00  0.00     0.114 C  
ENDBRANCH  28  37
TORSDOF 3
ENDMDL
MODEL       58
REMARK 921   NORMALIZED FREE ENERGY PREDICTED BY IDOCK:   -4.19 KCAL/MOL
REMARK 922        TOTAL FREE ENERGY PREDICTED BY IDOCK:   -5.38 KCAL/MOL
REMARK 923 INTER-LIGAND FREE ENERGY PREDICTED BY IDOCK:   -5.01 KCAL/MOL
REMARK 924 INTRA-LIGAND FREE ENERGY PREDICTED BY IDOCK:   -0.37 KCAL/MOL
REMARK 927      BINDING AFFINITY PREDICTED BY RF-SCORE:    0.00 PKD
ROOT
HETATM    1  C   UNL     1      -8.277   8.723  69.500  1.00  0.00    -0.111 C  
HETATM    2  C   UNL     1      -7.914  10.188  69.645  1.00  0.00    -0.181 C  
HETATM    3  C   UNL     1      -8.269  11.093  68.518  1.00  0.00    -0.149 A  
HETATM    4  C   UNL     1      -9.307  10.689  67.641  1.00  0.00    -0.156 A  
HETATM    5  C   UNL     1      -9.631  11.510  66.557  1.00  0.00    -0.205 A  
HETATM    6  C   UNL     1     -10.086   9.424  67.881  1.00  0.00    -0.194 C  
HETATM    7  C   UNL     1      -8.951  12.702  66.354  1.00  0.00    -0.056 A  
HETATM    8  O   UNL     1     -11.084   9.173  67.203  1.00  0.00    -0.003 OA 
HETATM    9  C   UNL     1      -9.636   8.468  68.948  1.00  0.00    -0.160 C  
HETATM   10  O   UNL     1     -10.611  11.217  65.648  1.00  0.00    -0.259 OA 
HETATM   11  H   UNL     1     -10.831  11.774  64.911  1.00  0.00     0.000 HD 
HETATM   12  C   UNL     1      -7.960  13.108  67.255  1.00  0.00    -0.140 A  
HETATM   13  C   UNL     1     -10.347   7.378  69.333  1.00  0.00    -0.210 C  
HETATM   14  C   UNL     1      -9.825   6.323  70.349  1.00  0.00    -0.176 C  
HETATM   15  O   UNL     1     -11.530   7.017  68.698  1.00  0.00    -0.486 OA 
HETATM   16  C   UNL     1      -7.591  12.338  68.371  1.00  0.00    -0.128 A  
HETATM   17  O   UNL     1      -9.610   5.148  69.528  1.00  0.00    -0.134 OA 
HETATM   18  H   UNL     1     -12.027   6.254  68.967  1.00  0.00     0.000 HD 
HETATM   19  H   UNL     1      -9.023   6.305  75.081  1.00  0.00     0.000 HD 
HETATM   20  C   UNL     1     -10.814   5.814  71.424  1.00  0.00    -0.251 C  
HETATM   21  C   UNL     1     -10.275   4.893  72.477  1.00  0.00    -0.248 C  
HETATM   22  H   UNL     1      -9.291   4.504  70.149  1.00  0.00     0.000 HD 
HETATM   23  C   UNL     1      -8.190   8.190  70.911  1.00  0.00    -0.110 C  
HETATM   24  C   UNL     1      -8.484   6.700  71.041  1.00  0.00    -0.129 C  
HETATM   25  O   UNL     1     -11.993   6.159  71.509  1.00  0.00    -0.249 OA 
HETATM   26  O   UNL     1      -9.671   5.856  74.550  1.00  0.00    -0.184 OA 
HETATM   27  C   UNL     1      -9.359   5.527  73.227  1.00  0.00    -0.131 C  
HETATM   28  C   UNL     1      -8.367   6.470  72.596  1.00  0.00    -0.117 C  
ENDROOT
BRANCH  16  29
HETATM   29  N   UNL     1      -6.638  12.842  69.256  1.00  0.00    -0.103 NA 
HETATM   30  C   UNL     1      -6.735  14.216  69.751  1.00  0.00    -0.065 C  
HETATM   31  C   UNL     1      -5.378  12.182  69.597  1.00  0.00    -0.077 C  
ENDBRANCH  16  29
BRANCH  21  32
HETATM   32  C   UNL     1      -9.790   3.506  72.196  1.00  0.00    -0.168 C  
HETATM   33  O   UNL     1      -8.828   3.250  71.469  1.00  0.00    -0.079 OA 
HETATM   34  H2  UNL     1     -11.180   2.648  73.474  1.00  0.00     0.000 HD 
HETATM   35  N   UNL     1     -10.409   2.480  72.828  1.00  0.00    -0.154 N  
HETATM   36  H1  UNL     1     -10.079   1.534  72.637  1.00  0.00     0.000 HD 
ENDBRANCH  21  32
BRANCH  28  37
HETATM   37  N   UNL     1      -6.933   6.275  72.920  1.00  0.00    -0.078 NA 
HETATM   38  C   UNL     1      -6.530   6.931  74.161  1.00  0.00    -0.075 C  
HETATM   39  C   UNL     1      -6.493   4.879  72.930  1.00  0.00    -0.047 C  
ENDBRANCH  28  37
TORSDOF 3
ENDMDL
MODEL       59
REMARK 921   NORMALIZED FREE ENERGY PREDICTED BY IDOCK:   -4.16 KCAL/MOL
REMARK 922        TOTAL FREE ENERGY PREDICTED BY IDOCK:   -5.35 KCAL/MOL
REMARK 923 INTER-LIGAND FREE ENERGY PREDICTED BY IDOCK:   -5.99 KCAL/MOL
REMARK 924 INTRA-LIGAND FREE ENERGY PREDICTED BY IDOCK:    0.64 KCAL/MOL
REMARK 927      BINDING AFFINITY PREDICTED BY RF-SCORE:    0.00 PKD
ROOT
HETATM    1  C   UNL     1      -7.950  14.881  67.707  1.00  0.00    -0.161 C  
HETATM    2  C   UNL     1      -7.316  15.023  69.077  1.00  0.00    -0.151 C  
HETATM    3  C   UNL     1      -6.751  16.353  69.433  1.00  0.00    -0.215 A  
HETATM    4  C   UNL     1      -7.239  17.490  68.741  1.00  0.00    -0.257 A  
HETATM    5  C   UNL     1      -6.696  18.743  69.036  1.00  0.00    -0.283 A  
HETATM    6  C   UNL     1      -8.351  17.376  67.732  1.00  0.00    -0.218 C  
HETATM    7  C   UNL     1      -5.704  18.867  69.999  1.00  0.00    -0.262 A  
HETATM    8  O   UNL     1      -8.866  18.390  67.261  1.00  0.00    -0.254 OA 
HETATM    9  C   UNL     1      -8.822  16.017  67.301  1.00  0.00    -0.207 C  
HETATM   10  O   UNL     1      -7.088  19.905  68.428  1.00  0.00    -0.289 OA 
HETATM   11  H   UNL     1      -6.719  20.756  68.629  1.00  0.00     0.000 HD 
HETATM   12  C   UNL     1      -5.267  17.741  70.706  1.00  0.00    -0.278 A  
HETATM   13  C   UNL     1      -9.905  15.809  66.509  1.00  0.00    -0.269 C  
HETATM   14  C   UNL     1     -10.321  14.415  65.964  1.00  0.00    -0.309 C  
HETATM   15  O   UNL     1     -10.624  16.869  65.965  1.00  0.00    -0.304 OA 
HETATM   16  C   UNL     1      -5.776  16.453  70.467  1.00  0.00    -0.042 A  
HETATM   17  O   UNL     1     -10.052  14.519  64.544  1.00  0.00    -0.571 OA 
HETATM   18  H   UNL     1     -11.381  16.724  65.411  1.00  0.00     0.000 HD 
HETATM   19  H   UNL     1     -12.167  10.440  67.921  1.00  0.00     0.000 HD 
HETATM   20  C   UNL     1     -11.823  14.049  66.003  1.00  0.00    -0.388 C  
HETATM   21  C   UNL     1     -12.206  12.658  65.593  1.00  0.00    -0.474 C  
HETATM   22  H   UNL     1     -10.306  13.666  64.211  1.00  0.00     0.000 HD 
HETATM   23  C   UNL     1      -8.772  13.619  67.819  1.00  0.00    -0.184 C  
HETATM   24  C   UNL     1      -9.501  13.224  66.541  1.00  0.00    -0.251 C  
HETATM   25  O   UNL     1     -12.715  14.798  66.402  1.00  0.00     0.112 OA 
HETATM   26  O   UNL     1     -12.535  11.075  67.319  1.00  0.00     1.064 OA 
HETATM   27  C   UNL     1     -11.685  11.760  66.446  1.00  0.00    -0.051 C  
HETATM   28  C   UNL     1     -10.289  11.935  66.988  1.00  0.00    -0.212 C  
ENDROOT
BRANCH  16  29
HETATM   29  N   UNL     1      -5.333  15.393  71.257  1.00  0.00    -0.071 NA 
HETATM   30  C   UNL     1      -5.229  14.043  70.702  1.00  0.00    -0.114 C  
HETATM   31  C   UNL     1      -5.147  15.447  72.707  1.00  0.00     0.457 C  
ENDBRANCH  16  29
BRANCH  21  32
HETATM   32  C   UNL     1     -12.066  12.136  64.199  1.00  0.00    -0.409 C  
HETATM   33  O   UNL     1     -12.598  12.656  63.216  1.00  0.00    -0.669 OA 
HETATM   34  H2  UNL     1     -10.760  10.634  64.779  1.00  0.00     0.000 HD 
HETATM   35  N   UNL     1     -11.258  11.068  64.002  1.00  0.00    -0.304 N  
HETATM   36  H1  UNL     1     -11.162  10.711  63.051  1.00  0.00     0.000 HD 
ENDBRANCH  21  32
BRANCH  28  37
HETATM   37  N   UNL     1      -9.365  10.779  66.886  1.00  0.00    -0.159 NA 
HETATM   38  C   UNL     1      -8.072  11.127  66.302  1.00  0.00    -0.142 C  
HETATM   39  C   UNL     1      -9.165  10.044  68.135  1.00  0.00    -0.128 C  
ENDBRANCH  28  37
TORSDOF 3
ENDMDL
MODEL       60
REMARK 921   NORMALIZED FREE ENERGY PREDICTED BY IDOCK:   -4.02 KCAL/MOL
REMARK 922        TOTAL FREE ENERGY PREDICTED BY IDOCK:   -5.19 KCAL/MOL
REMARK 923 INTER-LIGAND FREE ENERGY PREDICTED BY IDOCK:   -4.58 KCAL/MOL
REMARK 924 INTRA-LIGAND FREE ENERGY PREDICTED BY IDOCK:   -0.61 KCAL/MOL
REMARK 927      BINDING AFFINITY PREDICTED BY RF-SCORE:    0.00 PKD
ROOT
HETATM    1  C   UNL     1      -8.912   6.449  68.896  1.00  0.00    -0.123 C  
HETATM    2  C   UNL     1      -8.123   5.666  69.928  1.00  0.00    -0.095 C  
HETATM    3  C   UNL     1      -8.431   4.217  70.066  1.00  0.00    -0.089 A  
HETATM    4  C   UNL     1      -9.038   3.558  68.967  1.00  0.00    -0.202 A  
HETATM    5  C   UNL     1      -9.367   2.205  69.091  1.00  0.00    -0.117 A  
HETATM    6  C   UNL     1      -9.293   4.274  67.668  1.00  0.00    -0.161 C  
HETATM    7  C   UNL     1      -9.092   1.522  70.267  1.00  0.00    -0.143 A  
HETATM    8  O   UNL     1      -9.673   3.646  66.678  1.00  0.00    -0.182 OA 
HETATM    9  C   UNL     1      -9.088   5.759  67.588  1.00  0.00    -0.106 C  
HETATM   10  O   UNL     1      -9.957   1.472  68.097  1.00  0.00    -0.319 OA 
HETATM   11  H   UNL     1     -10.180   0.553  68.180  1.00  0.00     0.000 HD 
HETATM   12  C   UNL     1      -8.451   2.176  71.325  1.00  0.00    -0.085 A  
HETATM   13  C   UNL     1      -9.155   6.470  66.434  1.00  0.00    -0.155 C  
HETATM   14  C   UNL     1      -9.063   8.020  66.368  1.00  0.00    -0.183 C  
HETATM   15  O   UNL     1      -9.504   5.871  65.228  1.00  0.00    -0.359 OA 
HETATM   16  C   UNL     1      -8.083   3.532  71.266  1.00  0.00    -0.060 A  
HETATM   17  O   UNL     1     -10.403   8.417  65.987  1.00  0.00    -0.316 OA 
HETATM   18  H   UNL     1      -9.551   6.368  64.421  1.00  0.00     0.000 HD 
HETATM   19  H   UNL     1      -5.551  11.224  67.034  1.00  0.00     0.000 HD 
HETATM   20  C   UNL     1      -8.191   8.640  65.252  1.00  0.00    -0.147 C  
HETATM   21  C   UNL     1      -8.004  10.127  65.267  1.00  0.00    -0.145 C  
HETATM   22  H   UNL     1     -10.347   9.364  65.948  1.00  0.00     0.000 HD 
HETATM   23  C   UNL     1      -8.102   7.710  68.704  1.00  0.00    -0.127 C  
HETATM   24  C   UNL     1      -8.706   8.704  67.720  1.00  0.00    -0.137 C  
HETATM   25  O   UNL     1      -7.594   7.993  64.391  1.00  0.00    -0.100 OA 
HETATM   26  O   UNL     1      -6.022  10.958  66.253  1.00  0.00    -0.110 OA 
HETATM   27  C   UNL     1      -7.339  10.503  66.372  1.00  0.00    -0.129 C  
HETATM   28  C   UNL     1      -7.628   9.854  67.701  1.00  0.00    -0.091 C  
ENDROOT
BRANCH  16  29
HETATM   29  N   UNL     1      -7.392   4.093  72.338  1.00  0.00    -0.065 NA 
HETATM   30  C   UNL     1      -8.064   5.011  73.258  1.00  0.00    -0.104 C  
HETATM   31  C   UNL     1      -5.944   4.022  72.534  1.00  0.00    -0.012 C  
ENDBRANCH  16  29
BRANCH  21  32
HETATM   32  C   UNL     1      -9.108  11.105  65.014  1.00  0.00    -0.121 C  
HETATM   33  O   UNL     1      -9.065  12.289  65.354  1.00  0.00     0.124 OA 
HETATM   34  H2  UNL     1     -10.244   9.715  63.977  1.00  0.00     0.000 HD 
HETATM   35  N   UNL     1     -10.186  10.674  64.318  1.00  0.00    -0.353 N  
HETATM   36  H1  UNL     1     -10.939  11.341  64.145  1.00  0.00     0.000 HD 
ENDBRANCH  21  32
BRANCH  28  37
HETATM   37  N   UNL     1      -7.895  10.746  68.855  1.00  0.00    -0.127 NA 
HETATM   38  C   UNL     1      -6.726  10.952  69.706  1.00  0.00    -0.144 C  
HETATM   39  C   UNL     1      -8.489  12.037  68.506  1.00  0.00    -0.098 C  
ENDBRANCH  28  37
TORSDOF 3
ENDMDL
MODEL       61
REMARK 921   NORMALIZED FREE ENERGY PREDICTED BY IDOCK:   -4.02 KCAL/MOL
REMARK 922        TOTAL FREE ENERGY PREDICTED BY IDOCK:   -5.18 KCAL/MOL
REMARK 923 INTER-LIGAND FREE ENERGY PREDICTED BY IDOCK:   -5.88 KCAL/MOL
REMARK 924 INTRA-LIGAND FREE ENERGY PREDICTED BY IDOCK:    0.70 KCAL/MOL
REMARK 927      BINDING AFFINITY PREDICTED BY RF-SCORE:    0.00 PKD
ROOT
HETATM    1  C   UNL     1      -8.541  12.071  68.300  1.00  0.00    -0.174 C  
HETATM    2  C   UNL     1      -7.623  10.922  67.930  1.00  0.00    -0.095 C  
HETATM    3  C   UNL     1      -8.192   9.548  67.989  1.00  0.00    -0.114 A  
HETATM    4  C   UNL     1      -9.600   9.406  67.900  1.00  0.00    -0.155 A  
HETATM    5  C   UNL     1     -10.155   8.126  67.989  1.00  0.00    -0.197 A  
HETATM    6  C   UNL     1     -10.494  10.595  67.672  1.00  0.00    -0.227 C  
HETATM    7  C   UNL     1      -9.337   7.018  68.151  1.00  0.00    -0.125 A  
HETATM    8  O   UNL     1     -11.693  10.434  67.440  1.00  0.00    -0.177 OA 
HETATM    9  C   UNL     1      -9.916  11.979  67.735  1.00  0.00    -0.199 C  
HETATM   10  O   UNL     1     -11.499   7.874  67.919  1.00  0.00     0.077 OA 
HETATM   11  H   UNL     1     -11.876   7.005  67.980  1.00  0.00     0.000 HD 
HETATM   12  C   UNL     1      -7.946   7.171  68.191  1.00  0.00    -0.119 A  
HETATM   13  C   UNL     1     -10.605  13.101  67.407  1.00  0.00    -0.242 C  
HETATM   14  C   UNL     1     -10.047  14.541  67.588  1.00  0.00    -0.228 C  
HETATM   15  O   UNL     1     -11.950  13.054  67.056  1.00  0.00    -0.383 OA 
HETATM   16  C   UNL     1      -7.320   8.426  68.097  1.00  0.00    -0.096 A  
HETATM   17  O   UNL     1     -10.858  15.080  68.660  1.00  0.00    -0.235 OA 
HETATM   18  H   UNL     1     -12.432  13.839  66.827  1.00  0.00     0.000 HD 
HETATM   19  H   UNL     1      -6.639  17.136  65.423  1.00  0.00     0.000 HD 
HETATM   20  C   UNL     1     -10.282  15.550  66.440  1.00  0.00    -0.289 C  
HETATM   21  C   UNL     1      -9.637  16.898  66.562  1.00  0.00    -0.295 C  
HETATM   22  H   UNL     1     -10.517  15.959  68.771  1.00  0.00     0.000 HD 
HETATM   23  C   UNL     1      -7.839  13.287  67.743  1.00  0.00    -0.157 C  
HETATM   24  C   UNL     1      -8.551  14.606  68.013  1.00  0.00    -0.162 C  
HETATM   25  O   UNL     1     -10.910  15.303  65.409  1.00  0.00    -0.341 OA 
HETATM   26  O   UNL     1      -7.584  17.221  65.432  1.00  0.00     0.026 OA 
HETATM   27  C   UNL     1      -8.299  16.778  66.550  1.00  0.00    -0.285 C  
HETATM   28  C   UNL     1      -7.622  15.646  67.279  1.00  0.00    -0.214 C  
ENDROOT
BRANCH  16  29
HETATM   29  N   UNL     1      -5.927   8.488  68.083  1.00  0.00    -0.045 NA 
HETATM   30  C   UNL     1      -5.137   7.698  69.027  1.00  0.00    -0.018 C  
HETATM   31  C   UNL     1      -5.138   9.461  67.326  1.00  0.00    -0.036 C  
ENDBRANCH  16  29
BRANCH  21  32
HETATM   32  C   UNL     1     -10.019  17.910  67.595  1.00  0.00    -0.324 C  
HETATM   33  O   UNL     1     -11.008  18.641  67.504  1.00  0.00    -0.392 OA 
HETATM   34  H2  UNL     1      -8.468  17.365  68.857  1.00  0.00     0.000 HD 
HETATM   35  N   UNL     1      -9.268  17.981  68.719  1.00  0.00    -0.261 N  
HETATM   36  H1  UNL     1      -9.529  18.672  69.423  1.00  0.00     0.000 HD 
ENDBRANCH  21  32
BRANCH  28  37
HETATM   37  N   UNL     1      -6.511  15.991  68.200  1.00  0.00    -0.117 NA 
HETATM   38  C   UNL     1      -5.192  15.842  67.591  1.00  0.00    -0.087 C  
HETATM   39  C   UNL     1      -6.623  17.308  68.827  1.00  0.00    -0.197 C  
ENDBRANCH  28  37
TORSDOF 3
ENDMDL
MODEL       62
REMARK 921   NORMALIZED FREE ENERGY PREDICTED BY IDOCK:   -3.93 KCAL/MOL
REMARK 922        TOTAL FREE ENERGY PREDICTED BY IDOCK:   -5.08 KCAL/MOL
REMARK 923 INTER-LIGAND FREE ENERGY PREDICTED BY IDOCK:   -4.74 KCAL/MOL
REMARK 924 INTRA-LIGAND FREE ENERGY PREDICTED BY IDOCK:   -0.34 KCAL/MOL
REMARK 927      BINDING AFFINITY PREDICTED BY RF-SCORE:    0.00 PKD
ROOT
HETATM    1  C   UNL     1      -9.206  11.601  68.290  1.00  0.00    -0.187 C  
HETATM    2  C   UNL     1      -9.435  10.516  69.326  1.00  0.00    -0.191 C  
HETATM    3  C   UNL     1      -8.594   9.292  69.228  1.00  0.00    -0.139 A  
HETATM    4  C   UNL     1      -7.357   9.387  68.542  1.00  0.00    -0.079 A  
HETATM    5  C   UNL     1      -6.570   8.240  68.409  1.00  0.00    -0.060 A  
HETATM    6  C   UNL     1      -6.864  10.700  67.994  1.00  0.00    -0.072 C  
HETATM    7  C   UNL     1      -6.993   7.034  68.952  1.00  0.00    -0.079 A  
HETATM    8  O   UNL     1      -5.721  10.793  67.544  1.00  0.00    -0.043 OA 
HETATM    9  C   UNL     1      -7.776  11.892  67.997  1.00  0.00    -0.132 C  
HETATM   10  O   UNL     1      -5.362   8.216  67.765  1.00  0.00    -0.032 OA 
HETATM   11  H   UNL     1      -4.828   7.437  67.675  1.00  0.00     0.000 HD 
HETATM   12  C   UNL     1      -8.194   6.968  69.666  1.00  0.00    -0.131 A  
HETATM   13  C   UNL     1      -7.381  13.146  67.658  1.00  0.00    -0.154 C  
HETATM   14  C   UNL     1      -8.351  14.355  67.542  1.00  0.00    -0.187 C  
HETATM   15  O   UNL     1      -6.093  13.405  67.199  1.00  0.00    -0.439 OA 
HETATM   16  C   UNL     1      -9.030   8.084  69.846  1.00  0.00    -0.145 A  
HETATM   17  O   UNL     1      -8.377  14.626  66.119  1.00  0.00    -0.185 OA 
HETATM   18  H   UNL     1      -5.817  14.282  66.961  1.00  0.00     0.000 HD 
HETATM   19  H   UNL     1     -10.832  17.002  70.685  1.00  0.00     0.000 HD 
HETATM   20  C   UNL     1      -7.888  15.704  68.140  1.00  0.00    -0.128 C  
HETATM   21  C   UNL     1      -8.874  16.834  68.139  1.00  0.00    -0.223 C  
HETATM   22  H   UNL     1      -8.969  15.365  66.049  1.00  0.00     0.000 HD 
HETATM   23  C   UNL     1      -9.863  12.819  68.895  1.00  0.00     0.140 C  
HETATM   24  C   UNL     1      -9.803  14.067  68.022  1.00  0.00    -0.228 C  
HETATM   25  O   UNL     1      -6.793  15.896  68.669  1.00  0.00    -0.117 OA 
HETATM   26  O   UNL     1     -10.088  17.212  70.133  1.00  0.00     0.415 OA 
HETATM   27  C   UNL     1      -9.926  16.537  68.919  1.00  0.00    -0.262 C  
HETATM   28  C   UNL     1     -10.507  15.146  68.930  1.00  0.00    -0.241 C  
ENDROOT
BRANCH  16  29
HETATM   29  N   UNL     1     -10.179   7.950  70.624  1.00  0.00    -0.195 NA 
HETATM   30  C   UNL     1     -10.184   8.371  72.025  1.00  0.00    -0.294 C  
HETATM   31  C   UNL     1     -11.377   7.209  70.229  1.00  0.00    -0.269 C  
ENDBRANCH  16  29
BRANCH  21  32
HETATM   32  C   UNL     1      -9.370  17.500  66.895  1.00  0.00    -0.269 C  
HETATM   33  O   UNL     1     -10.559  17.741  66.675  1.00  0.00    -0.314 OA 
HETATM   34  H2  UNL     1      -7.454  17.777  66.152  1.00  0.00     0.000 HD 
HETATM   35  N   UNL     1      -8.452  17.915  65.991  1.00  0.00    -0.097 N  
HETATM   36  H1  UNL     1      -8.790  18.369  65.142  1.00  0.00     0.000 HD 
ENDBRANCH  21  32
BRANCH  28  37
HETATM   37  N   UNL     1     -11.971  15.014  68.739  1.00  0.00    -0.285 NA 
HETATM   38  C   UNL     1     -12.329  14.165  67.606  1.00  0.00    -0.038 C  
HETATM   39  C   UNL     1     -12.708  14.588  69.931  1.00  0.00    -0.075 C  
ENDBRANCH  28  37
TORSDOF 3
ENDMDL
MODEL       63
REMARK 921   NORMALIZED FREE ENERGY PREDICTED BY IDOCK:   -3.84 KCAL/MOL
REMARK 922        TOTAL FREE ENERGY PREDICTED BY IDOCK:   -4.97 KCAL/MOL
REMARK 923 INTER-LIGAND FREE ENERGY PREDICTED BY IDOCK:   -4.58 KCAL/MOL
REMARK 924 INTRA-LIGAND FREE ENERGY PREDICTED BY IDOCK:   -0.40 KCAL/MOL
REMARK 927      BINDING AFFINITY PREDICTED BY RF-SCORE:    0.00 PKD
ROOT
HETATM    1  C   UNL     1      -8.859  10.315  69.098  1.00  0.00    -0.182 C  
HETATM    2  C   UNL     1      -8.070   9.146  68.540  1.00  0.00    -0.103 C  
HETATM    3  C   UNL     1      -8.578   7.778  68.833  1.00  0.00    -0.132 A  
HETATM    4  C   UNL     1      -9.950   7.634  69.161  1.00  0.00    -0.181 A  
HETATM    5  C   UNL     1     -10.437   6.362  69.475  1.00  0.00    -0.230 A  
HETATM    6  C   UNL     1     -10.889   8.810  69.138  1.00  0.00    -0.053 C  
HETATM    7  C   UNL     1      -9.591   5.262  69.453  1.00  0.00    -0.215 A  
HETATM    8  O   UNL     1     -12.101   8.638  69.269  1.00  0.00     1.341 OA 
HETATM    9  C   UNL     1     -10.336  10.194  68.958  1.00  0.00    -0.230 C  
HETATM   10  O   UNL     1     -11.741   6.108  69.807  1.00  0.00    -0.366 OA 
HETATM   11  H   UNL     1     -12.072   5.244  70.021  1.00  0.00     0.000 HD 
HETATM   12  C   UNL     1      -8.251   5.415  69.082  1.00  0.00    -0.093 A  
HETATM   13  C   UNL     1     -11.107  11.298  68.783  1.00  0.00    -0.233 C  
HETATM   14  C   UNL     1     -10.542  12.744  68.719  1.00  0.00    -0.189 C  
HETATM   15  O   UNL     1     -12.496  11.234  68.838  1.00  0.00    -0.471 OA 
HETATM   16  C   UNL     1      -7.696   6.662  68.745  1.00  0.00    -0.109 A  
HETATM   17  O   UNL     1     -11.018  13.343  69.950  1.00  0.00    -0.450 OA 
HETATM   18  H   UNL     1     -13.035  12.005  68.715  1.00  0.00     0.000 HD 
HETATM   19  H   UNL     1      -7.937  15.211  65.530  1.00  0.00     0.000 HD 
HETATM   20  C   UNL     1     -11.111  13.689  67.636  1.00  0.00    -0.273 C  
HETATM   21  C   UNL     1     -10.477  15.040  67.495  1.00  0.00    -0.256 C  
HETATM   22  H   UNL     1     -10.672  14.226  69.911  1.00  0.00     0.000 HD 
HETATM   23  C   UNL     1      -8.364  11.497  68.298  1.00  0.00    -0.154 C  
HETATM   24  C   UNL     1      -8.988  12.830  68.691  1.00  0.00     0.048 C  
HETATM   25  O   UNL     1     -12.005  13.387  66.844  1.00  0.00    -0.382 OA 
HETATM   26  O   UNL     1      -8.842  15.298  65.806  1.00  0.00    -0.041 OA 
HETATM   27  C   UNL     1      -9.198  14.918  67.104  1.00  0.00    -0.220 C  
HETATM   28  C   UNL     1      -8.323  13.827  67.667  1.00  0.00    -0.182 C  
ENDROOT
BRANCH  16  29
HETATM   29  N   UNL     1      -6.367   6.721  68.327  1.00  0.00    -0.030 NA 
HETATM   30  C   UNL     1      -6.009   6.419  66.941  1.00  0.00    -0.025 C  
HETATM   31  C   UNL     1      -5.213   6.858  69.216  1.00  0.00    -0.014 C  
ENDBRANCH  16  29
BRANCH  21  32
HETATM   32  C   UNL     1     -10.561  16.109  68.539  1.00  0.00    -0.284 C  
HETATM   33  O   UNL     1     -10.210  15.951  69.710  1.00  0.00    -0.268 OA 
HETATM   34  H2  UNL     1     -11.250  17.522  67.188  1.00  0.00     0.000 HD 
HETATM   35  N   UNL     1     -10.992  17.334  68.156  1.00  0.00    -0.288 N  
HETATM   36  H1  UNL     1     -11.050  18.062  68.868  1.00  0.00     0.000 HD 
ENDBRANCH  21  32
BRANCH  28  37
HETATM   37  N   UNL     1      -7.001  14.220  68.209  1.00  0.00    -0.095 NA 
HETATM   38  C   UNL     1      -7.007  14.412  69.657  1.00  0.00    -0.086 C  
HETATM   39  C   UNL     1      -5.896  13.338  67.829  1.00  0.00    -0.132 C  
ENDBRANCH  28  37
TORSDOF 3
ENDMDL
MODEL       64
REMARK 921   NORMALIZED FREE ENERGY PREDICTED BY IDOCK:   -3.71 KCAL/MOL
REMARK 922        TOTAL FREE ENERGY PREDICTED BY IDOCK:   -4.82 KCAL/MOL
REMARK 923 INTER-LIGAND FREE ENERGY PREDICTED BY IDOCK:   -5.38 KCAL/MOL
REMARK 924 INTRA-LIGAND FREE ENERGY PREDICTED BY IDOCK:    0.56 KCAL/MOL
REMARK 927      BINDING AFFINITY PREDICTED BY RF-SCORE:    0.00 PKD
ROOT
HETATM    1  C   UNL     1      -8.604   8.188  66.279  1.00  0.00    -0.157 C  
HETATM    2  C   UNL     1      -9.775   9.075  66.656  1.00  0.00    -0.295 C  
HETATM    3  C   UNL     1     -10.049  10.250  65.785  1.00  0.00    -0.325 A  
HETATM    4  C   UNL     1      -9.567  10.217  64.452  1.00  0.00    -0.378 A  
HETATM    5  C   UNL     1      -9.784  11.326  63.630  1.00  0.00    -0.321 A  
HETATM    6  C   UNL     1      -8.868   9.003  63.902  1.00  0.00     0.002 C  
HETATM    7  C   UNL     1     -10.469  12.432  64.112  1.00  0.00    -0.415 A  
HETATM    8  O   UNL     1      -8.600   8.933  62.702  1.00  0.00    -0.212 OA 
HETATM    9  C   UNL     1      -8.497   7.880  64.826  1.00  0.00    -0.010 C  
HETATM   10  O   UNL     1      -9.361  11.403  62.330  1.00  0.00    -0.479 OA 
HETATM   11  H   UNL     1      -9.508  12.157  61.772  1.00  0.00     0.000 HD 
HETATM   12  C   UNL     1     -10.978  12.430  65.415  1.00  0.00    -0.335 A  
HETATM   13  C   UNL     1      -7.995   6.691  64.407  1.00  0.00    -0.097 C  
HETATM   14  C   UNL     1      -7.497   5.576  65.369  1.00  0.00    -0.074 C  
HETATM   15  O   UNL     1      -7.710   6.452  63.066  1.00  0.00    -0.079 OA 
HETATM   16  C   UNL     1     -10.806  11.345  66.293  1.00  0.00    -0.263 A  
HETATM   17  O   UNL     1      -6.063   5.572  65.159  1.00  0.00    -0.024 OA 
HETATM   18  H   UNL     1      -7.359   5.620  62.772  1.00  0.00     0.000 HD 
HETATM   19  H   UNL     1      -9.636   2.533  68.402  1.00  0.00     0.000 HD 
HETATM   20  C   UNL     1      -7.895   4.118  65.043  1.00  0.00    -0.089 C  
HETATM   21  C   UNL     1      -7.520   3.061  66.038  1.00  0.00    -0.073 C  
HETATM   22  H   UNL     1      -5.759   4.891  65.747  1.00  0.00     0.000 HD 
HETATM   23  C   UNL     1      -8.852   6.916  67.055  1.00  0.00    -0.119 C  
HETATM   24  C   UNL     1      -7.780   5.848  66.875  1.00  0.00    -0.100 C  
HETATM   25  O   UNL     1      -8.549   3.775  64.057  1.00  0.00    -0.091 OA 
HETATM   26  O   UNL     1      -9.182   2.388  67.580  1.00  0.00    -0.170 OA 
HETATM   27  C   UNL     1      -8.161   3.265  67.201  1.00  0.00    -0.083 C  
HETATM   28  C   UNL     1      -8.341   4.659  67.745  1.00  0.00    -0.103 C  
ENDROOT
BRANCH  16  29
HETATM   29  N   UNL     1     -11.397  11.395  67.555  1.00  0.00    -0.391 NA 
HETATM   30  C   UNL     1     -11.995  12.636  68.048  1.00  0.00    -0.245 C  
HETATM   31  C   UNL     1     -11.298  10.347  68.570  1.00  0.00    -0.220 C  
ENDBRANCH  16  29
BRANCH  21  32
HETATM   32  C   UNL     1      -6.109   2.661  66.331  1.00  0.00    -0.024 C  
HETATM   33  O   UNL     1      -5.258   2.464  65.461  1.00  0.00    -0.007 OA 
HETATM   34  H2  UNL     1      -6.392   2.769  68.382  1.00  0.00     0.000 HD 
HETATM   35  N   UNL     1      -5.734   2.571  67.629  1.00  0.00    -0.018 N  
HETATM   36  H1  UNL     1      -4.771   2.297  67.829  1.00  0.00     0.000 HD 
ENDBRANCH  21  32
BRANCH  28  37
HETATM   37  N   UNL     1      -7.944   4.902  69.153  1.00  0.00    -0.075 NA 
HETATM   38  C   UNL     1      -7.934   3.687  69.965  1.00  0.00    -0.046 C  
HETATM   39  C   UNL     1      -6.680   5.620  69.318  1.00  0.00    -0.060 C  
ENDBRANCH  28  37
TORSDOF 3
ENDMDL
MODEL       65
REMARK 921   NORMALIZED FREE ENERGY PREDICTED BY IDOCK:   -3.48 KCAL/MOL
REMARK 922        TOTAL FREE ENERGY PREDICTED BY IDOCK:   -4.56 KCAL/MOL
REMARK 923 INTER-LIGAND FREE ENERGY PREDICTED BY IDOCK:   -5.53 KCAL/MOL
REMARK 924 INTRA-LIGAND FREE ENERGY PREDICTED BY IDOCK:    0.97 KCAL/MOL
REMARK 927      BINDING AFFINITY PREDICTED BY RF-SCORE:    0.00 PKD
ROOT
HETATM    1  C   UNL     1      -8.841  10.908  68.005  1.00  0.00    -0.135 C  
HETATM    2  C   UNL     1      -8.274  12.315  67.981  1.00  0.00    -0.163 C  
HETATM    3  C   UNL     1      -9.131  13.386  67.405  1.00  0.00    -0.216 A  
HETATM    4  C   UNL     1     -10.532  13.171  67.371  1.00  0.00    -0.243 A  
HETATM    5  C   UNL     1     -11.350  14.151  66.801  1.00  0.00    -0.343 A  
HETATM    6  C   UNL     1     -11.150  11.935  67.968  1.00  0.00    -0.240 C  
HETATM    7  C   UNL     1     -10.796  15.316  66.291  1.00  0.00    -0.312 A  
HETATM    8  O   UNL     1     -12.374  11.841  68.069  1.00  0.00    -0.391 OA 
HETATM    9  C   UNL     1     -10.264  10.816  68.433  1.00  0.00    -0.192 C  
HETATM   10  O   UNL     1     -12.712  14.047  66.713  1.00  0.00    -0.483 OA 
HETATM   11  H   UNL     1     -13.268  14.712  66.326  1.00  0.00     0.000 HD 
HETATM   12  C   UNL     1      -9.416  15.533  66.375  1.00  0.00    -0.320 A  
HETATM   13  C   UNL     1     -10.714   9.728  69.110  1.00  0.00    -0.221 C  
HETATM   14  C   UNL     1      -9.819   8.514  69.484  1.00  0.00    -0.187 C  
HETATM   15  O   UNL     1     -12.069   9.532  69.355  1.00  0.00    -0.082 OA 
HETATM   16  C   UNL     1      -8.536  14.596  66.943  1.00  0.00    -0.173 A  
HETATM   17  O   UNL     1     -10.327   7.452  68.639  1.00  0.00    -0.191 OA 
HETATM   18  H   UNL     1     -12.383   8.771  69.828  1.00  0.00     0.000 HD 
HETATM   19  H   UNL     1      -6.235   7.796  72.595  1.00  0.00     0.000 HD 
HETATM   20  C   UNL     1      -9.970   7.923  70.905  1.00  0.00    -0.182 C  
HETATM   21  C   UNL     1      -9.020   6.835  71.306  1.00  0.00    -0.139 C  
HETATM   22  H   UNL     1      -9.780   6.710  68.868  1.00  0.00     0.000 HD 
HETATM   23  C   UNL     1      -7.960  10.182  68.994  1.00  0.00    -0.115 C  
HETATM   24  C   UNL     1      -8.305   8.709  69.182  1.00  0.00    -0.119 C  
HETATM   25  O   UNL     1     -10.774   8.325  71.747  1.00  0.00    -0.234 OA 
HETATM   26  O   UNL     1      -7.125   7.465  72.572  1.00  0.00    -0.066 OA 
HETATM   27  C   UNL     1      -7.761   7.302  71.338  1.00  0.00    -0.088 C  
HETATM   28  C   UNL     1      -7.270   8.261  70.284  1.00  0.00    -0.051 C  
ENDROOT
BRANCH  16  29
HETATM   29  N   UNL     1      -7.182  14.914  67.045  1.00  0.00    -0.104 NA 
HETATM   30  C   UNL     1      -6.234  13.957  67.616  1.00  0.00    -0.095 C  
HETATM   31  C   UNL     1      -6.614  16.243  66.823  1.00  0.00     0.025 C  
ENDBRANCH  16  29
BRANCH  21  32
HETATM   32  C   UNL     1      -9.012   5.472  70.688  1.00  0.00    -0.144 C  
HETATM   33  O   UNL     1      -9.776   5.125  69.785  1.00  0.00    -0.157 OA 
HETATM   34  H2  UNL     1      -7.388   4.854  71.819  1.00  0.00     0.000 HD 
HETATM   35  N   UNL     1      -8.070   4.595  71.107  1.00  0.00    -0.086 N  
HETATM   36  H1  UNL     1      -8.065   3.665  70.686  1.00  0.00     0.000 HD 
ENDBRANCH  21  32
BRANCH  28  37
HETATM   37  N   UNL     1      -5.994   7.935  69.602  1.00  0.00    -0.026 NA 
HETATM   38  C   UNL     1      -5.492   6.603  69.929  1.00  0.00    -0.015 C  
HETATM   39  C   UNL     1      -6.011   8.117  68.150  1.00  0.00    -0.042 C  
ENDBRANCH  28  37
TORSDOF 3
ENDMDL
MODEL       66
REMARK 921   NORMALIZED FREE ENERGY PREDICTED BY IDOCK:   -3.47 KCAL/MOL
REMARK 922        TOTAL FREE ENERGY PREDICTED BY IDOCK:   -4.54 KCAL/MOL
REMARK 923 INTER-LIGAND FREE ENERGY PREDICTED BY IDOCK:   -4.57 KCAL/MOL
REMARK 924 INTRA-LIGAND FREE ENERGY PREDICTED BY IDOCK:    0.03 KCAL/MOL
REMARK 927      BINDING AFFINITY PREDICTED BY RF-SCORE:    0.00 PKD
ROOT
HETATM    1  C   UNL     1      -8.283   9.852  67.248  1.00  0.00    -0.121 C  
HETATM    2  C   UNL     1      -7.673  10.981  68.055  1.00  0.00    -0.106 C  
HETATM    3  C   UNL     1      -8.479  12.222  68.210  1.00  0.00    -0.173 A  
HETATM    4  C   UNL     1      -9.885  12.128  68.047  1.00  0.00    -0.202 A  
HETATM    5  C   UNL     1     -10.655  13.289  68.153  1.00  0.00    -0.249 A  
HETATM    6  C   UNL     1     -10.557  10.803  67.805  1.00  0.00    -0.228 C  
HETATM    7  C   UNL     1     -10.050  14.508  68.424  1.00  0.00    -0.241 A  
HETATM    8  O   UNL     1     -11.786  10.719  67.825  1.00  0.00    -0.547 OA 
HETATM    9  C   UNL     1      -9.720   9.587  67.533  1.00  0.00    -0.194 C  
HETATM   10  O   UNL     1     -12.016  13.314  68.012  1.00  0.00    -0.350 OA 
HETATM   11  H   UNL     1     -12.540  14.103  68.084  1.00  0.00     0.000 HD 
HETATM   12  C   UNL     1      -8.667  14.576  68.628  1.00  0.00    -0.172 A  
HETATM   13  C   UNL     1     -10.223   8.329  67.443  1.00  0.00    -0.258 C  
HETATM   14  C   UNL     1      -9.378   7.088  67.042  1.00  0.00    -0.146 C  
HETATM   15  O   UNL     1     -11.590   8.083  67.519  1.00  0.00     0.466 OA 
HETATM   16  C   UNL     1      -7.833  13.448  68.546  1.00  0.00    -0.115 A  
HETATM   17  O   UNL     1      -9.894   6.743  65.733  1.00  0.00    -0.278 OA 
HETATM   18  H   UNL     1     -11.942   7.204  67.456  1.00  0.00     0.000 HD 
HETATM   19  H   UNL     1      -5.912   4.537  69.167  1.00  0.00     0.000 HD 
HETATM   20  C   UNL     1      -9.590   5.786  67.848  1.00  0.00    -0.115 C  
HETATM   21  C   UNL     1      -8.686   4.629  67.542  1.00  0.00    -0.107 C  
HETATM   22  H   UNL     1      -9.377   5.985  65.488  1.00  0.00     0.000 HD 
HETATM   23  C   UNL     1      -7.455   8.647  67.631  1.00  0.00    -0.090 C  
HETATM   24  C   UNL     1      -7.850   7.359  66.920  1.00  0.00    -0.115 C  
HETATM   25  O   UNL     1     -10.405   5.653  68.761  1.00  0.00    -0.188 OA 
HETATM   26  O   UNL     1      -6.811   4.320  68.950  1.00  0.00    -0.045 OA 
HETATM   27  C   UNL     1      -7.414   4.936  67.849  1.00  0.00    -0.078 C  
HETATM   28  C   UNL     1      -6.863   6.308  67.558  1.00  0.00    -0.063 C  
ENDROOT
BRANCH  16  29
HETATM   29  N   UNL     1      -6.474  13.588  68.822  1.00  0.00    -0.091 NA 
HETATM   30  C   UNL     1      -5.551  14.068  67.794  1.00  0.00    -0.043 C  
HETATM   31  C   UNL     1      -5.806  13.089  70.024  1.00  0.00    -0.143 C  
ENDBRANCH  16  29
BRANCH  21  32
HETATM   32  C   UNL     1      -8.701   3.885  66.245  1.00  0.00    -0.115 C  
HETATM   33  O   UNL     1      -8.241   4.334  65.193  1.00  0.00    -0.100 OA 
HETATM   34  H2  UNL     1      -9.544   2.196  67.102  1.00  0.00     0.000 HD 
HETATM   35  N   UNL     1      -9.195   2.624  66.245  1.00  0.00    -0.313 N  
HETATM   36  H1  UNL     1      -9.206   2.117  65.361  1.00  0.00     0.000 HD 
ENDBRANCH  21  32
BRANCH  28  37
HETATM   37  N   UNL     1      -5.578   6.388  66.822  1.00  0.00    -0.013 NA 
HETATM   38  C   UNL     1      -5.179   5.117  66.223  1.00  0.00    -0.008 C  
HETATM   39  C   UNL     1      -5.511   7.453  65.821  1.00  0.00    -0.028 C  
ENDBRANCH  28  37
TORSDOF 3
ENDMDL
MODEL       67
REMARK 921   NORMALIZED FREE ENERGY PREDICTED BY IDOCK:   -3.16 KCAL/MOL
REMARK 922        TOTAL FREE ENERGY PREDICTED BY IDOCK:   -4.17 KCAL/MOL
REMARK 923 INTER-LIGAND FREE ENERGY PREDICTED BY IDOCK:   -4.11 KCAL/MOL
REMARK 924 INTRA-LIGAND FREE ENERGY PREDICTED BY IDOCK:   -0.06 KCAL/MOL
REMARK 927      BINDING AFFINITY PREDICTED BY RF-SCORE:    0.00 PKD
ROOT
HETATM    1  C   UNL     1      -9.331  10.994  69.118  1.00  0.00    -0.039 C  
HETATM    2  C   UNL     1      -8.345   9.941  69.585  1.00  0.00    -0.181 C  
HETATM    3  C   UNL     1      -8.795   8.523  69.551  1.00  0.00    -0.141 A  
HETATM    4  C   UNL     1      -9.856   8.182  68.674  1.00  0.00    -0.191 A  
HETATM    5  C   UNL     1     -10.315   6.862  68.655  1.00  0.00    -0.186 A  
HETATM    6  C   UNL     1     -10.461   9.199  67.745  1.00  0.00    -0.247 C  
HETATM    7  C   UNL     1      -9.732   5.905  69.473  1.00  0.00    -0.190 A  
HETATM    8  O   UNL     1     -11.268   8.848  66.883  1.00  0.00     0.336 OA 
HETATM    9  C   UNL     1     -10.078  10.644  67.879  1.00  0.00    -0.194 C  
HETATM   10  O   UNL     1     -11.333   6.424  67.852  1.00  0.00    -0.569 OA 
HETATM   11  H   UNL     1     -11.646   5.527  67.838  1.00  0.00     0.000 HD 
HETATM   12  C   UNL     1      -8.656   6.248  70.299  1.00  0.00    -0.138 A  
HETATM   13  C   UNL     1     -10.458  11.610  67.004  1.00  0.00    -0.224 C  
HETATM   14  C   UNL     1     -10.165  13.123  67.207  1.00  0.00    -0.243 C  
HETATM   15  O   UNL     1     -11.313  11.336  65.941  1.00  0.00    -0.123 OA 
HETATM   16  C   UNL     1      -8.136   7.553  70.362  1.00  0.00    -0.111 A  
HETATM   17  O   UNL     1     -11.475  13.684  67.468  1.00  0.00    -0.296 OA 
HETATM   18  H   UNL     1     -11.579  12.012  65.330  1.00  0.00     0.000 HD 
HETATM   19  H   UNL     1      -6.216  15.847  67.043  1.00  0.00     0.000 HD 
HETATM   20  C   UNL     1      -9.684  13.931  65.980  1.00  0.00    -0.250 C  
HETATM   21  C   UNL     1      -9.283  15.358  66.207  1.00  0.00    -0.354 C  
HETATM   22  H   UNL     1     -11.296  14.608  67.593  1.00  0.00     0.000 HD 
HETATM   23  C   UNL     1      -8.469  12.210  68.870  1.00  0.00     0.204 C  
HETATM   24  C   UNL     1      -9.236  13.445  68.414  1.00  0.00    -0.149 C  
HETATM   25  O   UNL     1      -9.551  13.469  64.847  1.00  0.00     0.059 OA 
HETATM   26  O   UNL     1      -6.975  15.803  66.475  1.00  0.00    -0.078 OA 
HETATM   27  C   UNL     1      -8.209  15.419  67.011  1.00  0.00    -0.236 C  
HETATM   28  C   UNL     1      -8.081  14.495  68.195  1.00  0.00    -0.137 C  
ENDROOT
BRANCH  16  29
HETATM   29  N   UNL     1      -7.022   7.800  71.163  1.00  0.00    -0.049 NA 
HETATM   30  C   UNL     1      -7.183   8.312  72.524  1.00  0.00    -0.103 C  
HETATM   31  C   UNL     1      -5.636   7.799  70.696  1.00  0.00    -0.026 C  
ENDBRANCH  16  29
BRANCH  21  32
HETATM   32  C   UNL     1     -10.241  16.436  66.601  1.00  0.00    -0.294 C  
HETATM   33  O   UNL     1      -9.977  17.639  66.550  1.00  0.00    -0.302 OA 
HETATM   34  H2  UNL     1     -11.766  15.086  66.989  1.00  0.00     0.000 HD 
HETATM   35  N   UNL     1     -11.489  16.067  66.976  1.00  0.00     0.158 N  
HETATM   36  H1  UNL     1     -12.142  16.802  67.245  1.00  0.00     0.000 HD 
ENDBRANCH  21  32
BRANCH  28  37
HETATM   37  N   UNL     1      -7.767  15.105  69.510  1.00  0.00    -0.213 NA 
HETATM   38  C   UNL     1      -6.337  15.319  69.717  1.00  0.00    -0.162 C  
HETATM   39  C   UNL     1      -8.502  16.336  69.805  1.00  0.00     0.554 C  
ENDBRANCH  28  37
TORSDOF 3
ENDMDL
MODEL       68
REMARK 921   NORMALIZED FREE ENERGY PREDICTED BY IDOCK:   -2.83 KCAL/MOL
REMARK 922        TOTAL FREE ENERGY PREDICTED BY IDOCK:   -3.79 KCAL/MOL
REMARK 923 INTER-LIGAND FREE ENERGY PREDICTED BY IDOCK:   -4.10 KCAL/MOL
REMARK 924 INTRA-LIGAND FREE ENERGY PREDICTED BY IDOCK:    0.31 KCAL/MOL
REMARK 927      BINDING AFFINITY PREDICTED BY RF-SCORE:    0.00 PKD
ROOT
HETATM    1  C   UNL     1      -9.650   8.197  70.463  1.00  0.00    -0.177 C  
HETATM    2  C   UNL     1      -9.154   6.893  69.868  1.00  0.00    -0.144 C  
HETATM    3  C   UNL     1      -9.313   5.663  70.691  1.00  0.00    -0.191 A  
HETATM    4  C   UNL     1     -10.304   5.664  71.704  1.00  0.00    -0.270 A  
HETATM    5  C   UNL     1     -10.444   4.531  72.511  1.00  0.00    -0.186 A  
HETATM    6  C   UNL     1     -11.226   6.838  71.897  1.00  0.00    -0.260 C  
HETATM    7  C   UNL     1      -9.631   3.424  72.311  1.00  0.00    -0.201 A  
HETATM    8  O   UNL     1     -12.179   6.757  72.673  1.00  0.00     0.008 OA 
HETATM    9  C   UNL     1     -10.973   8.110  71.141  1.00  0.00    -0.271 C  
HETATM   10  O   UNL     1     -11.364   4.424  73.519  1.00  0.00    -0.296 OA 
HETATM   11  H   UNL     1     -11.459   3.655  74.067  1.00  0.00     0.000 HD 
HETATM   12  C   UNL     1      -8.689   3.423  71.276  1.00  0.00    -0.122 A  
HETATM   13  C   UNL     1     -11.822   9.169  71.139  1.00  0.00    -0.307 C  
HETATM   14  C   UNL     1     -11.504  10.529  70.457  1.00  0.00    -0.345 C  
HETATM   15  O   UNL     1     -12.974   9.181  71.918  1.00  0.00    -0.345 OA 
HETATM   16  C   UNL     1      -8.502   4.523  70.421  1.00  0.00    -0.078 A  
HETATM   17  O   UNL     1     -11.336  11.432  71.577  1.00  0.00     0.944 OA 
HETATM   18  H   UNL     1     -13.568   9.922  71.917  1.00  0.00     0.000 HD 
HETATM   19  H   UNL     1     -11.135  12.018  65.909  1.00  0.00     0.000 HD 
HETATM   20  C   UNL     1     -12.631  11.202  69.640  1.00  0.00    -0.006 C  
HETATM   21  C   UNL     1     -12.285  12.448  68.882  1.00  0.00    -0.005 C  
HETATM   22  H   UNL     1     -11.141  12.263  71.161  1.00  0.00     0.000 HD 
HETATM   23  C   UNL     1      -9.744   9.123  69.273  1.00  0.00    -0.164 C  
HETATM   24  C   UNL     1     -10.198  10.538  69.610  1.00  0.00    -0.207 C  
HETATM   25  O   UNL     1     -13.772  10.754  69.521  1.00  0.00     1.066 OA 
HETATM   26  O   UNL     1     -11.775  12.210  66.585  1.00  0.00    -0.493 OA 
HETATM   27  C   UNL     1     -11.381  12.177  67.926  1.00  0.00    -0.300 C  
HETATM   28  C   UNL     1     -10.246  11.221  68.190  1.00  0.00    -0.180 C  
ENDROOT
BRANCH  16  29
HETATM   29  N   UNL     1      -7.586   4.419  69.375  1.00  0.00    -0.055 NA 
HETATM   30  C   UNL     1      -6.269   3.820  69.595  1.00  0.00    -0.028 C  
HETATM   31  C   UNL     1      -7.728   5.061  68.068  1.00  0.00    -0.083 C  
ENDBRANCH  16  29
BRANCH  21  32
HETATM   32  C   UNL     1     -11.921  13.743  69.536  1.00  0.00    -0.345 C  
HETATM   33  O   UNL     1     -12.393  14.124  70.609  1.00  0.00    -0.319 OA 
HETATM   34  H2  UNL     1     -10.523  14.209  68.077  1.00  0.00     0.000 HD 
HETATM   35  N   UNL     1     -10.974  14.507  68.942  1.00  0.00    -0.247 N  
HETATM   36  H1  UNL     1     -10.726  15.390  69.388  1.00  0.00     0.000 HD 
ENDBRANCH  21  32
BRANCH  28  37
HETATM   37  N   UNL     1      -8.874  11.678  67.860  1.00  0.00    -0.149 NA 
HETATM   38  C   UNL     1      -8.351  11.087  66.631  1.00  0.00    -0.155 C  
HETATM   39  C   UNL     1      -8.705  13.131  67.824  1.00  0.00    -0.188 C  
ENDBRANCH  28  37
TORSDOF 3
ENDMDL
MODEL       69
REMARK 921   NORMALIZED FREE ENERGY PREDICTED BY IDOCK:   -2.72 KCAL/MOL
REMARK 922        TOTAL FREE ENERGY PREDICTED BY IDOCK:   -3.66 KCAL/MOL
REMARK 923 INTER-LIGAND FREE ENERGY PREDICTED BY IDOCK:   -3.96 KCAL/MOL
REMARK 924 INTRA-LIGAND FREE ENERGY PREDICTED BY IDOCK:    0.30 KCAL/MOL
REMARK 927      BINDING AFFINITY PREDICTED BY RF-SCORE:    0.00 PKD
ROOT
HETATM    1  C   UNL     1     -10.203  12.322  67.475  1.00  0.00    -0.212 C  
HETATM    2  C   UNL     1      -9.521  11.092  68.043  1.00  0.00    -0.174 C  
HETATM    3  C   UNL     1      -9.449   9.888  67.171  1.00  0.00    -0.190 A  
HETATM    4  C   UNL     1      -9.554  10.074  65.769  1.00  0.00    -0.291 A  
HETATM    5  C   UNL     1      -9.525   8.951  64.937  1.00  0.00     0.380 A  
HETATM    6  C   UNL     1      -9.656  11.449  65.167  1.00  0.00    -0.229 C  
HETATM    7  C   UNL     1      -9.384   7.681  65.479  1.00  0.00     0.346 A  
HETATM    8  O   UNL     1      -9.586  11.598  63.946  1.00  0.00    -0.224 OA 
HETATM    9  C   UNL     1      -9.847  12.638  66.064  1.00  0.00    -0.260 C  
HETATM   10  O   UNL     1      -9.621   9.013  63.573  1.00  0.00    -0.012 OA 
HETATM   11  H   UNL     1      -9.601   8.251  63.008  1.00  0.00     0.000 HD 
HETATM   12  C   UNL     1      -9.235   7.520  66.861  1.00  0.00    -0.181 A  
HETATM   13  C   UNL     1      -9.808  13.924  65.632  1.00  0.00    -0.205 C  
HETATM   14  C   UNL     1     -10.127  15.148  66.535  1.00  0.00    -0.269 C  
HETATM   15  O   UNL     1      -9.664  14.236  64.284  1.00  0.00    -0.350 OA 
HETATM   16  C   UNL     1      -9.245   8.604  67.755  1.00  0.00    -0.134 A  
HETATM   17  O   UNL     1     -11.382  15.638  66.002  1.00  0.00    -0.138 OA 
HETATM   18  H   UNL     1      -9.637  15.136  63.981  1.00  0.00     0.000 HD 
HETATM   19  H   UNL     1      -7.904  17.305  70.202  1.00  0.00     0.000 HD 
HETATM   20  C   UNL     1      -9.202  16.382  66.422  1.00  0.00    -0.302 C  
HETATM   21  C   UNL     1      -9.435  17.510  67.381  1.00  0.00    -0.255 C  
HETATM   22  H   UNL     1     -11.576  16.386  66.554  1.00  0.00     0.000 HD 
HETATM   23  C   UNL     1      -9.744  13.440  68.381  1.00  0.00    -0.201 C  
HETATM   24  C   UNL     1     -10.324  14.807  68.040  1.00  0.00    -0.237 C  
HETATM   25  O   UNL     1      -8.253  16.476  65.642  1.00  0.00    -0.128 OA 
HETATM   26  O   UNL     1      -8.070  17.589  69.311  1.00  0.00    -0.032 OA 
HETATM   27  C   UNL     1      -9.200  17.108  68.641  1.00  0.00    -0.263 C  
HETATM   28  C   UNL     1      -9.630  15.740  69.104  1.00  0.00    -0.255 C  
ENDROOT
BRANCH  16  29
HETATM   29  N   UNL     1      -9.028   8.365  69.112  1.00  0.00    -0.146 NA 
HETATM   30  C   UNL     1      -7.675   8.149  69.622  1.00  0.00    -0.101 C  
HETATM   31  C   UNL     1     -10.078   8.089  70.093  1.00  0.00    -0.194 C  
ENDBRANCH  16  29
BRANCH  21  32
HETATM   32  C   UNL     1     -10.660  18.368  67.370  1.00  0.00    -0.413 C  
HETATM   33  O   UNL     1     -10.753  19.421  66.736  1.00  0.00    -0.452 OA 
HETATM   34  H2  UNL     1     -11.730  17.040  68.549  1.00  0.00     0.000 HD 
HETATM   35  N   UNL     1     -11.746  17.928  68.048  1.00  0.00     0.942 N  
HETATM   36  H1  UNL     1     -12.582  18.513  68.041  1.00  0.00     0.000 HD 
ENDBRANCH  21  32
BRANCH  28  37
HETATM   37  N   UNL     1     -10.413  15.657  70.361  1.00  0.00    -0.279 NA 
HETATM   38  C   UNL     1     -10.859  16.960  70.847  1.00  0.00     0.785 C  
HETATM   39  C   UNL     1     -11.545  14.730  70.317  1.00  0.00    -0.282 C  
ENDBRANCH  28  37
TORSDOF 3
ENDMDL
MODEL       70
REMARK 921   NORMALIZED FREE ENERGY PREDICTED BY IDOCK:   -2.46 KCAL/MOL
REMARK 922        TOTAL FREE ENERGY PREDICTED BY IDOCK:   -3.35 KCAL/MOL
REMARK 923 INTER-LIGAND FREE ENERGY PREDICTED BY IDOCK:   -3.07 KCAL/MOL
REMARK 924 INTRA-LIGAND FREE ENERGY PREDICTED BY IDOCK:   -0.28 KCAL/MOL
REMARK 927      BINDING AFFINITY PREDICTED BY RF-SCORE:    0.00 PKD
ROOT
HETATM    1  C   UNL     1      -8.289  12.541  66.954  1.00  0.00    -0.097 C  
HETATM    2  C   UNL     1      -8.736  11.101  66.783  1.00  0.00    -0.157 C  
HETATM    3  C   UNL     1      -7.840  10.041  67.320  1.00  0.00    -0.102 A  
HETATM    4  C   UNL     1      -6.925  10.397  68.343  1.00  0.00    -0.069 A  
HETATM    5  C   UNL     1      -6.052   9.423  68.835  1.00  0.00    -0.043 A  
HETATM    6  C   UNL     1      -6.908  11.783  68.930  1.00  0.00    -0.102 C  
HETATM    7  C   UNL     1      -6.092   8.130  68.335  1.00  0.00    -0.045 A  
HETATM    8  O   UNL     1      -6.219  12.028  69.922  1.00  0.00    -0.141 OA 
HETATM    9  C   UNL     1      -7.731  12.866  68.296  1.00  0.00    -0.137 C  
HETATM   10  O   UNL     1      -5.129   9.657  69.818  1.00  0.00    -0.034 OA 
HETATM   11  H   UNL     1      -4.535   8.996  70.152  1.00  0.00     0.000 HD 
HETATM   12  C   UNL     1      -7.032   7.783  67.358  1.00  0.00    -0.078 A  
HETATM   13  C   UNL     1      -7.892  14.104  68.830  1.00  0.00    -0.114 C  
HETATM   14  C   UNL     1      -8.643  15.262  68.115  1.00  0.00    -0.160 C  
HETATM   15  O   UNL     1      -7.226  14.490  69.989  1.00  0.00    -0.384 OA 
HETATM   16  C   UNL     1      -7.947   8.709  66.826  1.00  0.00    -0.094 A  
HETATM   17  O   UNL     1      -7.583  16.195  67.791  1.00  0.00    -0.129 OA 
HETATM   18  H   UNL     1      -7.338  15.355  70.362  1.00  0.00     0.000 HD 
HETATM   19  H   UNL     1     -13.236  16.155  67.049  1.00  0.00     0.000 HD 
HETATM   20  C   UNL     1      -9.609  16.121  68.963  1.00  0.00    -0.251 C  
HETATM   21  C   UNL     1     -10.424  17.155  68.246  1.00  0.00    -0.373 C  
HETATM   22  H   UNL     1      -8.041  16.903  67.353  1.00  0.00     0.000 HD 
HETATM   23  C   UNL     1      -9.549  13.339  66.716  1.00  0.00    -0.258 C  
HETATM   24  C   UNL     1      -9.364  14.849  66.799  1.00  0.00    -0.270 C  
HETATM   25  O   UNL     1      -9.798  15.974  70.171  1.00  0.00    -0.020 OA 
HETATM   26  O   UNL     1     -12.639  16.570  67.659  1.00  0.00     1.845 OA 
HETATM   27  C   UNL     1     -11.269  16.567  67.382  1.00  0.00     0.080 C  
HETATM   28  C   UNL     1     -10.829  15.381  66.564  1.00  0.00    -0.298 C  
ENDROOT
BRANCH  16  29
HETATM   29  N   UNL     1      -8.893   8.270  65.900  1.00  0.00    -0.158 NA 
HETATM   30  C   UNL     1      -9.864   7.237  66.262  1.00  0.00     0.041 C  
HETATM   31  C   UNL     1      -8.887   8.597  64.474  1.00  0.00     0.093 C  
ENDBRANCH  16  29
BRANCH  21  32
HETATM   32  C   UNL     1      -9.839  18.369  67.596  1.00  0.00    -0.313 C  
HETATM   33  O   UNL     1     -10.096  18.719  66.443  1.00  0.00    -0.358 OA 
HETATM   34  H2  UNL     1      -8.824  18.930  69.315  1.00  0.00     0.000 HD 
HETATM   35  N   UNL     1      -9.028  19.156  68.342  1.00  0.00    -0.337 N  
HETATM   36  H1  UNL     1      -8.629  19.984  67.899  1.00  0.00     0.000 HD 
ENDBRANCH  21  32
BRANCH  28  37
HETATM   37  N   UNL     1     -11.064  15.432  65.101  1.00  0.00    -0.393 NA 
HETATM   38  C   UNL     1     -12.266  14.712  64.686  1.00  0.00    -0.434 C  
HETATM   39  C   UNL     1     -11.069  16.779  64.528  1.00  0.00     0.220 C  
ENDBRANCH  28  37
TORSDOF 3
ENDMDL
MODEL       71
REMARK 921   NORMALIZED FREE ENERGY PREDICTED BY IDOCK:   -2.26 KCAL/MOL
REMARK 922        TOTAL FREE ENERGY PREDICTED BY IDOCK:   -3.12 KCAL/MOL
REMARK 923 INTER-LIGAND FREE ENERGY PREDICTED BY IDOCK:   -2.85 KCAL/MOL
REMARK 924 INTRA-LIGAND FREE ENERGY PREDICTED BY IDOCK:   -0.27 KCAL/MOL
REMARK 927      BINDING AFFINITY PREDICTED BY RF-SCORE:    0.00 PKD
ROOT
HETATM    1  C   UNL     1      -8.245   9.292  69.884  1.00  0.00    -0.148 C  
HETATM    2  C   UNL     1      -8.263   9.997  68.541  1.00  0.00    -0.108 C  
HETATM    3  C   UNL     1      -7.741  11.390  68.495  1.00  0.00    -0.133 A  
HETATM    4  C   UNL     1      -6.844  11.799  69.514  1.00  0.00    -0.026 A  
HETATM    5  C   UNL     1      -6.371  13.114  69.508  1.00  0.00    -0.103 A  
HETATM    6  C   UNL     1      -6.366  10.837  70.569  1.00  0.00    -0.051 C  
HETATM    7  C   UNL     1      -6.767  13.996  68.513  1.00  0.00    -0.099 A  
HETATM    8  O   UNL     1      -5.470  11.165  71.347  1.00  0.00    -0.311 OA 
HETATM    9  C   UNL     1      -6.994   9.477  70.669  1.00  0.00    -0.121 C  
HETATM   10  O   UNL     1      -5.505  13.615  70.443  1.00  0.00    -0.109 OA 
HETATM   11  H   UNL     1      -5.184  14.508  70.439  1.00  0.00     0.000 HD 
HETATM   12  C   UNL     1      -7.616  13.563  67.489  1.00  0.00    -0.176 A  
HETATM   13  C   UNL     1      -6.540   8.494  71.488  1.00  0.00    -0.070 C  
HETATM   14  C   UNL     1      -7.260   7.130  71.682  1.00  0.00    -0.073 C  
HETATM   15  O   UNL     1      -5.485   8.709  72.370  1.00  0.00    -0.044 OA 
HETATM   16  C   UNL     1      -8.122  12.253  67.427  1.00  0.00    -0.175 A  
HETATM   17  O   UNL     1      -7.758   7.207  73.041  1.00  0.00    -0.088 OA 
HETATM   18  H   UNL     1      -5.168   8.021  72.943  1.00  0.00     0.000 HD 
HETATM   19  H   UNL     1      -7.925   3.245  68.943  1.00  0.00     0.000 HD 
HETATM   20  C   UNL     1      -6.386   5.855  71.708  1.00  0.00    -0.045 C  
HETATM   21  C   UNL     1      -7.093   4.535  71.770  1.00  0.00    -0.055 C  
HETATM   22  H   UNL     1      -8.198   6.374  73.160  1.00  0.00     0.000 HD 
HETATM   23  C   UNL     1      -8.415   7.834  69.527  1.00  0.00    -0.131 C  
HETATM   24  C   UNL     1      -8.463   6.893  70.724  1.00  0.00    -0.136 C  
HETATM   25  O   UNL     1      -5.158   5.848  71.621  1.00  0.00    -0.015 OA 
HETATM   26  O   UNL     1      -7.410   3.381  69.729  1.00  0.00    -0.044 OA 
HETATM   27  C   UNL     1      -7.822   4.342  70.658  1.00  0.00    -0.056 C  
HETATM   28  C   UNL     1      -8.589   5.480  70.035  1.00  0.00    -0.120 C  
ENDROOT
BRANCH  16  29
HETATM   29  N   UNL     1      -8.913  11.883  66.340  1.00  0.00    -0.200 NA 
HETATM   30  C   UNL     1      -8.459  10.853  65.405  1.00  0.00    -0.088 C  
HETATM   31  C   UNL     1     -10.112  12.593  65.895  1.00  0.00    -0.264 C  
ENDBRANCH  16  29
BRANCH  21  32
HETATM   32  C   UNL     1      -7.887   4.073  72.951  1.00  0.00    -0.080 C  
HETATM   33  O   UNL     1      -8.349   4.832  73.805  1.00  0.00    -0.105 OA 
HETATM   34  H2  UNL     1      -7.838   2.091  72.342  1.00  0.00     0.000 HD 
HETATM   35  N   UNL     1      -8.161   2.751  73.050  1.00  0.00    -0.065 N  
HETATM   36  H1  UNL     1      -8.702   2.435  73.855  1.00  0.00     0.000 HD 
ENDBRANCH  21  32
BRANCH  28  37
HETATM   37  N   UNL     1     -10.021   5.253  69.725  1.00  0.00    -0.213 NA 
HETATM   38  C   UNL     1     -10.229   4.324  68.617  1.00  0.00     0.338 C  
HETATM   39  C   UNL     1     -10.840   4.851  70.870  1.00  0.00     0.261 C  
ENDBRANCH  28  37
TORSDOF 3
ENDMDL
MODEL       72
REMARK 921   NORMALIZED FREE ENERGY PREDICTED BY IDOCK:   -1.17 KCAL/MOL
REMARK 922        TOTAL FREE ENERGY PREDICTED BY IDOCK:   -1.84 KCAL/MOL
REMARK 923 INTER-LIGAND FREE ENERGY PREDICTED BY IDOCK:   -2.09 KCAL/MOL
REMARK 924 INTRA-LIGAND FREE ENERGY PREDICTED BY IDOCK:    0.25 KCAL/MOL
REMARK 927      BINDING AFFINITY PREDICTED BY RF-SCORE:    0.00 PKD
ROOT
HETATM    1  C   UNL     1      -9.150   7.098  67.842  1.00  0.00    -0.128 C  
HETATM    2  C   UNL     1      -8.169   6.790  66.726  1.00  0.00    -0.114 C  
HETATM    3  C   UNL     1      -7.929   7.856  65.716  1.00  0.00    -0.109 A  
HETATM    4  C   UNL     1      -8.207   9.197  66.084  1.00  0.00    -0.111 A  
HETATM    5  C   UNL     1      -8.021  10.208  65.137  1.00  0.00    -0.146 A  
HETATM    6  C   UNL     1      -8.657   9.550  67.476  1.00  0.00    -0.126 C  
HETATM    7  C   UNL     1      -7.561   9.900  63.865  1.00  0.00    -0.141 A  
HETATM    8  O   UNL     1      -8.741  10.729  67.820  1.00  0.00    -0.128 OA 
HETATM    9  C   UNL     1      -9.008   8.454  68.441  1.00  0.00    -0.136 C  
HETATM   10  O   UNL     1      -8.261  11.533  65.382  1.00  0.00    -0.337 OA 
HETATM   11  H   UNL     1      -8.135  12.220  64.739  1.00  0.00     0.000 HD 
HETATM   12  C   UNL     1      -7.247   8.577  63.533  1.00  0.00    -0.095 A  
HETATM   13  C   UNL     1      -9.286   8.663  69.752  1.00  0.00    -0.165 C  
HETATM   14  C   UNL     1      -9.768   7.547  70.721  1.00  0.00    -0.174 C  
HETATM   15  O   UNL     1      -9.344   9.945  70.290  1.00  0.00    -0.347 OA 
HETATM   16  C   UNL     1      -7.400   7.513  64.438  1.00  0.00    -0.088 A  
HETATM   17  O   UNL     1     -11.145   7.911  70.990  1.00  0.00    -0.242 OA 
HETATM   18  H   UNL     1      -9.539  10.091  71.208  1.00  0.00     0.000 HD 
HETATM   19  H   UNL     1      -7.707   3.712  72.741  1.00  0.00     0.000 HD 
HETATM   20  C   UNL     1      -9.142   7.506  72.135  1.00  0.00    -0.133 C  
HETATM   21  C   UNL     1      -9.515   6.357  73.022  1.00  0.00    -0.148 C  
HETATM   22  H   UNL     1     -11.439   7.229  71.582  1.00  0.00     0.000 HD 
HETATM   23  C   UNL     1      -8.852   6.045  68.883  1.00  0.00    -0.120 C  
HETATM   24  C   UNL     1      -9.740   6.112  70.119  1.00  0.00    -0.194 C  
HETATM   25  O   UNL     1      -8.316   8.316  72.557  1.00  0.00    -0.157 OA 
HETATM   26  O   UNL     1      -8.016   4.529  73.112  1.00  0.00    -0.093 OA 
HETATM   27  C   UNL     1      -9.078   5.200  72.497  1.00  0.00    -0.133 C  
HETATM   28  C   UNL     1      -9.160   4.950  71.013  1.00  0.00    -0.140 C  
ENDROOT
BRANCH  16  29
HETATM   29  N   UNL     1      -7.006   6.233  64.051  1.00  0.00    -0.038 NA 
HETATM   30  C   UNL     1      -5.642   5.767  64.299  1.00  0.00    -0.017 C  
HETATM   31  C   UNL     1      -7.786   5.337  63.197  1.00  0.00    -0.084 C  
ENDBRANCH  16  29
BRANCH  21  32
HETATM   32  C   UNL     1     -10.890   6.146  73.573  1.00  0.00    -0.184 C  
HETATM   33  O   UNL     1     -11.327   6.732  74.565  1.00  0.00     1.455 OA 
HETATM   34  H2  UNL     1     -11.413   4.837  72.052  1.00  0.00     0.000 HD 
HETATM   35  N   UNL     1     -11.717   5.308  72.904  1.00  0.00    -0.440 N  
HETATM   36  H1  UNL     1     -12.655   5.164  73.279  1.00  0.00     0.000 HD 
ENDBRANCH  21  32
BRANCH  28  37
HETATM   37  N   UNL     1      -9.781   3.680  70.565  1.00  0.00    -0.182 NA 
HETATM   38  C   UNL     1     -10.362   3.765  69.227  1.00  0.00     1.198 C  
HETATM   39  C   UNL     1      -8.911   2.507  70.656  1.00  0.00    -0.095 C  
ENDBRANCH  28  37
TORSDOF 3
ENDMDL
MODEL       73
REMARK 921   NORMALIZED FREE ENERGY PREDICTED BY IDOCK:   -0.42 KCAL/MOL
REMARK 922        TOTAL FREE ENERGY PREDICTED BY IDOCK:   -0.96 KCAL/MOL
REMARK 923 INTER-LIGAND FREE ENERGY PREDICTED BY IDOCK:   -0.72 KCAL/MOL
REMARK 924 INTRA-LIGAND FREE ENERGY PREDICTED BY IDOCK:   -0.24 KCAL/MOL
REMARK 927      BINDING AFFINITY PREDICTED BY RF-SCORE:    0.00 PKD
ROOT
HETATM    1  C   UNL     1      -7.994   7.252  67.547  1.00  0.00    -0.113 C  
HETATM    2  C   UNL     1      -9.023   7.992  68.379  1.00  0.00    -0.133 C  
HETATM    3  C   UNL     1      -8.783   9.439  68.631  1.00  0.00    -0.131 A  
HETATM    4  C   UNL     1      -7.940  10.140  67.733  1.00  0.00    -0.102 A  
HETATM    5  C   UNL     1      -7.674  11.491  67.974  1.00  0.00    -0.119 A  
HETATM    6  C   UNL     1      -7.363   9.470  66.515  1.00  0.00    -0.090 C  
HETATM    7  C   UNL     1      -8.239  12.132  69.068  1.00  0.00     0.282 A  
HETATM    8  O   UNL     1      -6.766  10.134  65.667  1.00  0.00    -0.101 OA 
HETATM    9  C   UNL     1      -7.518   7.987  66.343  1.00  0.00    -0.087 C  
HETATM   10  O   UNL     1      -6.874  12.263  67.176  1.00  0.00    -0.213 OA 
HETATM   11  H   UNL     1      -6.693  13.181  67.339  1.00  0.00     0.000 HD 
HETATM   12  C   UNL     1      -9.106  11.437  69.918  1.00  0.00     1.648 A  
HETATM   13  C   UNL     1      -7.160   7.316  65.219  1.00  0.00    -0.060 C  
HETATM   14  C   UNL     1      -7.205   5.767  65.087  1.00  0.00    -0.070 C  
HETATM   15  O   UNL     1      -6.538   7.958  64.153  1.00  0.00    -0.060 OA 
HETATM   16  C   UNL     1      -9.425  10.080  69.730  1.00  0.00    -0.207 A  
HETATM   17  O   UNL     1      -5.806   5.397  65.032  1.00  0.00    -0.020 OA 
HETATM   18  H   UNL     1      -6.288   7.488  63.367  1.00  0.00     0.000 HD 
HETATM   19  H   UNL     1     -10.717   2.510  64.782  1.00  0.00     0.000 HD 
HETATM   20  C   UNL     1      -7.768   5.177  63.773  1.00  0.00    -0.078 C  
HETATM   21  C   UNL     1      -7.928   3.688  63.698  1.00  0.00    -0.087 C  
HETATM   22  H   UNL     1      -5.834   4.451  64.951  1.00  0.00     0.000 HD 
HETATM   23  C   UNL     1      -8.711   5.990  67.127  1.00  0.00    -0.109 C  
HETATM   24  C   UNL     1      -7.868   5.035  66.290  1.00  0.00    -0.099 C  
HETATM   25  O   UNL     1      -8.150   5.846  62.813  1.00  0.00    -0.103 OA 
HETATM   26  O   UNL     1     -10.075   2.806  64.147  1.00  0.00    -0.149 OA 
HETATM   27  C   UNL     1      -8.835   3.269  64.596  1.00  0.00    -0.113 C  
HETATM   28  C   UNL     1      -8.889   3.876  65.975  1.00  0.00    -0.123 C  
ENDROOT
BRANCH  16  29
HETATM   29  N   UNL     1     -10.346   9.477  70.586  1.00  0.00    -0.284 NA 
HETATM   30  C   UNL     1     -11.731   9.270  70.161  1.00  0.00     0.027 C  
HETATM   31  C   UNL     1     -10.119   9.202  72.004  1.00  0.00    -0.006 C  
ENDBRANCH  16  29
BRANCH  21  32
HETATM   32  C   UNL     1      -6.779   2.730  63.692  1.00  0.00    -0.032 C  
HETATM   33  O   UNL     1      -5.835   2.788  64.483  1.00  0.00    -0.013 OA 
HETATM   34  H2  UNL     1      -7.596   1.594  62.163  1.00  0.00     0.000 HD 
HETATM   35  N   UNL     1      -6.812   1.708  62.805  1.00  0.00    -0.021 N  
HETATM   36  H1  UNL     1      -6.029   1.055  62.801  1.00  0.00     0.000 HD 
ENDBRANCH  21  32
BRANCH  28  37
HETATM   37  N   UNL     1      -8.894   2.949  67.132  1.00  0.00    -0.132 NA 
HETATM   38  C   UNL     1      -7.578   2.786  67.744  1.00  0.00    -0.057 C  
HETATM   39  C   UNL     1      -9.886   3.261  68.162  1.00  0.00     0.235 C  
ENDBRANCH  28  37
TORSDOF 3
ENDMDL
MODEL       74
REMARK 921   NORMALIZED FREE ENERGY PREDICTED BY IDOCK:    0.02 KCAL/MOL
REMARK 922        TOTAL FREE ENERGY PREDICTED BY IDOCK:   -0.44 KCAL/MOL
REMARK 923 INTER-LIGAND FREE ENERGY PREDICTED BY IDOCK:   -0.99 KCAL/MOL
REMARK 924 INTRA-LIGAND FREE ENERGY PREDICTED BY IDOCK:    0.54 KCAL/MOL
REMARK 927      BINDING AFFINITY PREDICTED BY RF-SCORE:    0.00 PKD
ROOT
HETATM    1  C   UNL     1      -7.797   9.429  69.499  1.00  0.00    -0.091 C  
HETATM    2  C   UNL     1      -7.442  10.687  68.729  1.00  0.00    -0.104 C  
HETATM    3  C   UNL     1      -6.875  11.824  69.504  1.00  0.00    -0.026 A  
HETATM    4  C   UNL     1      -6.257  11.539  70.748  1.00  0.00     0.372 A  
HETATM    5  C   UNL     1      -5.750  12.598  71.506  1.00  0.00     0.400 A  
HETATM    6  C   UNL     1      -6.103  10.125  71.240  1.00  0.00     0.122 C  
HETATM    7  C   UNL     1      -5.844  13.901  71.040  1.00  0.00    -0.198 A  
HETATM    8  O   UNL     1      -5.426   9.888  72.241  1.00  0.00    -0.244 OA 
HETATM    9  C   UNL     1      -6.785   9.007  70.506  1.00  0.00    -0.058 C  
HETATM   10  O   UNL     1      -5.137  12.438  72.720  1.00  0.00    -0.363 OA 
HETATM   11  H   UNL     1      -4.793  13.158  73.236  1.00  0.00     0.000 HD 
HETATM   12  C   UNL     1      -6.416  14.160  69.789  1.00  0.00    -0.130 A  
HETATM   13  C   UNL     1      -6.593   7.693  70.785  1.00  0.00    -0.038 C  
HETATM   14  C   UNL     1      -7.389   6.541  70.109  1.00  0.00    -0.089 C  
HETATM   15  O   UNL     1      -5.795   7.282  71.848  1.00  0.00    -0.037 OA 
HETATM   16  C   UNL     1      -6.936  13.143  68.970  1.00  0.00    -0.063 A  
HETATM   17  O   UNL     1      -8.217   6.032  71.184  1.00  0.00    -0.119 OA 
HETATM   18  H   UNL     1      -5.661   6.363  72.044  1.00  0.00     0.000 HD 
HETATM   19  H   UNL     1      -7.467   4.625  65.709  1.00  0.00     0.000 HD 
HETATM   20  C   UNL     1      -6.599   5.290  69.663  1.00  0.00    -0.043 C  
HETATM   21  C   UNL     1      -7.346   4.237  68.899  1.00  0.00    -0.055 C  
HETATM   22  H   UNL     1      -8.703   5.329  70.770  1.00  0.00     0.000 HD 
HETATM   23  C   UNL     1      -7.922   8.374  68.426  1.00  0.00    -0.118 C  
HETATM   24  C   UNL     1      -8.312   6.994  68.941  1.00  0.00    -0.125 C  
HETATM   25  O   UNL     1      -5.391   5.127  69.837  1.00  0.00    -0.003 OA 
HETATM   26  O   UNL     1      -7.167   4.279  66.542  1.00  0.00    -0.072 OA 
HETATM   27  C   UNL     1      -7.769   4.726  67.722  1.00  0.00    -0.083 C  
HETATM   28  C   UNL     1      -8.308   6.130  67.622  1.00  0.00    -0.112 C  
ENDROOT
BRANCH  16  29
HETATM   29  N   UNL     1      -7.433  13.477  67.710  1.00  0.00    -0.149 NA 
HETATM   30  C   UNL     1      -6.859  12.883  66.503  1.00  0.00     1.580 C  
HETATM   31  C   UNL     1      -8.374  14.564  67.440  1.00  0.00    -0.200 C  
ENDBRANCH  16  29
BRANCH  21  32
HETATM   32  C   UNL     1      -8.433   3.398  69.492  1.00  0.00    -0.061 C  
HETATM   33  O   UNL     1      -9.629   3.694  69.444  1.00  0.00    -0.184 OA 
HETATM   34  H2  UNL     1      -7.112   1.912  70.078  1.00  0.00     0.000 HD 
HETATM   35  N   UNL     1      -8.084   2.218  70.057  1.00  0.00    -0.041 N  
HETATM   36  H1  UNL     1      -8.825   1.646  70.461  1.00  0.00     0.000 HD 
ENDBRANCH  21  32
BRANCH  28  37
HETATM   37  N   UNL     1      -9.619   6.315  66.954  1.00  0.00    -0.142 NA 
HETATM   38  C   UNL     1     -10.366   5.069  66.799  1.00  0.00    -0.244 C  
HETATM   39  C   UNL     1     -10.476   7.335  67.559  1.00  0.00    -0.266 C  
ENDBRANCH  28  37
TORSDOF 3
ENDMDL
MODEL       75
REMARK 921   NORMALIZED FREE ENERGY PREDICTED BY IDOCK:    1.44 KCAL/MOL
REMARK 922        TOTAL FREE ENERGY PREDICTED BY IDOCK:    1.23 KCAL/MOL
REMARK 923 INTER-LIGAND FREE ENERGY PREDICTED BY IDOCK:    0.41 KCAL/MOL
REMARK 924 INTRA-LIGAND FREE ENERGY PREDICTED BY IDOCK:    0.82 KCAL/MOL
REMARK 927      BINDING AFFINITY PREDICTED BY RF-SCORE:    0.00 PKD
ROOT
HETATM    1  C   UNL     1      -9.154  10.571  67.350  1.00  0.00    -0.147 C  
HETATM    2  C   UNL     1      -8.104   9.968  68.263  1.00  0.00    -0.104 C  
HETATM    3  C   UNL     1      -7.290   8.847  67.719  1.00  0.00    -0.085 A  
HETATM    4  C   UNL     1      -7.178   8.728  66.310  1.00  0.00    -0.086 A  
HETATM    5  C   UNL     1      -6.447   7.661  65.780  1.00  0.00    -0.042 A  
HETATM    6  C   UNL     1      -7.793   9.745  65.387  1.00  0.00    -0.122 C  
HETATM    7  C   UNL     1      -5.835   6.744  66.623  1.00  0.00    -0.022 A  
HETATM    8  O   UNL     1      -7.551   9.713  64.180  1.00  0.00    -0.117 OA 
HETATM    9  C   UNL     1      -8.707  10.796  65.947  1.00  0.00    -0.189 C  
HETATM   10  O   UNL     1      -6.276   7.448  64.439  1.00  0.00    -0.040 OA 
HETATM   11  H   UNL     1      -5.780   6.724  64.079  1.00  0.00     0.000 HD 
HETATM   12  C   UNL     1      -5.917   6.902  68.011  1.00  0.00    -0.032 A  
HETATM   13  C   UNL     1      -9.195  11.836  65.224  1.00  0.00     0.035 C  
HETATM   14  C   UNL     1     -10.236  12.853  65.769  1.00  0.00    -0.288 C  
HETATM   15  O   UNL     1      -8.941  11.959  63.862  1.00  0.00    -0.267 OA 
HETATM   16  C   UNL     1      -6.627   7.957  68.612  1.00  0.00    -0.057 A  
HETATM   17  O   UNL     1     -11.432  12.545  65.011  1.00  0.00    -0.306 OA 
HETATM   18  H   UNL     1      -9.283  12.686  63.356  1.00  0.00     0.000 HD 
HETATM   19  H   UNL     1     -10.119  16.390  69.012  1.00  0.00     0.000 HD 
HETATM   20  C   UNL     1     -10.008  14.350  65.455  1.00  0.00    -0.311 C  
HETATM   21  C   UNL     1     -10.942  15.338  66.086  1.00  0.00    -0.307 C  
HETATM   22  H   UNL     1     -12.068  13.166  65.344  1.00  0.00     0.000 HD 
HETATM   23  C   UNL     1      -9.480  11.895  68.001  1.00  0.00    -0.197 C  
HETATM   24  C   UNL     1     -10.555  12.703  67.285  1.00  0.00    -0.244 C  
HETATM   25  O   UNL     1      -9.079  14.788  64.775  1.00  0.00     1.375 OA 
HETATM   26  O   UNL     1     -10.212  16.405  68.067  1.00  0.00    -0.248 OA 
HETATM   27  C   UNL     1     -10.811  15.318  67.423  1.00  0.00    -0.304 C  
HETATM   28  C   UNL     1     -10.625  14.014  68.157  1.00  0.00    -0.248 C  
ENDROOT
BRANCH  16  29
HETATM   29  N   UNL     1      -6.609   8.080  70.001  1.00  0.00    -0.039 NA 
HETATM   30  C   UNL     1      -6.956   6.942  70.853  1.00  0.00    -0.066 C  
HETATM   31  C   UNL     1      -6.474   9.341  70.730  1.00  0.00    -0.079 C  
ENDBRANCH  16  29
BRANCH  21  32
HETATM   32  C   UNL     1     -12.395  15.440  65.746  1.00  0.00     0.817 C  
HETATM   33  O   UNL     1     -13.303  15.240  66.556  1.00  0.00     2.321 OA 
HETATM   34  H2  UNL     1     -12.007  16.053  63.804  1.00  0.00     0.000 HD 
HETATM   35  N   UNL     1     -12.725  15.833  64.494  1.00  0.00     0.284 N  
HETATM   36  H1  UNL     1     -13.716  15.902  64.262  1.00  0.00     0.000 HD 
ENDBRANCH  21  32
BRANCH  28  37
HETATM   37  N   UNL     1     -11.516  13.745  69.311  1.00  0.00    -0.277 NA 
HETATM   38  C   UNL     1     -12.617  14.699  69.422  1.00  0.00     0.057 C  
HETATM   39  C   UNL     1     -12.034  12.378  69.379  1.00  0.00    -0.260 C  
ENDBRANCH  28  37
TORSDOF 3
ENDMDL
MODEL       76
REMARK 921   NORMALIZED FREE ENERGY PREDICTED BY IDOCK:    1.52 KCAL/MOL
REMARK 922        TOTAL FREE ENERGY PREDICTED BY IDOCK:    1.32 KCAL/MOL
REMARK 923 INTER-LIGAND FREE ENERGY PREDICTED BY IDOCK:    1.26 KCAL/MOL
REMARK 924 INTRA-LIGAND FREE ENERGY PREDICTED BY IDOCK:    0.06 KCAL/MOL
REMARK 927      BINDING AFFINITY PREDICTED BY RF-SCORE:    0.00 PKD
ROOT
HETATM    1  C   UNL     1     -11.646  11.701  68.653  1.00  0.00    -0.373 C  
HETATM    2  C   UNL     1     -11.677  12.633  69.848  1.00  0.00    -0.320 C  
HETATM    3  C   UNL     1     -12.513  12.226  71.010  1.00  0.00    -0.361 A  
HETATM    4  C   UNL     1     -12.822  10.850  71.158  1.00  0.00    -0.508 A  
HETATM    5  C   UNL     1     -13.636  10.453  72.223  1.00  0.00    -0.004 A  
HETATM    6  C   UNL     1     -12.259   9.816  70.220  1.00  0.00     0.017 C  
HETATM    7  C   UNL     1     -14.121  11.393  73.121  1.00  0.00     3.195 A  
HETATM    8  O   UNL     1     -12.409   8.617  70.458  1.00  0.00     0.050 OA 
HETATM    9  C   UNL     1     -11.520  10.256  68.990  1.00  0.00    -0.200 C  
HETATM   10  O   UNL     1     -13.999   9.155  72.459  1.00  0.00    -0.585 OA 
HETATM   11  H   UNL     1     -14.552   8.885  73.182  1.00  0.00     0.000 HD 
HETATM   12  C   UNL     1     -13.769  12.740  72.987  1.00  0.00     1.264 A  
HETATM   13  C   UNL     1     -10.858   9.408  68.163  1.00  0.00    -0.119 C  
HETATM   14  C   UNL     1     -10.196   9.846  66.826  1.00  0.00    -0.236 C  
HETATM   15  O   UNL     1     -10.885   8.030  68.357  1.00  0.00    -0.421 OA 
HETATM   16  C   UNL     1     -12.947  13.208  71.947  1.00  0.00    -0.314 A  
HETATM   17  O   UNL     1     -11.031   9.219  65.821  1.00  0.00     0.807 OA 
HETATM   18  H   UNL     1     -10.423   7.437  67.778  1.00  0.00     0.000 HD 
HETATM   19  H   UNL     1      -6.351  12.474  65.668  1.00  0.00     0.000 HD 
HETATM   20  C   UNL     1      -8.792   9.285  66.504  1.00  0.00    -0.133 C  
HETATM   21  C   UNL     1      -8.105   9.807  65.278  1.00  0.00    -0.126 C  
HETATM   22  H   UNL     1     -10.626   9.488  65.004  1.00  0.00     0.000 HD 
HETATM   23  C   UNL     1     -10.433  12.153  67.874  1.00  0.00    -0.224 C  
HETATM   24  C   UNL     1     -10.190  11.383  66.582  1.00  0.00    -0.258 C  
HETATM   25  O   UNL     1      -8.177   8.490  67.215  1.00  0.00    -0.107 OA 
HETATM   26  O   UNL     1      -6.530  11.545  65.577  1.00  0.00     0.421 OA 
HETATM   27  C   UNL     1      -7.851  11.119  65.407  1.00  0.00     0.298 C  
HETATM   28  C   UNL     1      -8.860  12.038  66.046  1.00  0.00     0.047 C  
ENDROOT
BRANCH  16  29
HETATM   29  N   UNL     1     -12.592  14.556  71.919  1.00  0.00    -0.334 NA 
HETATM   30  C   UNL     1     -13.614  15.597  72.020  1.00  0.00    -0.441 C  
HETATM   31  C   UNL     1     -11.265  15.067  71.575  1.00  0.00    -0.182 C  
ENDBRANCH  16  29
BRANCH  21  32
HETATM   32  C   UNL     1      -8.582   9.543  63.885  1.00  0.00    -0.212 C  
HETATM   33  O   UNL     1      -8.335  10.278  62.926  1.00  0.00    -0.151 OA 
HETATM   34  H2  UNL     1      -9.458   7.740  64.413  1.00  0.00     0.000 HD 
HETATM   35  N   UNL     1      -9.271   8.400  63.658  1.00  0.00     0.384 N  
HETATM   36  H1  UNL     1      -9.596   8.220  62.708  1.00  0.00     0.000 HD 
ENDBRANCH  21  32
BRANCH  28  37
HETATM   37  N   UNL     1      -9.227  13.272  65.310  1.00  0.00     0.562 NA 
HETATM   38  C   UNL     1     -10.606  13.266  64.830  1.00  0.00    -0.386 C  
HETATM   39  C   UNL     1      -8.956  14.518  66.029  1.00  0.00     0.207 C  
ENDBRANCH  28  37
TORSDOF 3
ENDMDL
MODEL       77
REMARK 921   NORMALIZED FREE ENERGY PREDICTED BY IDOCK:    4.43 KCAL/MOL
REMARK 922        TOTAL FREE ENERGY PREDICTED BY IDOCK:    4.74 KCAL/MOL
REMARK 923 INTER-LIGAND FREE ENERGY PREDICTED BY IDOCK:    4.85 KCAL/MOL
REMARK 924 INTRA-LIGAND FREE ENERGY PREDICTED BY IDOCK:   -0.11 KCAL/MOL
REMARK 927      BINDING AFFINITY PREDICTED BY RF-SCORE:    0.00 PKD
ROOT
HETATM    1  C   UNL     1      -8.846  12.486  67.795  1.00  0.00    -0.178 C  
HETATM    2  C   UNL     1      -9.901  13.569  67.667  1.00  0.00    -0.228 C  
HETATM    3  C   UNL     1      -9.663  14.843  68.399  1.00  0.00    -0.209 A  
HETATM    4  C   UNL     1      -8.328  15.171  68.747  1.00  0.00    -0.175 A  
HETATM    5  C   UNL     1      -8.089  16.346  69.466  1.00  0.00     0.169 A  
HETATM    6  C   UNL     1      -7.173  14.304  68.325  1.00  0.00    -0.117 C  
HETATM    7  C   UNL     1      -9.142  17.177  69.819  1.00  0.00     1.022 A  
HETATM    8  O   UNL     1      -6.015  14.686  68.499  1.00  0.00    -0.083 OA 
HETATM    9  C   UNL     1      -7.441  12.968  67.694  1.00  0.00    -0.156 C  
HETATM   10  O   UNL     1      -6.844  16.758  69.856  1.00  0.00    -0.021 OA 
HETATM   11  H   UNL     1      -6.681  17.555  70.344  1.00  0.00     0.000 HD 
HETATM   12  C   UNL     1     -10.448  16.862  69.428  1.00  0.00    -0.283 A  
HETATM   13  C   UNL     1      -6.477  12.180  67.154  1.00  0.00    -0.135 C  
HETATM   14  C   UNL     1      -6.736  10.747  66.613  1.00  0.00    -0.120 C  
HETATM   15  O   UNL     1      -5.131  12.527  67.219  1.00  0.00    -0.224 OA 
HETATM   16  C   UNL     1     -10.760  15.703  68.696  1.00  0.00    -0.256 A  
HETATM   17  O   UNL     1      -6.051   9.900  67.569  1.00  0.00    -0.057 OA 
HETATM   18  H   UNL     1      -4.457  11.976  66.841  1.00  0.00     0.000 HD 
HETATM   19  H   UNL     1      -9.024   8.944  62.798  1.00  0.00     0.000 HD 
HETATM   20  C   UNL     1      -6.073  10.356  65.272  1.00  0.00    -0.130 C  
HETATM   21  C   UNL     1      -6.425   9.020  64.690  1.00  0.00    -0.070 C  
HETATM   22  H   UNL     1      -6.209   9.024  67.238  1.00  0.00     0.000 HD 
HETATM   23  C   UNL     1      -9.150  11.551  66.648  1.00  0.00    -0.193 C  
HETATM   24  C   UNL     1      -8.236  10.334  66.568  1.00  0.00    -0.127 C  
HETATM   25  O   UNL     1      -5.326  11.089  64.622  1.00  0.00    -0.174 OA 
HETATM   26  O   UNL     1      -8.102   8.973  63.023  1.00  0.00    -0.148 OA 
HETATM   27  C   UNL     1      -7.729   8.978  64.371  1.00  0.00    -0.118 C  
HETATM   28  C   UNL     1      -8.761   9.605  65.273  1.00  0.00    -0.160 C  
ENDROOT
BRANCH  16  29
HETATM   29  N   UNL     1     -12.077  15.492  68.290  1.00  0.00    -0.038 NA 
HETATM   30  C   UNL     1     -13.130  15.252  69.277  1.00  0.00     1.006 C  
HETATM   31  C   UNL     1     -12.505  15.269  66.909  1.00  0.00     1.081 C  
ENDBRANCH  16  29
BRANCH  21  32
HETATM   32  C   UNL     1      -6.040   7.716  65.315  1.00  0.00    -0.038 C  
HETATM   33  O   UNL     1      -6.378   7.375  66.450  1.00  0.00    -0.040 OA 
HETATM   34  H2  UNL     1      -5.069   7.062  63.604  1.00  0.00     0.000 HD 
HETATM   35  N   UNL     1      -5.332   6.841  64.564  1.00  0.00    -0.026 N  
HETATM   36  H1  UNL     1      -5.069   5.951  64.990  1.00  0.00     0.000 HD 
ENDBRANCH  21  32
BRANCH  28  37
HETATM   37  N   UNL     1      -9.928   8.775  65.660  1.00  0.00     0.135 NA 
HETATM   38  C   UNL     1     -10.249   7.742  64.679  1.00  0.00     5.179 C  
HETATM   39  C   UNL     1      -9.841   8.184  66.996  1.00  0.00    -0.232 C  
ENDBRANCH  28  37
TORSDOF 3
ENDMDL
MODEL       78
REMARK 921   NORMALIZED FREE ENERGY PREDICTED BY IDOCK:    4.74 KCAL/MOL
REMARK 922        TOTAL FREE ENERGY PREDICTED BY IDOCK:    5.10 KCAL/MOL
REMARK 923 INTER-LIGAND FREE ENERGY PREDICTED BY IDOCK:    5.07 KCAL/MOL
REMARK 924 INTRA-LIGAND FREE ENERGY PREDICTED BY IDOCK:    0.03 KCAL/MOL
REMARK 927      BINDING AFFINITY PREDICTED BY RF-SCORE:    0.00 PKD
ROOT
HETATM    1  C   UNL     1      -9.750   7.617  70.192  1.00  0.00    -0.179 C  
HETATM    2  C   UNL     1     -10.759   7.702  71.321  1.00  0.00    -0.248 C  
HETATM    3  C   UNL     1     -10.788   6.579  72.296  1.00  0.00    -0.262 A  
HETATM    4  C   UNL     1      -9.623   5.781  72.427  1.00  0.00    -0.164 A  
HETATM    5  C   UNL     1      -9.643   4.699  73.312  1.00  0.00    -0.125 A  
HETATM    6  C   UNL     1      -8.365   6.101  71.664  1.00  0.00    -0.126 C  
HETATM    7  C   UNL     1     -10.782   4.424  74.055  1.00  0.00    -0.334 A  
HETATM    8  O   UNL     1      -7.321   5.495  71.909  1.00  0.00    -0.087 OA 
HETATM    9  C   UNL     1      -8.393   7.160  70.600  1.00  0.00    -0.126 C  
HETATM   10  O   UNL     1      -8.579   3.863  73.514  1.00  0.00    -0.090 OA 
HETATM   11  H   UNL     1      -8.592   3.128  74.115  1.00  0.00     0.000 HD 
HETATM   12  C   UNL     1     -11.907   5.249  73.949  1.00  0.00     1.728 A  
HETATM   13  C   UNL     1      -7.287   7.616  69.960  1.00  0.00    -0.080 C  
HETATM   14  C   UNL     1      -7.329   8.622  68.776  1.00  0.00    -0.083 C  
HETATM   15  O   UNL     1      -6.030   7.067  70.194  1.00  0.00    -0.023 OA 
HETATM   16  C   UNL     1     -11.953   6.358  73.086  1.00  0.00     0.756 A  
HETATM   17  O   UNL     1      -6.919   7.818  67.642  1.00  0.00    -0.076 OA 
HETATM   18  H   UNL     1      -5.257   7.387  69.746  1.00  0.00     0.000 HD 
HETATM   19  H   UNL     1      -8.352  13.292  68.350  1.00  0.00     0.000 HD 
HETATM   20  C   UNL     1      -6.293   9.770  68.774  1.00  0.00    -0.046 C  
HETATM   21  C   UNL     1      -6.415  10.809  67.700  1.00  0.00    -0.056 C  
HETATM   22  H   UNL     1      -6.945   8.433  66.918  1.00  0.00     0.000 HD 
HETATM   23  C   UNL     1      -9.676   9.032  69.668  1.00  0.00    -0.177 C  
HETATM   24  C   UNL     1      -8.736   9.218  68.483  1.00  0.00    -0.128 C  
HETATM   25  O   UNL     1      -5.416   9.922  69.626  1.00  0.00    -0.037 OA 
HETATM   26  O   UNL     1      -7.536  12.815  68.257  1.00  0.00    -0.117 OA 
HETATM   27  C   UNL     1      -7.569  11.483  67.831  1.00  0.00    -0.113 C  
HETATM   28  C   UNL     1      -8.839  10.767  68.213  1.00  0.00    -0.139 C  
ENDROOT
BRANCH  16  29
HETATM   29  N   UNL     1     -13.089   7.167  73.084  1.00  0.00     1.799 NA 
HETATM   30  C   UNL     1     -13.101   8.436  73.813  1.00  0.00     3.880 C  
HETATM   31  C   UNL     1     -14.402   6.768  72.579  1.00  0.00     0.420 C  
ENDBRANCH  16  29
BRANCH  21  32
HETATM   32  C   UNL     1      -6.181  10.532  66.249  1.00  0.00    -0.105 C  
HETATM   33  O   UNL     1      -6.576   9.516  65.673  1.00  0.00    -0.068 OA 
HETATM   34  H2  UNL     1      -5.251  12.359  65.941  1.00  0.00     0.000 HD 
HETATM   35  N   UNL     1      -5.554  11.483  65.517  1.00  0.00     0.013 N  
HETATM   36  H1  UNL     1      -5.395  11.294  64.527  1.00  0.00     0.000 HD 
ENDBRANCH  21  32
BRANCH  28  37
HETATM   37  N   UNL     1     -10.038  11.003  67.372  1.00  0.00    -0.182 NA 
HETATM   38  C   UNL     1      -9.771  11.859  66.219  1.00  0.00    -0.229 C  
HETATM   39  C   UNL     1     -10.731   9.789  66.941  1.00  0.00    -0.122 C  
ENDBRANCH  28  37
TORSDOF 3
ENDMDL
MODEL       79
REMARK 921   NORMALIZED FREE ENERGY PREDICTED BY IDOCK:    6.37 KCAL/MOL
REMARK 922        TOTAL FREE ENERGY PREDICTED BY IDOCK:    7.02 KCAL/MOL
REMARK 923 INTER-LIGAND FREE ENERGY PREDICTED BY IDOCK:    6.78 KCAL/MOL
REMARK 924 INTRA-LIGAND FREE ENERGY PREDICTED BY IDOCK:    0.24 KCAL/MOL
REMARK 927      BINDING AFFINITY PREDICTED BY RF-SCORE:    0.00 PKD
ROOT
HETATM    1  C   UNL     1     -10.030  14.113  68.058  1.00  0.00    -0.226 C  
HETATM    2  C   UNL     1      -9.501  12.812  68.629  1.00  0.00    -0.002 C  
HETATM    3  C   UNL     1     -10.003  11.548  68.026  1.00  0.00    -0.197 A  
HETATM    4  C   UNL     1     -10.522  11.600  66.707  1.00  0.00    -0.265 A  
HETATM    5  C   UNL     1     -11.030  10.430  66.136  1.00  0.00     0.195 A  
HETATM    6  C   UNL     1     -10.497  12.874  65.905  1.00  0.00    -0.279 C  
HETATM    7  C   UNL     1     -11.014   9.239  66.849  1.00  0.00     0.140 A  
HETATM    8  O   UNL     1     -10.805  12.862  64.713  1.00  0.00    -0.298 OA 
HETATM    9  C   UNL     1     -10.100  14.159  66.571  1.00  0.00    -0.283 C  
HETATM   10  O   UNL     1     -11.557  10.366  64.875  1.00  0.00     1.264 OA 
HETATM   11  H   UNL     1     -11.902   9.571  64.487  1.00  0.00     0.000 HD 
HETATM   12  C   UNL     1     -10.456   9.195  68.131  1.00  0.00    -0.260 A  
HETATM   13  C   UNL     1      -9.912  15.327  65.906  1.00  0.00    -0.340 C  
HETATM   14  C   UNL     1      -9.621  16.683  66.607  1.00  0.00    -0.263 C  
HETATM   15  O   UNL     1     -10.155  15.436  64.540  1.00  0.00    -0.372 OA 
HETATM   16  C   UNL     1      -9.918  10.331  68.762  1.00  0.00    -0.179 A  
HETATM   17  O   UNL     1     -10.833  17.444  66.379  1.00  0.00    -0.133 OA 
HETATM   18  H   UNL     1     -10.024  16.253  64.075  1.00  0.00     0.000 HD 
HETATM   19  H   UNL     1      -5.872  18.520  68.977  1.00  0.00     0.000 HD 
HETATM   20  C   UNL     1      -8.527  17.588  65.993  1.00  0.00    -0.064 C  
HETATM   21  C   UNL     1      -8.162  18.835  66.741  1.00  0.00    -0.286 C  
HETATM   22  H   UNL     1     -10.655  18.272  66.808  1.00  0.00     0.000 HD 
HETATM   23  C   UNL     1      -9.052  15.150  68.557  1.00  0.00    -0.191 C  
HETATM   24  C   UNL     1      -9.380  16.579  68.141  1.00  0.00    -0.218 C  
HETATM   25  O   UNL     1      -7.897  17.326  64.968  1.00  0.00     1.537 OA 
HETATM   26  O   UNL     1      -6.255  18.739  68.136  1.00  0.00    -0.201 OA 
HETATM   27  C   UNL     1      -7.621  18.524  67.931  1.00  0.00    -0.239 C  
HETATM   28  C   UNL     1      -8.176  17.391  68.755  1.00  0.00    -0.226 C  
ENDROOT
BRANCH  16  29
HETATM   29  N   UNL     1      -9.325  10.191  70.016  1.00  0.00    -0.111 NA 
HETATM   30  C   UNL     1     -10.142  10.179  71.229  1.00  0.00     1.314 C  
HETATM   31  C   UNL     1      -7.887  10.266  70.277  1.00  0.00     0.225 C  
ENDBRANCH  16  29
BRANCH  21  32
HETATM   32  C   UNL     1      -9.088  19.996  66.921  1.00  0.00    -0.361 C  
HETATM   33  O   UNL     1      -8.943  20.858  67.790  1.00  0.00    -0.070 OA 
HETATM   34  H2  UNL     1     -10.238  19.469  65.278  1.00  0.00     0.000 HD 
HETATM   35  N   UNL     1     -10.107  20.134  66.040  1.00  0.00    -0.560 N  
HETATM   36  H1  UNL     1     -10.739  20.925  66.163  1.00  0.00     0.000 HD 
ENDBRANCH  21  32
BRANCH  28  37
HETATM   37  N   UNL     1      -8.495  17.670  70.176  1.00  0.00     2.242 NA 
HETATM   38  C   UNL     1      -8.784  19.078  70.435  1.00  0.00     2.307 C  
HETATM   39  C   UNL     1      -9.554  16.833  70.742  1.00  0.00     3.189 C  
ENDBRANCH  28  37
TORSDOF 3
ENDMDL
MODEL       80
REMARK 921   NORMALIZED FREE ENERGY PREDICTED BY IDOCK:    7.17 KCAL/MOL
REMARK 922        TOTAL FREE ENERGY PREDICTED BY IDOCK:    7.97 KCAL/MOL
REMARK 923 INTER-LIGAND FREE ENERGY PREDICTED BY IDOCK:    7.73 KCAL/MOL
REMARK 924 INTRA-LIGAND FREE ENERGY PREDICTED BY IDOCK:    0.24 KCAL/MOL
REMARK 927      BINDING AFFINITY PREDICTED BY RF-SCORE:    0.00 PKD
ROOT
HETATM    1  C   UNL     1      -8.660  13.313  68.667  1.00  0.00     0.026 C  
HETATM    2  C   UNL     1      -7.991  14.643  68.957  1.00  0.00    -0.122 C  
HETATM    3  C   UNL     1      -8.838  15.719  69.540  1.00  0.00    -0.169 A  
HETATM    4  C   UNL     1     -10.020  15.339  70.225  1.00  0.00     0.061 A  
HETATM    5  C   UNL     1     -10.846  16.338  70.748  1.00  0.00     0.069 A  
HETATM    6  C   UNL     1     -10.374  13.891  70.432  1.00  0.00     1.743 C  
HETATM    7  C   UNL     1     -10.505  17.675  70.605  1.00  0.00     1.733 A  
HETATM    8  O   UNL     1     -11.315  13.582  71.163  1.00  0.00     0.837 OA 
HETATM    9  C   UNL     1      -9.575  12.827  69.737  1.00  0.00     2.172 C  
HETATM   10  O   UNL     1     -12.009  16.086  71.424  1.00  0.00    -0.420 OA 
HETATM   11  H   UNL     1     -12.571  16.764  71.779  1.00  0.00     0.000 HD 
HETATM   12  C   UNL     1      -9.312  18.031  69.966  1.00  0.00     1.672 A  
HETATM   13  C   UNL     1      -9.724  11.498  69.968  1.00  0.00     1.879 C  
HETATM   14  C   UNL     1      -8.985  10.393  69.163  1.00  0.00    -0.179 C  
HETATM   15  O   UNL     1     -10.706  11.013  70.827  1.00  0.00     0.131 OA 
HETATM   16  C   UNL     1      -8.429  17.080  69.426  1.00  0.00     0.297 A  
HETATM   17  O   UNL     1     -10.048   9.769  68.400  1.00  0.00    -0.155 OA 
HETATM   18  H   UNL     1     -10.811  10.084  70.989  1.00  0.00     0.000 HD 
HETATM   19  H   UNL     1      -4.439   8.877  68.903  1.00  0.00     0.000 HD 
HETATM   20  C   UNL     1      -8.390   9.206  69.955  1.00  0.00    -0.144 C  
HETATM   21  C   UNL     1      -7.571   8.208  69.192  1.00  0.00    -0.096 C  
HETATM   22  H   UNL     1      -9.597   9.094  67.908  1.00  0.00     0.000 HD 
HETATM   23  C   UNL     1      -7.503  12.355  68.509  1.00  0.00    -0.112 C  
HETATM   24  C   UNL     1      -7.908  10.925  68.173  1.00  0.00    -0.114 C  
HETATM   25  O   UNL     1      -8.490   9.058  71.173  1.00  0.00    -0.187 OA 
HETATM   26  O   UNL     1      -5.221   8.466  69.251  1.00  0.00    -0.030 OA 
HETATM   27  C   UNL     1      -6.465   8.790  68.700  1.00  0.00    -0.054 C  
HETATM   28  C   UNL     1      -6.518  10.184  68.129  1.00  0.00    -0.057 C  
ENDROOT
BRANCH  16  29
HETATM   29  N   UNL     1      -7.231  17.512  68.860  1.00  0.00    -0.256 NA 
HETATM   30  C   UNL     1      -6.379  18.472  69.563  1.00  0.00    -0.243 C  
HETATM   31  C   UNL     1      -6.813  17.257  67.481  1.00  0.00    -0.151 C  
ENDBRANCH  16  29
BRANCH  21  32
HETATM   32  C   UNL     1      -8.136   7.293  68.153  1.00  0.00    -0.124 C  
HETATM   33  O   UNL     1      -9.307   6.906  68.145  1.00  0.00    -0.126 OA 
HETATM   34  H2  UNL     1      -6.367   7.254  67.073  1.00  0.00     0.000 HD 
HETATM   35  N   UNL     1      -7.329   6.921  67.132  1.00  0.00    -0.088 N  
HETATM   36  H1  UNL     1      -7.714   6.296  66.423  1.00  0.00     0.000 HD 
ENDBRANCH  21  32
BRANCH  28  37
HETATM   37  N   UNL     1      -5.934  10.395  66.783  1.00  0.00    -0.059 NA 
HETATM   38  C   UNL     1      -5.415   9.169  66.182  1.00  0.00    -0.041 C  
HETATM   39  C   UNL     1      -6.813  11.080  65.834  1.00  0.00     0.036 C  
ENDBRANCH  28  37
TORSDOF 3
ENDMDL
MODEL       81
REMARK 921   NORMALIZED FREE ENERGY PREDICTED BY IDOCK:    7.35 KCAL/MOL
REMARK 922        TOTAL FREE ENERGY PREDICTED BY IDOCK:    8.18 KCAL/MOL
REMARK 923 INTER-LIGAND FREE ENERGY PREDICTED BY IDOCK:    6.97 KCAL/MOL
REMARK 924 INTRA-LIGAND FREE ENERGY PREDICTED BY IDOCK:    1.21 KCAL/MOL
REMARK 927      BINDING AFFINITY PREDICTED BY RF-SCORE:    0.00 PKD
ROOT
HETATM    1  C   UNL     1      -8.770   8.835  68.883  1.00  0.00    -0.134 C  
HETATM    2  C   UNL     1      -9.105   8.891  70.362  1.00  0.00    -0.217 C  
HETATM    3  C   UNL     1      -8.359   7.973  71.264  1.00  0.00    -0.130 A  
HETATM    4  C   UNL     1      -7.103   7.481  70.825  1.00  0.00    -0.059 A  
HETATM    5  C   UNL     1      -6.405   6.590  71.644  1.00  0.00    -0.042 A  
HETATM    6  C   UNL     1      -6.499   7.932  69.523  1.00  0.00    -0.035 C  
HETATM    7  C   UNL     1      -6.931   6.205  72.869  1.00  0.00    -0.076 A  
HETATM    8  O   UNL     1      -5.343   7.619  69.235  1.00  0.00    -0.015 OA 
HETATM    9  C   UNL     1      -7.316   8.760  68.574  1.00  0.00    -0.085 C  
HETATM   10  O   UNL     1      -5.189   6.052  71.319  1.00  0.00    -0.016 OA 
HETATM   11  H   UNL     1      -4.714   5.447  71.875  1.00  0.00     0.000 HD 
HETATM   12  C   UNL     1      -8.149   6.735  73.308  1.00  0.00    -0.114 A  
HETATM   13  C   UNL     1      -6.818   9.330  67.448  1.00  0.00    -0.077 C  
HETATM   14  C   UNL     1      -7.689  10.084  66.404  1.00  0.00    -0.103 C  
HETATM   15  O   UNL     1      -5.505   9.116  67.041  1.00  0.00    -0.039 OA 
HETATM   16  C   UNL     1      -8.900   7.643  72.541  1.00  0.00    -0.137 A  
HETATM   17  O   UNL     1      -7.663   9.207  65.251  1.00  0.00    -0.096 OA 
HETATM   18  H   UNL     1      -5.156   9.514  66.253  1.00  0.00     0.000 HD 
HETATM   19  H   UNL     1     -10.026  14.276  66.359  1.00  0.00     0.000 HD 
HETATM   20  C   UNL     1      -7.137  11.412  65.836  1.00  0.00     0.343 C  
HETATM   21  C   UNL     1      -8.032  12.200  64.927  1.00  0.00     2.714 C  
HETATM   22  H   UNL     1      -8.195   9.667  64.614  1.00  0.00     0.000 HD 
HETATM   23  C   UNL     1      -9.345  10.121  68.336  1.00  0.00    -0.137 C  
HETATM   24  C   UNL     1      -9.169  10.300  66.833  1.00  0.00    -0.171 C  
HETATM   25  O   UNL     1      -6.042  11.895  66.126  1.00  0.00     0.033 OA 
HETATM   26  O   UNL     1      -9.256  13.979  65.889  1.00  0.00    -0.055 OA 
HETATM   27  C   UNL     1      -9.120  12.620  65.592  1.00  0.00     0.377 C  
HETATM   28  C   UNL     1      -9.807  11.721  66.588  1.00  0.00    -0.202 C  
ENDROOT
BRANCH  16  29
HETATM   29  N   UNL     1     -10.073   8.173  73.076  1.00  0.00    -0.281 NA 
HETATM   30  C   UNL     1     -10.910   9.077  72.286  1.00  0.00    -0.019 C  
HETATM   31  C   UNL     1     -10.471   8.083  74.481  1.00  0.00     3.970 C  
ENDBRANCH  16  29
BRANCH  21  32
HETATM   32  C   UNL     1      -8.448  11.735  63.567  1.00  0.00     1.091 C  
HETATM   33  O   UNL     1      -9.412  12.195  62.952  1.00  0.00    -0.200 OA 
HETATM   34  H2  UNL     1      -6.848  10.426  63.409  1.00  0.00     0.000 HD 
HETATM   35  N   UNL     1      -7.682  10.801  62.957  1.00  0.00    -0.362 N  
HETATM   36  H1  UNL     1      -7.965  10.484  62.029  1.00  0.00     0.000 HD 
ENDBRANCH  21  32
BRANCH  28  37
HETATM   37  N   UNL     1     -11.273  11.543  66.454  1.00  0.00    -0.288 NA 
HETATM   38  C   UNL     1     -11.740  10.243  66.929  1.00  0.00     1.661 C  
HETATM   39  C   UNL     1     -12.077  12.609  67.052  1.00  0.00    -0.132 C  
ENDBRANCH  28  37
TORSDOF 3
ENDMDL
MODEL       82
REMARK 921   NORMALIZED FREE ENERGY PREDICTED BY IDOCK:    7.56 KCAL/MOL
REMARK 922        TOTAL FREE ENERGY PREDICTED BY IDOCK:    8.43 KCAL/MOL
REMARK 923 INTER-LIGAND FREE ENERGY PREDICTED BY IDOCK:    7.75 KCAL/MOL
REMARK 924 INTRA-LIGAND FREE ENERGY PREDICTED BY IDOCK:    0.68 KCAL/MOL
REMARK 927      BINDING AFFINITY PREDICTED BY RF-SCORE:    0.00 PKD
ROOT
HETATM    1  C   UNL     1      -8.989  11.315  69.280  1.00  0.00     0.243 C  
HETATM    2  C   UNL     1      -8.311  10.683  70.481  1.00  0.00     1.763 C  
HETATM    3  C   UNL     1      -7.617   9.384  70.268  1.00  0.00    -0.143 A  
HETATM    4  C   UNL     1      -7.206   9.057  68.950  1.00  0.00    -0.073 A  
HETATM    5  C   UNL     1      -6.586   7.825  68.725  1.00  0.00    -0.049 A  
HETATM    6  C   UNL     1      -7.390  10.023  67.810  1.00  0.00    -0.089 C  
HETATM    7  C   UNL     1      -6.368   6.947  69.777  1.00  0.00    -0.039 A  
HETATM    8  O   UNL     1      -6.886   9.787  66.712  1.00  0.00    -0.081 OA 
HETATM    9  C   UNL     1      -8.196  11.272  68.021  1.00  0.00    -0.134 C  
HETATM   10  O   UNL     1      -6.152   7.407  67.496  1.00  0.00    -0.043 OA 
HETATM   11  H   UNL     1      -5.730   6.570  67.342  1.00  0.00     0.000 HD 
HETATM   12  C   UNL     1      -6.738   7.305  71.078  1.00  0.00    -0.048 A  
HETATM   13  C   UNL     1      -8.300  12.266  67.103  1.00  0.00    -0.183 C  
HETATM   14  C   UNL     1      -9.230  13.501  67.270  1.00  0.00    -0.233 C  
HETATM   15  O   UNL     1      -7.719  12.161  65.844  1.00  0.00     0.138 OA 
HETATM   16  C   UNL     1      -7.357   8.531  71.379  1.00  0.00    -0.095 A  
HETATM   17  O   UNL     1     -10.253  13.285  66.268  1.00  0.00    -0.282 OA 
HETATM   18  H   UNL     1      -7.792  12.856  65.202  1.00  0.00     0.000 HD 
HETATM   19  H   UNL     1      -9.207  17.385  70.090  1.00  0.00     0.000 HD 
HETATM   20  C   UNL     1      -8.659  14.885  66.884  1.00  0.00    -0.239 C  
HETATM   21  C   UNL     1      -9.512  16.086  67.164  1.00  0.00    -0.225 C  
HETATM   22  H   UNL     1     -10.822  14.039  66.370  1.00  0.00     0.000 HD 
HETATM   23  C   UNL     1      -9.203  12.750  69.701  1.00  0.00     1.996 C  
HETATM   24  C   UNL     1      -9.912  13.612  68.664  1.00  0.00    -0.163 C  
HETATM   25  O   UNL     1      -7.533  15.073  66.422  1.00  0.00     0.466 OA 
HETATM   26  O   UNL     1      -9.074  17.285  69.155  1.00  0.00    -0.150 OA 
HETATM   27  C   UNL     1      -9.700  16.228  68.486  1.00  0.00    -0.224 C  
HETATM   28  C   UNL     1      -9.936  15.025  69.363  1.00  0.00    -0.183 C  
ENDROOT
BRANCH  16  29
HETATM   29  N   UNL     1      -7.639   8.839  72.709  1.00  0.00    -0.366 NA 
HETATM   30  C   UNL     1      -8.512   7.975  73.505  1.00  0.00    -0.245 C  
HETATM   31  C   UNL     1      -7.305  10.102  73.367  1.00  0.00     4.419 C  
ENDBRANCH  16  29
BRANCH  21  32
HETATM   32  C   UNL     1     -10.802  16.369  66.461  1.00  0.00    -0.073 C  
HETATM   33  O   UNL     1     -11.173  15.776  65.446  1.00  0.00    -0.254 OA 
HETATM   34  H2  UNL     1     -11.387  17.769  67.873  1.00  0.00     0.000 HD 
HETATM   35  N   UNL     1     -11.632  17.287  67.009  1.00  0.00     0.973 N  
HETATM   36  H1  UNL     1     -12.512  17.480  66.530  1.00  0.00     0.000 HD 
ENDBRANCH  21  32
BRANCH  28  37
HETATM   37  N   UNL     1     -11.104  15.061  70.275  1.00  0.00    -0.246 NA 
HETATM   38  C   UNL     1     -11.125  13.951  71.225  1.00  0.00     1.878 C  
HETATM   39  C   UNL     1     -11.288  16.327  70.986  1.00  0.00    -0.272 C  
ENDBRANCH  28  37
TORSDOF 3
ENDMDL
MODEL       83
REMARK 921   NORMALIZED FREE ENERGY PREDICTED BY IDOCK:    8.07 KCAL/MOL
REMARK 922        TOTAL FREE ENERGY PREDICTED BY IDOCK:    9.02 KCAL/MOL
REMARK 923 INTER-LIGAND FREE ENERGY PREDICTED BY IDOCK:    9.15 KCAL/MOL
REMARK 924 INTRA-LIGAND FREE ENERGY PREDICTED BY IDOCK:   -0.13 KCAL/MOL
REMARK 927      BINDING AFFINITY PREDICTED BY RF-SCORE:    0.00 PKD
ROOT
HETATM    1  C   UNL     1      -8.373  12.573  68.975  1.00  0.00     0.408 C  
HETATM    2  C   UNL     1      -7.329  13.223  69.862  1.00  0.00     0.927 C  
HETATM    3  C   UNL     1      -6.547  12.332  70.761  1.00  0.00     1.486 A  
HETATM    4  C   UNL     1      -6.450  10.959  70.418  1.00  0.00    -0.040 A  
HETATM    5  C   UNL     1      -5.750  10.100  71.269  1.00  0.00    -0.012 A  
HETATM    6  C   UNL     1      -7.051  10.426  69.145  1.00  0.00    -0.080 C  
HETATM    7  C   UNL     1      -5.152  10.589  72.421  1.00  0.00     0.116 A  
HETATM    8  O   UNL     1      -6.821   9.270  68.788  1.00  0.00    -0.059 OA 
HETATM    9  C   UNL     1      -7.935  11.312  68.315  1.00  0.00    -0.134 C  
HETATM   10  O   UNL     1      -5.597   8.759  71.038  1.00  0.00    -0.032 OA 
HETATM   11  H   UNL     1      -5.121   8.175  71.615  1.00  0.00     0.000 HD 
HETATM   12  C   UNL     1      -5.217  11.954  72.721  1.00  0.00     0.594 A  
HETATM   13  C   UNL     1      -8.405  10.973  67.088  1.00  0.00    -0.132 C  
HETATM   14  C   UNL     1      -9.417  11.836  66.283  1.00  0.00    -0.224 C  
HETATM   15  O   UNL     1      -8.161   9.721  66.534  1.00  0.00    -0.118 OA 
HETATM   16  C   UNL     1      -5.896  12.877  71.905  1.00  0.00     0.911 A  
HETATM   17  O   UNL     1     -10.627  11.039  66.306  1.00  0.00    -0.254 OA 
HETATM   18  H   UNL     1      -8.490   9.484  65.676  1.00  0.00     0.000 HD 
HETATM   19  H   UNL     1      -9.186  16.049  63.994  1.00  0.00     0.000 HD 
HETATM   20  C   UNL     1      -9.157  12.021  64.770  1.00  0.00     0.506 C  
HETATM   21  C   UNL     1     -10.061  12.954  64.023  1.00  0.00    -0.142 C  
HETATM   22  H   UNL     1     -11.245  11.567  65.815  1.00  0.00     0.000 HD 
HETATM   23  C   UNL     1      -8.662  13.624  67.929  1.00  0.00    -0.184 C  
HETATM   24  C   UNL     1      -9.724  13.227  66.912  1.00  0.00    -0.248 C  
HETATM   25  O   UNL     1      -8.225  11.504  64.153  1.00  0.00     0.731 OA 
HETATM   26  O   UNL     1      -9.288  15.161  63.671  1.00  0.00     5.833 OA 
HETATM   27  C   UNL     1      -9.918  14.209  64.479  1.00  0.00     0.438 C  
HETATM   28  C   UNL     1      -9.756  14.478  65.953  1.00  0.00    -0.293 C  
ENDROOT
BRANCH  16  29
HETATM   29  N   UNL     1      -5.861  14.230  72.240  1.00  0.00    -0.169 NA 
HETATM   30  C   UNL     1      -6.151  14.666  73.607  1.00  0.00     0.682 C  
HETATM   31  C   UNL     1      -5.765  15.330  71.281  1.00  0.00     0.202 C  
ENDBRANCH  16  29
BRANCH  21  32
HETATM   32  C   UNL     1     -11.515  12.690  63.789  1.00  0.00    -0.470 C  
HETATM   33  O   UNL     1     -12.343  13.573  63.560  1.00  0.00    -0.711 OA 
HETATM   34  H2  UNL     1     -11.269  10.635  63.909  1.00  0.00     0.000 HD 
HETATM   35  N   UNL     1     -11.928  11.401  63.770  1.00  0.00    -0.383 N  
HETATM   36  H1  UNL     1     -12.919  11.220  63.610  1.00  0.00     0.000 HD 
ENDBRANCH  21  32
BRANCH  28  37
HETATM   37  N   UNL     1     -10.641  15.497  66.566  1.00  0.00    -0.304 NA 
HETATM   38  C   UNL     1      -9.974  16.776  66.795  1.00  0.00    -0.282 C  
HETATM   39  C   UNL     1     -11.905  15.714  65.860  1.00  0.00     0.586 C  
ENDBRANCH  28  37
TORSDOF 3
ENDMDL
MODEL       84
REMARK 921   NORMALIZED FREE ENERGY PREDICTED BY IDOCK:    8.14 KCAL/MOL
REMARK 922        TOTAL FREE ENERGY PREDICTED BY IDOCK:    9.11 KCAL/MOL
REMARK 923 INTER-LIGAND FREE ENERGY PREDICTED BY IDOCK:    8.49 KCAL/MOL
REMARK 924 INTRA-LIGAND FREE ENERGY PREDICTED BY IDOCK:    0.63 KCAL/MOL
REMARK 927      BINDING AFFINITY PREDICTED BY RF-SCORE:    0.00 PKD
ROOT
HETATM    1  C   UNL     1      -9.654   8.277  68.577  1.00  0.00    -0.154 C  
HETATM    2  C   UNL     1      -9.651   7.341  67.384  1.00  0.00    -0.176 C  
HETATM    3  C   UNL     1      -9.062   5.988  67.578  1.00  0.00    -0.109 A  
HETATM    4  C   UNL     1      -8.995   5.476  68.899  1.00  0.00    -0.122 A  
HETATM    5  C   UNL     1      -8.413   4.222  69.106  1.00  0.00    -0.081 A  
HETATM    6  C   UNL     1      -9.570   6.235  70.064  1.00  0.00    -0.158 C  
HETATM    7  C   UNL     1      -7.922   3.492  68.032  1.00  0.00    -0.075 A  
HETATM    8  O   UNL     1      -9.644   5.705  71.173  1.00  0.00    -0.162 OA 
HETATM    9  C   UNL     1     -10.050   7.644  69.866  1.00  0.00    -0.198 C  
HETATM   10  O   UNL     1      -8.292   3.633  70.335  1.00  0.00    -0.056 OA 
HETATM   11  H   UNL     1      -7.897   2.782  70.476  1.00  0.00     0.000 HD 
HETATM   12  C   UNL     1      -8.038   3.992  66.731  1.00  0.00    -0.097 A  
HETATM   13  C   UNL     1     -10.709   8.357  70.813  1.00  0.00    -0.212 C  
HETATM   14  C   UNL     1     -11.097   9.854  70.653  1.00  0.00    -0.340 C  
HETATM   15  O   UNL     1     -10.923   7.850  72.091  1.00  0.00    -0.244 OA 
HETATM   16  C   UNL     1      -8.621   5.240  66.449  1.00  0.00    -0.114 A  
HETATM   17  O   UNL     1     -10.235  10.525  71.604  1.00  0.00     1.574 OA 
HETATM   18  H   UNL     1     -11.385   8.349  72.754  1.00  0.00     0.000 HD 
HETATM   19  H   UNL     1     -14.285  12.245  67.977  1.00  0.00     0.000 HD 
HETATM   20  C   UNL     1     -12.511  10.281  71.111  1.00  0.00    -0.391 C  
HETATM   21  C   UNL     1     -12.927  11.696  70.840  1.00  0.00    -0.145 C  
HETATM   22  H   UNL     1     -10.472  11.440  71.506  1.00  0.00     0.000 HD 
HETATM   23  C   UNL     1     -10.659   9.339  68.199  1.00  0.00    -0.248 C  
HETATM   24  C   UNL     1     -10.831  10.442  69.237  1.00  0.00    -0.280 C  
HETATM   25  O   UNL     1     -13.337   9.526  71.625  1.00  0.00    -0.371 OA 
HETATM   26  O   UNL     1     -14.240  12.087  68.912  1.00  0.00     7.945 OA 
HETATM   27  C   UNL     1     -12.990  11.919  69.517  1.00  0.00     1.185 C  
HETATM   28  C   UNL     1     -11.953  11.340  68.589  1.00  0.00    -0.243 C  
ENDROOT
BRANCH  16  29
HETATM   29  N   UNL     1      -8.755   5.640  65.120  1.00  0.00    -0.131 NA 
HETATM   30  C   UNL     1     -10.079   5.752  64.506  1.00  0.00     2.157 C  
HETATM   31  C   UNL     1      -7.653   5.766  64.166  1.00  0.00    -0.083 C  
ENDBRANCH  16  29
BRANCH  21  32
HETATM   32  C   UNL     1     -12.302  12.884  71.499  1.00  0.00     0.122 C  
HETATM   33  O   UNL     1     -12.646  13.315  72.601  1.00  0.00     0.054 OA 
HETATM   34  H2  UNL     1     -10.912  13.129  69.980  1.00  0.00     0.000 HD 
HETATM   35  N   UNL     1     -11.260  13.480  70.872  1.00  0.00     0.462 N  
HETATM   36  H1  UNL     1     -10.834  14.291  71.321  1.00  0.00     0.000 HD 
ENDBRANCH  21  32
BRANCH  28  37
HETATM   37  N   UNL     1     -11.298  12.264  67.631  1.00  0.00    -0.290 NA 
HETATM   38  C   UNL     1     -10.196  13.018  68.222  1.00  0.00    -0.246 C  
HETATM   39  C   UNL     1     -10.861  11.641  66.381  1.00  0.00    -0.287 C  
ENDBRANCH  28  37
TORSDOF 3
ENDMDL
MODEL       85
REMARK 921   NORMALIZED FREE ENERGY PREDICTED BY IDOCK:   19.32 KCAL/MOL
REMARK 922        TOTAL FREE ENERGY PREDICTED BY IDOCK:   22.24 KCAL/MOL
REMARK 923 INTER-LIGAND FREE ENERGY PREDICTED BY IDOCK:   22.49 KCAL/MOL
REMARK 924 INTRA-LIGAND FREE ENERGY PREDICTED BY IDOCK:   -0.24 KCAL/MOL
REMARK 927      BINDING AFFINITY PREDICTED BY RF-SCORE:    0.00 PKD
ROOT
HETATM    1  C   UNL     1      -8.017  13.719  69.305  1.00  0.00     0.363 C  
HETATM    2  C   UNL     1      -8.935  14.888  69.603  1.00  0.00     0.104 C  
HETATM    3  C   UNL     1      -9.463  15.655  68.441  1.00  0.00    -0.196 A  
HETATM    4  C   UNL     1      -9.501  15.009  67.179  1.00  0.00    -0.223 A  
HETATM    5  C   UNL     1      -9.960  15.724  66.070  1.00  0.00    -0.332 A  
HETATM    6  C   UNL     1      -9.097  13.567  67.025  1.00  0.00    -0.244 C  
HETATM    7  C   UNL     1     -10.380  17.039  66.210  1.00  0.00    -0.309 A  
HETATM    8  O   UNL     1      -9.287  12.981  65.959  1.00  0.00    -0.152 OA 
HETATM    9  C   UNL     1      -8.457  12.850  68.179  1.00  0.00    -0.176 C  
HETATM   10  O   UNL     1     -10.037  15.202  64.807  1.00  0.00    -0.346 OA 
HETATM   11  H   UNL     1     -10.348  15.688  64.053  1.00  0.00     0.000 HD 
HETATM   12  C   UNL     1     -10.379  17.647  67.470  1.00  0.00    -0.365 A  
HETATM   13  C   UNL     1      -8.189  11.520  68.185  1.00  0.00    -0.149 C  
HETATM   14  C   UNL     1      -7.417  10.801  69.327  1.00  0.00    -0.135 C  
HETATM   15  O   UNL     1      -8.421  10.723  67.069  1.00  0.00    -0.125 OA 
HETATM   16  C   UNL     1      -9.941  16.984  68.630  1.00  0.00    -0.294 A  
HETATM   17  O   UNL     1      -6.159  10.441  68.704  1.00  0.00    -0.044 OA 
HETATM   18  H   UNL     1      -8.233   9.793  67.073  1.00  0.00     0.000 HD 
HETATM   19  H   UNL     1      -8.418   9.664  73.882  1.00  0.00     0.000 HD 
HETATM   20  C   UNL     1      -7.961   9.437  69.812  1.00  0.00    -0.119 C  
HETATM   21  C   UNL     1      -7.290   8.806  70.995  1.00  0.00    -0.096 C  
HETATM   22  H   UNL     1      -5.688  10.002  69.402  1.00  0.00     0.000 HD 
HETATM   23  C   UNL     1      -8.013  12.927  70.591  1.00  0.00     5.485 C  
HETATM   24  C   UNL     1      -7.122  11.691  70.569  1.00  0.00     1.801 C  
HETATM   25  O   UNL     1      -8.941   8.865  69.333  1.00  0.00    -0.140 OA 
HETATM   26  O   UNL     1      -8.301   9.125  73.109  1.00  0.00     0.120 OA 
HETATM   27  C   UNL     1      -7.456   9.570  72.088  1.00  0.00     1.214 C  
HETATM   28  C   UNL     1      -7.372  11.072  71.996  1.00  0.00     6.806 C  
ENDROOT
BRANCH  16  29
HETATM   29  N   UNL     1     -10.030  17.638  69.858  1.00  0.00     0.499 NA 
HETATM   30  C   UNL     1     -11.026  17.229  70.848  1.00  0.00     1.263 C  
HETATM   31  C   UNL     1      -9.339  18.882  70.198  1.00  0.00     1.456 C  
ENDBRANCH  16  29
BRANCH  21  32
HETATM   32  C   UNL     1      -5.885   8.292  70.975  1.00  0.00    -0.033 C  
HETATM   33  O   UNL     1      -5.154   8.337  69.984  1.00  0.00    -0.023 OA 
HETATM   34  H2  UNL     1      -5.927   7.793  72.987  1.00  0.00     0.000 HD 
HETATM   35  N   UNL     1      -5.374   7.807  72.131  1.00  0.00    -0.036 N  
HETATM   36  H1  UNL     1      -4.416   7.457  72.117  1.00  0.00     0.000 HD 
ENDBRANCH  21  32
BRANCH  28  37
HETATM   37  N   UNL     1      -6.481  11.768  72.956  1.00  0.00     4.304 NA 
HETATM   38  C   UNL     1      -6.075  10.926  74.078  1.00  0.00     2.096 C  
HETATM   39  C   UNL     1      -5.303  12.395  72.353  1.00  0.00     0.512 C  
ENDBRANCH  28  37
TORSDOF 3
ENDMDL
MODEL       86
REMARK 921   NORMALIZED FREE ENERGY PREDICTED BY IDOCK:   28.42 KCAL/MOL
REMARK 922        TOTAL FREE ENERGY PREDICTED BY IDOCK:   32.94 KCAL/MOL
REMARK 923 INTER-LIGAND FREE ENERGY PREDICTED BY IDOCK:   32.46 KCAL/MOL
REMARK 924 INTRA-LIGAND FREE ENERGY PREDICTED BY IDOCK:    0.48 KCAL/MOL
REMARK 927      BINDING AFFINITY PREDICTED BY RF-SCORE:    0.00 PKD
ROOT
HETATM    1  C   UNL     1      -8.322  12.887  68.835  1.00  0.00     0.276 C  
HETATM    2  C   UNL     1      -7.800  13.162  70.233  1.00  0.00     3.020 C  
HETATM    3  C   UNL     1      -6.904  14.337  70.407  1.00  0.00     0.195 A  
HETATM    4  C   UNL     1      -6.972  15.375  69.444  1.00  0.00    -0.181 A  
HETATM    5  C   UNL     1      -6.113  16.471  69.572  1.00  0.00    -0.199 A  
HETATM    6  C   UNL     1      -7.973  15.337  68.321  1.00  0.00    -0.132 C  
HETATM    7  C   UNL     1      -5.219  16.539  70.631  1.00  0.00    -0.199 A  
HETATM    8  O   UNL     1      -8.124  16.317  67.591  1.00  0.00    -0.142 OA 
HETATM    9  C   UNL     1      -8.782  14.093  68.093  1.00  0.00    -0.181 C  
HETATM   10  O   UNL     1      -6.092  17.526  68.701  1.00  0.00    -0.165 OA 
HETATM   11  H   UNL     1      -5.509  18.270  68.787  1.00  0.00     0.000 HD 
HETATM   12  C   UNL     1      -5.197  15.529  71.598  1.00  0.00     0.006 A  
HETATM   13  C   UNL     1      -9.803  14.009  67.202  1.00  0.00    -0.240 C  
HETATM   14  C   UNL     1     -10.559  12.690  66.878  1.00  0.00    -0.240 C  
HETATM   15  O   UNL     1     -10.127  15.069  66.362  1.00  0.00    -0.256 OA 
HETATM   16  C   UNL     1      -6.039  14.404  71.538  1.00  0.00     0.105 A  
HETATM   17  O   UNL     1     -10.146  12.393  65.521  1.00  0.00    -0.264 OA 
HETATM   18  H   UNL     1     -10.841  15.011  65.739  1.00  0.00     0.000 HD 
HETATM   19  H   UNL     1     -13.658   9.906  69.262  1.00  0.00     0.000 HD 
HETATM   20  C   UNL     1     -12.100  12.758  66.760  1.00  0.00    -0.220 C  
HETATM   21  C   UNL     1     -12.836  11.466  66.572  1.00  0.00     4.925 C  
HETATM   22  H   UNL     1     -10.608  11.588  65.324  1.00  0.00     0.000 HD 
HETATM   23  C   UNL     1      -9.485  11.951  69.063  1.00  0.00     0.221 C  
HETATM   24  C   UNL     1     -10.180  11.487  67.789  1.00  0.00    -0.200 C  
HETATM   25  O   UNL     1     -12.764  13.789  66.870  1.00  0.00    -0.118 OA 
HETATM   26  O   UNL     1     -13.769  10.462  68.500  1.00  0.00     5.196 OA 
HETATM   27  C   UNL     1     -12.680  10.678  67.649  1.00  0.00     4.939 C  
HETATM   28  C   UNL     1     -11.349  10.591  68.352  1.00  0.00    -0.262 C  
ENDROOT
BRANCH  16  29
HETATM   29  N   UNL     1      -5.998  13.472  72.574  1.00  0.00     0.017 NA 
HETATM   30  C   UNL     1      -5.722  13.896  73.947  1.00  0.00    -0.034 C  
HETATM   31  C   UNL     1      -5.998  12.020  72.396  1.00  0.00     2.419 C  
ENDBRANCH  16  29
BRANCH  21  32
HETATM   32  C   UNL     1     -12.731  10.623  65.341  1.00  0.00     6.691 C  
HETATM   33  O   UNL     1     -13.457  10.759  64.354  1.00  0.00     3.501 OA 
HETATM   34  H2  UNL     1     -11.089   9.583  66.064  1.00  0.00     0.000 HD 
HETATM   35  N   UNL     1     -11.742   9.700  65.289  1.00  0.00     4.369 N  
HETATM   36  H1  UNL     1     -11.670   9.125  64.450  1.00  0.00     0.000 HD 
ENDBRANCH  21  32
BRANCH  28  37
HETATM   37  N   UNL     1     -10.799   9.239  68.614  1.00  0.00    -0.136 NA 
HETATM   38  C   UNL     1      -9.360   9.150  68.385  1.00  0.00    -0.135 C  
HETATM   39  C   UNL     1     -11.129   8.688  69.929  1.00  0.00    -0.116 C  
ENDBRANCH  28  37
TORSDOF 3
ENDMDL
MODEL       87
REMARK 921   NORMALIZED FREE ENERGY PREDICTED BY IDOCK:   28.99 KCAL/MOL
REMARK 922        TOTAL FREE ENERGY PREDICTED BY IDOCK:   33.61 KCAL/MOL
REMARK 923 INTER-LIGAND FREE ENERGY PREDICTED BY IDOCK:   32.96 KCAL/MOL
REMARK 924 INTRA-LIGAND FREE ENERGY PREDICTED BY IDOCK:    0.65 KCAL/MOL
REMARK 927      BINDING AFFINITY PREDICTED BY RF-SCORE:    0.00 PKD
ROOT
HETATM    1  C   UNL     1      -9.663   8.628  67.695  1.00  0.00    -0.201 C  
HETATM    2  C   UNL     1      -9.973   7.191  67.321  1.00  0.00    -0.243 C  
HETATM    3  C   UNL     1      -8.838   6.347  66.859  1.00  0.00    -0.119 A  
HETATM    4  C   UNL     1      -7.526   6.728  67.240  1.00  0.00    -0.096 A  
HETATM    5  C   UNL     1      -6.445   5.968  66.785  1.00  0.00    -0.050 A  
HETATM    6  C   UNL     1      -7.285   7.902  68.149  1.00  0.00    -0.090 C  
HETATM    7  C   UNL     1      -6.659   4.854  65.985  1.00  0.00    -0.045 A  
HETATM    8  O   UNL     1      -6.158   8.120  68.595  1.00  0.00    -0.042 OA 
HETATM    9  C   UNL     1      -8.427   8.809  68.506  1.00  0.00    -0.130 C  
HETATM   10  O   UNL     1      -5.140   6.245  67.089  1.00  0.00    -0.004 OA 
HETATM   11  H   UNL     1      -4.405   5.729  66.780  1.00  0.00     0.000 HD 
HETATM   12  C   UNL     1      -7.962   4.465  65.657  1.00  0.00    -0.095 A  
HETATM   13  C   UNL     1      -8.343   9.805  69.424  1.00  0.00    -0.152 C  
HETATM   14  C   UNL     1      -9.486  10.820  69.705  1.00  0.00     0.372 C  
HETATM   15  O   UNL     1      -7.143  10.113  70.057  1.00  0.00    -0.124 OA 
HETATM   16  C   UNL     1      -9.096   5.177  66.087  1.00  0.00    -0.144 A  
HETATM   17  O   UNL     1      -8.958  12.067  69.189  1.00  0.00    -0.323 OA 
HETATM   18  H   UNL     1      -7.083  10.810  70.700  1.00  0.00     0.000 HD 
HETATM   19  H   UNL     1     -13.804  10.549  71.784  1.00  0.00     0.000 HD 
HETATM   20  C   UNL     1      -9.793  11.163  71.181  1.00  0.00     5.608 C  
HETATM   21  C   UNL     1     -10.975  12.044  71.454  1.00  0.00     4.638 C  
HETATM   22  H   UNL     1      -9.657  12.687  69.360  1.00  0.00     0.000 HD 
HETATM   23  C   UNL     1     -10.869   9.059  68.497  1.00  0.00    -0.061 C  
HETATM   24  C   UNL     1     -10.824  10.505  68.976  1.00  0.00    -0.272 C  
HETATM   25  O   UNL     1      -9.173  10.716  72.147  1.00  0.00     6.578 OA 
HETATM   26  O   UNL     1     -13.001  10.981  72.052  1.00  0.00    -0.452 OA 
HETATM   27  C   UNL     1     -12.110  11.433  71.074  1.00  0.00    -0.198 C  
HETATM   28  C   UNL     1     -12.160  10.626  69.803  1.00  0.00    -0.272 C  
ENDROOT
BRANCH  16  29
HETATM   29  N   UNL     1     -10.362   4.689  65.769  1.00  0.00    -0.278 NA 
HETATM   30  C   UNL     1     -11.558   5.266  66.383  1.00  0.00     1.658 C  
HETATM   31  C   UNL     1     -10.624   3.467  65.008  1.00  0.00     0.330 C  
ENDBRANCH  16  29
BRANCH  21  32
HETATM   32  C   UNL     1     -11.046  13.484  71.055  1.00  0.00     2.078 C  
HETATM   33  O   UNL     1     -11.200  13.865  69.892  1.00  0.00    -0.165 OA 
HETATM   34  H2  UNL     1     -10.920  14.143  73.016  1.00  0.00     0.000 HD 
HETATM   35  N   UNL     1     -11.000  14.415  72.036  1.00  0.00     0.893 N  
HETATM   36  H1  UNL     1     -11.049  15.397  71.764  1.00  0.00     0.000 HD 
ENDBRANCH  21  32
BRANCH  28  37
HETATM   37  N   UNL     1     -13.259  10.915  68.850  1.00  0.00     1.750 NA 
HETATM   38  C   UNL     1     -14.392  11.598  69.469  1.00  0.00     9.061 C  
HETATM   39  C   UNL     1     -12.849  11.629  67.640  1.00  0.00     3.548 C  
ENDBRANCH  28  37
TORSDOF 3
ENDMDL
MODEL       88
REMARK 921   NORMALIZED FREE ENERGY PREDICTED BY IDOCK:   30.11 KCAL/MOL
REMARK 922        TOTAL FREE ENERGY PREDICTED BY IDOCK:   34.93 KCAL/MOL
REMARK 923 INTER-LIGAND FREE ENERGY PREDICTED BY IDOCK:   34.78 KCAL/MOL
REMARK 924 INTRA-LIGAND FREE ENERGY PREDICTED BY IDOCK:    0.14 KCAL/MOL
REMARK 927      BINDING AFFINITY PREDICTED BY RF-SCORE:    0.00 PKD
ROOT
HETATM    1  C   UNL     1      -7.705  10.327  67.991  1.00  0.00    -0.089 C  
HETATM    2  C   UNL     1      -8.355  11.685  67.811  1.00  0.00    -0.143 C  
HETATM    3  C   UNL     1      -7.775  12.588  66.780  1.00  0.00     0.162 A  
HETATM    4  C   UNL     1      -7.022  12.003  65.731  1.00  0.00     1.805 A  
HETATM    5  C   UNL     1      -6.440  12.837  64.772  1.00  0.00     9.906 A  
HETATM    6  C   UNL     1      -6.874  10.510  65.611  1.00  0.00    -0.112 C  
HETATM    7  C   UNL     1      -6.610  14.213  64.846  1.00  0.00    16.980 A  
HETATM    8  O   UNL     1      -6.352  10.017  64.610  1.00  0.00    -0.111 OA 
HETATM    9  C   UNL     1      -7.362   9.626  66.723  1.00  0.00    -0.091 C  
HETATM   10  O   UNL     1      -5.691  12.382  63.721  1.00  0.00     4.180 OA 
HETATM   11  H   UNL     1      -5.296  12.948  63.070  1.00  0.00     0.000 HD 
HETATM   12  C   UNL     1      -7.394  14.770  65.861  1.00  0.00     4.658 A  
HETATM   13  C   UNL     1      -7.402   8.272  66.648  1.00  0.00    -0.082 C  
HETATM   14  C   UNL     1      -7.791   7.353  67.840  1.00  0.00    -0.118 C  
HETATM   15  O   UNL     1      -6.909   7.587  65.542  1.00  0.00    -0.050 OA 
HETATM   16  C   UNL     1      -8.017  13.991  66.851  1.00  0.00     0.209 A  
HETATM   17  O   UNL     1      -6.543   6.698  68.177  1.00  0.00    -0.053 OA 
HETATM   18  H   UNL     1      -6.937   6.640  65.490  1.00  0.00     0.000 HD 
HETATM   19  H   UNL     1     -11.875   6.405  70.177  1.00  0.00     0.000 HD 
HETATM   20  C   UNL     1      -8.735   6.163  67.549  1.00  0.00    -0.104 C  
HETATM   21  C   UNL     1      -9.208   5.354  68.720  1.00  0.00    -0.148 C  
HETATM   22  H   UNL     1      -6.781   6.137  68.905  1.00  0.00     0.000 HD 
HETATM   23  C   UNL     1      -8.738   9.531  68.752  1.00  0.00    -0.128 C  
HETATM   24  C   UNL     1      -8.312   8.109  69.096  1.00  0.00    -0.131 C  
HETATM   25  O   UNL     1      -9.171   5.872  66.435  1.00  0.00    -0.143 OA 
HETATM   26  O   UNL     1     -11.340   5.872  69.601  1.00  0.00    -0.370 OA 
HETATM   27  C   UNL     1      -9.964   6.109  69.534  1.00  0.00    -0.166 C  
HETATM   28  C   UNL     1      -9.592   7.541  69.820  1.00  0.00    -0.163 C  
ENDROOT
BRANCH  16  29
HETATM   29  N   UNL     1      -8.833  14.617  67.792  1.00  0.00    -0.171 NA 
HETATM   30  C   UNL     1      -8.977  14.064  69.139  1.00  0.00     0.306 C  
HETATM   31  C   UNL     1      -9.769  15.703  67.501  1.00  0.00    -0.222 C  
ENDBRANCH  16  29
BRANCH  21  32
HETATM   32  C   UNL     1      -8.308   4.499  69.554  1.00  0.00    -0.073 C  
HETATM   33  O   UNL     1      -7.161   4.188  69.227  1.00  0.00    -0.049 OA 
HETATM   34  H2  UNL     1      -9.688   4.367  71.096  1.00  0.00     0.000 HD 
HETATM   35  N   UNL     1      -8.763   4.096  70.764  1.00  0.00    -0.078 N  
HETATM   36  H1  UNL     1      -8.150   3.512  71.333  1.00  0.00     0.000 HD 
ENDBRANCH  21  32
BRANCH  28  37
HETATM   37  N   UNL     1      -9.534   7.964  71.241  1.00  0.00    -0.155 NA 
HETATM   38  C   UNL     1     -10.657   8.812  71.633  1.00  0.00    -0.331 C  
HETATM   39  C   UNL     1      -9.380   6.869  72.199  1.00  0.00    -0.138 C  
ENDBRANCH  28  37
TORSDOF 3
ENDMDL
MODEL       89
REMARK 921   NORMALIZED FREE ENERGY PREDICTED BY IDOCK:   50.73 KCAL/MOL
REMARK 922        TOTAL FREE ENERGY PREDICTED BY IDOCK:   59.17 KCAL/MOL
REMARK 923 INTER-LIGAND FREE ENERGY PREDICTED BY IDOCK:   58.88 KCAL/MOL
REMARK 924 INTRA-LIGAND FREE ENERGY PREDICTED BY IDOCK:    0.29 KCAL/MOL
REMARK 927      BINDING AFFINITY PREDICTED BY RF-SCORE:    0.00 PKD
ROOT
HETATM    1  C   UNL     1      -9.268  15.923  68.474  1.00  0.00    -0.200 C  
HETATM    2  C   UNL     1      -8.943  17.041  67.502  1.00  0.00    -0.220 C  
HETATM    3  C   UNL     1      -8.344  16.657  66.196  1.00  0.00    -0.305 A  
HETATM    4  C   UNL     1      -8.554  15.333  65.731  1.00  0.00     0.887 A  
HETATM    5  C   UNL     1      -7.969  14.943  64.522  1.00  0.00    11.620 A  
HETATM    6  C   UNL     1      -9.420  14.365  66.490  1.00  0.00    -0.289 C  
HETATM    7  C   UNL     1      -7.208  15.843  63.790  1.00  0.00    20.256 A  
HETATM    8  O   UNL     1      -9.717  13.278  65.993  1.00  0.00    -0.276 OA 
HETATM    9  C   UNL     1      -9.914  14.730  67.860  1.00  0.00    -0.213 C  
HETATM   10  O   UNL     1      -8.103  13.693  63.982  1.00  0.00     7.280 OA 
HETATM   11  H   UNL     1      -7.707  13.428  63.161  1.00  0.00     0.000 HD 
HETATM   12  C   UNL     1      -7.050  17.158  64.240  1.00  0.00     8.255 A  
HETATM   13  C   UNL     1     -10.810  13.990  68.561  1.00  0.00    -0.254 C  
HETATM   14  C   UNL     1     -11.229  14.302  70.025  1.00  0.00    -0.099 C  
HETATM   15  O   UNL     1     -11.284  12.773  68.083  1.00  0.00    -0.239 OA 
HETATM   16  C   UNL     1      -7.617  17.622  65.440  1.00  0.00     1.027 A  
HETATM   17  O   UNL     1     -10.644  13.212  70.779  1.00  0.00     1.976 OA 
HETATM   18  H   UNL     1     -11.910  12.255  68.574  1.00  0.00     0.000 HD 
HETATM   19  H   UNL     1     -13.840  17.737  72.129  1.00  0.00     0.000 HD 
HETATM   20  C   UNL     1     -12.730  14.197  70.379  1.00  0.00    -0.279 C  
HETATM   21  C   UNL     1     -13.147  14.619  71.756  1.00  0.00    -0.420 C  
HETATM   22  H   UNL     1     -10.899  13.403  71.673  1.00  0.00     0.000 HD 
HETATM   23  C   UNL     1     -10.214  16.566  69.460  1.00  0.00    -0.217 C  
HETATM   24  C   UNL     1     -10.676  15.646  70.583  1.00  0.00    -0.242 C  
HETATM   25  O   UNL     1     -13.611  13.849  69.592  1.00  0.00     1.596 OA 
HETATM   26  O   UNL     1     -14.002  16.810  72.004  1.00  0.00     2.129 OA 
HETATM   27  C   UNL     1     -12.917  15.930  71.932  1.00  0.00    -0.359 C  
HETATM   28  C   UNL     1     -11.666  16.572  71.389  1.00  0.00    -0.047 C  
ENDROOT
BRANCH  16  29
HETATM   29  N   UNL     1      -7.464  18.963  65.787  1.00  0.00    -0.475 NA 
HETATM   30  C   UNL     1      -6.150  19.603  65.725  1.00  0.00    -0.188 C  
HETATM   31  C   UNL     1      -8.487  19.784  66.436  1.00  0.00    -0.359 C  
ENDBRANCH  16  29
BRANCH  21  32
HETATM   32  C   UNL     1     -12.753  13.890  73.002  1.00  0.00     0.038 C  
HETATM   33  O   UNL     1     -12.573  12.671  73.054  1.00  0.00     0.993 OA 
HETATM   34  H2  UNL     1     -12.615  15.638  74.108  1.00  0.00     0.000 HD 
HETATM   35  N   UNL     1     -12.523  14.622  74.117  1.00  0.00    -0.088 N  
HETATM   36  H1  UNL     1     -12.255  14.125  74.966  1.00  0.00     0.000 HD 
ENDBRANCH  21  32
BRANCH  28  37
HETATM   37  N   UNL     1     -10.859  17.397  72.320  1.00  0.00     2.209 NA 
HETATM   38  C   UNL     1     -10.776  18.799  71.920  1.00  0.00     3.572 C  
HETATM   39  C   UNL     1     -11.258  17.303  73.725  1.00  0.00     1.802 C  
ENDBRANCH  28  37
TORSDOF 3
ENDMDL
MODEL       90
REMARK 921   NORMALIZED FREE ENERGY PREDICTED BY IDOCK:   54.34 KCAL/MOL
REMARK 922        TOTAL FREE ENERGY PREDICTED BY IDOCK:   63.40 KCAL/MOL
REMARK 923 INTER-LIGAND FREE ENERGY PREDICTED BY IDOCK:   62.48 KCAL/MOL
REMARK 924 INTRA-LIGAND FREE ENERGY PREDICTED BY IDOCK:    0.92 KCAL/MOL
REMARK 927      BINDING AFFINITY PREDICTED BY RF-SCORE:    0.00 PKD
ROOT
HETATM    1  C   UNL     1      -8.661   7.253  69.681  1.00  0.00    -0.137 C  
HETATM    2  C   UNL     1      -9.410   7.974  70.785  1.00  0.00    -0.167 C  
HETATM    3  C   UNL     1      -9.147   9.429  70.952  1.00  0.00    -0.220 A  
HETATM    4  C   UNL     1      -8.635  10.144  69.840  1.00  0.00    -0.100 A  
HETATM    5  C   UNL     1      -8.348  11.504  69.988  1.00  0.00     2.122 A  
HETATM    6  C   UNL     1      -8.436   9.479  68.504  1.00  0.00    -0.119 C  
HETATM    7  C   UNL     1      -8.572  12.139  71.201  1.00  0.00    11.319 A  
HETATM    8  O   UNL     1      -8.143  10.150  67.515  1.00  0.00    -0.112 OA 
HETATM    9  C   UNL     1      -8.593   7.990  68.389  1.00  0.00    -0.127 C  
HETATM   10  O   UNL     1      -7.849  12.289  68.984  1.00  0.00    -0.331 OA 
HETATM   11  H   UNL     1      -7.653  13.213  69.084  1.00  0.00     0.000 HD 
HETATM   12  C   UNL     1      -9.121  11.429  72.274  1.00  0.00    17.071 A  
HETATM   13  C   UNL     1      -8.573   7.318  67.210  1.00  0.00    -0.121 C  
HETATM   14  C   UNL     1      -8.613   5.768  67.099  1.00  0.00    -0.109 C  
HETATM   15  O   UNL     1      -8.322   7.967  66.005  1.00  0.00    -0.114 OA 
HETATM   16  C   UNL     1      -9.443  10.063  72.193  1.00  0.00     4.418 A  
HETATM   17  O   UNL     1      -7.286   5.434  66.622  1.00  0.00    -0.071 OA 
HETATM   18  H   UNL     1      -8.309   7.497  65.180  1.00  0.00     0.000 HD 
HETATM   19  H   UNL     1     -11.958   2.414  67.874  1.00  0.00     0.000 HD 
HETATM   20  C   UNL     1      -9.530   5.150  66.018  1.00  0.00    -0.160 C  
HETATM   21  C   UNL     1      -9.662   3.657  65.996  1.00  0.00    -0.093 C  
HETATM   22  H   UNL     1      -7.310   4.487  66.555  1.00  0.00     0.000 HD 
HETATM   23  C   UNL     1      -9.435   5.969  69.498  1.00  0.00    -0.161 C  
HETATM   24  C   UNL     1      -8.859   5.030  68.446  1.00  0.00    -0.111 C  
HETATM   25  O   UNL     1     -10.204   5.800  65.217  1.00  0.00     0.647 OA 
HETATM   26  O   UNL     1     -11.547   2.722  67.075  1.00  0.00     8.683 OA 
HETATM   27  C   UNL     1     -10.243   3.223  67.126  1.00  0.00     1.327 C  
HETATM   28  C   UNL     1      -9.894   3.841  68.456  1.00  0.00     0.103 C  
ENDROOT
BRANCH  16  29
HETATM   29  N   UNL     1     -10.044   9.443  73.287  1.00  0.00     3.041 NA 
HETATM   30  C   UNL     1     -10.893  10.207  74.202  1.00  0.00    16.105 C  
HETATM   31  C   UNL     1      -9.738   8.093  73.760  1.00  0.00     0.500 C  
ENDBRANCH  16  29
BRANCH  21  32
HETATM   32  C   UNL     1      -8.542   2.731  65.642  1.00  0.00    -0.107 C  
HETATM   33  O   UNL     1      -8.670   1.509  65.543  1.00  0.00    -0.103 OA 
HETATM   34  H2  UNL     1      -7.196   4.286  65.383  1.00  0.00     0.000 HD 
HETATM   35  N   UNL     1      -7.337   3.276  65.358  1.00  0.00    -0.074 N  
HETATM   36  H1  UNL     1      -6.572   2.645  65.117  1.00  0.00     0.000 HD 
ENDBRANCH  21  32
BRANCH  28  37
HETATM   37  N   UNL     1      -9.522   2.924  69.561  1.00  0.00    -0.131 NA 
HETATM   38  C   UNL     1      -8.167   2.394  69.436  1.00  0.00    -0.044 C  
HETATM   39  C   UNL     1      -9.720   3.473  70.904  1.00  0.00    -0.143 C  
ENDBRANCH  28  37
TORSDOF 3
ENDMDL
MODEL       91
REMARK 921   NORMALIZED FREE ENERGY PREDICTED BY IDOCK:   63.42 KCAL/MOL
REMARK 922        TOTAL FREE ENERGY PREDICTED BY IDOCK:   74.08 KCAL/MOL
REMARK 923 INTER-LIGAND FREE ENERGY PREDICTED BY IDOCK:   73.96 KCAL/MOL
REMARK 924 INTRA-LIGAND FREE ENERGY PREDICTED BY IDOCK:    0.12 KCAL/MOL
REMARK 927      BINDING AFFINITY PREDICTED BY RF-SCORE:    0.00 PKD
ROOT
HETATM    1  C   UNL     1      -9.441  13.772  69.314  1.00  0.00     0.501 C  
HETATM    2  C   UNL     1     -10.160  15.102  69.440  1.00  0.00    -0.245 C  
HETATM    3  C   UNL     1     -10.145  16.000  68.254  1.00  0.00    -0.229 A  
HETATM    4  C   UNL     1      -9.920  15.418  66.980  1.00  0.00    -0.239 A  
HETATM    5  C   UNL     1      -9.867  16.250  65.859  1.00  0.00    -0.334 A  
HETATM    6  C   UNL     1      -9.778  13.929  66.814  1.00  0.00    -0.279 C  
HETATM    7  C   UNL     1     -10.044  17.620  65.994  1.00  0.00    -0.263 A  
HETATM    8  O   UNL     1      -9.743  13.431  65.688  1.00  0.00    -0.201 OA 
HETATM    9  C   UNL     1      -9.676  13.055  68.031  1.00  0.00    -0.224 C  
HETATM   10  O   UNL     1      -9.653  15.797  64.585  1.00  0.00     0.231 OA 
HETATM   11  H   UNL     1      -9.617  16.362  63.823  1.00  0.00     0.000 HD 
HETATM   12  C   UNL     1     -10.311  18.173  67.251  1.00  0.00    -0.399 A  
HETATM   13  C   UNL     1      -9.688  11.698  67.989  1.00  0.00    -0.182 C  
HETATM   14  C   UNL     1      -9.460  10.794  69.233  1.00  0.00    -0.082 C  
HETATM   15  O   UNL     1      -9.717  11.006  66.783  1.00  0.00    -0.187 OA 
HETATM   16  C   UNL     1     -10.388  17.395  68.420  1.00  0.00    -0.379 A  
HETATM   17  O   UNL     1      -8.168  10.192  68.975  1.00  0.00    -0.112 OA 
HETATM   18  H   UNL     1      -9.726  10.057  66.753  1.00  0.00     0.000 HD 
HETATM   19  H   UNL     1     -12.012   9.757  73.163  1.00  0.00     0.000 HD 
HETATM   20  C   UNL     1     -10.383   9.565  69.404  1.00  0.00    -0.214 C  
HETATM   21  C   UNL     1     -10.244   8.768  70.666  1.00  0.00    -0.247 C  
HETATM   22  H   UNL     1      -8.028   9.640  69.735  1.00  0.00     0.000 HD 
HETATM   23  C   UNL     1      -9.987  12.958  70.463  1.00  0.00     4.815 C  
HETATM   24  C   UNL     1      -9.392  11.561  70.585  1.00  0.00     5.208 C  
HETATM   25  O   UNL     1     -11.261   9.233  68.607  1.00  0.00     0.035 OA 
HETATM   26  O   UNL     1     -11.772   9.229  72.411  1.00  0.00    -0.157 OA 
HETATM   27  C   UNL     1     -10.584   9.514  71.730  1.00  0.00     0.121 C  
HETATM   28  C   UNL     1     -10.184  10.965  71.811  1.00  0.00     6.568 C  
ENDROOT
BRANCH  16  29
HETATM   29  N   UNL     1     -10.719  18.013  69.624  1.00  0.00     0.644 NA 
HETATM   30  C   UNL     1     -10.346  17.405  70.901  1.00  0.00     2.254 C  
HETATM   31  C   UNL     1     -11.624  19.155  69.760  1.00  0.00     5.802 C  
ENDBRANCH  16  29
BRANCH  21  32
HETATM   32  C   UNL     1      -9.030   7.964  71.010  1.00  0.00    -0.142 C  
HETATM   33  O   UNL     1      -8.011   7.932  70.317  1.00  0.00    -0.098 OA 
HETATM   34  H2  UNL     1      -9.836   7.319  72.808  1.00  0.00     0.000 HD 
HETATM   35  N   UNL     1      -9.033   7.284  72.181  1.00  0.00    -0.131 N  
HETATM   36  H1  UNL     1      -8.205   6.736  72.415  1.00  0.00     0.000 HD 
ENDBRANCH  21  32
BRANCH  28  37
HETATM   37  N   UNL     1      -9.512  11.422  73.051  1.00  0.00    18.312 NA 
HETATM   38  C   UNL     1     -10.433  12.007  74.022  1.00  0.00    22.877 C  
HETATM   39  C   UNL     1      -8.677  10.412  73.704  1.00  0.00    10.938 C  
ENDBRANCH  28  37
TORSDOF 3
ENDMDL
MODEL       92
REMARK 921   NORMALIZED FREE ENERGY PREDICTED BY IDOCK:   65.08 KCAL/MOL
REMARK 922        TOTAL FREE ENERGY PREDICTED BY IDOCK:   76.04 KCAL/MOL
REMARK 923 INTER-LIGAND FREE ENERGY PREDICTED BY IDOCK:   75.50 KCAL/MOL
REMARK 924 INTRA-LIGAND FREE ENERGY PREDICTED BY IDOCK:    0.54 KCAL/MOL
REMARK 927      BINDING AFFINITY PREDICTED BY RF-SCORE:    0.00 PKD
ROOT
HETATM    1  C   UNL     1      -8.977  14.643  68.639  1.00  0.00    -0.184 C  
HETATM    2  C   UNL     1      -7.925  15.660  69.038  1.00  0.00    -0.208 C  
HETATM    3  C   UNL     1      -8.134  16.393  70.316  1.00  0.00     1.976 A  
HETATM    4  C   UNL     1      -8.974  15.800  71.293  1.00  0.00     4.036 A  
HETATM    5  C   UNL     1      -9.210  16.490  72.485  1.00  0.00    12.087 A  
HETATM    6  C   UNL     1      -9.575  14.436  71.086  1.00  0.00     3.822 C  
HETATM    7  C   UNL     1      -8.623  17.727  72.707  1.00  0.00    16.038 A  
HETATM    8  O   UNL     1     -10.168  13.874  72.007  1.00  0.00     5.165 OA 
HETATM    9  C   UNL     1      -9.451  13.768  69.747  1.00  0.00     1.461 C  
HETATM   10  O   UNL     1     -10.004  16.014  73.494  1.00  0.00     6.917 OA 
HETATM   11  H   UNL     1     -10.165  16.483  74.304  1.00  0.00     0.000 HD 
HETATM   12  C   UNL     1      -7.760  18.277  71.752  1.00  0.00     8.654 A  
HETATM   13  C   UNL     1      -9.833  12.489  69.503  1.00  0.00     1.200 C  
HETATM   14  C   UNL     1      -9.818  11.838  68.092  1.00  0.00    -0.190 C  
HETATM   15  O   UNL     1     -10.453  11.715  70.478  1.00  0.00     1.028 OA 
HETATM   16  C   UNL     1      -7.470  17.634  70.536  1.00  0.00     3.119 A  
HETATM   17  O   UNL     1     -11.225  11.682  67.782  1.00  0.00    -0.230 OA 
HETATM   18  H   UNL     1     -10.720  10.820  70.308  1.00  0.00     0.000 HD 
HETATM   19  H   UNL     1      -6.373  10.387  65.081  1.00  0.00     0.000 HD 
HETATM   20  C   UNL     1      -9.280  10.393  67.975  1.00  0.00    -0.140 C  
HETATM   21  C   UNL     1      -9.150   9.814  66.598  1.00  0.00    -0.174 C  
HETATM   22  H   UNL     1     -11.216  11.285  66.920  1.00  0.00     0.000 HD 
HETATM   23  C   UNL     1      -8.288  13.807  67.586  1.00  0.00    -0.183 C  
HETATM   24  C   UNL     1      -9.157  12.709  66.985  1.00  0.00    -0.215 C  
HETATM   25  O   UNL     1      -8.896   9.711  68.925  1.00  0.00    -0.128 OA 
HETATM   26  O   UNL     1      -7.015   9.901  65.584  1.00  0.00    -0.095 OA 
HETATM   27  C   UNL     1      -8.242  10.501  65.886  1.00  0.00    -0.152 C  
HETATM   28  C   UNL     1      -8.162  12.003  65.987  1.00  0.00     0.437 C  
ENDROOT
BRANCH  16  29
HETATM   29  N   UNL     1      -6.552  18.218  69.664  1.00  0.00    -0.150 NA 
HETATM   30  C   UNL     1      -6.024  19.558  69.927  1.00  0.00    -0.280 C  
HETATM   31  C   UNL     1      -6.198  17.696  68.344  1.00  0.00    -0.177 C  
ENDBRANCH  16  29
BRANCH  21  32
HETATM   32  C   UNL     1     -10.317   9.501  65.716  1.00  0.00     0.118 C  
HETATM   33  O   UNL     1     -11.468   9.878  65.945  1.00  0.00     1.317 OA 
HETATM   34  H2  UNL     1      -9.136   8.524  64.320  1.00  0.00     0.000 HD 
HETATM   35  N   UNL     1     -10.080   8.817  64.573  1.00  0.00     1.392 N  
HETATM   36  H1  UNL     1     -10.876   8.603  63.971  1.00  0.00     0.000 HD 
ENDBRANCH  21  32
BRANCH  28  37
HETATM   37  N   UNL     1      -8.163  12.776  64.722  1.00  0.00     3.579 NA 
HETATM   38  C   UNL     1      -7.463  12.098  63.633  1.00  0.00     4.597 C  
HETATM   39  C   UNL     1      -9.486  13.208  64.269  1.00  0.00     1.058 C  
ENDBRANCH  28  37
TORSDOF 3
ENDMDL
MODEL       93
REMARK 921   NORMALIZED FREE ENERGY PREDICTED BY IDOCK:   70.88 KCAL/MOL
REMARK 922        TOTAL FREE ENERGY PREDICTED BY IDOCK:   82.85 KCAL/MOL
REMARK 923 INTER-LIGAND FREE ENERGY PREDICTED BY IDOCK:   81.74 KCAL/MOL
REMARK 924 INTRA-LIGAND FREE ENERGY PREDICTED BY IDOCK:    1.11 KCAL/MOL
REMARK 927      BINDING AFFINITY PREDICTED BY RF-SCORE:    0.00 PKD
ROOT
HETATM    1  C   UNL     1     -10.282   8.746  67.966  1.00  0.00    -0.264 C  
HETATM    2  C   UNL     1      -9.025   9.581  67.818  1.00  0.00    -0.126 C  
HETATM    3  C   UNL     1      -9.164  11.055  67.967  1.00  0.00    -0.159 A  
HETATM    4  C   UNL     1     -10.279  11.549  68.691  1.00  0.00    -0.217 A  
HETATM    5  C   UNL     1     -10.446  12.931  68.811  1.00  0.00    -0.161 A  
HETATM    6  C   UNL     1     -11.254  10.617  69.359  1.00  0.00    -0.270 C  
HETATM    7  C   UNL     1      -9.527  13.800  68.239  1.00  0.00    -0.214 A  
HETATM    8  O   UNL     1     -12.120  11.063  70.112  1.00  0.00    -0.297 OA 
HETATM    9  C   UNL     1     -11.165   9.141  69.098  1.00  0.00     0.147 C  
HETATM   10  O   UNL     1     -11.484  13.516  69.483  1.00  0.00    -0.295 OA 
HETATM   11  H   UNL     1     -11.598  14.455  69.565  1.00  0.00     0.000 HD 
HETATM   12  C   UNL     1      -8.407  13.296  67.568  1.00  0.00    -0.186 A  
HETATM   13  C   UNL     1     -11.902   8.212  69.758  1.00  0.00     0.714 C  
HETATM   14  C   UNL     1     -11.900   6.698  69.404  1.00  0.00     0.180 C  
HETATM   15  O   UNL     1     -12.870   8.575  70.689  1.00  0.00    -0.393 OA 
HETATM   16  C   UNL     1      -8.172  11.918  67.418  1.00  0.00    -0.164 A  
HETATM   17  O   UNL     1     -13.223   6.483  68.854  1.00  0.00     4.772 OA 
HETATM   18  H   UNL     1     -13.386   7.925  71.150  1.00  0.00     0.000 HD 
HETATM   19  H   UNL     1      -8.721   3.131  69.861  1.00  0.00     0.000 HD 
HETATM   20  C   UNL     1     -11.847   5.689  70.574  1.00  0.00     1.150 C  
HETATM   21  C   UNL     1     -11.719   4.236  70.228  1.00  0.00     6.957 C  
HETATM   22  H   UNL     1     -13.221   5.558  68.637  1.00  0.00     0.000 HD 
HETATM   23  C   UNL     1      -9.760   7.346  68.189  1.00  0.00    -0.163 C  
HETATM   24  C   UNL     1     -10.843   6.285  68.339  1.00  0.00    -0.394 C  
HETATM   25  O   UNL     1     -11.842   5.999  71.766  1.00  0.00    -0.261 OA 
HETATM   26  O   UNL     1      -9.550   3.295  70.294  1.00  0.00    -0.174 OA 
HETATM   27  C   UNL     1     -10.547   4.004  69.615  1.00  0.00     1.647 C  
HETATM   28  C   UNL     1     -10.000   4.980  68.605  1.00  0.00    -0.144 C  
ENDROOT
BRANCH  16  29
HETATM   29  N   UNL     1      -7.001  11.496  66.789  1.00  0.00    -0.131 NA 
HETATM   30  C   UNL     1      -6.227  12.420  65.960  1.00  0.00     2.497 C  
HETATM   31  C   UNL     1      -6.552  10.107  66.696  1.00  0.00    -0.075 C  
ENDBRANCH  16  29
BRANCH  21  32
HETATM   32  C   UNL     1     -12.788   3.451  69.536  1.00  0.00    25.181 C  
HETATM   33  O   UNL     1     -12.658   2.958  68.414  1.00  0.00    20.943 OA 
HETATM   34  H2  UNL     1     -14.073   3.570  71.159  1.00  0.00     0.000 HD 
HETATM   35  N   UNL     1     -13.939   3.220  70.210  1.00  0.00    21.553 N  
HETATM   36  H1  UNL     1     -14.668   2.685  69.738  1.00  0.00     0.000 HD 
ENDBRANCH  21  32
BRANCH  28  37
HETATM   37  N   UNL     1      -9.573   4.440  67.292  1.00  0.00    -0.178 NA 
HETATM   38  C   UNL     1      -9.893   3.025  67.120  1.00  0.00     0.470 C  
HETATM   39  C   UNL     1     -10.044   5.201  66.134  1.00  0.00    -0.207 C  
ENDBRANCH  28  37
TORSDOF 3
ENDMDL
