MODEL        1
REMARK 921   NORMALIZED FREE ENERGY PREDICTED BY IDOCK:   -6.43 KCAL/MOL
REMARK 922        TOTAL FREE ENERGY PREDICTED BY IDOCK:  -12.26 KCAL/MOL
REMARK 923 INTER-LIGAND FREE ENERGY PREDICTED BY IDOCK:   -9.81 KCAL/MOL
REMARK 924 INTRA-LIGAND FREE ENERGY PREDICTED BY IDOCK:   -2.44 KCAL/MOL
REMARK 927      BINDING AFFINITY PREDICTED BY RF-SCORE:    0.00 PKD
ROOT
HETATM    1  N   UNL     1     -13.089  11.504  62.928  1.00  0.00    -0.650 NA 
HETATM    2  C   UNL     1     -12.334  12.198  63.795  1.00  0.00    -0.532 A  
HETATM    3  H1  UNL     1     -12.706  11.047  62.100  1.00  0.00     0.000 HD 
HETATM    4  H2  UNL     1     -14.090  11.429  63.105  1.00  0.00     0.000 HD 
HETATM    5  N   UNL     1     -12.826  12.785  64.857  1.00  0.00    -0.825 NA 
HETATM    6  C   UNL     1     -11.812  13.421  65.566  1.00  0.00    -0.363 A  
HETATM    7  S   UNL     1     -10.639  12.346  63.587  1.00  0.00    -0.413 SA 
HETATM    8  C   UNL     1     -10.552  13.283  65.018  1.00  0.00    -0.346 A  
ENDROOT
BRANCH   6   9
HETATM    9  C   UNL     1     -12.159  14.148  66.819  1.00  0.00    -0.474 C  
BRANCH   9  10
HETATM   10  C   UNL     1     -11.865  13.376  68.094  1.00  0.00    -0.361 C  
HETATM   11  N   UNL     1     -11.853  11.995  67.968  1.00  0.00    -0.319 N  
HETATM   12  O   UNL     1     -11.555  14.005  69.106  1.00  0.00    -0.269 OA 
HETATM   13  H   UNL     1     -12.117  11.609  67.062  1.00  0.00     0.000 HD 
BRANCH  11  14
HETATM   14  C   UNL     1     -11.508  11.076  68.980  1.00  0.00    -0.299 A  
HETATM   15  C   UNL     1     -12.385  10.704  69.998  1.00  0.00    -0.341 A  
HETATM   16  C   UNL     1     -11.963   9.881  71.043  1.00  0.00    -0.456 A  
HETATM   17  C   UNL     1     -10.653   9.398  71.086  1.00  0.00    -0.403 A  
HETATM   18  C   UNL     1     -10.216  10.539  68.980  1.00  0.00    -0.233 A  
HETATM   19  C   UNL     1      -9.787   9.718  70.032  1.00  0.00    -0.295 A  
BRANCH  17  20
HETATM   20  C   UNL     1     -10.172   8.592  72.275  1.00  0.00    -0.395 C  
BRANCH  20  21
HETATM   21  C   UNL     1     -11.276   7.833  73.032  1.00  0.00    -0.321 C  
BRANCH  21  22
HETATM   22  N   UNL     1     -10.799   6.536  73.501  1.00  0.00    -0.464 NA 
HETATM   23  H   UNL     1     -11.060   6.377  74.474  1.00  0.00     0.000 HD 
BRANCH  22  24
HETATM   24  C   UNL     1     -11.249   5.431  72.646  1.00  0.00    -0.275 C  
BRANCH  24  25
HETATM   25  C   UNL     1     -10.137   4.898  71.706  1.00  0.00    -0.202 C  
HETATM   26  O   UNL     1      -8.867   4.965  72.373  1.00  0.00    -0.122 OA 
HETATM   27  H   UNL     1      -8.186   4.638  71.797  1.00  0.00     0.000 HD 
BRANCH  25  28
HETATM   28  C   UNL     1     -10.044   5.569  70.348  1.00  0.00    -0.297 A  
HETATM   29  C   UNL     1     -11.208   5.978  69.680  1.00  0.00    -0.428 A  
HETATM   30  C   UNL     1     -11.137   6.529  68.397  1.00  0.00    -0.340 A  
HETATM   31  C   UNL     1      -9.903   6.683  67.769  1.00  0.00    -0.144 A  
HETATM   32  C   UNL     1      -8.738   6.305  68.427  1.00  0.00    -0.116 A  
HETATM   33  C   UNL     1      -8.807   5.751  69.708  1.00  0.00    -0.129 A  
ENDBRANCH  25  28
ENDBRANCH  24  25
ENDBRANCH  22  24
ENDBRANCH  21  22
ENDBRANCH  20  21
ENDBRANCH  17  20
ENDBRANCH  11  14
ENDBRANCH   9  10
ENDBRANCH   6   9
TORSDOF 9
ENDMDL
MODEL        2
REMARK 921   NORMALIZED FREE ENERGY PREDICTED BY IDOCK:   -6.40 KCAL/MOL
REMARK 922        TOTAL FREE ENERGY PREDICTED BY IDOCK:  -12.21 KCAL/MOL
REMARK 923 INTER-LIGAND FREE ENERGY PREDICTED BY IDOCK:  -10.06 KCAL/MOL
REMARK 924 INTRA-LIGAND FREE ENERGY PREDICTED BY IDOCK:   -2.15 KCAL/MOL
REMARK 927      BINDING AFFINITY PREDICTED BY RF-SCORE:    0.00 PKD
ROOT
HETATM    1  N   UNL     1     -11.074   6.184  66.560  1.00  0.00    -0.749 NA 
HETATM    2  C   UNL     1     -10.820   6.000  67.866  1.00  0.00    -0.290 A  
HETATM    3  H1  UNL     1     -10.540   5.725  65.821  1.00  0.00     0.000 HD 
HETATM    4  H2  UNL     1     -11.832   6.810  66.295  1.00  0.00     0.000 HD 
HETATM    5  N   UNL     1     -11.504   6.589  68.814  1.00  0.00    -0.154 NA 
HETATM    6  C   UNL     1     -11.022   6.207  70.061  1.00  0.00    -0.372 A  
HETATM    7  S   UNL     1      -9.582   4.940  68.397  1.00  0.00    -0.150 SA 
HETATM    8  C   UNL     1      -9.974   5.307  70.023  1.00  0.00    -0.245 A  
ENDROOT
BRANCH   6   9
HETATM    9  C   UNL     1     -11.668   6.763  71.283  1.00  0.00    -0.384 C  
BRANCH   9  10
HETATM   10  C   UNL     1     -11.462   8.256  71.476  1.00  0.00    -0.275 C  
HETATM   11  N   UNL     1     -12.301   9.077  70.738  1.00  0.00    -0.490 N  
HETATM   12  O   UNL     1     -10.662   8.634  72.332  1.00  0.00    -0.339 OA 
HETATM   13  H   UNL     1     -12.928   8.623  70.074  1.00  0.00     0.000 HD 
BRANCH  11  14
HETATM   14  C   UNL     1     -12.367  10.482  70.823  1.00  0.00    -0.378 A  
HETATM   15  C   UNL     1     -13.081  11.150  71.818  1.00  0.00    -0.536 A  
HETATM   16  C   UNL     1     -13.214  12.539  71.796  1.00  0.00    -0.444 A  
HETATM   17  C   UNL     1     -12.623  13.296  70.782  1.00  0.00    -0.357 A  
HETATM   18  C   UNL     1     -11.714  11.240  69.845  1.00  0.00    -0.430 A  
HETATM   19  C   UNL     1     -11.852  12.635  69.816  1.00  0.00    -0.379 A  
BRANCH  17  20
HETATM   20  C   UNL     1     -12.858  14.790  70.705  1.00  0.00    -0.398 C  
BRANCH  20  21
HETATM   21  C   UNL     1     -11.701  15.655  71.236  1.00  0.00    -0.422 C  
BRANCH  21  22
HETATM   22  N   UNL     1     -11.128  16.479  70.175  1.00  0.00    -0.433 NA 
HETATM   23  H   UNL     1     -10.927  17.421  70.509  1.00  0.00     0.000 HD 
BRANCH  22  24
HETATM   24  C   UNL     1      -9.937  15.866  69.573  1.00  0.00    -0.274 C  
BRANCH  24  25
HETATM   25  C   UNL     1      -9.912  15.979  68.027  1.00  0.00    -0.229 C  
HETATM   26  O   UNL     1     -10.593  17.175  67.619  1.00  0.00    -0.350 OA 
HETATM   27  H   UNL     1     -10.578  17.244  66.671  1.00  0.00     0.000 HD 
BRANCH  25  28
HETATM   28  C   UNL     1     -10.464  14.785  67.270  1.00  0.00    -0.264 A  
HETATM   29  C   UNL     1     -11.798  14.781  66.833  1.00  0.00    -0.279 A  
HETATM   30  C   UNL     1     -12.337  13.657  66.200  1.00  0.00    -0.476 A  
HETATM   31  C   UNL     1     -11.549  12.527  65.990  1.00  0.00    -0.456 A  
HETATM   32  C   UNL     1     -10.218  12.524  66.396  1.00  0.00    -0.260 A  
HETATM   33  C   UNL     1      -9.680  13.645  67.031  1.00  0.00    -0.251 A  
ENDBRANCH  25  28
ENDBRANCH  24  25
ENDBRANCH  22  24
ENDBRANCH  21  22
ENDBRANCH  20  21
ENDBRANCH  17  20
ENDBRANCH  11  14
ENDBRANCH   9  10
ENDBRANCH   6   9
TORSDOF 9
ENDMDL
MODEL        3
REMARK 921   NORMALIZED FREE ENERGY PREDICTED BY IDOCK:   -6.35 KCAL/MOL
REMARK 922        TOTAL FREE ENERGY PREDICTED BY IDOCK:  -12.13 KCAL/MOL
REMARK 923 INTER-LIGAND FREE ENERGY PREDICTED BY IDOCK:   -9.91 KCAL/MOL
REMARK 924 INTRA-LIGAND FREE ENERGY PREDICTED BY IDOCK:   -2.22 KCAL/MOL
REMARK 927      BINDING AFFINITY PREDICTED BY RF-SCORE:    0.00 PKD
ROOT
HETATM    1  N   UNL     1     -11.762  16.372  71.146  1.00  0.00    -0.620 NA 
HETATM    2  C   UNL     1     -12.434  15.250  71.452  1.00  0.00    -0.361 A  
HETATM    3  H1  UNL     1     -12.107  17.305  71.373  1.00  0.00     0.000 HD 
HETATM    4  H2  UNL     1     -10.868  16.287  70.664  1.00  0.00     0.000 HD 
HETATM    5  N   UNL     1     -11.992  14.053  71.160  1.00  0.00    -0.265 NA 
HETATM    6  C   UNL     1     -12.892  13.088  71.601  1.00  0.00    -0.277 A  
HETATM    7  S   UNL     1     -13.930  15.303  72.288  1.00  0.00    -0.561 SA 
HETATM    8  C   UNL     1     -14.007  13.592  72.243  1.00  0.00    -0.563 A  
ENDROOT
BRANCH   6   9
HETATM    9  C   UNL     1     -12.575  11.651  71.372  1.00  0.00    -0.391 C  
BRANCH   9  10
HETATM   10  C   UNL     1     -12.126  11.327  69.957  1.00  0.00    -0.348 C  
HETATM   11  N   UNL     1     -10.765  11.448  69.718  1.00  0.00    -0.447 N  
HETATM   12  O   UNL     1     -12.955  10.884  69.162  1.00  0.00     0.026 OA 
HETATM   13  H   UNL     1     -10.192  11.816  70.477  1.00  0.00     0.000 HD 
BRANCH  11  14
HETATM   14  C   UNL     1     -10.103  11.108  68.521  1.00  0.00    -0.201 A  
HETATM   15  C   UNL     1      -9.061  11.867  67.989  1.00  0.00    -0.189 A  
HETATM   16  C   UNL     1      -8.512  11.558  66.743  1.00  0.00    -0.168 A  
HETATM   17  C   UNL     1      -8.986  10.471  66.005  1.00  0.00    -0.185 A  
HETATM   18  C   UNL     1     -10.533   9.977  67.820  1.00  0.00    -0.282 A  
HETATM   19  C   UNL     1      -9.990   9.668  66.565  1.00  0.00    -0.313 A  
BRANCH  17  20
HETATM   20  C   UNL     1      -8.459  10.203  64.611  1.00  0.00    -0.178 C  
BRANCH  20  21
HETATM   21  C   UNL     1      -9.469  10.459  63.478  1.00  0.00    -0.312 C  
BRANCH  21  22
HETATM   22  N   UNL     1      -9.771  11.882  63.352  1.00  0.00    -0.561 NA 
HETATM   23  H   UNL     1      -9.246  12.304  62.586  1.00  0.00     0.000 HD 
BRANCH  22  24
HETATM   24  C   UNL     1     -11.210  12.138  63.210  1.00  0.00    -0.328 C  
BRANCH  24  25
HETATM   25  C   UNL     1     -11.955  12.186  64.568  1.00  0.00    -0.337 C  
HETATM   26  O   UNL     1     -13.372  12.241  64.341  1.00  0.00    -0.786 OA 
HETATM   27  H   UNL     1     -13.828  12.270  65.173  1.00  0.00     0.000 HD 
BRANCH  25  28
HETATM   28  C   UNL     1     -11.539  13.300  65.511  1.00  0.00    -0.351 A  
HETATM   29  C   UNL     1     -12.115  13.399  66.786  1.00  0.00    -0.419 A  
HETATM   30  C   UNL     1     -11.794  14.464  67.633  1.00  0.00    -0.412 A  
HETATM   31  C   UNL     1     -10.890  15.440  67.218  1.00  0.00    -0.316 A  
HETATM   32  C   UNL     1     -10.292  15.343  65.965  1.00  0.00    -0.339 A  
HETATM   33  C   UNL     1     -10.614  14.282  65.118  1.00  0.00    -0.423 A  
ENDBRANCH  25  28
ENDBRANCH  24  25
ENDBRANCH  22  24
ENDBRANCH  21  22
ENDBRANCH  20  21
ENDBRANCH  17  20
ENDBRANCH  11  14
ENDBRANCH   9  10
ENDBRANCH   6   9
TORSDOF 9
ENDMDL
MODEL        4
REMARK 921   NORMALIZED FREE ENERGY PREDICTED BY IDOCK:   -6.33 KCAL/MOL
REMARK 922        TOTAL FREE ENERGY PREDICTED BY IDOCK:  -12.10 KCAL/MOL
REMARK 923 INTER-LIGAND FREE ENERGY PREDICTED BY IDOCK:  -10.10 KCAL/MOL
REMARK 924 INTRA-LIGAND FREE ENERGY PREDICTED BY IDOCK:   -2.00 KCAL/MOL
REMARK 927      BINDING AFFINITY PREDICTED BY RF-SCORE:    0.00 PKD
ROOT
HETATM    1  N   UNL     1     -13.845   9.953  72.578  1.00  0.00    -0.570 NA 
HETATM    2  C   UNL     1     -13.174   8.945  71.996  1.00  0.00    -0.409 A  
HETATM    3  H1  UNL     1     -14.831   9.889  72.834  1.00  0.00     0.000 HD 
HETATM    4  H2  UNL     1     -13.348  10.821  72.772  1.00  0.00     0.000 HD 
HETATM    5  N   UNL     1     -11.910   9.027  71.668  1.00  0.00    -0.335 NA 
HETATM    6  C   UNL     1     -11.486   7.834  71.091  1.00  0.00    -0.274 A  
HETATM    7  S   UNL     1     -13.929   7.442  71.664  1.00  0.00    -0.341 SA 
HETATM    8  C   UNL     1     -12.458   6.855  71.012  1.00  0.00    -0.313 A  
ENDROOT
BRANCH   6   9
HETATM    9  C   UNL     1     -10.069   7.714  70.648  1.00  0.00    -0.187 C  
BRANCH   9  10
HETATM   10  C   UNL     1      -9.681   8.664  69.529  1.00  0.00    -0.179 C  
HETATM   11  N   UNL     1     -10.677   8.942  68.605  1.00  0.00    -0.399 N  
HETATM   12  O   UNL     1      -8.573   9.201  69.569  1.00  0.00    -0.126 OA 
HETATM   13  H   UNL     1     -11.555   8.432  68.703  1.00  0.00     0.000 HD 
BRANCH  11  14
HETATM   14  C   UNL     1     -10.587   9.865  67.544  1.00  0.00    -0.275 A  
HETATM   15  C   UNL     1     -11.169  11.132  67.588  1.00  0.00    -0.364 A  
HETATM   16  C   UNL     1     -11.154  11.968  66.471  1.00  0.00    -0.362 A  
HETATM   17  C   UNL     1     -10.542  11.560  65.283  1.00  0.00    -0.339 A  
HETATM   18  C   UNL     1      -9.912   9.479  66.381  1.00  0.00    -0.339 A  
HETATM   19  C   UNL     1      -9.901  10.314  65.254  1.00  0.00    -0.372 A  
BRANCH  17  20
HETATM   20  C   UNL     1     -10.619  12.427  64.044  1.00  0.00    -0.444 C  
BRANCH  20  21
HETATM   21  C   UNL     1     -12.045  12.708  63.539  1.00  0.00    -0.561 C  
BRANCH  21  22
HETATM   22  N   UNL     1     -12.293  14.143  63.432  1.00  0.00    -1.144 NA 
HETATM   23  H   UNL     1     -13.010  14.341  62.733  1.00  0.00     0.000 HD 
BRANCH  22  24
HETATM   24  C   UNL     1     -12.633  14.751  64.724  1.00  0.00    -0.095 C  
BRANCH  24  25
HETATM   25  C   UNL     1     -11.660  15.886  65.135  1.00  0.00     0.126 C  
HETATM   26  O   UNL     1     -10.961  16.367  63.977  1.00  0.00    -1.126 OA 
HETATM   27  H   UNL     1     -10.365  17.063  64.229  1.00  0.00     0.000 HD 
BRANCH  25  28
HETATM   28  C   UNL     1     -10.668  15.541  66.231  1.00  0.00    -0.307 A  
HETATM   29  C   UNL     1      -9.290  15.583  65.975  1.00  0.00    -0.379 A  
HETATM   30  C   UNL     1      -8.371  15.196  66.955  1.00  0.00    -0.263 A  
HETATM   31  C   UNL     1      -8.818  14.767  68.203  1.00  0.00    -0.170 A  
HETATM   32  C   UNL     1     -10.181  14.743  68.481  1.00  0.00    -0.232 A  
HETATM   33  C   UNL     1     -11.100  15.127  67.502  1.00  0.00    -0.319 A  
ENDBRANCH  25  28
ENDBRANCH  24  25
ENDBRANCH  22  24
ENDBRANCH  21  22
ENDBRANCH  20  21
ENDBRANCH  17  20
ENDBRANCH  11  14
ENDBRANCH   9  10
ENDBRANCH   6   9
TORSDOF 9
ENDMDL
MODEL        5
REMARK 921   NORMALIZED FREE ENERGY PREDICTED BY IDOCK:   -6.31 KCAL/MOL
REMARK 922        TOTAL FREE ENERGY PREDICTED BY IDOCK:  -12.07 KCAL/MOL
REMARK 923 INTER-LIGAND FREE ENERGY PREDICTED BY IDOCK:   -9.72 KCAL/MOL
REMARK 924 INTRA-LIGAND FREE ENERGY PREDICTED BY IDOCK:   -2.35 KCAL/MOL
REMARK 927      BINDING AFFINITY PREDICTED BY RF-SCORE:    0.00 PKD
ROOT
HETATM    1  N   UNL     1     -13.138  16.067  74.442  1.00  0.00    -0.849 NA 
HETATM    2  C   UNL     1     -12.919  15.889  73.129  1.00  0.00    -0.549 A  
HETATM    3  H1  UNL     1     -14.013  15.808  74.899  1.00  0.00     0.000 HD 
HETATM    4  H2  UNL     1     -12.398  16.480  75.008  1.00  0.00     0.000 HD 
HETATM    5  N   UNL     1     -11.796  16.223  72.543  1.00  0.00    -0.539 NA 
HETATM    6  C   UNL     1     -11.855  15.918  71.187  1.00  0.00    -0.438 A  
HETATM    7  S   UNL     1     -14.100  15.174  72.113  1.00  0.00    -0.581 SA 
HETATM    8  C   UNL     1     -13.040  15.336  70.777  1.00  0.00    -0.414 A  
ENDROOT
BRANCH   6   9
HETATM    9  C   UNL     1     -10.671  16.215  70.332  1.00  0.00    -0.170 C  
BRANCH   9  10
HETATM   10  C   UNL     1     -10.855  15.866  68.865  1.00  0.00    -0.274 C  
HETATM   11  N   UNL     1     -10.667  14.531  68.538  1.00  0.00    -0.243 N  
HETATM   12  O   UNL     1     -11.256  16.741  68.097  1.00  0.00    -0.325 OA 
HETATM   13  H   UNL     1     -10.347  13.912  69.283  1.00  0.00     0.000 HD 
BRANCH  11  14
HETATM   14  C   UNL     1     -10.879  13.953  67.270  1.00  0.00    -0.286 A  
HETATM   15  C   UNL     1     -11.901  13.039  67.014  1.00  0.00    -0.437 A  
HETATM   16  C   UNL     1     -12.001  12.405  65.775  1.00  0.00    -0.437 A  
HETATM   17  C   UNL     1     -11.086  12.681  64.756  1.00  0.00    -0.335 A  
HETATM   18  C   UNL     1     -10.002  14.286  66.232  1.00  0.00    -0.319 A  
HETATM   19  C   UNL     1     -10.095  13.645  64.989  1.00  0.00    -0.293 A  
BRANCH  17  20
HETATM   20  C   UNL     1     -11.137  11.913  63.451  1.00  0.00    -0.463 C  
BRANCH  20  21
HETATM   21  C   UNL     1      -9.782  11.366  62.969  1.00  0.00    -0.371 C  
BRANCH  21  22
HETATM   22  N   UNL     1      -9.714   9.915  63.122  1.00  0.00    -0.520 NA 
HETATM   23  H   UNL     1      -9.663   9.452  62.214  1.00  0.00     0.000 HD 
BRANCH  22  24
HETATM   24  C   UNL     1      -8.610   9.495  63.993  1.00  0.00    -0.207 C  
BRANCH  24  25
HETATM   25  C   UNL     1      -8.215  10.573  65.035  1.00  0.00    -0.120 C  
HETATM   26  O   UNL     1      -6.784  10.655  65.127  1.00  0.00    -0.308 OA 
HETATM   27  H   UNL     1      -6.542  11.315  65.765  1.00  0.00     0.000 HD 
BRANCH  25  28
HETATM   28  C   UNL     1      -8.813  10.404  66.419  1.00  0.00    -0.159 A  
HETATM   29  C   UNL     1      -9.959   9.614  66.602  1.00  0.00    -0.301 A  
HETATM   30  C   UNL     1     -10.560   9.512  67.860  1.00  0.00    -0.299 A  
HETATM   31  C   UNL     1     -10.022  10.192  68.951  1.00  0.00    -0.207 A  
HETATM   32  C   UNL     1      -8.872  10.959  68.791  1.00  0.00    -0.162 A  
HETATM   33  C   UNL     1      -8.273  11.065  67.534  1.00  0.00    -0.117 A  
ENDBRANCH  25  28
ENDBRANCH  24  25
ENDBRANCH  22  24
ENDBRANCH  21  22
ENDBRANCH  20  21
ENDBRANCH  17  20
ENDBRANCH  11  14
ENDBRANCH   9  10
ENDBRANCH   6   9
TORSDOF 9
ENDMDL
MODEL        6
REMARK 921   NORMALIZED FREE ENERGY PREDICTED BY IDOCK:   -6.30 KCAL/MOL
REMARK 922        TOTAL FREE ENERGY PREDICTED BY IDOCK:  -12.06 KCAL/MOL
REMARK 923 INTER-LIGAND FREE ENERGY PREDICTED BY IDOCK:  -10.01 KCAL/MOL
REMARK 924 INTRA-LIGAND FREE ENERGY PREDICTED BY IDOCK:   -2.05 KCAL/MOL
REMARK 927      BINDING AFFINITY PREDICTED BY RF-SCORE:    0.00 PKD
ROOT
HETATM    1  N   UNL     1     -10.995   5.416  66.322  1.00  0.00    -0.742 NA 
HETATM    2  C   UNL     1     -10.654   5.507  67.617  1.00  0.00    -0.164 A  
HETATM    3  H1  UNL     1     -10.582   4.734  65.685  1.00  0.00     0.000 HD 
HETATM    4  H2  UNL     1     -11.699   6.057  65.957  1.00  0.00     0.000 HD 
HETATM    5  N   UNL     1     -11.185   6.382  68.434  1.00  0.00    -0.288 NA 
HETATM    6  C   UNL     1     -10.644   6.238  69.707  1.00  0.00    -0.264 A  
HETATM    7  S   UNL     1      -9.502   4.447  68.316  1.00  0.00    -0.144 SA 
HETATM    8  C   UNL     1      -9.711   5.227  69.827  1.00  0.00    -0.189 A  
ENDROOT
BRANCH   6   9
HETATM    9  C   UNL     1     -11.118   7.140  70.795  1.00  0.00    -0.296 C  
BRANCH   9  10
HETATM   10  C   UNL     1     -10.780   8.606  70.585  1.00  0.00    -0.222 C  
HETATM   11  N   UNL     1     -11.692   9.329  69.830  1.00  0.00    -0.419 N  
HETATM   12  O   UNL     1      -9.804   9.076  71.171  1.00  0.00    -0.248 OA 
HETATM   13  H   UNL     1     -12.465   8.809  69.415  1.00  0.00     0.000 HD 
BRANCH  11  14
HETATM   14  C   UNL     1     -11.647  10.716  69.585  1.00  0.00    -0.296 A  
HETATM   15  C   UNL     1     -12.101  11.664  70.502  1.00  0.00    -0.458 A  
HETATM   16  C   UNL     1     -12.145  13.019  70.171  1.00  0.00    -0.377 A  
HETATM   17  C   UNL     1     -11.721  13.460  68.915  1.00  0.00    -0.369 A  
HETATM   18  C   UNL     1     -11.155  11.159  68.352  1.00  0.00    -0.303 A  
HETATM   19  C   UNL     1     -11.205  12.519  68.014  1.00  0.00    -0.316 A  
BRANCH  17  20
HETATM   20  C   UNL     1     -11.868  14.916  68.524  1.00  0.00    -0.325 C  
BRANCH  20  21
HETATM   21  C   UNL     1     -10.569  15.738  68.590  1.00  0.00    -0.250 C  
BRANCH  21  22
HETATM   22  N   UNL     1      -9.924  15.811  67.282  1.00  0.00    -0.235 NA 
HETATM   23  H   UNL     1      -9.706  14.881  66.926  1.00  0.00     0.000 HD 
BRANCH  22  24
HETATM   24  C   UNL     1     -10.714  16.577  66.310  1.00  0.00    -0.146 C  
BRANCH  24  25
HETATM   25  C   UNL     1     -10.707  15.950  64.892  1.00  0.00    -0.341 C  
HETATM   26  O   UNL     1     -11.590  16.688  64.033  1.00  0.00    -1.490 OA 
HETATM   27  H   UNL     1     -11.585  16.303  63.164  1.00  0.00     0.000 HD 
BRANCH  25  28
HETATM   28  C   UNL     1     -11.035  14.470  64.823  1.00  0.00    -0.404 A  
HETATM   29  C   UNL     1     -10.009  13.526  64.663  1.00  0.00    -0.112 A  
HETATM   30  C   UNL     1     -10.307  12.167  64.524  1.00  0.00    -0.335 A  
HETATM   31  C   UNL     1     -11.632  11.735  64.549  1.00  0.00    -0.299 A  
HETATM   32  C   UNL     1     -12.658  12.656  64.731  1.00  0.00    -0.530 A  
HETATM   33  C   UNL     1     -12.362  14.014  64.867  1.00  0.00    -0.447 A  
ENDBRANCH  25  28
ENDBRANCH  24  25
ENDBRANCH  22  24
ENDBRANCH  21  22
ENDBRANCH  20  21
ENDBRANCH  17  20
ENDBRANCH  11  14
ENDBRANCH   9  10
ENDBRANCH   6   9
TORSDOF 9
ENDMDL
MODEL        7
REMARK 921   NORMALIZED FREE ENERGY PREDICTED BY IDOCK:   -6.25 KCAL/MOL
REMARK 922        TOTAL FREE ENERGY PREDICTED BY IDOCK:  -11.98 KCAL/MOL
REMARK 923 INTER-LIGAND FREE ENERGY PREDICTED BY IDOCK:   -9.98 KCAL/MOL
REMARK 924 INTRA-LIGAND FREE ENERGY PREDICTED BY IDOCK:   -2.00 KCAL/MOL
REMARK 927      BINDING AFFINITY PREDICTED BY RF-SCORE:    0.00 PKD
ROOT
HETATM    1  N   UNL     1      -9.992  20.288  65.610  1.00  0.00    -0.529 NA 
HETATM    2  C   UNL     1     -10.088  19.183  66.368  1.00  0.00    -0.419 A  
HETATM    3  H1  UNL     1      -9.953  21.228  66.003  1.00  0.00     0.000 HD 
HETATM    4  H2  UNL     1      -9.956  20.181  64.598  1.00  0.00     0.000 HD 
HETATM    5  N   UNL     1     -10.139  17.976  65.865  1.00  0.00    -0.575 NA 
HETATM    6  C   UNL     1     -10.232  17.034  66.885  1.00  0.00    -0.305 A  
HETATM    7  S   UNL     1     -10.124  19.273  68.080  1.00  0.00    -0.431 SA 
HETATM    8  C   UNL     1     -10.233  17.565  68.160  1.00  0.00    -0.359 A  
ENDROOT
BRANCH   6   9
HETATM    9  C   UNL     1     -10.296  15.590  66.526  1.00  0.00    -0.293 C  
BRANCH   9  10
HETATM   10  C   UNL     1     -10.327  14.649  67.718  1.00  0.00    -0.237 C  
HETATM   11  N   UNL     1     -11.576  14.152  68.056  1.00  0.00    -0.315 N  
HETATM   12  O   UNL     1      -9.259  14.309  68.228  1.00  0.00    -0.185 OA 
HETATM   13  H   UNL     1     -12.376  14.513  67.536  1.00  0.00     0.000 HD 
BRANCH  11  14
HETATM   14  C   UNL     1     -11.841  13.192  69.054  1.00  0.00    -0.313 A  
HETATM   15  C   UNL     1     -11.744  11.819  68.831  1.00  0.00    -0.384 A  
HETATM   16  C   UNL     1     -12.128  10.904  69.812  1.00  0.00    -0.409 A  
HETATM   17  C   UNL     1     -12.607  11.344  71.049  1.00  0.00    -0.487 A  
HETATM   18  C   UNL     1     -12.253  13.638  70.315  1.00  0.00    -0.423 A  
HETATM   19  C   UNL     1     -12.647  12.722  71.300  1.00  0.00    -0.347 A  
BRANCH  17  20
HETATM   20  C   UNL     1     -13.120  10.349  72.070  1.00  0.00    -0.521 C  
BRANCH  20  21
HETATM   21  C   UNL     1     -13.839   9.125  71.477  1.00  0.00    -0.294 C  
BRANCH  21  22
HETATM   22  N   UNL     1     -13.764   7.980  72.379  1.00  0.00    -0.543 NA 
HETATM   23  H   UNL     1     -14.695   7.678  72.668  1.00  0.00     0.000 HD 
BRANCH  22  24
HETATM   24  C   UNL     1     -13.001   6.864  71.805  1.00  0.00    -0.277 C  
BRANCH  24  25
HETATM   25  C   UNL     1     -11.495   6.908  72.169  1.00  0.00    -0.279 C  
HETATM   26  O   UNL     1     -11.328   7.504  73.465  1.00  0.00    -0.620 OA 
HETATM   27  H   UNL     1     -10.405   7.531  73.688  1.00  0.00     0.000 HD 
BRANCH  25  28
HETATM   28  C   UNL     1     -10.592   7.599  71.163  1.00  0.00    -0.235 A  
HETATM   29  C   UNL     1      -9.651   8.547  71.592  1.00  0.00    -0.319 A  
HETATM   30  C   UNL     1      -8.867   9.242  70.666  1.00  0.00    -0.287 A  
HETATM   31  C   UNL     1      -9.010   8.994  69.303  1.00  0.00    -0.144 A  
HETATM   32  C   UNL     1      -9.922   8.040  68.863  1.00  0.00    -0.199 A  
HETATM   33  C   UNL     1     -10.708   7.348  69.786  1.00  0.00    -0.252 A  
ENDBRANCH  25  28
ENDBRANCH  24  25
ENDBRANCH  22  24
ENDBRANCH  21  22
ENDBRANCH  20  21
ENDBRANCH  17  20
ENDBRANCH  11  14
ENDBRANCH   9  10
ENDBRANCH   6   9
TORSDOF 9
ENDMDL
MODEL        8
REMARK 921   NORMALIZED FREE ENERGY PREDICTED BY IDOCK:   -6.21 KCAL/MOL
REMARK 922        TOTAL FREE ENERGY PREDICTED BY IDOCK:  -11.92 KCAL/MOL
REMARK 923 INTER-LIGAND FREE ENERGY PREDICTED BY IDOCK:   -9.91 KCAL/MOL
REMARK 924 INTRA-LIGAND FREE ENERGY PREDICTED BY IDOCK:   -2.01 KCAL/MOL
REMARK 927      BINDING AFFINITY PREDICTED BY RF-SCORE:    0.00 PKD
ROOT
HETATM    1  N   UNL     1      -9.610  20.092  65.862  1.00  0.00    -0.576 NA 
HETATM    2  C   UNL     1      -9.925  18.934  66.465  1.00  0.00    -0.384 A  
HETATM    3  H1  UNL     1      -9.654  20.995  66.336  1.00  0.00     0.000 HD 
HETATM    4  H2  UNL     1      -9.314  20.068  64.887  1.00  0.00     0.000 HD 
HETATM    5  N   UNL     1      -9.870  17.776  65.857  1.00  0.00    -0.550 NA 
HETATM    6  C   UNL     1     -10.246  16.759  66.728  1.00  0.00    -0.304 A  
HETATM    7  S   UNL     1     -10.403  18.884  68.111  1.00  0.00    -0.331 SA 
HETATM    8  C   UNL     1     -10.568  17.182  68.004  1.00  0.00    -0.374 A  
ENDROOT
BRANCH   6   9
HETATM    9  C   UNL     1     -10.247  15.354  66.234  1.00  0.00    -0.303 C  
BRANCH   9  10
HETATM   10  C   UNL     1     -11.200  14.431  66.973  1.00  0.00    -0.328 C  
HETATM   11  N   UNL     1     -10.689  13.828  68.113  1.00  0.00    -0.242 N  
HETATM   12  O   UNL     1     -12.369  14.361  66.590  1.00  0.00    -0.409 OA 
HETATM   13  H   UNL     1      -9.702  13.987  68.318  1.00  0.00     0.000 HD 
BRANCH  11  14
HETATM   14  C   UNL     1     -11.408  13.016  69.013  1.00  0.00    -0.289 A  
HETATM   15  C   UNL     1     -11.953  13.500  70.202  1.00  0.00    -0.399 A  
HETATM   16  C   UNL     1     -12.556  12.637  71.118  1.00  0.00    -0.354 A  
HETATM   17  C   UNL     1     -12.641  11.267  70.857  1.00  0.00    -0.467 A  
HETATM   18  C   UNL     1     -11.552  11.657  68.714  1.00  0.00    -0.374 A  
HETATM   19  C   UNL     1     -12.151  10.786  69.636  1.00  0.00    -0.361 A  
BRANCH  17  20
HETATM   20  C   UNL     1     -13.202  10.322  71.900  1.00  0.00    -0.550 C  
BRANCH  20  21
HETATM   21  C   UNL     1     -13.923   9.087  71.332  1.00  0.00    -0.212 C  
BRANCH  21  22
HETATM   22  N   UNL     1     -13.783   7.938  72.222  1.00  0.00    -0.533 NA 
HETATM   23  H   UNL     1     -14.695   7.580  72.508  1.00  0.00     0.000 HD 
BRANCH  22  24
HETATM   24  C   UNL     1     -12.957   6.875  71.638  1.00  0.00    -0.307 C  
BRANCH  24  25
HETATM   25  C   UNL     1     -11.461   6.983  72.030  1.00  0.00    -0.271 C  
HETATM   26  O   UNL     1     -11.345   7.573  73.334  1.00  0.00    -0.611 OA 
HETATM   27  H   UNL     1     -10.428   7.639  73.574  1.00  0.00     0.000 HD 
BRANCH  25  28
HETATM   28  C   UNL     1     -10.573   7.723  71.047  1.00  0.00    -0.226 A  
HETATM   29  C   UNL     1     -10.597   7.391  69.684  1.00  0.00    -0.243 A  
HETATM   30  C   UNL     1      -9.730   8.015  68.783  1.00  0.00    -0.157 A  
HETATM   31  C   UNL     1      -8.833   8.982  69.230  1.00  0.00    -0.139 A  
HETATM   32  C   UNL     1      -8.813   9.340  70.575  1.00  0.00    -0.285 A  
HETATM   33  C   UNL     1      -9.676   8.715  71.476  1.00  0.00    -0.333 A  
ENDBRANCH  25  28
ENDBRANCH  24  25
ENDBRANCH  22  24
ENDBRANCH  21  22
ENDBRANCH  20  21
ENDBRANCH  17  20
ENDBRANCH  11  14
ENDBRANCH   9  10
ENDBRANCH   6   9
TORSDOF 9
ENDMDL
MODEL        9
REMARK 921   NORMALIZED FREE ENERGY PREDICTED BY IDOCK:   -6.21 KCAL/MOL
REMARK 922        TOTAL FREE ENERGY PREDICTED BY IDOCK:  -11.92 KCAL/MOL
REMARK 923 INTER-LIGAND FREE ENERGY PREDICTED BY IDOCK:  -10.27 KCAL/MOL
REMARK 924 INTRA-LIGAND FREE ENERGY PREDICTED BY IDOCK:   -1.65 KCAL/MOL
REMARK 927      BINDING AFFINITY PREDICTED BY RF-SCORE:    0.00 PKD
ROOT
HETATM    1  N   UNL     1     -12.960  16.145  74.348  1.00  0.00    -0.943 NA 
HETATM    2  C   UNL     1     -12.880  15.937  73.023  1.00  0.00    -0.513 A  
HETATM    3  H1  UNL     1     -13.768  15.869  74.906  1.00  0.00     0.000 HD 
HETATM    4  H2  UNL     1     -12.178  16.599  74.817  1.00  0.00     0.000 HD 
HETATM    5  N   UNL     1     -11.843  16.292  72.308  1.00  0.00    -0.535 NA 
HETATM    6  C   UNL     1     -12.040  15.947  70.975  1.00  0.00    -0.395 A  
HETATM    7  S   UNL     1     -14.139  15.153  72.163  1.00  0.00    -0.581 SA 
HETATM    8  C   UNL     1     -13.240  15.313  70.715  1.00  0.00    -0.390 A  
ENDROOT
BRANCH   6   9
HETATM    9  C   UNL     1     -10.970  16.259  69.986  1.00  0.00    -0.356 C  
BRANCH   9  10
HETATM   10  C   UNL     1     -10.849  15.252  68.855  1.00  0.00    -0.247 C  
HETATM   11  N   UNL     1     -10.457  13.975  69.229  1.00  0.00    -0.431 N  
HETATM   12  O   UNL     1     -11.202  15.590  67.725  1.00  0.00    -0.314 OA 
HETATM   13  H   UNL     1     -10.207  13.835  70.208  1.00  0.00     0.000 HD 
BRANCH  11  14
HETATM   14  C   UNL     1     -10.372  12.854  68.379  1.00  0.00    -0.244 A  
HETATM   15  C   UNL     1     -11.494  12.223  67.842  1.00  0.00    -0.390 A  
HETATM   16  C   UNL     1     -11.369  11.047  67.100  1.00  0.00    -0.214 A  
HETATM   17  C   UNL     1     -10.112  10.482  66.867  1.00  0.00    -0.265 A  
HETATM   18  C   UNL     1      -9.107  12.332  68.089  1.00  0.00    -0.196 A  
HETATM   19  C   UNL     1      -8.978  11.147  67.351  1.00  0.00    -0.139 A  
BRANCH  17  20
HETATM   20  C   UNL     1      -9.992   9.152  66.151  1.00  0.00    -0.338 C  
BRANCH  20  21
HETATM   21  C   UNL     1      -9.850   7.931  67.076  1.00  0.00    -0.225 C  
BRANCH  21  22
HETATM   22  N   UNL     1     -11.100   7.181  67.155  1.00  0.00    -0.585 NA 
HETATM   23  H   UNL     1     -11.265   6.649  66.301  1.00  0.00     0.000 HD 
BRANCH  22  24
HETATM   24  C   UNL     1     -11.158   6.313  68.338  1.00  0.00    -0.279 C  
BRANCH  24  25
HETATM   25  C   UNL     1     -10.447   6.922  69.573  1.00  0.00    -0.223 C  
HETATM   26  O   UNL     1      -9.922   5.869  70.397  1.00  0.00    -0.178 OA 
HETATM   27  H   UNL     1      -9.486   6.243  71.154  1.00  0.00     0.000 HD 
BRANCH  25  28
HETATM   28  C   UNL     1     -11.283   7.868  70.416  1.00  0.00    -0.240 A  
HETATM   29  C   UNL     1     -12.320   7.371  71.219  1.00  0.00    -0.380 A  
HETATM   30  C   UNL     1     -13.143   8.241  71.940  1.00  0.00    -0.367 A  
HETATM   31  C   UNL     1     -12.935   9.617  71.873  1.00  0.00    -0.527 A  
HETATM   32  C   UNL     1     -11.895  10.125  71.101  1.00  0.00    -0.472 A  
HETATM   33  C   UNL     1     -11.075   9.257  70.377  1.00  0.00    -0.300 A  
ENDBRANCH  25  28
ENDBRANCH  24  25
ENDBRANCH  22  24
ENDBRANCH  21  22
ENDBRANCH  20  21
ENDBRANCH  17  20
ENDBRANCH  11  14
ENDBRANCH   9  10
ENDBRANCH   6   9
TORSDOF 9
ENDMDL
MODEL       10
REMARK 921   NORMALIZED FREE ENERGY PREDICTED BY IDOCK:   -6.11 KCAL/MOL
REMARK 922        TOTAL FREE ENERGY PREDICTED BY IDOCK:  -11.78 KCAL/MOL
REMARK 923 INTER-LIGAND FREE ENERGY PREDICTED BY IDOCK:  -10.50 KCAL/MOL
REMARK 924 INTRA-LIGAND FREE ENERGY PREDICTED BY IDOCK:   -1.27 KCAL/MOL
REMARK 927      BINDING AFFINITY PREDICTED BY RF-SCORE:    0.00 PKD
ROOT
HETATM    1  N   UNL     1     -11.107   6.094  66.671  1.00  0.00    -0.759 NA 
HETATM    2  C   UNL     1     -10.789   5.852  67.954  1.00  0.00    -0.233 A  
HETATM    3  H1  UNL     1     -10.646   5.629  65.888  1.00  0.00     0.000 HD 
HETATM    4  H2  UNL     1     -11.840   6.773  66.471  1.00  0.00     0.000 HD 
HETATM    5  N   UNL     1     -11.380   6.450  68.958  1.00  0.00    -0.335 NA 
HETATM    6  C   UNL     1     -10.850   5.998  70.163  1.00  0.00    -0.339 A  
HETATM    7  S   UNL     1      -9.589   4.704  68.378  1.00  0.00    -0.139 SA 
HETATM    8  C   UNL     1      -9.863   5.040  70.035  1.00  0.00    -0.228 A  
ENDROOT
BRANCH   6   9
HETATM    9  C   UNL     1     -11.389   6.551  71.437  1.00  0.00    -0.344 C  
BRANCH   9  10
HETATM   10  C   UNL     1     -11.313   8.064  71.545  1.00  0.00    -0.259 C  
HETATM   11  N   UNL     1     -12.259   8.765  70.812  1.00  0.00    -0.483 N  
HETATM   12  O   UNL     1     -10.511   8.559  72.337  1.00  0.00    -0.322 OA 
HETATM   13  H   UNL     1     -12.872   8.221  70.205  1.00  0.00     0.000 HD 
BRANCH  11  14
HETATM   14  C   UNL     1     -12.451  10.162  70.831  1.00  0.00    -0.360 A  
HETATM   15  C   UNL     1     -11.856  11.022  69.908  1.00  0.00    -0.431 A  
HETATM   16  C   UNL     1     -11.979  12.406  70.035  1.00  0.00    -0.372 A  
HETATM   17  C   UNL     1     -12.715  12.964  71.084  1.00  0.00    -0.366 A  
HETATM   18  C   UNL     1     -13.246  10.712  71.842  1.00  0.00    -0.528 A  
HETATM   19  C   UNL     1     -13.366  12.102  71.976  1.00  0.00    -0.470 A  
BRANCH  17  20
HETATM   20  C   UNL     1     -12.759  14.465  71.275  1.00  0.00    -0.414 C  
BRANCH  20  21
HETATM   21  C   UNL     1     -11.421  15.104  71.687  1.00  0.00    -0.380 C  
BRANCH  21  22
HETATM   22  N   UNL     1     -10.618  15.450  70.518  1.00  0.00    -0.465 NA 
HETATM   23  H   UNL     1     -10.073  14.650  70.196  1.00  0.00     0.000 HD 
BRANCH  22  24
HETATM   24  C   UNL     1     -11.428  16.010  69.429  1.00  0.00    -0.336 C  
BRANCH  24  25
HETATM   25  C   UNL     1     -10.620  16.236  68.125  1.00  0.00    -0.307 C  
HETATM   26  O   UNL     1     -10.650  17.628  67.774  1.00  0.00    -0.374 OA 
HETATM   27  H   UNL     1     -10.154  17.767  66.975  1.00  0.00     0.000 HD 
BRANCH  25  28
HETATM   28  C   UNL     1     -11.039  15.393  66.934  1.00  0.00    -0.256 A  
HETATM   29  C   UNL     1     -10.559  15.696  65.651  1.00  0.00    -0.393 A  
HETATM   30  C   UNL     1     -10.996  14.972  64.538  1.00  0.00    -0.209 A  
HETATM   31  C   UNL     1     -11.913  13.935  64.694  1.00  0.00    -0.443 A  
HETATM   32  C   UNL     1     -12.381  13.607  65.962  1.00  0.00    -0.493 A  
HETATM   33  C   UNL     1     -11.947  14.331  67.075  1.00  0.00    -0.463 A  
ENDBRANCH  25  28
ENDBRANCH  24  25
ENDBRANCH  22  24
ENDBRANCH  21  22
ENDBRANCH  20  21
ENDBRANCH  17  20
ENDBRANCH  11  14
ENDBRANCH   9  10
ENDBRANCH   6   9
TORSDOF 9
ENDMDL
MODEL       11
REMARK 921   NORMALIZED FREE ENERGY PREDICTED BY IDOCK:   -6.06 KCAL/MOL
REMARK 922        TOTAL FREE ENERGY PREDICTED BY IDOCK:  -11.69 KCAL/MOL
REMARK 923 INTER-LIGAND FREE ENERGY PREDICTED BY IDOCK:   -8.92 KCAL/MOL
REMARK 924 INTRA-LIGAND FREE ENERGY PREDICTED BY IDOCK:   -2.77 KCAL/MOL
REMARK 927      BINDING AFFINITY PREDICTED BY RF-SCORE:    0.00 PKD
ROOT
HETATM    1  N   UNL     1     -13.556  10.856  72.110  1.00  0.00    -0.449 NA 
HETATM    2  C   UNL     1     -13.196   9.582  71.881  1.00  0.00    -0.439 A  
HETATM    3  H1  UNL     1     -14.527  11.148  72.215  1.00  0.00     0.000 HD 
HETATM    4  H2  UNL     1     -12.825  11.562  72.183  1.00  0.00     0.000 HD 
HETATM    5  N   UNL     1     -11.949   9.207  71.747  1.00  0.00    -0.358 NA 
HETATM    6  C   UNL     1     -11.883   7.835  71.524  1.00  0.00    -0.293 A  
HETATM    7  S   UNL     1     -14.361   8.329  71.776  1.00  0.00    -0.483 SA 
HETATM    8  C   UNL     1     -13.106   7.194  71.512  1.00  0.00    -0.375 A  
ENDROOT
BRANCH   6   9
HETATM    9  C   UNL     1     -10.547   7.200  71.348  1.00  0.00    -0.234 C  
BRANCH   9  10
HETATM   10  C   UNL     1      -9.904   7.459  69.996  1.00  0.00    -0.179 C  
HETATM   11  N   UNL     1     -10.322   8.609  69.344  1.00  0.00    -0.215 N  
HETATM   12  O   UNL     1      -8.998   6.713  69.622  1.00  0.00    -0.141 OA 
HETATM   13  H   UNL     1     -11.074   9.142  69.780  1.00  0.00     0.000 HD 
BRANCH  11  14
HETATM   14  C   UNL     1      -9.800   9.109  68.134  1.00  0.00    -0.164 A  
HETATM   15  C   UNL     1      -8.742  10.016  68.081  1.00  0.00    -0.122 A  
HETATM   16  C   UNL     1      -8.335  10.573  66.867  1.00  0.00    -0.126 A  
HETATM   17  C   UNL     1      -8.971  10.223  65.673  1.00  0.00    -0.198 A  
HETATM   18  C   UNL     1     -10.394   8.702  66.934  1.00  0.00    -0.355 A  
HETATM   19  C   UNL     1      -9.993   9.265  65.715  1.00  0.00    -0.215 A  
BRANCH  17  20
HETATM   20  C   UNL     1      -8.594  10.908  64.376  1.00  0.00     0.043 C  
BRANCH  20  21
HETATM   21  C   UNL     1      -9.637  10.782  63.252  1.00  0.00    -0.350 C  
BRANCH  21  22
HETATM   22  N   UNL     1     -10.442  11.995  63.140  1.00  0.00    -0.624 NA 
HETATM   23  H   UNL     1     -10.515  12.300  62.169  1.00  0.00     0.000 HD 
BRANCH  22  24
HETATM   24  C   UNL     1     -11.769  11.845  63.748  1.00  0.00    -0.457 C  
BRANCH  24  25
HETATM   25  C   UNL     1     -12.183  13.063  64.613  1.00  0.00    -0.421 C  
HETATM   26  O   UNL     1     -12.167  14.254  63.810  1.00  0.00    -0.893 OA 
HETATM   27  H   UNL     1     -12.421  15.000  64.340  1.00  0.00     0.000 HD 
BRANCH  25  28
HETATM   28  C   UNL     1     -11.372  13.281  65.877  1.00  0.00    -0.333 A  
HETATM   29  C   UNL     1     -10.185  14.028  65.835  1.00  0.00    -0.332 A  
HETATM   30  C   UNL     1      -9.392  14.173  66.977  1.00  0.00    -0.253 A  
HETATM   31  C   UNL     1      -9.778  13.577  68.176  1.00  0.00    -0.233 A  
HETATM   32  C   UNL     1     -10.964  12.852  68.240  1.00  0.00    -0.282 A  
HETATM   33  C   UNL     1     -11.755  12.705  67.099  1.00  0.00    -0.438 A  
ENDBRANCH  25  28
ENDBRANCH  24  25
ENDBRANCH  22  24
ENDBRANCH  21  22
ENDBRANCH  20  21
ENDBRANCH  17  20
ENDBRANCH  11  14
ENDBRANCH   9  10
ENDBRANCH   6   9
TORSDOF 9
ENDMDL
MODEL       12
REMARK 921   NORMALIZED FREE ENERGY PREDICTED BY IDOCK:   -6.04 KCAL/MOL
REMARK 922        TOTAL FREE ENERGY PREDICTED BY IDOCK:  -11.66 KCAL/MOL
REMARK 923 INTER-LIGAND FREE ENERGY PREDICTED BY IDOCK:   -9.82 KCAL/MOL
REMARK 924 INTRA-LIGAND FREE ENERGY PREDICTED BY IDOCK:   -1.83 KCAL/MOL
REMARK 927      BINDING AFFINITY PREDICTED BY RF-SCORE:    0.00 PKD
ROOT
HETATM    1  N   UNL     1     -11.118   6.010  66.516  1.00  0.00    -0.761 NA 
HETATM    2  C   UNL     1     -10.850   5.868  67.824  1.00  0.00    -0.235 A  
HETATM    3  H1  UNL     1     -10.615   5.502  65.788  1.00  0.00     0.000 HD 
HETATM    4  H2  UNL     1     -11.857   6.654  66.237  1.00  0.00     0.000 HD 
HETATM    5  N   UNL     1     -11.496   6.520  68.758  1.00  0.00    -0.154 NA 
HETATM    6  C   UNL     1     -11.008   6.169  70.012  1.00  0.00    -0.372 A  
HETATM    7  S   UNL     1      -9.644   4.783  68.378  1.00  0.00    -0.146 SA 
HETATM    8  C   UNL     1      -9.995   5.229  69.994  1.00  0.00    -0.245 A  
ENDROOT
BRANCH   6   9
HETATM    9  C   UNL     1     -11.613   6.796  71.220  1.00  0.00    -0.366 C  
BRANCH   9  10
HETATM   10  C   UNL     1     -11.414   8.300  71.311  1.00  0.00    -0.274 C  
HETATM   11  N   UNL     1     -12.384   9.071  70.688  1.00  0.00    -0.489 N  
HETATM   12  O   UNL     1     -10.492   8.732  72.003  1.00  0.00    -0.326 OA 
HETATM   13  H   UNL     1     -13.101   8.576  70.158  1.00  0.00     0.000 HD 
BRANCH  11  14
HETATM   14  C   UNL     1     -12.468  10.478  70.721  1.00  0.00    -0.378 A  
HETATM   15  C   UNL     1     -11.850  11.298  69.778  1.00  0.00    -0.437 A  
HETATM   16  C   UNL     1     -11.864  12.686  69.916  1.00  0.00    -0.364 A  
HETATM   17  C   UNL     1     -12.511  13.290  70.997  1.00  0.00    -0.422 A  
HETATM   18  C   UNL     1     -13.178  11.078  71.767  1.00  0.00    -0.505 A  
HETATM   19  C   UNL     1     -13.187  12.472  71.913  1.00  0.00    -0.495 A  
BRANCH  17  20
HETATM   20  C   UNL     1     -12.433  14.789  71.197  1.00  0.00    -0.397 C  
BRANCH  20  21
HETATM   21  C   UNL     1     -11.424  15.512  70.288  1.00  0.00    -0.334 C  
BRANCH  21  22
HETATM   22  N   UNL     1     -12.001  15.791  68.976  1.00  0.00    -0.532 NA 
HETATM   23  H   UNL     1     -12.529  16.664  68.985  1.00  0.00     0.000 HD 
BRANCH  22  24
HETATM   24  C   UNL     1     -10.992  15.793  67.910  1.00  0.00    -0.324 C  
BRANCH  24  25
HETATM   25  C   UNL     1     -11.351  14.850  66.733  1.00  0.00    -0.328 C  
HETATM   26  O   UNL     1     -12.775  14.673  66.672  1.00  0.00    -0.338 OA 
HETATM   27  H   UNL     1     -12.994  14.095  65.950  1.00  0.00     0.000 HD 
BRANCH  25  28
HETATM   28  C   UNL     1     -10.661  13.498  66.737  1.00  0.00    -0.278 A  
HETATM   29  C   UNL     1      -9.331  13.384  67.167  1.00  0.00    -0.240 A  
HETATM   30  C   UNL     1      -8.664  12.157  67.104  1.00  0.00    -0.190 A  
HETATM   31  C   UNL     1      -9.320  11.028  66.617  1.00  0.00    -0.196 A  
HETATM   32  C   UNL     1     -10.647  11.119  66.209  1.00  0.00    -0.309 A  
HETATM   33  C   UNL     1     -11.313  12.345  66.268  1.00  0.00    -0.388 A  
ENDBRANCH  25  28
ENDBRANCH  24  25
ENDBRANCH  22  24
ENDBRANCH  21  22
ENDBRANCH  20  21
ENDBRANCH  17  20
ENDBRANCH  11  14
ENDBRANCH   9  10
ENDBRANCH   6   9
TORSDOF 9
ENDMDL
MODEL       13
REMARK 921   NORMALIZED FREE ENERGY PREDICTED BY IDOCK:   -5.98 KCAL/MOL
REMARK 922        TOTAL FREE ENERGY PREDICTED BY IDOCK:  -11.57 KCAL/MOL
REMARK 923 INTER-LIGAND FREE ENERGY PREDICTED BY IDOCK:   -9.42 KCAL/MOL
REMARK 924 INTRA-LIGAND FREE ENERGY PREDICTED BY IDOCK:   -2.14 KCAL/MOL
REMARK 927      BINDING AFFINITY PREDICTED BY RF-SCORE:    0.00 PKD
ROOT
HETATM    1  N   UNL     1      -9.484  12.155  63.443  1.00  0.00    -0.671 NA 
HETATM    2  C   UNL     1     -10.535  12.628  64.132  1.00  0.00    -0.413 A  
HETATM    3  H1  UNL     1      -9.580  11.641  62.567  1.00  0.00     0.000 HD 
HETATM    4  H2  UNL     1      -8.547  12.318  63.812  1.00  0.00     0.000 HD 
HETATM    5  N   UNL     1     -10.412  13.288  65.256  1.00  0.00    -0.303 NA 
HETATM    6  C   UNL     1     -11.665  13.654  65.737  1.00  0.00    -0.348 A  
HETATM    7  S   UNL     1     -12.141  12.424  63.567  1.00  0.00    -0.555 SA 
HETATM    8  C   UNL     1     -12.724  13.268  64.938  1.00  0.00    -0.327 A  
ENDROOT
BRANCH   6   9
HETATM    9  C   UNL     1     -11.749  14.423  67.010  1.00  0.00    -0.420 C  
BRANCH   9  10
HETATM   10  C   UNL     1     -11.469  13.601  68.257  1.00  0.00    -0.313 C  
HETATM   11  N   UNL     1     -11.694  12.238  68.139  1.00  0.00    -0.339 N  
HETATM   12  O   UNL     1     -10.971  14.162  69.234  1.00  0.00    -0.247 OA 
HETATM   13  H   UNL     1     -12.098  11.909  67.262  1.00  0.00     0.000 HD 
BRANCH  11  14
HETATM   14  C   UNL     1     -11.413  11.265  69.120  1.00  0.00    -0.297 A  
HETATM   15  C   UNL     1     -10.174  10.634  69.230  1.00  0.00    -0.235 A  
HETATM   16  C   UNL     1      -9.978   9.595  70.141  1.00  0.00    -0.309 A  
HETATM   17  C   UNL     1     -11.015   9.172  70.975  1.00  0.00    -0.375 A  
HETATM   18  C   UNL     1     -12.434  10.894  70.001  1.00  0.00    -0.332 A  
HETATM   19  C   UNL     1     -12.242   9.846  70.912  1.00  0.00    -0.420 A  
BRANCH  17  20
HETATM   20  C   UNL     1     -10.827   7.977  71.887  1.00  0.00    -0.316 C  
BRANCH  20  21
HETATM   21  C   UNL     1     -10.925   6.609  71.189  1.00  0.00    -0.257 C  
BRANCH  21  22
HETATM   22  N   UNL     1     -11.652   6.711  69.927  1.00  0.00    -0.592 NA 
HETATM   23  H   UNL     1     -11.766   7.685  69.646  1.00  0.00     0.000 HD 
BRANCH  22  24
HETATM   24  C   UNL     1     -11.032   5.920  68.858  1.00  0.00    -0.267 C  
BRANCH  24  25
HETATM   25  C   UNL     1     -11.108   6.608  67.471  1.00  0.00    -0.292 C  
HETATM   26  O   UNL     1     -11.265   5.614  66.446  1.00  0.00    -0.725 OA 
HETATM   27  H   UNL     1     -11.312   6.036  65.596  1.00  0.00     0.000 HD 
BRANCH  25  28
HETATM   28  C   UNL     1      -9.952   7.529  67.125  1.00  0.00    -0.288 A  
HETATM   29  C   UNL     1     -10.147   8.614  66.258  1.00  0.00    -0.215 A  
HETATM   30  C   UNL     1      -9.073   9.423  65.876  1.00  0.00    -0.242 A  
HETATM   31  C   UNL     1      -7.793   9.161  66.359  1.00  0.00    -0.100 A  
HETATM   32  C   UNL     1      -7.587   8.103  67.239  1.00  0.00    -0.097 A  
HETATM   33  C   UNL     1      -8.658   7.293  67.619  1.00  0.00    -0.126 A  
ENDBRANCH  25  28
ENDBRANCH  24  25
ENDBRANCH  22  24
ENDBRANCH  21  22
ENDBRANCH  20  21
ENDBRANCH  17  20
ENDBRANCH  11  14
ENDBRANCH   9  10
ENDBRANCH   6   9
TORSDOF 9
ENDMDL
MODEL       14
REMARK 921   NORMALIZED FREE ENERGY PREDICTED BY IDOCK:   -5.97 KCAL/MOL
REMARK 922        TOTAL FREE ENERGY PREDICTED BY IDOCK:  -11.56 KCAL/MOL
REMARK 923 INTER-LIGAND FREE ENERGY PREDICTED BY IDOCK:  -10.66 KCAL/MOL
REMARK 924 INTRA-LIGAND FREE ENERGY PREDICTED BY IDOCK:   -0.90 KCAL/MOL
REMARK 927      BINDING AFFINITY PREDICTED BY RF-SCORE:    0.00 PKD
ROOT
HETATM    1  N   UNL     1     -11.048   6.340  66.657  1.00  0.00    -0.748 NA 
HETATM    2  C   UNL     1     -10.803   5.979  67.927  1.00  0.00    -0.290 A  
HETATM    3  H1  UNL     1     -10.581   5.912  65.858  1.00  0.00     0.000 HD 
HETATM    4  H2  UNL     1     -11.733   7.075  66.484  1.00  0.00     0.000 HD 
HETATM    5  N   UNL     1     -11.403   6.528  68.953  1.00  0.00    -0.259 NA 
HETATM    6  C   UNL     1     -10.953   5.952  70.136  1.00  0.00    -0.342 A  
HETATM    7  S   UNL     1      -9.689   4.731  68.303  1.00  0.00    -0.119 SA 
HETATM    8  C   UNL     1     -10.017   4.949  69.970  1.00  0.00    -0.253 A  
ENDROOT
BRANCH   6   9
HETATM    9  C   UNL     1     -11.517   6.432  71.429  1.00  0.00    -0.363 C  
BRANCH   9  10
HETATM   10  C   UNL     1     -11.454   7.938  71.618  1.00  0.00    -0.263 C  
HETATM   11  N   UNL     1     -12.306   8.679  70.813  1.00  0.00    -0.489 N  
HETATM   12  O   UNL     1     -10.752   8.390  72.523  1.00  0.00    -0.338 OA 
HETATM   13  H   UNL     1     -12.843   8.169  70.112  1.00  0.00     0.000 HD 
BRANCH  11  14
HETATM   14  C   UNL     1     -12.498  10.075  70.877  1.00  0.00    -0.337 A  
HETATM   15  C   UNL     1     -11.894  10.965  69.989  1.00  0.00    -0.428 A  
HETATM   16  C   UNL     1     -12.019  12.344  70.160  1.00  0.00    -0.376 A  
HETATM   17  C   UNL     1     -12.766  12.866  71.220  1.00  0.00    -0.371 A  
HETATM   18  C   UNL     1     -13.304  10.590  71.897  1.00  0.00    -0.461 A  
HETATM   19  C   UNL     1     -13.426  11.975  72.076  1.00  0.00    -0.364 A  
BRANCH  17  20
HETATM   20  C   UNL     1     -12.812  14.361  71.461  1.00  0.00    -0.411 C  
BRANCH  20  21
HETATM   21  C   UNL     1     -11.439  15.055  71.483  1.00  0.00    -0.320 C  
BRANCH  21  22
HETATM   22  N   UNL     1     -11.440  16.254  70.649  1.00  0.00    -0.511 NA 
HETATM   23  H   UNL     1     -10.619  16.831  70.833  1.00  0.00     0.000 HD 
BRANCH  22  24
HETATM   24  C   UNL     1     -11.557  15.941  69.220  1.00  0.00    -0.369 C  
BRANCH  24  25
HETATM   25  C   UNL     1     -10.266  16.256  68.421  1.00  0.00    -0.249 C  
HETATM   26  O   UNL     1      -9.115  15.993  69.240  1.00  0.00    -0.246 OA 
HETATM   27  H   UNL     1      -8.324  16.186  68.750  1.00  0.00     0.000 HD 
BRANCH  25  28
HETATM   28  C   UNL     1     -10.176  17.654  67.837  1.00  0.00    -0.357 A  
HETATM   29  C   UNL     1      -9.909  18.752  68.669  1.00  0.00    -0.441 A  
HETATM   30  C   UNL     1      -9.897  20.051  68.153  1.00  0.00    -0.499 A  
HETATM   31  C   UNL     1     -10.146  20.268  66.799  1.00  0.00    -0.556 A  
HETATM   32  C   UNL     1     -10.388  19.188  65.956  1.00  0.00    -0.538 A  
HETATM   33  C   UNL     1     -10.403  17.890  66.471  1.00  0.00    -0.362 A  
ENDBRANCH  25  28
ENDBRANCH  24  25
ENDBRANCH  22  24
ENDBRANCH  21  22
ENDBRANCH  20  21
ENDBRANCH  17  20
ENDBRANCH  11  14
ENDBRANCH   9  10
ENDBRANCH   6   9
TORSDOF 9
ENDMDL
MODEL       15
REMARK 921   NORMALIZED FREE ENERGY PREDICTED BY IDOCK:   -5.96 KCAL/MOL
REMARK 922        TOTAL FREE ENERGY PREDICTED BY IDOCK:  -11.54 KCAL/MOL
REMARK 923 INTER-LIGAND FREE ENERGY PREDICTED BY IDOCK:   -8.61 KCAL/MOL
REMARK 924 INTRA-LIGAND FREE ENERGY PREDICTED BY IDOCK:   -2.93 KCAL/MOL
REMARK 927      BINDING AFFINITY PREDICTED BY RF-SCORE:    0.00 PKD
ROOT
HETATM    1  N   UNL     1      -9.727  11.038  62.354  1.00  0.00    -0.577 NA 
HETATM    2  C   UNL     1      -9.659  10.687  63.649  1.00  0.00    -0.314 A  
HETATM    3  H1  UNL     1      -9.112  10.647  61.640  1.00  0.00     0.000 HD 
HETATM    4  H2  UNL     1     -10.423  11.727  62.073  1.00  0.00     0.000 HD 
HETATM    5  N   UNL     1     -10.447  11.188  64.566  1.00  0.00    -0.338 NA 
HETATM    6  C   UNL     1     -10.151  10.636  65.807  1.00  0.00    -0.266 A  
HETATM    7  S   UNL     1      -8.537   9.513  64.200  1.00  0.00    -0.208 SA 
HETATM    8  C   UNL     1      -9.135   9.699  65.794  1.00  0.00    -0.185 A  
ENDROOT
BRANCH   6   9
HETATM    9  C   UNL     1     -10.940  11.070  66.994  1.00  0.00    -0.333 C  
BRANCH   9  10
HETATM   10  C   UNL     1     -11.273  12.552  67.016  1.00  0.00    -0.302 C  
HETATM   11  N   UNL     1     -10.203  13.402  67.253  1.00  0.00    -0.240 N  
HETATM   12  O   UNL     1     -12.416  12.905  66.723  1.00  0.00    -0.336 OA 
HETATM   13  H   UNL     1      -9.306  12.969  67.470  1.00  0.00     0.000 HD 
BRANCH  11  14
HETATM   14  C   UNL     1     -10.244  14.811  67.222  1.00  0.00    -0.241 A  
HETATM   15  C   UNL     1     -10.632  15.583  68.317  1.00  0.00    -0.255 A  
HETATM   16  C   UNL     1     -10.770  16.968  68.205  1.00  0.00    -0.372 A  
HETATM   17  C   UNL     1     -10.508  17.615  66.995  1.00  0.00    -0.305 A  
HETATM   18  C   UNL     1      -9.913  15.461  66.028  1.00  0.00    -0.350 A  
HETATM   19  C   UNL     1     -10.057  16.850  65.911  1.00  0.00    -0.302 A  
BRANCH  17  20
HETATM   20  C   UNL     1     -10.759  19.102  66.852  1.00  0.00    -0.515 C  
BRANCH  20  21
HETATM   21  C   UNL     1      -9.899  19.994  67.764  1.00  0.00    -0.411 C  
BRANCH  21  22
HETATM   22  N   UNL     1      -8.952  20.788  66.986  1.00  0.00    -0.600 NA 
HETATM   23  H   UNL     1      -9.213  21.774  66.983  1.00  0.00     0.000 HD 
BRANCH  22  24
HETATM   24  C   UNL     1      -7.567  20.608  67.439  1.00  0.00    -0.330 C  
BRANCH  24  25
HETATM   25  C   UNL     1      -6.817  19.489  66.672  1.00  0.00    -0.196 C  
HETATM   26  O   UNL     1      -7.363  19.360  65.350  1.00  0.00    -0.432 OA 
HETATM   27  H   UNL     1      -6.903  18.675  64.879  1.00  0.00     0.000 HD 
BRANCH  25  28
HETATM   28  C   UNL     1      -6.782  18.132  67.351  1.00  0.00    -0.205 A  
HETATM   29  C   UNL     1      -6.480  16.979  66.611  1.00  0.00    -0.262 A  
HETATM   30  C   UNL     1      -6.518  15.717  67.211  1.00  0.00    -0.139 A  
HETATM   31  C   UNL     1      -6.852  15.592  68.558  1.00  0.00    -0.115 A  
HETATM   32  C   UNL     1      -7.131  16.728  69.311  1.00  0.00    -0.198 A  
HETATM   33  C   UNL     1      -7.096  17.989  68.712  1.00  0.00    -0.279 A  
ENDBRANCH  25  28
ENDBRANCH  24  25
ENDBRANCH  22  24
ENDBRANCH  21  22
ENDBRANCH  20  21
ENDBRANCH  17  20
ENDBRANCH  11  14
ENDBRANCH   9  10
ENDBRANCH   6   9
TORSDOF 9
ENDMDL
MODEL       16
REMARK 921   NORMALIZED FREE ENERGY PREDICTED BY IDOCK:   -5.95 KCAL/MOL
REMARK 922        TOTAL FREE ENERGY PREDICTED BY IDOCK:  -11.53 KCAL/MOL
REMARK 923 INTER-LIGAND FREE ENERGY PREDICTED BY IDOCK:   -8.93 KCAL/MOL
REMARK 924 INTRA-LIGAND FREE ENERGY PREDICTED BY IDOCK:   -2.60 KCAL/MOL
REMARK 927      BINDING AFFINITY PREDICTED BY RF-SCORE:    0.00 PKD
ROOT
HETATM    1  N   UNL     1     -13.983   8.743  73.079  1.00  0.00    -1.092 NA 
HETATM    2  C   UNL     1     -12.914   8.334  72.376  1.00  0.00    -0.196 A  
HETATM    3  H1  UNL     1     -14.727   8.111  73.375  1.00  0.00     0.000 HD 
HETATM    4  H2  UNL     1     -14.053   9.729  73.327  1.00  0.00     0.000 HD 
HETATM    5  N   UNL     1     -11.959   9.144  71.995  1.00  0.00    -0.367 NA 
HETATM    6  C   UNL     1     -10.986   8.441  71.291  1.00  0.00    -0.252 A  
HETATM    7  S   UNL     1     -12.703   6.687  71.944  1.00  0.00    -0.074 SA 
HETATM    8  C   UNL     1     -11.228   7.086  71.170  1.00  0.00    -0.270 A  
ENDROOT
BRANCH   6   9
HETATM    9  C   UNL     1      -9.802   9.180  70.771  1.00  0.00    -0.334 C  
BRANCH   9  10
HETATM   10  C   UNL     1     -10.003   9.795  69.396  1.00  0.00    -0.205 C  
HETATM   11  N   UNL     1     -10.484  11.096  69.387  1.00  0.00    -0.407 N  
HETATM   12  O   UNL     1      -9.634   9.162  68.407  1.00  0.00    -0.149 OA 
HETATM   13  H   UNL     1     -10.737  11.503  70.287  1.00  0.00     0.000 HD 
BRANCH  11  14
HETATM   14  C   UNL     1     -10.655  11.906  68.246  1.00  0.00    -0.213 A  
HETATM   15  C   UNL     1     -11.908  12.235  67.730  1.00  0.00    -0.341 A  
HETATM   16  C   UNL     1     -12.028  12.943  66.533  1.00  0.00    -0.447 A  
HETATM   17  C   UNL     1     -10.892  13.350  65.829  1.00  0.00    -0.283 A  
HETATM   18  C   UNL     1      -9.515  12.372  67.583  1.00  0.00    -0.190 A  
HETATM   19  C   UNL     1      -9.631  13.076  66.376  1.00  0.00    -0.258 A  
BRANCH  17  20
HETATM   20  C   UNL     1     -11.027  14.025  64.480  1.00  0.00    -0.361 C  
BRANCH  20  21
HETATM   21  C   UNL     1     -11.869  15.313  64.482  1.00  0.00    -0.295 C  
BRANCH  21  22
HETATM   22  N   UNL     1     -11.025  16.496  64.342  1.00  0.00    -1.130 NA 
HETATM   23  H   UNL     1     -11.288  17.040  63.521  1.00  0.00     0.000 HD 
BRANCH  22  24
HETATM   24  C   UNL     1     -11.024  17.329  65.551  1.00  0.00     0.100 C  
BRANCH  24  25
HETATM   25  C   UNL     1      -9.824  17.039  66.488  1.00  0.00    -0.294 C  
HETATM   26  O   UNL     1      -8.839  16.264  65.786  1.00  0.00    -0.411 OA 
HETATM   27  H   UNL     1      -8.104  16.086  66.360  1.00  0.00     0.000 HD 
BRANCH  25  28
HETATM   28  C   UNL     1     -10.163  16.370  67.807  1.00  0.00    -0.274 A  
HETATM   29  C   UNL     1     -11.502  16.213  68.197  1.00  0.00    -0.220 A  
HETATM   30  C   UNL     1     -11.823  15.666  69.442  1.00  0.00    -0.391 A  
HETATM   31  C   UNL     1     -10.811  15.264  70.311  1.00  0.00    -0.303 A  
HETATM   32  C   UNL     1      -9.479  15.390  69.931  1.00  0.00    -0.063 A  
HETATM   33  C   UNL     1      -9.157  15.940  68.688  1.00  0.00    -0.206 A  
ENDBRANCH  25  28
ENDBRANCH  24  25
ENDBRANCH  22  24
ENDBRANCH  21  22
ENDBRANCH  20  21
ENDBRANCH  17  20
ENDBRANCH  11  14
ENDBRANCH   9  10
ENDBRANCH   6   9
TORSDOF 9
ENDMDL
MODEL       17
REMARK 921   NORMALIZED FREE ENERGY PREDICTED BY IDOCK:   -5.94 KCAL/MOL
REMARK 922        TOTAL FREE ENERGY PREDICTED BY IDOCK:  -11.51 KCAL/MOL
REMARK 923 INTER-LIGAND FREE ENERGY PREDICTED BY IDOCK:  -10.45 KCAL/MOL
REMARK 924 INTRA-LIGAND FREE ENERGY PREDICTED BY IDOCK:   -1.06 KCAL/MOL
REMARK 927      BINDING AFFINITY PREDICTED BY RF-SCORE:    0.00 PKD
ROOT
HETATM    1  N   UNL     1     -10.446   5.573  69.272  1.00  0.00    -0.267 NA 
HETATM    2  C   UNL     1     -10.718   6.086  70.483  1.00  0.00    -0.284 A  
HETATM    3  H1  UNL     1      -9.979   4.675  69.142  1.00  0.00     0.000 HD 
HETATM    4  H2  UNL     1     -10.718   6.104  68.446  1.00  0.00     0.000 HD 
HETATM    5  N   UNL     1     -11.317   7.238  70.651  1.00  0.00    -0.277 NA 
HETATM    6  C   UNL     1     -11.468   7.507  72.007  1.00  0.00    -0.279 A  
HETATM    7  S   UNL     1     -10.321   5.242  71.922  1.00  0.00    -0.216 SA 
HETATM    8  C   UNL     1     -10.984   6.523  72.847  1.00  0.00    -0.250 A  
ENDROOT
BRANCH   6   9
HETATM    9  C   UNL     1     -12.135   8.774  72.418  1.00  0.00    -0.379 C  
BRANCH   9  10
HETATM   10  C   UNL     1     -12.427   9.728  71.272  1.00  0.00    -0.367 C  
HETATM   11  N   UNL     1     -11.322  10.149  70.547  1.00  0.00    -0.316 N  
HETATM   12  O   UNL     1     -13.601   9.976  70.996  1.00  0.00    -0.317 OA 
HETATM   13  H   UNL     1     -10.406   9.853  70.883  1.00  0.00     0.000 HD 
BRANCH  11  14
HETATM   14  C   UNL     1     -11.351  10.949  69.386  1.00  0.00    -0.280 A  
HETATM   15  C   UNL     1     -11.625  12.316  69.414  1.00  0.00    -0.378 A  
HETATM   16  C   UNL     1     -11.758  13.044  68.231  1.00  0.00    -0.390 A  
HETATM   17  C   UNL     1     -11.605  12.422  66.989  1.00  0.00    -0.434 A  
HETATM   18  C   UNL     1     -11.127  10.335  68.149  1.00  0.00    -0.324 A  
HETATM   19  C   UNL     1     -11.267  11.063  66.959  1.00  0.00    -0.255 A  
BRANCH  17  20
HETATM   20  C   UNL     1     -11.852  13.194  65.710  1.00  0.00    -0.442 C  
BRANCH  20  21
HETATM   21  C   UNL     1     -10.690  13.165  64.701  1.00  0.00    -0.380 C  
BRANCH  21  22
HETATM   22  N   UNL     1     -10.221  14.514  64.397  1.00  0.00    -0.519 NA 
HETATM   23  H   UNL     1     -10.863  14.994  63.767  1.00  0.00     0.000 HD 
BRANCH  22  24
HETATM   24  C   UNL     1      -9.977  15.308  65.608  1.00  0.00    -0.364 C  
BRANCH  24  25
HETATM   25  C   UNL     1     -10.906  16.543  65.722  1.00  0.00    -0.134 C  
HETATM   26  O   UNL     1     -11.093  17.128  64.423  1.00  0.00    -1.100 OA 
HETATM   27  H   UNL     1     -11.663  17.885  64.493  1.00  0.00     0.000 HD 
BRANCH  25  28
HETATM   28  C   UNL     1     -10.469  17.609  66.710  1.00  0.00    -0.289 A  
HETATM   29  C   UNL     1     -10.278  17.284  68.062  1.00  0.00    -0.332 A  
HETATM   30  C   UNL     1      -9.948  18.273  68.993  1.00  0.00    -0.293 A  
HETATM   31  C   UNL     1      -9.799  19.596  68.585  1.00  0.00    -0.519 A  
HETATM   32  C   UNL     1      -9.961  19.931  67.244  1.00  0.00    -0.556 A  
HETATM   33  C   UNL     1     -10.294  18.945  66.314  1.00  0.00    -0.512 A  
ENDBRANCH  25  28
ENDBRANCH  24  25
ENDBRANCH  22  24
ENDBRANCH  21  22
ENDBRANCH  20  21
ENDBRANCH  17  20
ENDBRANCH  11  14
ENDBRANCH   9  10
ENDBRANCH   6   9
TORSDOF 9
ENDMDL
MODEL       18
REMARK 921   NORMALIZED FREE ENERGY PREDICTED BY IDOCK:   -5.94 KCAL/MOL
REMARK 922        TOTAL FREE ENERGY PREDICTED BY IDOCK:  -11.50 KCAL/MOL
REMARK 923 INTER-LIGAND FREE ENERGY PREDICTED BY IDOCK:   -9.79 KCAL/MOL
REMARK 924 INTRA-LIGAND FREE ENERGY PREDICTED BY IDOCK:   -1.71 KCAL/MOL
REMARK 927      BINDING AFFINITY PREDICTED BY RF-SCORE:    0.00 PKD
ROOT
HETATM    1  N   UNL     1     -12.593   8.499  72.502  1.00  0.00    -0.547 NA 
HETATM    2  C   UNL     1     -11.660   7.628  72.083  1.00  0.00    -0.308 A  
HETATM    3  H1  UNL     1     -12.732   8.734  73.485  1.00  0.00     0.000 HD 
HETATM    4  H2  UNL     1     -13.189   8.945  71.806  1.00  0.00     0.000 HD 
HETATM    5  N   UNL     1     -11.481   7.326  70.822  1.00  0.00    -0.291 NA 
HETATM    6  C   UNL     1     -10.447   6.405  70.692  1.00  0.00    -0.219 A  
HETATM    7  S   UNL     1     -10.597   6.858  73.186  1.00  0.00    -0.326 SA 
HETATM    8  C   UNL     1      -9.847   6.040  71.881  1.00  0.00    -0.161 A  
ENDROOT
BRANCH   6   9
HETATM    9  C   UNL     1     -10.076   5.930  69.329  1.00  0.00    -0.251 C  
BRANCH   9  10
HETATM   10  C   UNL     1     -10.531   6.842  68.203  1.00  0.00    -0.204 C  
HETATM   11  N   UNL     1      -9.987   8.118  68.208  1.00  0.00    -0.180 N  
HETATM   12  O   UNL     1     -11.248   6.374  67.318  1.00  0.00    -0.364 OA 
HETATM   13  H   UNL     1      -9.394   8.366  69.000  1.00  0.00     0.000 HD 
BRANCH  11  14
HETATM   14  C   UNL     1     -10.178   9.102  67.217  1.00  0.00    -0.254 A  
HETATM   15  C   UNL     1      -9.675   8.983  65.921  1.00  0.00    -0.306 A  
HETATM   16  C   UNL     1      -9.789  10.033  65.009  1.00  0.00    -0.374 A  
HETATM   17  C   UNL     1     -10.423  11.225  65.368  1.00  0.00    -0.326 A  
HETATM   18  C   UNL     1     -10.875  10.266  67.560  1.00  0.00    -0.355 A  
HETATM   19  C   UNL     1     -10.984  11.325  66.648  1.00  0.00    -0.326 A  
BRANCH  17  20
HETATM   20  C   UNL     1     -10.451  12.397  64.409  1.00  0.00    -0.371 C  
BRANCH  20  21
HETATM   21  C   UNL     1     -11.585  12.356  63.370  1.00  0.00    -0.462 C  
BRANCH  21  22
HETATM   22  N   UNL     1     -12.215  13.665  63.224  1.00  0.00    -1.063 NA 
HETATM   23  H   UNL     1     -12.942  13.646  62.509  1.00  0.00     0.000 HD 
BRANCH  22  24
HETATM   24  C   UNL     1     -12.739  14.179  64.496  1.00  0.00    -0.056 C  
BRANCH  24  25
HETATM   25  C   UNL     1     -12.074  15.509  64.933  1.00  0.00     0.152 C  
HETATM   26  O   UNL     1     -11.618  16.225  63.774  1.00  0.00    -1.539 OA 
HETATM   27  H   UNL     1     -11.210  17.040  64.043  1.00  0.00     0.000 HD 
BRANCH  25  28
HETATM   28  C   UNL     1     -10.946  15.384  65.940  1.00  0.00    -0.293 A  
HETATM   29  C   UNL     1      -9.637  15.746  65.585  1.00  0.00    -0.299 A  
HETATM   30  C   UNL     1      -8.580  15.564  66.481  1.00  0.00    -0.320 A  
HETATM   31  C   UNL     1      -8.816  15.025  67.744  1.00  0.00    -0.172 A  
HETATM   32  C   UNL     1     -10.112  14.683  68.120  1.00  0.00    -0.224 A  
HETATM   33  C   UNL     1     -11.168  14.861  67.225  1.00  0.00    -0.348 A  
ENDBRANCH  25  28
ENDBRANCH  24  25
ENDBRANCH  22  24
ENDBRANCH  21  22
ENDBRANCH  20  21
ENDBRANCH  17  20
ENDBRANCH  11  14
ENDBRANCH   9  10
ENDBRANCH   6   9
TORSDOF 9
ENDMDL
MODEL       19
REMARK 921   NORMALIZED FREE ENERGY PREDICTED BY IDOCK:   -5.89 KCAL/MOL
REMARK 922        TOTAL FREE ENERGY PREDICTED BY IDOCK:  -11.44 KCAL/MOL
REMARK 923 INTER-LIGAND FREE ENERGY PREDICTED BY IDOCK:   -9.82 KCAL/MOL
REMARK 924 INTRA-LIGAND FREE ENERGY PREDICTED BY IDOCK:   -1.62 KCAL/MOL
REMARK 927      BINDING AFFINITY PREDICTED BY RF-SCORE:    0.00 PKD
ROOT
HETATM    1  N   UNL     1     -12.150  15.483  69.419  1.00  0.00    -0.518 NA 
HETATM    2  C   UNL     1     -11.398  15.857  68.370  1.00  0.00    -0.361 A  
HETATM    3  H1  UNL     1     -12.154  15.986  70.307  1.00  0.00     0.000 HD 
HETATM    4  H2  UNL     1     -12.742  14.659  69.325  1.00  0.00     0.000 HD 
HETATM    5  N   UNL     1     -11.393  15.211  67.232  1.00  0.00    -0.330 NA 
HETATM    6  C   UNL     1     -10.528  15.828  66.335  1.00  0.00    -0.303 A  
HETATM    7  S   UNL     1     -10.398  17.247  68.437  1.00  0.00    -0.382 SA 
HETATM    8  C   UNL     1      -9.900  16.958  66.824  1.00  0.00    -0.279 A  
ENDROOT
BRANCH   6   9
HETATM    9  C   UNL     1     -10.377  15.252  64.969  1.00  0.00    -0.375 C  
BRANCH   9  10
HETATM   10  C   UNL     1     -10.617  13.753  64.893  1.00  0.00    -0.413 C  
HETATM   11  N   UNL     1      -9.857  12.980  65.757  1.00  0.00    -0.403 N  
HETATM   12  O   UNL     1     -11.522  13.337  64.169  1.00  0.00    -0.374 OA 
HETATM   13  H   UNL     1      -9.150  13.463  66.311  1.00  0.00     0.000 HD 
BRANCH  11  14
HETATM   14  C   UNL     1      -9.972  11.587  65.938  1.00  0.00    -0.230 A  
HETATM   15  C   UNL     1     -10.672  11.016  67.001  1.00  0.00    -0.319 A  
HETATM   16  C   UNL     1     -10.662   9.635  67.206  1.00  0.00    -0.284 A  
HETATM   17  C   UNL     1      -9.961   8.790  66.342  1.00  0.00    -0.346 A  
HETATM   18  C   UNL     1      -9.327  10.741  65.030  1.00  0.00    -0.261 A  
HETATM   19  C   UNL     1      -9.309   9.355  65.238  1.00  0.00    -0.303 A  
BRANCH  17  20
HETATM   20  C   UNL     1      -9.868   7.306  66.629  1.00  0.00    -0.257 C  
BRANCH  20  21
HETATM   21  C   UNL     1      -9.931   6.931  68.120  1.00  0.00    -0.155 C  
BRANCH  21  22
HETATM   22  N   UNL     1     -11.256   6.435  68.484  1.00  0.00    -0.542 NA 
HETATM   23  H   UNL     1     -11.462   5.555  68.010  1.00  0.00     0.000 HD 
BRANCH  22  24
HETATM   24  C   UNL     1     -11.426   6.306  69.937  1.00  0.00    -0.389 C  
BRANCH  24  25
HETATM   25  C   UNL     1     -10.703   7.422  70.734  1.00  0.00    -0.232 C  
HETATM   26  O   UNL     1     -10.082   6.859  71.900  1.00  0.00    -0.184 OA 
HETATM   27  H   UNL     1      -9.640   7.544  72.388  1.00  0.00     0.000 HD 
BRANCH  25  28
HETATM   28  C   UNL     1     -11.560   8.612  71.128  1.00  0.00    -0.330 A  
HETATM   29  C   UNL     1     -12.750   8.419  71.846  1.00  0.00    -0.390 A  
HETATM   30  C   UNL     1     -13.583   9.500  72.149  1.00  0.00    -0.500 A  
HETATM   31  C   UNL     1     -13.234  10.787  71.744  1.00  0.00    -0.523 A  
HETATM   32  C   UNL     1     -12.046  10.998  71.052  1.00  0.00    -0.406 A  
HETATM   33  C   UNL     1     -11.215   9.918  70.746  1.00  0.00    -0.427 A  
ENDBRANCH  25  28
ENDBRANCH  24  25
ENDBRANCH  22  24
ENDBRANCH  21  22
ENDBRANCH  20  21
ENDBRANCH  17  20
ENDBRANCH  11  14
ENDBRANCH   9  10
ENDBRANCH   6   9
TORSDOF 9
ENDMDL
MODEL       20
REMARK 921   NORMALIZED FREE ENERGY PREDICTED BY IDOCK:   -5.86 KCAL/MOL
REMARK 922        TOTAL FREE ENERGY PREDICTED BY IDOCK:  -11.38 KCAL/MOL
REMARK 923 INTER-LIGAND FREE ENERGY PREDICTED BY IDOCK:   -8.53 KCAL/MOL
REMARK 924 INTRA-LIGAND FREE ENERGY PREDICTED BY IDOCK:   -2.85 KCAL/MOL
REMARK 927      BINDING AFFINITY PREDICTED BY RF-SCORE:    0.00 PKD
ROOT
HETATM    1  N   UNL     1     -12.659   8.015  72.758  1.00  0.00    -0.583 NA 
HETATM    2  C   UNL     1     -11.333   7.806  72.808  1.00  0.00    -0.389 A  
HETATM    3  H1  UNL     1     -13.331   7.438  73.265  1.00  0.00     0.000 HD 
HETATM    4  H2  UNL     1     -13.009   8.784  72.189  1.00  0.00     0.000 HD 
HETATM    5  N   UNL     1     -10.471   8.546  72.158  1.00  0.00    -0.325 NA 
HETATM    6  C   UNL     1      -9.176   8.098  72.402  1.00  0.00    -0.226 A  
HETATM    7  S   UNL     1     -10.660   6.552  73.765  1.00  0.00    -0.194 SA 
HETATM    8  C   UNL     1      -9.092   7.019  73.261  1.00  0.00    -0.136 A  
ENDROOT
BRANCH   6   9
HETATM    9  C   UNL     1      -8.037   8.810  71.758  1.00  0.00    -0.126 C  
BRANCH   9  10
HETATM   10  C   UNL     1      -8.195   9.021  70.262  1.00  0.00    -0.143 C  
HETATM   11  N   UNL     1      -8.959  10.117  69.889  1.00  0.00    -0.387 N  
HETATM   12  O   UNL     1      -7.565   8.292  69.494  1.00  0.00    -0.090 OA 
HETATM   13  H   UNL     1      -9.413  10.642  70.636  1.00  0.00     0.000 HD 
BRANCH  11  14
HETATM   14  C   UNL     1      -9.163  10.571  68.570  1.00  0.00    -0.168 A  
HETATM   15  C   UNL     1     -10.329  10.310  67.850  1.00  0.00    -0.234 A  
HETATM   16  C   UNL     1     -10.441  10.679  66.509  1.00  0.00    -0.285 A  
HETATM   17  C   UNL     1      -9.391  11.333  65.859  1.00  0.00    -0.240 A  
HETATM   18  C   UNL     1      -8.136  11.287  67.945  1.00  0.00    -0.121 A  
HETATM   19  C   UNL     1      -8.243  11.652  66.596  1.00  0.00    -0.140 A  
BRANCH  17  20
HETATM   20  C   UNL     1      -9.478  11.637  64.377  1.00  0.00    -0.050 C  
BRANCH  20  21
HETATM   21  C   UNL     1     -10.780  11.178  63.698  1.00  0.00    -0.308 C  
BRANCH  21  22
HETATM   22  N   UNL     1     -11.593  12.320  63.289  1.00  0.00    -0.711 NA 
HETATM   23  H   UNL     1     -11.971  12.185  62.351  1.00  0.00     0.000 HD 
BRANCH  22  24
HETATM   24  C   UNL     1     -12.659  12.622  64.252  1.00  0.00    -0.368 C  
BRANCH  24  25
HETATM   25  C   UNL     1     -12.634  14.091  64.745  1.00  0.00    -0.296 C  
HETATM   26  O   UNL     1     -12.483  14.975  63.623  1.00  0.00    -1.036 OA 
HETATM   27  H   UNL     1     -12.469  15.875  63.925  1.00  0.00     0.000 HD 
BRANCH  25  28
HETATM   28  C   UNL     1     -11.595  14.416  65.802  1.00  0.00    -0.353 A  
HETATM   29  C   UNL     1     -10.425  15.109  65.454  1.00  0.00    -0.416 A  
HETATM   30  C   UNL     1      -9.429  15.347  66.404  1.00  0.00    -0.325 A  
HETATM   31  C   UNL     1      -9.590  14.902  67.715  1.00  0.00    -0.208 A  
HETATM   32  C   UNL     1     -10.755  14.235  68.082  1.00  0.00    -0.249 A  
HETATM   33  C   UNL     1     -11.750  13.993  67.132  1.00  0.00    -0.421 A  
ENDBRANCH  25  28
ENDBRANCH  24  25
ENDBRANCH  22  24
ENDBRANCH  21  22
ENDBRANCH  20  21
ENDBRANCH  17  20
ENDBRANCH  11  14
ENDBRANCH   9  10
ENDBRANCH   6   9
TORSDOF 9
ENDMDL
MODEL       21
REMARK 921   NORMALIZED FREE ENERGY PREDICTED BY IDOCK:   -5.84 KCAL/MOL
REMARK 922        TOTAL FREE ENERGY PREDICTED BY IDOCK:  -11.36 KCAL/MOL
REMARK 923 INTER-LIGAND FREE ENERGY PREDICTED BY IDOCK:   -8.81 KCAL/MOL
REMARK 924 INTRA-LIGAND FREE ENERGY PREDICTED BY IDOCK:   -2.55 KCAL/MOL
REMARK 927      BINDING AFFINITY PREDICTED BY RF-SCORE:    0.00 PKD
ROOT
HETATM    1  N   UNL     1     -12.806  12.440  62.960  1.00  0.00    -0.629 NA 
HETATM    2  C   UNL     1     -12.045  12.537  64.062  1.00  0.00    -0.473 A  
HETATM    3  H1  UNL     1     -12.423  12.478  62.015  1.00  0.00     0.000 HD 
HETATM    4  H2  UNL     1     -13.813  12.324  63.072  1.00  0.00     0.000 HD 
HETATM    5  N   UNL     1     -12.537  12.488  65.274  1.00  0.00    -0.637 NA 
HETATM    6  C   UNL     1     -11.515  12.609  66.211  1.00  0.00    -0.364 A  
HETATM    7  S   UNL     1     -10.341  12.703  63.961  1.00  0.00    -0.328 SA 
HETATM    8  C   UNL     1     -10.249  12.731  65.671  1.00  0.00    -0.279 A  
ENDROOT
BRANCH   6   9
HETATM    9  C   UNL     1     -11.861  12.573  67.659  1.00  0.00    -0.381 C  
BRANCH   9  10
HETATM   10  C   UNL     1     -11.540  11.257  68.347  1.00  0.00    -0.308 C  
HETATM   11  N   UNL     1     -11.467  11.306  69.731  1.00  0.00    -0.308 N  
HETATM   12  O   UNL     1     -11.475  10.234  67.664  1.00  0.00    -0.345 OA 
HETATM   13  H   UNL     1     -11.554  12.224  70.168  1.00  0.00     0.000 HD 
BRANCH  11  14
HETATM   14  C   UNL     1     -11.283  10.203  70.590  1.00  0.00    -0.340 A  
HETATM   15  C   UNL     1     -12.331   9.598  71.282  1.00  0.00    -0.449 A  
HETATM   16  C   UNL     1     -12.087   8.584  72.210  1.00  0.00    -0.455 A  
HETATM   17  C   UNL     1     -10.784   8.141  72.456  1.00  0.00    -0.419 A  
HETATM   18  C   UNL     1      -9.985   9.717  70.780  1.00  0.00    -0.260 A  
HETATM   19  C   UNL     1      -9.735   8.704  71.716  1.00  0.00    -0.361 A  
BRANCH  17  20
HETATM   20  C   UNL     1     -10.515   7.115  73.537  1.00  0.00    -0.422 C  
BRANCH  20  21
HETATM   21  C   UNL     1      -9.027   6.880  73.849  1.00  0.00    -0.173 C  
BRANCH  21  22
HETATM   22  N   UNL     1      -8.684   5.464  73.748  1.00  0.00    -0.116 NA 
HETATM   23  H   UNL     1      -8.668   5.022  74.667  1.00  0.00     0.000 HD 
BRANCH  22  24
HETATM   24  C   UNL     1      -9.569   4.738  72.828  1.00  0.00    -0.133 C  
BRANCH  24  25
HETATM   25  C   UNL     1      -8.912   4.452  71.453  1.00  0.00    -0.123 C  
HETATM   26  O   UNL     1      -7.483   4.506  71.580  1.00  0.00    -0.064 OA 
HETATM   27  H   UNL     1      -7.080   4.330  70.737  1.00  0.00     0.000 HD 
BRANCH  25  28
HETATM   28  C   UNL     1      -9.363   5.341  70.308  1.00  0.00    -0.207 A  
HETATM   29  C   UNL     1      -8.417   6.021  69.526  1.00  0.00    -0.119 A  
HETATM   30  C   UNL     1      -8.824   6.899  68.517  1.00  0.00    -0.124 A  
HETATM   31  C   UNL     1     -10.181   7.104  68.274  1.00  0.00    -0.210 A  
HETATM   32  C   UNL     1     -11.131   6.420  69.025  1.00  0.00    -0.424 A  
HETATM   33  C   UNL     1     -10.725   5.545  70.035  1.00  0.00    -0.356 A  
ENDBRANCH  25  28
ENDBRANCH  24  25
ENDBRANCH  22  24
ENDBRANCH  21  22
ENDBRANCH  20  21
ENDBRANCH  17  20
ENDBRANCH  11  14
ENDBRANCH   9  10
ENDBRANCH   6   9
TORSDOF 9
ENDMDL
MODEL       22
REMARK 921   NORMALIZED FREE ENERGY PREDICTED BY IDOCK:   -5.84 KCAL/MOL
REMARK 922        TOTAL FREE ENERGY PREDICTED BY IDOCK:  -11.35 KCAL/MOL
REMARK 923 INTER-LIGAND FREE ENERGY PREDICTED BY IDOCK:   -8.66 KCAL/MOL
REMARK 924 INTRA-LIGAND FREE ENERGY PREDICTED BY IDOCK:   -2.69 KCAL/MOL
REMARK 927      BINDING AFFINITY PREDICTED BY RF-SCORE:    0.00 PKD
ROOT
HETATM    1  N   UNL     1     -10.126   4.646  70.202  1.00  0.00    -0.244 NA 
HETATM    2  C   UNL     1     -10.210   5.662  71.076  1.00  0.00    -0.220 A  
HETATM    3  H1  UNL     1      -9.540   3.825  70.360  1.00  0.00     0.000 HD 
HETATM    4  H2  UNL     1     -10.671   4.696  69.343  1.00  0.00     0.000 HD 
HETATM    5  N   UNL     1     -10.962   6.715  70.873  1.00  0.00    -0.254 NA 
HETATM    6  C   UNL     1     -10.853   7.595  71.945  1.00  0.00    -0.233 A  
HETATM    7  S   UNL     1      -9.349   5.642  72.558  1.00  0.00    -0.141 SA 
HETATM    8  C   UNL     1     -10.016   7.169  72.958  1.00  0.00    -0.208 A  
ENDROOT
BRANCH   6   9
HETATM    9  C   UNL     1     -11.636   8.862  71.916  1.00  0.00    -0.442 C  
BRANCH   9  10
HETATM   10  C   UNL     1     -11.481   9.665  70.636  1.00  0.00    -0.306 C  
HETATM   11  N   UNL     1     -10.353   9.380  69.882  1.00  0.00    -0.212 N  
HETATM   12  O   UNL     1     -12.395  10.419  70.299  1.00  0.00    -0.287 OA 
HETATM   13  H   UNL     1      -9.684   8.720  70.280  1.00  0.00     0.000 HD 
BRANCH  11  14
HETATM   14  C   UNL     1     -10.046   9.919  68.616  1.00  0.00    -0.175 A  
HETATM   15  C   UNL     1      -9.207  11.020  68.443  1.00  0.00    -0.175 A  
HETATM   16  C   UNL     1      -9.024  11.590  67.183  1.00  0.00    -0.166 A  
HETATM   17  C   UNL     1      -9.667  11.062  66.060  1.00  0.00    -0.265 A  
HETATM   18  C   UNL     1     -10.637   9.343  67.486  1.00  0.00    -0.333 A  
HETATM   19  C   UNL     1     -10.461   9.918  66.220  1.00  0.00    -0.171 A  
BRANCH  17  20
HETATM   20  C   UNL     1      -9.547  11.748  64.715  1.00  0.00    -0.110 C  
BRANCH  20  21
HETATM   21  C   UNL     1     -10.521  11.237  63.639  1.00  0.00    -0.405 C  
BRANCH  21  22
HETATM   22  N   UNL     1     -11.429  12.294  63.203  1.00  0.00    -0.707 NA 
HETATM   23  H   UNL     1     -11.801  12.099  62.274  1.00  0.00     0.000 HD 
BRANCH  22  24
HETATM   24  C   UNL     1     -12.511  12.535  64.166  1.00  0.00    -0.430 C  
BRANCH  24  25
HETATM   25  C   UNL     1     -12.513  13.980  64.728  1.00  0.00    -0.365 C  
HETATM   26  O   UNL     1     -11.922  14.872  63.770  1.00  0.00    -0.861 OA 
HETATM   27  H   UNL     1     -11.924  15.757  64.115  1.00  0.00     0.000 HD 
BRANCH  25  28
HETATM   28  C   UNL     1     -11.850  14.162  66.081  1.00  0.00    -0.420 A  
HETATM   29  C   UNL     1     -12.279  13.410  67.185  1.00  0.00    -0.306 A  
HETATM   30  C   UNL     1     -11.726  13.624  68.452  1.00  0.00    -0.393 A  
HETATM   31  C   UNL     1     -10.735  14.587  68.629  1.00  0.00    -0.257 A  
HETATM   32  C   UNL     1     -10.282  15.324  67.540  1.00  0.00    -0.239 A  
HETATM   33  C   UNL     1     -10.836  15.114  66.275  1.00  0.00    -0.333 A  
ENDBRANCH  25  28
ENDBRANCH  24  25
ENDBRANCH  22  24
ENDBRANCH  21  22
ENDBRANCH  20  21
ENDBRANCH  17  20
ENDBRANCH  11  14
ENDBRANCH   9  10
ENDBRANCH   6   9
TORSDOF 9
ENDMDL
MODEL       23
REMARK 921   NORMALIZED FREE ENERGY PREDICTED BY IDOCK:   -5.83 KCAL/MOL
REMARK 922        TOTAL FREE ENERGY PREDICTED BY IDOCK:  -11.34 KCAL/MOL
REMARK 923 INTER-LIGAND FREE ENERGY PREDICTED BY IDOCK:   -9.43 KCAL/MOL
REMARK 924 INTRA-LIGAND FREE ENERGY PREDICTED BY IDOCK:   -1.92 KCAL/MOL
REMARK 927      BINDING AFFINITY PREDICTED BY RF-SCORE:    0.00 PKD
ROOT
HETATM    1  N   UNL     1     -12.164   6.714  72.455  1.00  0.00    -0.508 NA 
HETATM    2  C   UNL     1     -11.419   6.358  71.395  1.00  0.00    -0.308 A  
HETATM    3  H1  UNL     1     -11.911   6.479  73.415  1.00  0.00     0.000 HD 
HETATM    4  H2  UNL     1     -13.020   7.242  72.293  1.00  0.00     0.000 HD 
HETATM    5  N   UNL     1     -11.744   6.660  70.163  1.00  0.00    -0.390 NA 
HETATM    6  C   UNL     1     -10.787   6.167  69.281  1.00  0.00    -0.351 A  
HETATM    7  S   UNL     1      -9.949   5.496  71.583  1.00  0.00    -0.188 SA 
HETATM    8  C   UNL     1      -9.734   5.507  69.884  1.00  0.00    -0.174 A  
ENDROOT
BRANCH   6   9
HETATM    9  C   UNL     1     -10.965   6.407  67.822  1.00  0.00    -0.425 C  
BRANCH   9  10
HETATM   10  C   UNL     1     -10.433   7.746  67.338  1.00  0.00    -0.292 C  
HETATM   11  N   UNL     1     -10.904   8.859  68.018  1.00  0.00    -0.477 N  
HETATM   12  O   UNL     1      -9.559   7.754  66.471  1.00  0.00    -0.202 OA 
HETATM   13  H   UNL     1     -11.620   8.701  68.726  1.00  0.00     0.000 HD 
BRANCH  11  14
HETATM   14  C   UNL     1     -10.482  10.189  67.819  1.00  0.00    -0.232 A  
HETATM   15  C   UNL     1      -9.370  10.736  68.459  1.00  0.00    -0.174 A  
HETATM   16  C   UNL     1      -9.058  12.090  68.322  1.00  0.00    -0.190 A  
HETATM   17  C   UNL     1      -9.845  12.926  67.527  1.00  0.00    -0.208 A  
HETATM   18  C   UNL     1     -11.233  11.005  66.966  1.00  0.00    -0.255 A  
HETATM   19  C   UNL     1     -10.926  12.367  66.832  1.00  0.00    -0.307 A  
BRANCH  17  20
HETATM   20  C   UNL     1      -9.563  14.413  67.465  1.00  0.00    -0.215 C  
BRANCH  20  21
HETATM   21  C   UNL     1      -8.823  14.982  68.688  1.00  0.00    -0.185 C  
BRANCH  21  22
HETATM   22  N   UNL     1      -9.751  15.626  69.614  1.00  0.00    -0.284 NA 
HETATM   23  H   UNL     1      -9.434  16.564  69.860  1.00  0.00     0.000 HD 
BRANCH  22  24
HETATM   24  C   UNL     1     -11.127  15.650  69.101  1.00  0.00    -0.284 C  
BRANCH  24  25
HETATM   25  C   UNL     1     -12.194  15.628  70.225  1.00  0.00    -0.386 C  
HETATM   26  O   UNL     1     -11.772  16.469  71.309  1.00  0.00    -0.637 OA 
HETATM   27  H   UNL     1     -12.426  16.455  71.998  1.00  0.00     0.000 HD 
BRANCH  25  28
HETATM   28  C   UNL     1     -12.570  14.255  70.751  1.00  0.00    -0.427 A  
HETATM   29  C   UNL     1     -13.358  14.132  71.906  1.00  0.00    -0.476 A  
HETATM   30  C   UNL     1     -13.647  12.874  72.441  1.00  0.00    -0.577 A  
HETATM   31  C   UNL     1     -13.158  11.723  71.826  1.00  0.00    -0.480 A  
HETATM   32  C   UNL     1     -12.396  11.826  70.667  1.00  0.00    -0.421 A  
HETATM   33  C   UNL     1     -12.104  13.083  70.133  1.00  0.00    -0.377 A  
ENDBRANCH  25  28
ENDBRANCH  24  25
ENDBRANCH  22  24
ENDBRANCH  21  22
ENDBRANCH  20  21
ENDBRANCH  17  20
ENDBRANCH  11  14
ENDBRANCH   9  10
ENDBRANCH   6   9
TORSDOF 9
ENDMDL
MODEL       24
REMARK 921   NORMALIZED FREE ENERGY PREDICTED BY IDOCK:   -5.82 KCAL/MOL
REMARK 922        TOTAL FREE ENERGY PREDICTED BY IDOCK:  -11.32 KCAL/MOL
REMARK 923 INTER-LIGAND FREE ENERGY PREDICTED BY IDOCK:   -8.46 KCAL/MOL
REMARK 924 INTRA-LIGAND FREE ENERGY PREDICTED BY IDOCK:   -2.86 KCAL/MOL
REMARK 927      BINDING AFFINITY PREDICTED BY RF-SCORE:    0.00 PKD
ROOT
HETATM    1  N   UNL     1      -6.279  18.905  64.526  1.00  0.00    -0.465 NA 
HETATM    2  C   UNL     1      -6.952  19.496  65.527  1.00  0.00    -0.273 A  
HETATM    3  H1  UNL     1      -5.319  19.151  64.281  1.00  0.00     0.000 HD 
HETATM    4  H2  UNL     1      -6.747  18.178  63.987  1.00  0.00     0.000 HD 
HETATM    5  N   UNL     1      -8.183  19.180  65.842  1.00  0.00    -0.454 NA 
HETATM    6  C   UNL     1      -8.615  19.950  66.917  1.00  0.00    -0.332 A  
HETATM    7  S   UNL     1      -6.226  20.706  66.502  1.00  0.00    -0.240 SA 
HETATM    8  C   UNL     1      -7.674  20.835  67.407  1.00  0.00    -0.273 A  
ENDROOT
BRANCH   6   9
HETATM    9  C   UNL     1      -9.995  19.744  67.439  1.00  0.00    -0.531 C  
BRANCH   9  10
HETATM   10  C   UNL     1     -10.195  18.432  68.178  1.00  0.00    -0.384 C  
HETATM   11  N   UNL     1     -10.343  17.309  67.377  1.00  0.00    -0.330 N  
HETATM   12  O   UNL     1     -10.106  18.427  69.406  1.00  0.00    -0.188 OA 
HETATM   13  H   UNL     1     -10.385  17.461  66.369  1.00  0.00     0.000 HD 
BRANCH  11  14
HETATM   14  C   UNL     1     -10.440  15.978  67.829  1.00  0.00    -0.298 A  
HETATM   15  C   UNL     1      -9.341  15.124  67.917  1.00  0.00    -0.185 A  
HETATM   16  C   UNL     1      -9.502  13.780  68.258  1.00  0.00    -0.214 A  
HETATM   17  C   UNL     1     -10.770  13.262  68.534  1.00  0.00    -0.280 A  
HETATM   18  C   UNL     1     -11.703  15.482  68.172  1.00  0.00    -0.241 A  
HETATM   19  C   UNL     1     -11.869  14.131  68.509  1.00  0.00    -0.390 A  
BRANCH  17  20
HETATM   20  C   UNL     1     -10.950  11.782  68.802  1.00  0.00    -0.281 C  
BRANCH  20  21
HETATM   21  C   UNL     1      -9.648  10.963  68.814  1.00  0.00    -0.189 C  
BRANCH  21  22
HETATM   22  N   UNL     1      -9.243  10.595  67.460  1.00  0.00    -0.143 NA 
HETATM   23  H   UNL     1      -8.521   9.874  67.475  1.00  0.00     0.000 HD 
BRANCH  22  24
HETATM   24  C   UNL     1     -10.381  10.186  66.628  1.00  0.00    -0.208 C  
BRANCH  24  25
HETATM   25  C   UNL     1     -10.341  10.795  65.202  1.00  0.00    -0.271 C  
HETATM   26  O   UNL     1      -8.991  10.789  64.713  1.00  0.00    -0.192 OA 
HETATM   27  H   UNL     1      -8.967  11.163  63.839  1.00  0.00     0.000 HD 
BRANCH  25  28
HETATM   28  C   UNL     1     -10.937  12.184  65.061  1.00  0.00    -0.355 A  
HETATM   29  C   UNL     1     -12.324  12.371  65.159  1.00  0.00    -0.403 A  
HETATM   30  C   UNL     1     -12.889  13.634  64.957  1.00  0.00    -0.325 A  
HETATM   31  C   UNL     1     -12.075  14.725  64.659  1.00  0.00    -0.437 A  
HETATM   32  C   UNL     1     -10.695  14.560  64.582  1.00  0.00    -0.332 A  
HETATM   33  C   UNL     1     -10.130  13.299  64.781  1.00  0.00    -0.250 A  
ENDBRANCH  25  28
ENDBRANCH  24  25
ENDBRANCH  22  24
ENDBRANCH  21  22
ENDBRANCH  20  21
ENDBRANCH  17  20
ENDBRANCH  11  14
ENDBRANCH   9  10
ENDBRANCH   6   9
TORSDOF 9
ENDMDL
MODEL       25
REMARK 921   NORMALIZED FREE ENERGY PREDICTED BY IDOCK:   -5.79 KCAL/MOL
REMARK 922        TOTAL FREE ENERGY PREDICTED BY IDOCK:  -11.29 KCAL/MOL
REMARK 923 INTER-LIGAND FREE ENERGY PREDICTED BY IDOCK:   -9.38 KCAL/MOL
REMARK 924 INTRA-LIGAND FREE ENERGY PREDICTED BY IDOCK:   -1.91 KCAL/MOL
REMARK 927      BINDING AFFINITY PREDICTED BY RF-SCORE:    0.00 PKD
ROOT
HETATM    1  N   UNL     1     -10.935  13.807  66.988  1.00  0.00    -0.287 NA 
HETATM    2  C   UNL     1     -10.960  13.051  65.879  1.00  0.00    -0.271 A  
HETATM    3  H1  UNL     1     -11.585  14.577  67.150  1.00  0.00     0.000 HD 
HETATM    4  H2  UNL     1     -10.235  13.604  67.700  1.00  0.00     0.000 HD 
HETATM    5  N   UNL     1     -10.126  12.063  65.671  1.00  0.00    -0.238 NA 
HETATM    6  C   UNL     1     -10.393  11.460  64.446  1.00  0.00    -0.320 A  
HETATM    7  S   UNL     1     -12.125  13.307  64.647  1.00  0.00    -0.425 SA 
HETATM    8  C   UNL     1     -11.454  12.009  63.752  1.00  0.00    -0.461 A  
ENDROOT
BRANCH   6   9
HETATM    9  C   UNL     1      -9.556  10.305  64.017  1.00  0.00    -0.365 C  
BRANCH   9  10
HETATM   10  C   UNL     1      -9.245   9.312  65.124  1.00  0.00    -0.200 C  
HETATM   11  N   UNL     1     -10.271   9.080  66.027  1.00  0.00    -0.334 N  
HETATM   12  O   UNL     1      -8.171   8.709  65.091  1.00  0.00    -0.133 OA 
HETATM   13  H   UNL     1     -11.115   9.645  65.926  1.00  0.00     0.000 HD 
BRANCH  11  14
HETATM   14  C   UNL     1     -10.255   8.134  67.072  1.00  0.00    -0.308 A  
HETATM   15  C   UNL     1     -10.986   6.947  67.033  1.00  0.00    -0.404 A  
HETATM   16  C   UNL     1     -11.031   6.096  68.138  1.00  0.00    -0.398 A  
HETATM   17  C   UNL     1     -10.333   6.408  69.307  1.00  0.00    -0.248 A  
HETATM   18  C   UNL     1      -9.497   8.417  68.214  1.00  0.00    -0.147 A  
HETATM   19  C   UNL     1      -9.547   7.568  69.329  1.00  0.00    -0.158 A  
BRANCH  17  20
HETATM   20  C   UNL     1     -10.470   5.535  70.537  1.00  0.00    -0.347 C  
BRANCH  20  21
HETATM   21  C   UNL     1     -10.274   6.267  71.876  1.00  0.00    -0.201 C  
BRANCH  21  22
HETATM   22  N   UNL     1     -11.556   6.559  72.511  1.00  0.00    -0.427 NA 
HETATM   23  H   UNL     1     -11.693   5.985  73.343  1.00  0.00     0.000 HD 
BRANCH  22  24
HETATM   24  C   UNL     1     -11.716   7.985  72.820  1.00  0.00    -0.290 C  
BRANCH  24  25
HETATM   25  C   UNL     1     -12.863   8.654  72.020  1.00  0.00    -0.379 C  
HETATM   26  O   UNL     1     -13.280   7.787  70.955  1.00  0.00    -0.549 OA 
HETATM   27  H   UNL     1     -13.983   8.197  70.465  1.00  0.00     0.000 HD 
BRANCH  25  28
HETATM   28  C   UNL     1     -12.567  10.039  71.473  1.00  0.00    -0.525 A  
HETATM   29  C   UNL     1     -13.169  11.169  72.047  1.00  0.00    -0.428 A  
HETATM   30  C   UNL     1     -12.960  12.440  71.504  1.00  0.00    -0.385 A  
HETATM   31  C   UNL     1     -12.144  12.599  70.386  1.00  0.00    -0.381 A  
HETATM   32  C   UNL     1     -11.521  11.491  69.820  1.00  0.00    -0.362 A  
HETATM   33  C   UNL     1     -11.730  10.220  70.360  1.00  0.00    -0.404 A  
ENDBRANCH  25  28
ENDBRANCH  24  25
ENDBRANCH  22  24
ENDBRANCH  21  22
ENDBRANCH  20  21
ENDBRANCH  17  20
ENDBRANCH  11  14
ENDBRANCH   9  10
ENDBRANCH   6   9
TORSDOF 9
ENDMDL
MODEL       26
REMARK 921   NORMALIZED FREE ENERGY PREDICTED BY IDOCK:   -5.78 KCAL/MOL
REMARK 922        TOTAL FREE ENERGY PREDICTED BY IDOCK:  -11.27 KCAL/MOL
REMARK 923 INTER-LIGAND FREE ENERGY PREDICTED BY IDOCK:   -9.07 KCAL/MOL
REMARK 924 INTRA-LIGAND FREE ENERGY PREDICTED BY IDOCK:   -2.20 KCAL/MOL
REMARK 927      BINDING AFFINITY PREDICTED BY RF-SCORE:    0.00 PKD
ROOT
HETATM    1  N   UNL     1     -12.463  13.962  62.978  1.00  0.00    -1.009 NA 
HETATM    2  C   UNL     1     -11.894  13.140  63.874  1.00  0.00    -0.472 A  
HETATM    3  H1  UNL     1     -13.123  14.695  63.237  1.00  0.00     0.000 HD 
HETATM    4  H2  UNL     1     -12.224  13.849  61.993  1.00  0.00     0.000 HD 
HETATM    5  N   UNL     1     -11.047  12.199  63.541  1.00  0.00    -0.441 NA 
HETATM    6  C   UNL     1     -10.622  11.513  64.675  1.00  0.00    -0.311 A  
HETATM    7  S   UNL     1     -12.219  13.283  65.552  1.00  0.00    -0.477 SA 
HETATM    8  C   UNL     1     -11.159  11.973  65.862  1.00  0.00    -0.324 A  
ENDROOT
BRANCH   6   9
HETATM    9  C   UNL     1      -9.645  10.400  64.516  1.00  0.00    -0.369 C  
BRANCH   9  10
HETATM   10  C   UNL     1      -9.359   9.631  65.795  1.00  0.00    -0.228 C  
HETATM   11  N   UNL     1     -10.036   8.429  65.936  1.00  0.00    -0.416 N  
HETATM   12  O   UNL     1      -8.488  10.055  66.556  1.00  0.00    -0.124 OA 
HETATM   13  H   UNL     1     -10.722   8.196  65.219  1.00  0.00     0.000 HD 
BRANCH  11  14
HETATM   14  C   UNL     1      -9.861   7.499  66.982  1.00  0.00    -0.214 A  
HETATM   15  C   UNL     1     -10.918   7.018  67.754  1.00  0.00    -0.234 A  
HETATM   16  C   UNL     1     -10.684   6.189  68.852  1.00  0.00    -0.376 A  
HETATM   17  C   UNL     1      -9.384   5.810  69.195  1.00  0.00    -0.146 A  
HETATM   18  C   UNL     1      -8.564   7.066  67.277  1.00  0.00    -0.121 A  
HETATM   19  C   UNL     1      -8.325   6.240  68.384  1.00  0.00    -0.115 A  
BRANCH  17  20
HETATM   20  C   UNL     1      -9.128   4.996  70.447  1.00  0.00    -0.172 C  
BRANCH  20  21
HETATM   21  C   UNL     1     -10.369   4.752  71.324  1.00  0.00    -0.113 C  
BRANCH  21  22
HETATM   22  N   UNL     1     -10.201   5.338  72.651  1.00  0.00    -0.177 NA 
HETATM   23  H   UNL     1      -9.770   4.674  73.294  1.00  0.00     0.000 HD 
BRANCH  22  24
HETATM   24  C   UNL     1      -9.454   6.601  72.614  1.00  0.00    -0.142 C  
BRANCH  24  25
HETATM   25  C   UNL     1     -10.345   7.842  72.878  1.00  0.00    -0.334 C  
HETATM   26  O   UNL     1     -11.642   7.418  73.328  1.00  0.00    -0.584 OA 
HETATM   27  H   UNL     1     -12.188   8.179  73.490  1.00  0.00     0.000 HD 
BRANCH  25  28
HETATM   28  C   UNL     1     -10.492   8.809  71.717  1.00  0.00    -0.417 A  
HETATM   29  C   UNL     1     -11.727   9.421  71.459  1.00  0.00    -0.465 A  
HETATM   30  C   UNL     1     -11.891  10.255  70.349  1.00  0.00    -0.396 A  
HETATM   31  C   UNL     1     -10.822  10.492  69.488  1.00  0.00    -0.298 A  
HETATM   32  C   UNL     1      -9.584   9.911  69.743  1.00  0.00    -0.261 A  
HETATM   33  C   UNL     1      -9.420   9.075  70.850  1.00  0.00    -0.331 A  
ENDBRANCH  25  28
ENDBRANCH  24  25
ENDBRANCH  22  24
ENDBRANCH  21  22
ENDBRANCH  20  21
ENDBRANCH  17  20
ENDBRANCH  11  14
ENDBRANCH   9  10
ENDBRANCH   6   9
TORSDOF 9
ENDMDL
MODEL       27
REMARK 921   NORMALIZED FREE ENERGY PREDICTED BY IDOCK:   -5.77 KCAL/MOL
REMARK 922        TOTAL FREE ENERGY PREDICTED BY IDOCK:  -11.25 KCAL/MOL
REMARK 923 INTER-LIGAND FREE ENERGY PREDICTED BY IDOCK:   -9.97 KCAL/MOL
REMARK 924 INTRA-LIGAND FREE ENERGY PREDICTED BY IDOCK:   -1.28 KCAL/MOL
REMARK 927      BINDING AFFINITY PREDICTED BY RF-SCORE:    0.00 PKD
ROOT
HETATM    1  N   UNL     1      -7.267  16.662  66.553  1.00  0.00    -0.239 NA 
HETATM    2  C   UNL     1      -8.561  16.726  66.198  1.00  0.00    -0.264 A  
HETATM    3  H1  UNL     1      -6.778  17.433  67.010  1.00  0.00     0.000 HD 
HETATM    4  H2  UNL     1      -6.750  15.806  66.357  1.00  0.00     0.000 HD 
HETATM    5  N   UNL     1      -9.188  15.738  65.612  1.00  0.00    -0.298 NA 
HETATM    6  C   UNL     1     -10.512  16.087  65.370  1.00  0.00    -0.392 A  
HETATM    7  S   UNL     1      -9.509  18.118  66.519  1.00  0.00    -0.289 SA 
HETATM    8  C   UNL     1     -10.863  17.351  65.803  1.00  0.00     0.000 A  
ENDROOT
BRANCH   6   9
HETATM    9  C   UNL     1     -11.408  15.096  64.710  1.00  0.00    -0.399 C  
BRANCH   9  10
HETATM   10  C   UNL     1     -11.918  14.002  65.633  1.00  0.00    -0.397 C  
HETATM   11  N   UNL     1     -11.157  13.773  66.769  1.00  0.00    -0.304 N  
HETATM   12  O   UNL     1     -13.003  13.477  65.381  1.00  0.00    -0.656 OA 
HETATM   13  H   UNL     1     -10.284  14.293  66.855  1.00  0.00     0.000 HD 
BRANCH  11  14
HETATM   14  C   UNL     1     -11.480  12.886  67.816  1.00  0.00    -0.323 A  
HETATM   15  C   UNL     1     -11.837  13.317  69.093  1.00  0.00    -0.378 A  
HETATM   16  C   UNL     1     -12.036  12.404  70.129  1.00  0.00    -0.376 A  
HETATM   17  C   UNL     1     -11.894  11.032  69.907  1.00  0.00    -0.431 A  
HETATM   18  C   UNL     1     -11.406  11.510  67.571  1.00  0.00    -0.366 A  
HETATM   19  C   UNL     1     -11.597  10.591  68.611  1.00  0.00    -0.241 A  
BRANCH  17  20
HETATM   20  C   UNL     1     -12.008  10.053  71.058  1.00  0.00    -0.469 C  
BRANCH  20  21
HETATM   21  C   UNL     1     -13.286  10.196  71.904  1.00  0.00    -0.452 C  
BRANCH  21  22
HETATM   22  N   UNL     1     -13.566   8.971  72.648  1.00  0.00    -0.770 NA 
HETATM   23  H   UNL     1     -14.478   9.016  73.102  1.00  0.00     0.000 HD 
BRANCH  22  24
HETATM   24  C   UNL     1     -13.451   7.769  71.812  1.00  0.00    -0.322 C  
BRANCH  24  25
HETATM   25  C   UNL     1     -12.369   6.780  72.316  1.00  0.00    -0.101 C  
HETATM   26  O   UNL     1     -11.605   7.393  73.367  1.00  0.00    -0.580 OA 
HETATM   27  H   UNL     1     -10.943   6.786  73.675  1.00  0.00     0.000 HD 
BRANCH  25  28
HETATM   28  C   UNL     1     -11.435   6.226  71.255  1.00  0.00    -0.352 A  
HETATM   29  C   UNL     1     -11.574   6.620  69.915  1.00  0.00    -0.393 A  
HETATM   30  C   UNL     1     -10.768   6.060  68.920  1.00  0.00    -0.384 A  
HETATM   31  C   UNL     1      -9.810   5.104  69.251  1.00  0.00    -0.260 A  
HETATM   32  C   UNL     1      -9.644   4.720  70.578  1.00  0.00    -0.258 A  
HETATM   33  C   UNL     1     -10.450   5.277  71.573  1.00  0.00    -0.279 A  
ENDBRANCH  25  28
ENDBRANCH  24  25
ENDBRANCH  22  24
ENDBRANCH  21  22
ENDBRANCH  20  21
ENDBRANCH  17  20
ENDBRANCH  11  14
ENDBRANCH   9  10
ENDBRANCH   6   9
TORSDOF 9
ENDMDL
MODEL       28
REMARK 921   NORMALIZED FREE ENERGY PREDICTED BY IDOCK:   -5.77 KCAL/MOL
REMARK 922        TOTAL FREE ENERGY PREDICTED BY IDOCK:  -11.25 KCAL/MOL
REMARK 923 INTER-LIGAND FREE ENERGY PREDICTED BY IDOCK:   -9.50 KCAL/MOL
REMARK 924 INTRA-LIGAND FREE ENERGY PREDICTED BY IDOCK:   -1.75 KCAL/MOL
REMARK 927      BINDING AFFINITY PREDICTED BY RF-SCORE:    0.00 PKD
ROOT
HETATM    1  N   UNL     1     -10.211  20.023  66.122  1.00  0.00    -0.481 NA 
HETATM    2  C   UNL     1      -9.973  18.714  66.303  1.00  0.00    -0.372 A  
HETATM    3  H1  UNL     1      -9.787  20.749  66.701  1.00  0.00     0.000 HD 
HETATM    4  H2  UNL     1     -10.842  20.305  65.374  1.00  0.00     0.000 HD 
HETATM    5  N   UNL     1     -10.517  17.782  65.560  1.00  0.00    -0.636 NA 
HETATM    6  C   UNL     1     -10.085  16.526  65.975  1.00  0.00    -0.348 A  
HETATM    7  S   UNL     1      -8.901  18.158  67.519  1.00  0.00    -0.259 SA 
HETATM    8  C   UNL     1      -9.196  16.543  67.032  1.00  0.00    -0.218 A  
ENDROOT
BRANCH   6   9
HETATM    9  C   UNL     1     -10.584  15.322  65.254  1.00  0.00    -0.438 C  
BRANCH   9  10
HETATM   10  C   UNL     1     -10.945  14.156  66.159  1.00  0.00    -0.309 C  
HETATM   11  N   UNL     1      -9.971  13.177  66.292  1.00  0.00    -0.281 N  
HETATM   12  O   UNL     1     -12.003  14.202  66.788  1.00  0.00    -0.411 OA 
HETATM   13  H   UNL     1      -9.134  13.275  65.719  1.00  0.00     0.000 HD 
BRANCH  11  14
HETATM   14  C   UNL     1     -10.034  12.059  67.149  1.00  0.00    -0.195 A  
HETATM   15  C   UNL     1      -9.184  11.891  68.242  1.00  0.00    -0.187 A  
HETATM   16  C   UNL     1      -9.205  10.715  68.992  1.00  0.00    -0.177 A  
HETATM   17  C   UNL     1     -10.090   9.681  68.674  1.00  0.00    -0.196 A  
HETATM   18  C   UNL     1     -10.970  11.058  66.869  1.00  0.00    -0.311 A  
HETATM   19  C   UNL     1     -10.988   9.872  67.616  1.00  0.00    -0.263 A  
BRANCH  17  20
HETATM   20  C   UNL     1     -10.035   8.368  69.426  1.00  0.00    -0.191 C  
BRANCH  20  21
HETATM   21  C   UNL     1     -10.573   8.425  70.867  1.00  0.00    -0.204 C  
BRANCH  21  22
HETATM   22  N   UNL     1     -11.925   7.878  70.948  1.00  0.00    -0.431 NA 
HETATM   23  H   UNL     1     -12.055   7.347  71.809  1.00  0.00     0.000 HD 
BRANCH  22  24
HETATM   24  C   UNL     1     -12.956   8.912  70.803  1.00  0.00     0.278 C  
BRANCH  24  25
HETATM   25  C   UNL     1     -12.960   9.934  71.968  1.00  0.00    -0.423 C  
HETATM   26  O   UNL     1     -14.071   9.671  72.839  1.00  0.00    -0.779 OA 
HETATM   27  H   UNL     1     -14.073  10.297  73.553  1.00  0.00     0.000 HD 
BRANCH  25  28
HETATM   28  C   UNL     1     -12.956  11.397  71.563  1.00  0.00    -0.505 A  
HETATM   29  C   UNL     1     -12.212  11.820  70.451  1.00  0.00    -0.416 A  
HETATM   30  C   UNL     1     -12.143  13.175  70.114  1.00  0.00    -0.392 A  
HETATM   31  C   UNL     1     -12.819  14.123  70.880  1.00  0.00    -0.404 A  
HETATM   32  C   UNL     1     -13.580  13.716  71.972  1.00  0.00    -0.585 A  
HETATM   33  C   UNL     1     -13.648  12.364  72.311  1.00  0.00    -0.371 A  
ENDBRANCH  25  28
ENDBRANCH  24  25
ENDBRANCH  22  24
ENDBRANCH  21  22
ENDBRANCH  20  21
ENDBRANCH  17  20
ENDBRANCH  11  14
ENDBRANCH   9  10
ENDBRANCH   6   9
TORSDOF 9
ENDMDL
MODEL       29
REMARK 921   NORMALIZED FREE ENERGY PREDICTED BY IDOCK:   -5.72 KCAL/MOL
REMARK 922        TOTAL FREE ENERGY PREDICTED BY IDOCK:  -11.17 KCAL/MOL
REMARK 923 INTER-LIGAND FREE ENERGY PREDICTED BY IDOCK:   -9.22 KCAL/MOL
REMARK 924 INTRA-LIGAND FREE ENERGY PREDICTED BY IDOCK:   -1.96 KCAL/MOL
REMARK 927      BINDING AFFINITY PREDICTED BY RF-SCORE:    0.00 PKD
ROOT
HETATM    1  N   UNL     1     -10.765  11.060  62.966  1.00  0.00    -0.803 NA 
HETATM    2  C   UNL     1     -10.979  12.187  63.664  1.00  0.00    -0.461 A  
HETATM    3  H1  UNL     1     -11.388  10.739  62.224  1.00  0.00     0.000 HD 
HETATM    4  H2  UNL     1      -9.944  10.499  63.187  1.00  0.00     0.000 HD 
HETATM    5  N   UNL     1     -10.180  12.598  64.616  1.00  0.00    -0.311 NA 
HETATM    6  C   UNL     1     -10.650  13.792  65.154  1.00  0.00    -0.374 A  
HETATM    7  S   UNL     1     -12.320  13.203  63.333  1.00  0.00    -0.193 SA 
HETATM    8  C   UNL     1     -11.807  14.270  64.571  1.00  0.00    -0.442 A  
ENDROOT
BRANCH   6   9
HETATM    9  C   UNL     1      -9.879  14.436  66.254  1.00  0.00    -0.321 C  
BRANCH   9  10
HETATM   10  C   UNL     1     -10.088  13.803  67.619  1.00  0.00    -0.242 C  
HETATM   11  N   UNL     1     -11.262  13.081  67.771  1.00  0.00    -0.265 N  
HETATM   12  O   UNL     1      -9.179  13.874  68.447  1.00  0.00    -0.200 OA 
HETATM   13  H   UNL     1     -11.921  13.098  66.993  1.00  0.00     0.000 HD 
BRANCH  11  14
HETATM   14  C   UNL     1     -11.628  12.326  68.904  1.00  0.00    -0.316 A  
HETATM   15  C   UNL     1     -11.483  10.941  68.972  1.00  0.00    -0.371 A  
HETATM   16  C   UNL     1     -11.965  10.222  70.066  1.00  0.00    -0.273 A  
HETATM   17  C   UNL     1     -12.593  10.877  71.129  1.00  0.00    -0.532 A  
HETATM   18  C   UNL     1     -12.192  12.994  69.996  1.00  0.00    -0.306 A  
HETATM   19  C   UNL     1     -12.684  12.275  71.094  1.00  0.00    -0.340 A  
BRANCH  17  20
HETATM   20  C   UNL     1     -13.206  10.083  72.264  1.00  0.00    -0.401 C  
BRANCH  20  21
HETATM   21  C   UNL     1     -14.278   9.066  71.836  1.00  0.00    -0.284 C  
BRANCH  21  22
HETATM   22  N   UNL     1     -13.979   7.733  72.353  1.00  0.00    -0.531 NA 
HETATM   23  H   UNL     1     -14.834   7.225  72.579  1.00  0.00     0.000 HD 
BRANCH  22  24
HETATM   24  C   UNL     1     -13.128   6.958  71.442  1.00  0.00    -0.250 C  
BRANCH  24  25
HETATM   25  C   UNL     1     -11.707   6.702  72.008  1.00  0.00    -0.313 C  
HETATM   26  O   UNL     1     -11.629   7.190  73.356  1.00  0.00    -0.466 OA 
HETATM   27  H   UNL     1     -10.758   7.033  73.703  1.00  0.00     0.000 HD 
BRANCH  25  28
HETATM   28  C   UNL     1     -10.560   7.263  71.188  1.00  0.00    -0.236 A  
HETATM   29  C   UNL     1     -10.289   6.753  69.909  1.00  0.00    -0.229 A  
HETATM   30  C   UNL     1      -9.190   7.211  69.177  1.00  0.00    -0.139 A  
HETATM   31  C   UNL     1      -8.352   8.187  69.710  1.00  0.00    -0.124 A  
HETATM   32  C   UNL     1      -8.620   8.721  70.967  1.00  0.00    -0.236 A  
HETATM   33  C   UNL     1      -9.716   8.262  71.700  1.00  0.00    -0.261 A  
ENDBRANCH  25  28
ENDBRANCH  24  25
ENDBRANCH  22  24
ENDBRANCH  21  22
ENDBRANCH  20  21
ENDBRANCH  17  20
ENDBRANCH  11  14
ENDBRANCH   9  10
ENDBRANCH   6   9
TORSDOF 9
ENDMDL
MODEL       30
REMARK 921   NORMALIZED FREE ENERGY PREDICTED BY IDOCK:   -5.71 KCAL/MOL
REMARK 922        TOTAL FREE ENERGY PREDICTED BY IDOCK:  -11.17 KCAL/MOL
REMARK 923 INTER-LIGAND FREE ENERGY PREDICTED BY IDOCK:   -9.73 KCAL/MOL
REMARK 924 INTRA-LIGAND FREE ENERGY PREDICTED BY IDOCK:   -1.44 KCAL/MOL
REMARK 927      BINDING AFFINITY PREDICTED BY RF-SCORE:    0.00 PKD
ROOT
HETATM    1  N   UNL     1     -11.183   4.759  65.305  1.00  0.00    -0.943 NA 
HETATM    2  C   UNL     1     -10.654   5.095  66.493  1.00  0.00    -0.260 A  
HETATM    3  H1  UNL     1     -10.846   3.973  64.750  1.00  0.00     0.000 HD 
HETATM    4  H2  UNL     1     -11.956   5.316  64.942  1.00  0.00     0.000 HD 
HETATM    5  N   UNL     1     -11.086   6.105  67.205  1.00  0.00    -0.310 NA 
HETATM    6  C   UNL     1     -10.354   6.208  68.384  1.00  0.00    -0.200 A  
HETATM    7  S   UNL     1      -9.372   4.194  67.189  1.00  0.00    -0.188 SA 
HETATM    8  C   UNL     1      -9.378   5.243  68.542  1.00  0.00    -0.121 A  
ENDROOT
BRANCH   6   9
HETATM    9  C   UNL     1     -10.691   7.295  69.346  1.00  0.00    -0.236 C  
BRANCH   9  10
HETATM   10  C   UNL     1     -10.277   8.684  68.891  1.00  0.00    -0.207 C  
HETATM   11  N   UNL     1     -10.805   9.099  67.677  1.00  0.00    -0.475 N  
HETATM   12  O   UNL     1      -9.607   9.379  69.655  1.00  0.00    -0.167 OA 
HETATM   13  H   UNL     1     -11.357   8.419  67.155  1.00  0.00     0.000 HD 
BRANCH  11  14
HETATM   14  C   UNL     1     -10.647  10.376  67.101  1.00  0.00    -0.261 A  
HETATM   15  C   UNL     1      -9.808  10.618  66.013  1.00  0.00    -0.280 A  
HETATM   16  C   UNL     1      -9.593  11.917  65.549  1.00  0.00    -0.200 A  
HETATM   17  C   UNL     1     -10.227  13.005  66.155  1.00  0.00    -0.288 A  
HETATM   18  C   UNL     1     -11.338  11.452  67.667  1.00  0.00    -0.359 A  
HETATM   19  C   UNL     1     -11.119  12.759  67.208  1.00  0.00    -0.314 A  
BRANCH  17  20
HETATM   20  C   UNL     1      -9.910  14.419  65.715  1.00  0.00    -0.330 C  
BRANCH  20  21
HETATM   21  C   UNL     1     -10.921  15.482  66.176  1.00  0.00    -0.247 C  
BRANCH  21  22
HETATM   22  N   UNL     1     -10.419  16.224  67.329  1.00  0.00    -0.298 NA 
HETATM   23  H   UNL     1     -10.148  17.172  67.067  1.00  0.00     0.000 HD 
BRANCH  22  24
HETATM   24  C   UNL     1     -11.372  16.236  68.446  1.00  0.00    -0.312 C  
BRANCH  24  25
HETATM   25  C   UNL     1     -10.732  15.817  69.794  1.00  0.00    -0.316 C  
HETATM   26  O   UNL     1      -9.643  14.914  69.553  1.00  0.00    -0.394 OA 
HETATM   27  H   UNL     1      -9.251  14.657  70.379  1.00  0.00     0.000 HD 
BRANCH  25  28
HETATM   28  C   UNL     1     -11.681  15.220  70.818  1.00  0.00    -0.377 A  
HETATM   29  C   UNL     1     -12.031  15.947  71.966  1.00  0.00    -0.602 A  
HETATM   30  C   UNL     1     -12.845  15.377  72.949  1.00  0.00    -0.550 A  
HETATM   31  C   UNL     1     -13.323  14.078  72.796  1.00  0.00    -0.603 A  
HETATM   32  C   UNL     1     -13.006  13.353  71.652  1.00  0.00    -0.445 A  
HETATM   33  C   UNL     1     -12.190  13.920  70.670  1.00  0.00    -0.443 A  
ENDBRANCH  25  28
ENDBRANCH  24  25
ENDBRANCH  22  24
ENDBRANCH  21  22
ENDBRANCH  20  21
ENDBRANCH  17  20
ENDBRANCH  11  14
ENDBRANCH   9  10
ENDBRANCH   6   9
TORSDOF 9
ENDMDL
MODEL       31
REMARK 921   NORMALIZED FREE ENERGY PREDICTED BY IDOCK:   -5.71 KCAL/MOL
REMARK 922        TOTAL FREE ENERGY PREDICTED BY IDOCK:  -11.16 KCAL/MOL
REMARK 923 INTER-LIGAND FREE ENERGY PREDICTED BY IDOCK:   -9.91 KCAL/MOL
REMARK 924 INTRA-LIGAND FREE ENERGY PREDICTED BY IDOCK:   -1.26 KCAL/MOL
REMARK 927      BINDING AFFINITY PREDICTED BY RF-SCORE:    0.00 PKD
ROOT
HETATM    1  N   UNL     1     -13.026  16.060  74.455  1.00  0.00    -0.929 NA 
HETATM    2  C   UNL     1     -12.906  15.887  73.128  1.00  0.00    -0.537 A  
HETATM    3  H1  UNL     1     -13.882  15.845  74.967  1.00  0.00     0.000 HD 
HETATM    4  H2  UNL     1     -12.227  16.423  74.973  1.00  0.00     0.000 HD 
HETATM    5  N   UNL     1     -11.808  16.163  72.471  1.00  0.00    -0.527 NA 
HETATM    6  C   UNL     1     -11.975  15.880  71.119  1.00  0.00    -0.427 A  
HETATM    7  S   UNL     1     -14.192  15.254  72.188  1.00  0.00    -0.545 SA 
HETATM    8  C   UNL     1     -13.216  15.372  70.786  1.00  0.00    -0.387 A  
ENDROOT
BRANCH   6   9
HETATM    9  C   UNL     1     -10.836  16.120  70.189  1.00  0.00    -0.328 C  
BRANCH   9  10
HETATM   10  C   UNL     1     -10.813  15.203  68.978  1.00  0.00    -0.242 C  
HETATM   11  N   UNL     1     -10.300  13.933  69.197  1.00  0.00    -0.425 N  
HETATM   12  O   UNL     1     -11.337  15.592  67.933  1.00  0.00    -0.344 OA 
HETATM   13  H   UNL     1      -9.910  13.744  70.120  1.00  0.00     0.000 HD 
BRANCH  11  14
HETATM   14  C   UNL     1     -10.268  12.881  68.259  1.00  0.00    -0.245 A  
HETATM   15  C   UNL     1     -11.200  11.844  68.251  1.00  0.00    -0.317 A  
HETATM   16  C   UNL     1     -11.062  10.763  67.379  1.00  0.00    -0.363 A  
HETATM   17  C   UNL     1      -9.992  10.702  66.482  1.00  0.00    -0.265 A  
HETATM   18  C   UNL     1      -9.234  12.861  67.316  1.00  0.00    -0.208 A  
HETATM   19  C   UNL     1      -9.089  11.773  66.444  1.00  0.00    -0.215 A  
BRANCH  17  20
HETATM   20  C   UNL     1      -9.790   9.479  65.613  1.00  0.00    -0.343 C  
BRANCH  20  21
HETATM   21  C   UNL     1      -8.774   8.459  66.156  1.00  0.00    -0.151 C  
BRANCH  21  22
HETATM   22  N   UNL     1      -9.256   7.091  65.984  1.00  0.00    -0.354 NA 
HETATM   23  H   UNL     1      -8.774   6.625  65.215  1.00  0.00     0.000 HD 
BRANCH  22  24
HETATM   24  C   UNL     1      -9.161   6.305  67.221  1.00  0.00    -0.118 C  
BRANCH  24  25
HETATM   25  C   UNL     1     -10.539   6.047  67.882  1.00  0.00    -0.267 C  
HETATM   26  O   UNL     1     -11.585   6.537  67.028  1.00  0.00    -0.729 OA 
HETATM   27  H   UNL     1     -12.429   6.378  67.434  1.00  0.00     0.000 HD 
BRANCH  25  28
HETATM   28  C   UNL     1     -10.713   6.602  69.284  1.00  0.00    -0.307 A  
HETATM   29  C   UNL     1     -10.703   5.741  70.392  1.00  0.00    -0.372 A  
HETATM   30  C   UNL     1     -10.936   6.234  71.679  1.00  0.00    -0.310 A  
HETATM   31  C   UNL     1     -11.177   7.592  71.876  1.00  0.00    -0.299 A  
HETATM   32  C   UNL     1     -11.166   8.463  70.791  1.00  0.00    -0.290 A  
HETATM   33  C   UNL     1     -10.936   7.971  69.504  1.00  0.00    -0.062 A  
ENDBRANCH  25  28
ENDBRANCH  24  25
ENDBRANCH  22  24
ENDBRANCH  21  22
ENDBRANCH  20  21
ENDBRANCH  17  20
ENDBRANCH  11  14
ENDBRANCH   9  10
ENDBRANCH   6   9
TORSDOF 9
ENDMDL
MODEL       32
REMARK 921   NORMALIZED FREE ENERGY PREDICTED BY IDOCK:   -5.71 KCAL/MOL
REMARK 922        TOTAL FREE ENERGY PREDICTED BY IDOCK:  -11.16 KCAL/MOL
REMARK 923 INTER-LIGAND FREE ENERGY PREDICTED BY IDOCK:   -8.40 KCAL/MOL
REMARK 924 INTRA-LIGAND FREE ENERGY PREDICTED BY IDOCK:   -2.75 KCAL/MOL
REMARK 927      BINDING AFFINITY PREDICTED BY RF-SCORE:    0.00 PKD
ROOT
HETATM    1  N   UNL     1     -10.138  15.747  65.424  1.00  0.00    -0.412 NA 
HETATM    2  C   UNL     1     -10.679  14.634  64.904  1.00  0.00    -0.427 A  
HETATM    3  H1  UNL     1     -10.631  16.639  65.462  1.00  0.00     0.000 HD 
HETATM    4  H2  UNL     1      -9.191  15.699  65.798  1.00  0.00     0.000 HD 
HETATM    5  N   UNL     1     -10.046  13.489  64.854  1.00  0.00    -0.300 NA 
HETATM    6  C   UNL     1     -10.853  12.519  64.270  1.00  0.00    -0.364 A  
HETATM    7  S   UNL     1     -12.277  14.622  64.282  1.00  0.00    -0.263 SA 
HETATM    8  C   UNL     1     -12.108  12.961  63.898  1.00  0.00    -0.480 A  
ENDROOT
BRANCH   6   9
HETATM    9  C   UNL     1     -10.321  11.135  64.122  1.00  0.00    -0.423 C  
BRANCH   9  10
HETATM   10  C   UNL     1     -10.019  10.437  65.437  1.00  0.00    -0.295 C  
HETATM   11  N   UNL     1     -10.311  11.163  66.582  1.00  0.00    -0.232 N  
HETATM   12  O   UNL     1      -9.648   9.263  65.409  1.00  0.00    -0.259 OA 
HETATM   13  H   UNL     1     -10.625  12.125  66.453  1.00  0.00     0.000 HD 
BRANCH  11  14
HETATM   14  C   UNL     1     -10.211  10.692  67.907  1.00  0.00    -0.177 A  
HETATM   15  C   UNL     1      -9.006  10.288  68.480  1.00  0.00    -0.134 A  
HETATM   16  C   UNL     1      -8.973   9.720  69.754  1.00  0.00    -0.239 A  
HETATM   17  C   UNL     1     -10.148   9.557  70.493  1.00  0.00    -0.347 A  
HETATM   18  C   UNL     1     -11.381  10.596  68.669  1.00  0.00    -0.345 A  
HETATM   19  C   UNL     1     -11.352  10.020  69.946  1.00  0.00    -0.306 A  
BRANCH  17  20
HETATM   20  C   UNL     1     -10.119   8.846  71.830  1.00  0.00    -0.393 C  
BRANCH  20  21
HETATM   21  C   UNL     1     -11.499   8.441  72.377  1.00  0.00    -0.380 C  
BRANCH  21  22
HETATM   22  N   UNL     1     -11.422   7.193  73.132  1.00  0.00    -0.551 NA 
HETATM   23  H   UNL     1     -11.968   7.249  73.992  1.00  0.00     0.000 HD 
BRANCH  22  24
HETATM   24  C   UNL     1     -11.818   6.029  72.330  1.00  0.00    -0.250 C  
BRANCH  24  25
HETATM   25  C   UNL     1     -10.611   5.283  71.706  1.00  0.00    -0.201 C  
HETATM   26  O   UNL     1      -9.471   5.400  72.571  1.00  0.00    -0.145 OA 
HETATM   27  H   UNL     1      -8.731   4.942  72.189  1.00  0.00     0.000 HD 
BRANCH  25  28
HETATM   28  C   UNL     1     -10.234   5.700  70.296  1.00  0.00    -0.311 A  
HETATM   29  C   UNL     1      -8.892   5.679  69.887  1.00  0.00    -0.135 A  
HETATM   30  C   UNL     1      -8.527   6.131  68.616  1.00  0.00    -0.114 A  
HETATM   31  C   UNL     1      -9.497   6.604  67.736  1.00  0.00    -0.121 A  
HETATM   32  C   UNL     1     -10.836   6.609  68.117  1.00  0.00    -0.334 A  
HETATM   33  C   UNL     1     -11.201   6.160  69.388  1.00  0.00    -0.466 A  
ENDBRANCH  25  28
ENDBRANCH  24  25
ENDBRANCH  22  24
ENDBRANCH  21  22
ENDBRANCH  20  21
ENDBRANCH  17  20
ENDBRANCH  11  14
ENDBRANCH   9  10
ENDBRANCH   6   9
TORSDOF 9
ENDMDL
MODEL       33
REMARK 921   NORMALIZED FREE ENERGY PREDICTED BY IDOCK:   -5.71 KCAL/MOL
REMARK 922        TOTAL FREE ENERGY PREDICTED BY IDOCK:  -11.15 KCAL/MOL
REMARK 923 INTER-LIGAND FREE ENERGY PREDICTED BY IDOCK:  -10.42 KCAL/MOL
REMARK 924 INTRA-LIGAND FREE ENERGY PREDICTED BY IDOCK:   -0.73 KCAL/MOL
REMARK 927      BINDING AFFINITY PREDICTED BY RF-SCORE:    0.00 PKD
ROOT
HETATM    1  N   UNL     1     -10.360  20.167  65.599  1.00  0.00    -0.431 NA 
HETATM    2  C   UNL     1     -10.360  18.985  66.237  1.00  0.00    -0.459 A  
HETATM    3  H1  UNL     1     -10.320  21.062  66.088  1.00  0.00     0.000 HD 
HETATM    4  H2  UNL     1     -10.403  20.170  64.581  1.00  0.00     0.000 HD 
HETATM    5  N   UNL     1     -10.412  17.837  65.611  1.00  0.00    -0.628 NA 
HETATM    6  C   UNL     1     -10.392  16.790  66.526  1.00  0.00    -0.301 A  
HETATM    7  S   UNL     1     -10.261  18.891  67.947  1.00  0.00    -0.408 SA 
HETATM    8  C   UNL     1     -10.308  17.182  67.849  1.00  0.00    -0.350 A  
ENDROOT
BRANCH   6   9
HETATM    9  C   UNL     1     -10.438  15.390  66.018  1.00  0.00    -0.333 C  
BRANCH   9  10
HETATM   10  C   UNL     1     -11.330  14.461  66.823  1.00  0.00    -0.352 C  
HETATM   11  N   UNL     1     -10.778  13.967  67.995  1.00  0.00    -0.242 N  
HETATM   12  O   UNL     1     -12.493  14.295  66.454  1.00  0.00    -0.441 OA 
HETATM   13  H   UNL     1      -9.803  14.198  68.182  1.00  0.00     0.000 HD 
BRANCH  11  14
HETATM   14  C   UNL     1     -11.443  13.173  68.952  1.00  0.00    -0.298 A  
HETATM   15  C   UNL     1     -12.152  13.712  70.024  1.00  0.00    -0.417 A  
HETATM   16  C   UNL     1     -12.696  12.889  71.011  1.00  0.00    -0.338 A  
HETATM   17  C   UNL     1     -12.555  11.500  70.939  1.00  0.00    -0.438 A  
HETATM   18  C   UNL     1     -11.358  11.781  68.837  1.00  0.00    -0.326 A  
HETATM   19  C   UNL     1     -11.897  10.951  69.830  1.00  0.00    -0.427 A  
BRANCH  17  20
HETATM   20  C   UNL     1     -13.056  10.620  72.065  1.00  0.00    -0.501 C  
BRANCH  20  21
HETATM   21  C   UNL     1     -13.605   9.253  71.621  1.00  0.00    -0.381 C  
BRANCH  21  22
HETATM   22  N   UNL     1     -13.195   8.195  72.541  1.00  0.00    -0.564 NA 
HETATM   23  H   UNL     1     -13.729   7.341  72.381  1.00  0.00     0.000 HD 
BRANCH  22  24
HETATM   24  C   UNL     1     -11.752   7.935  72.487  1.00  0.00    -0.367 C  
BRANCH  24  25
HETATM   25  C   UNL     1     -11.406   6.424  72.499  1.00  0.00    -0.264 C  
HETATM   26  O   UNL     1     -10.451   6.155  73.537  1.00  0.00    -0.228 OA 
HETATM   27  H   UNL     1     -10.239   5.228  73.544  1.00  0.00     0.000 HD 
BRANCH  25  28
HETATM   28  C   UNL     1     -10.916   5.849  71.183  1.00  0.00    -0.327 A  
HETATM   29  C   UNL     1     -10.079   4.723  71.172  1.00  0.00    -0.261 A  
HETATM   30  C   UNL     1      -9.562   4.230  69.970  1.00  0.00    -0.274 A  
HETATM   31  C   UNL     1      -9.879   4.853  68.765  1.00  0.00    -0.231 A  
HETATM   32  C   UNL     1     -10.727   5.956  68.756  1.00  0.00    -0.354 A  
HETATM   33  C   UNL     1     -11.242   6.450  69.956  1.00  0.00    -0.475 A  
ENDBRANCH  25  28
ENDBRANCH  24  25
ENDBRANCH  22  24
ENDBRANCH  21  22
ENDBRANCH  20  21
ENDBRANCH  17  20
ENDBRANCH  11  14
ENDBRANCH   9  10
ENDBRANCH   6   9
TORSDOF 9
ENDMDL
MODEL       34
REMARK 921   NORMALIZED FREE ENERGY PREDICTED BY IDOCK:   -5.70 KCAL/MOL
REMARK 922        TOTAL FREE ENERGY PREDICTED BY IDOCK:  -11.15 KCAL/MOL
REMARK 923 INTER-LIGAND FREE ENERGY PREDICTED BY IDOCK:   -9.90 KCAL/MOL
REMARK 924 INTRA-LIGAND FREE ENERGY PREDICTED BY IDOCK:   -1.25 KCAL/MOL
REMARK 927      BINDING AFFINITY PREDICTED BY RF-SCORE:    0.00 PKD
ROOT
HETATM    1  N   UNL     1     -10.742   5.623  69.161  1.00  0.00    -0.276 NA 
HETATM    2  C   UNL     1     -10.939   6.077  70.409  1.00  0.00    -0.328 A  
HETATM    3  H1  UNL     1     -10.186   4.793  68.954  1.00  0.00     0.000 HD 
HETATM    4  H2  UNL     1     -11.166   6.130  68.386  1.00  0.00     0.000 HD 
HETATM    5  N   UNL     1     -11.652   7.142  70.675  1.00  0.00    -0.313 NA 
HETATM    6  C   UNL     1     -11.685   7.367  72.048  1.00  0.00    -0.289 A  
HETATM    7  S   UNL     1     -10.287   5.265  71.771  1.00  0.00    -0.210 SA 
HETATM    8  C   UNL     1     -10.994   6.436  72.801  1.00  0.00    -0.257 A  
ENDROOT
BRANCH   6   9
HETATM    9  C   UNL     1     -12.452   8.534  72.567  1.00  0.00    -0.358 C  
BRANCH   9  10
HETATM   10  C   UNL     1     -12.807   9.568  71.513  1.00  0.00    -0.377 C  
HETATM   11  N   UNL     1     -11.737  10.265  70.973  1.00  0.00    -0.369 N  
HETATM   12  O   UNL     1     -13.976   9.645  71.133  1.00  0.00    -0.185 OA 
HETATM   13  H   UNL     1     -10.817  10.089  71.376  1.00  0.00     0.000 HD 
BRANCH  11  14
HETATM   14  C   UNL     1     -11.806  11.197  69.916  1.00  0.00    -0.363 A  
HETATM   15  C   UNL     1     -11.661  10.837  68.577  1.00  0.00    -0.325 A  
HETATM   16  C   UNL     1     -11.619  11.806  67.574  1.00  0.00    -0.361 A  
HETATM   17  C   UNL     1     -11.737  13.163  67.889  1.00  0.00    -0.398 A  
HETATM   18  C   UNL     1     -11.994  12.547  70.230  1.00  0.00    -0.364 A  
HETATM   19  C   UNL     1     -11.946  13.524  69.226  1.00  0.00    -0.378 A  
BRANCH  17  20
HETATM   20  C   UNL     1     -11.587  14.215  66.810  1.00  0.00    -0.409 C  
BRANCH  20  21
HETATM   21  C   UNL     1     -10.177  14.325  66.204  1.00  0.00    -0.307 C  
BRANCH  21  22
HETATM   22  N   UNL     1     -10.171  13.916  64.802  1.00  0.00    -0.583 NA 
HETATM   23  H   UNL     1      -9.397  13.281  64.607  1.00  0.00     0.000 HD 
BRANCH  22  24
HETATM   24  C   UNL     1     -11.452  13.334  64.384  1.00  0.00    -0.379 C  
BRANCH  24  25
HETATM   25  C   UNL     1     -11.293  12.221  63.316  1.00  0.00    -0.336 C  
HETATM   26  O   UNL     1     -12.578  11.658  63.010  1.00  0.00    -0.950 OA 
HETATM   27  H   UNL     1     -12.480  10.976  62.356  1.00  0.00     0.000 HD 
BRANCH  25  28
HETATM   28  C   UNL     1     -10.311  11.114  63.658  1.00  0.00    -0.449 A  
HETATM   29  C   UNL     1     -10.310  10.541  64.938  1.00  0.00    -0.307 A  
HETATM   30  C   UNL     1      -9.363   9.574  65.285  1.00  0.00    -0.317 A  
HETATM   31  C   UNL     1      -8.409   9.164  64.356  1.00  0.00    -0.180 A  
HETATM   32  C   UNL     1      -8.411   9.705  63.074  1.00  0.00    -0.184 A  
HETATM   33  C   UNL     1      -9.356  10.673  62.728  1.00  0.00    -0.348 A  
ENDBRANCH  25  28
ENDBRANCH  24  25
ENDBRANCH  22  24
ENDBRANCH  21  22
ENDBRANCH  20  21
ENDBRANCH  17  20
ENDBRANCH  11  14
ENDBRANCH   9  10
ENDBRANCH   6   9
TORSDOF 9
ENDMDL
MODEL       35
REMARK 921   NORMALIZED FREE ENERGY PREDICTED BY IDOCK:   -5.69 KCAL/MOL
REMARK 922        TOTAL FREE ENERGY PREDICTED BY IDOCK:  -11.13 KCAL/MOL
REMARK 923 INTER-LIGAND FREE ENERGY PREDICTED BY IDOCK:   -9.69 KCAL/MOL
REMARK 924 INTRA-LIGAND FREE ENERGY PREDICTED BY IDOCK:   -1.44 KCAL/MOL
REMARK 927      BINDING AFFINITY PREDICTED BY RF-SCORE:    0.00 PKD
ROOT
HETATM    1  N   UNL     1     -12.605  14.687  63.678  1.00  0.00    -0.980 NA 
HETATM    2  C   UNL     1     -11.942  14.565  64.840  1.00  0.00    -0.422 A  
HETATM    3  H1  UNL     1     -12.146  14.929  62.800  1.00  0.00     0.000 HD 
HETATM    4  H2  UNL     1     -13.612  14.531  63.674  1.00  0.00     0.000 HD 
HETATM    5  N   UNL     1     -12.531  14.255  65.967  1.00  0.00    -0.423 NA 
HETATM    6  C   UNL     1     -11.597  14.196  66.996  1.00  0.00    -0.382 A  
HETATM    7  S   UNL     1     -10.244  14.782  64.928  1.00  0.00    -0.134 SA 
HETATM    8  C   UNL     1     -10.296  14.454  66.608  1.00  0.00    -0.275 A  
ENDROOT
BRANCH   6   9
HETATM    9  C   UNL     1     -12.061  13.851  68.369  1.00  0.00    -0.327 C  
BRANCH   9  10
HETATM   10  C   UNL     1     -11.886  12.388  68.740  1.00  0.00    -0.311 C  
HETATM   11  N   UNL     1     -11.698  12.131  70.089  1.00  0.00    -0.525 N  
HETATM   12  O   UNL     1     -12.027  11.537  67.861  1.00  0.00    -0.618 OA 
HETATM   13  H   UNL     1     -11.614  12.937  70.708  1.00  0.00     0.000 HD 
BRANCH  11  14
HETATM   14  C   UNL     1     -11.614  10.855  70.684  1.00  0.00    -0.242 A  
HETATM   15  C   UNL     1     -10.475  10.054  70.602  1.00  0.00    -0.211 A  
HETATM   16  C   UNL     1     -10.477   8.752  71.105  1.00  0.00    -0.315 A  
HETATM   17  C   UNL     1     -11.618   8.225  71.716  1.00  0.00    -0.356 A  
HETATM   18  C   UNL     1     -12.735  10.358  71.357  1.00  0.00    -0.551 A  
HETATM   19  C   UNL     1     -12.743   9.049  71.857  1.00  0.00    -0.450 A  
BRANCH  17  20
HETATM   20  C   UNL     1     -11.647   6.779  72.166  1.00  0.00    -0.324 C  
BRANCH  20  21
HETATM   21  C   UNL     1     -11.265   5.756  71.082  1.00  0.00    -0.141 C  
BRANCH  21  22
HETATM   22  N   UNL     1     -11.756   6.169  69.770  1.00  0.00    -0.290 NA 
HETATM   23  H   UNL     1     -12.014   7.156  69.768  1.00  0.00     0.000 HD 
BRANCH  22  24
HETATM   24  C   UNL     1     -10.802   5.870  68.696  1.00  0.00    -0.261 C  
BRANCH  24  25
HETATM   25  C   UNL     1     -11.032   6.725  67.424  1.00  0.00    -0.337 C  
HETATM   26  O   UNL     1     -11.188   5.865  66.285  1.00  0.00    -0.737 OA 
HETATM   27  H   UNL     1     -11.329   6.390  65.505  1.00  0.00     0.000 HD 
BRANCH  25  28
HETATM   28  C   UNL     1      -9.976   7.777  67.137  1.00  0.00    -0.298 A  
HETATM   29  C   UNL     1      -8.722   7.709  67.762  1.00  0.00    -0.127 A  
HETATM   30  C   UNL     1      -7.770   8.713  67.561  1.00  0.00    -0.098 A  
HETATM   31  C   UNL     1      -8.057   9.794  66.729  1.00  0.00    -0.120 A  
HETATM   32  C   UNL     1      -9.287   9.864  66.083  1.00  0.00    -0.232 A  
HETATM   33  C   UNL     1     -10.240   8.863  66.285  1.00  0.00    -0.203 A  
ENDBRANCH  25  28
ENDBRANCH  24  25
ENDBRANCH  22  24
ENDBRANCH  21  22
ENDBRANCH  20  21
ENDBRANCH  17  20
ENDBRANCH  11  14
ENDBRANCH   9  10
ENDBRANCH   6   9
TORSDOF 9
ENDMDL
MODEL       36
REMARK 921   NORMALIZED FREE ENERGY PREDICTED BY IDOCK:   -5.67 KCAL/MOL
REMARK 922        TOTAL FREE ENERGY PREDICTED BY IDOCK:  -11.10 KCAL/MOL
REMARK 923 INTER-LIGAND FREE ENERGY PREDICTED BY IDOCK:  -10.07 KCAL/MOL
REMARK 924 INTRA-LIGAND FREE ENERGY PREDICTED BY IDOCK:   -1.03 KCAL/MOL
REMARK 927      BINDING AFFINITY PREDICTED BY RF-SCORE:    0.00 PKD
ROOT
HETATM    1  N   UNL     1     -10.195  19.201  69.149  1.00  0.00    -0.541 NA 
HETATM    2  C   UNL     1     -10.306  18.638  67.934  1.00  0.00    -0.398 A  
HETATM    3  H1  UNL     1     -10.257  20.208  69.301  1.00  0.00     0.000 HD 
HETATM    4  H2  UNL     1     -10.043  18.596  69.954  1.00  0.00     0.000 HD 
HETATM    5  N   UNL     1     -10.227  17.346  67.739  1.00  0.00    -0.329 NA 
HETATM    6  C   UNL     1     -10.383  17.056  66.387  1.00  0.00    -0.303 A  
HETATM    7  S   UNL     1     -10.593  19.583  66.533  1.00  0.00    -0.464 SA 
HETATM    8  C   UNL     1     -10.595  18.158  65.582  1.00  0.00    -0.094 A  
ENDROOT
BRANCH   6   9
HETATM    9  C   UNL     1     -10.331  15.634  65.947  1.00  0.00    -0.368 C  
BRANCH   9  10
HETATM   10  C   UNL     1     -11.235  14.701  66.735  1.00  0.00    -0.344 C  
HETATM   11  N   UNL     1     -10.705  14.214  67.921  1.00  0.00    -0.238 N  
HETATM   12  O   UNL     1     -12.389  14.526  66.342  1.00  0.00    -0.350 OA 
HETATM   13  H   UNL     1      -9.736  14.453  68.129  1.00  0.00     0.000 HD 
BRANCH  11  14
HETATM   14  C   UNL     1     -11.386  13.420  68.866  1.00  0.00    -0.287 A  
HETATM   15  C   UNL     1     -11.996  13.948  70.003  1.00  0.00    -0.404 A  
HETATM   16  C   UNL     1     -12.558  13.113  70.970  1.00  0.00    -0.397 A  
HETATM   17  C   UNL     1     -12.533  11.724  70.813  1.00  0.00    -0.405 A  
HETATM   18  C   UNL     1     -11.420  12.035  68.670  1.00  0.00    -0.350 A  
HETATM   19  C   UNL     1     -11.977  11.192  69.642  1.00  0.00    -0.429 A  
BRANCH  17  20
HETATM   20  C   UNL     1     -13.050  10.820  71.913  1.00  0.00    -0.557 C  
BRANCH  20  21
HETATM   21  C   UNL     1     -12.305   9.481  72.053  1.00  0.00    -0.329 C  
BRANCH  21  22
HETATM   22  N   UNL     1     -13.214   8.411  72.456  1.00  0.00    -0.598 NA 
HETATM   23  H   UNL     1     -14.170   8.755  72.545  1.00  0.00     0.000 HD 
BRANCH  22  24
HETATM   24  C   UNL     1     -13.149   7.253  71.556  1.00  0.00    -0.384 C  
BRANCH  24  25
HETATM   25  C   UNL     1     -11.708   6.928  71.088  1.00  0.00    -0.336 C  
HETATM   26  O   UNL     1     -11.674   6.839  69.655  1.00  0.00    -0.609 OA 
HETATM   27  H   UNL     1     -10.791   6.640  69.368  1.00  0.00     0.000 HD 
BRANCH  25  28
HETATM   28  C   UNL     1     -11.079   5.689  71.698  1.00  0.00    -0.249 A  
HETATM   29  C   UNL     1     -10.374   4.784  70.890  1.00  0.00    -0.187 A  
HETATM   30  C   UNL     1      -9.855   3.603  71.428  1.00  0.00    -0.219 A  
HETATM   31  C   UNL     1     -10.029   3.314  72.780  1.00  0.00    -0.215 A  
HETATM   32  C   UNL     1     -10.706   4.212  73.599  1.00  0.00    -0.318 A  
HETATM   33  C   UNL     1     -11.227   5.391  73.062  1.00  0.00    -0.370 A  
ENDBRANCH  25  28
ENDBRANCH  24  25
ENDBRANCH  22  24
ENDBRANCH  21  22
ENDBRANCH  20  21
ENDBRANCH  17  20
ENDBRANCH  11  14
ENDBRANCH   9  10
ENDBRANCH   6   9
TORSDOF 9
ENDMDL
MODEL       37
REMARK 921   NORMALIZED FREE ENERGY PREDICTED BY IDOCK:   -5.66 KCAL/MOL
REMARK 922        TOTAL FREE ENERGY PREDICTED BY IDOCK:  -11.09 KCAL/MOL
REMARK 923 INTER-LIGAND FREE ENERGY PREDICTED BY IDOCK:   -9.11 KCAL/MOL
REMARK 924 INTRA-LIGAND FREE ENERGY PREDICTED BY IDOCK:   -1.97 KCAL/MOL
REMARK 927      BINDING AFFINITY PREDICTED BY RF-SCORE:    0.00 PKD
ROOT
HETATM    1  N   UNL     1     -11.602  16.621  63.978  1.00  0.00    -1.496 NA 
HETATM    2  C   UNL     1     -11.194  15.516  64.623  1.00  0.00    -0.371 A  
HETATM    3  H1  UNL     1     -11.135  17.523  64.071  1.00  0.00     0.000 HD 
HETATM    4  H2  UNL     1     -12.415  16.556  63.367  1.00  0.00     0.000 HD 
HETATM    5  N   UNL     1     -11.794  14.359  64.503  1.00  0.00    -0.443 NA 
HETATM    6  C   UNL     1     -11.150  13.402  65.281  1.00  0.00    -0.291 A  
HETATM    7  S   UNL     1      -9.818  15.533  65.645  1.00  0.00    -0.320 SA 
HETATM    8  C   UNL     1     -10.047  13.867  65.971  1.00  0.00    -0.313 A  
ENDROOT
BRANCH   6   9
HETATM    9  C   UNL     1     -11.673  12.007  65.283  1.00  0.00    -0.312 C  
BRANCH   9  10
HETATM   10  C   UNL     1     -10.672  10.964  65.748  1.00  0.00    -0.109 C  
HETATM   11  N   UNL     1     -10.873  10.468  67.027  1.00  0.00    -0.255 N  
HETATM   12  O   UNL     1      -9.833  10.553  64.945  1.00  0.00    -0.265 OA 
HETATM   13  H   UNL     1     -11.618  10.894  67.578  1.00  0.00     0.000 HD 
BRANCH  11  14
HETATM   14  C   UNL     1     -10.140   9.429  67.636  1.00  0.00    -0.211 A  
HETATM   15  C   UNL     1     -10.633   8.131  67.772  1.00  0.00    -0.233 A  
HETATM   16  C   UNL     1      -9.922   7.165  68.484  1.00  0.00    -0.163 A  
HETATM   17  C   UNL     1      -8.690   7.471  69.067  1.00  0.00    -0.136 A  
HETATM   18  C   UNL     1      -8.875   9.722  68.157  1.00  0.00    -0.119 A  
HETATM   19  C   UNL     1      -8.162   8.756  68.880  1.00  0.00    -0.118 A  
BRANCH  17  20
HETATM   20  C   UNL     1      -7.973   6.450  69.925  1.00  0.00    -0.116 C  
BRANCH  20  21
HETATM   21  C   UNL     1      -8.850   5.283  70.411  1.00  0.00    -0.127 C  
BRANCH  21  22
HETATM   22  N   UNL     1      -9.115   5.383  71.844  1.00  0.00    -0.138 NA 
HETATM   23  H   UNL     1      -8.387   5.919  72.316  1.00  0.00     0.000 HD 
BRANCH  22  24
HETATM   24  C   UNL     1     -10.446   5.934  72.130  1.00  0.00    -0.207 C  
BRANCH  24  25
HETATM   25  C   UNL     1     -10.393   7.331  72.800  1.00  0.00    -0.240 C  
HETATM   26  O   UNL     1     -10.691   7.208  74.199  1.00  0.00    -0.555 OA 
HETATM   27  H   UNL     1     -10.659   8.064  74.609  1.00  0.00     0.000 HD 
BRANCH  25  28
HETATM   28  C   UNL     1     -11.276   8.396  72.175  1.00  0.00    -0.431 A  
HETATM   29  C   UNL     1     -12.669   8.344  72.338  1.00  0.00    -0.346 A  
HETATM   30  C   UNL     1     -13.496   9.277  71.706  1.00  0.00    -0.483 A  
HETATM   31  C   UNL     1     -12.942  10.277  70.909  1.00  0.00    -0.456 A  
HETATM   32  C   UNL     1     -11.561  10.357  70.757  1.00  0.00    -0.450 A  
HETATM   33  C   UNL     1     -10.734   9.423  71.386  1.00  0.00    -0.407 A  
ENDBRANCH  25  28
ENDBRANCH  24  25
ENDBRANCH  22  24
ENDBRANCH  21  22
ENDBRANCH  20  21
ENDBRANCH  17  20
ENDBRANCH  11  14
ENDBRANCH   9  10
ENDBRANCH   6   9
TORSDOF 9
ENDMDL
MODEL       38
REMARK 921   NORMALIZED FREE ENERGY PREDICTED BY IDOCK:   -5.60 KCAL/MOL
REMARK 922        TOTAL FREE ENERGY PREDICTED BY IDOCK:  -10.98 KCAL/MOL
REMARK 923 INTER-LIGAND FREE ENERGY PREDICTED BY IDOCK:   -9.72 KCAL/MOL
REMARK 924 INTRA-LIGAND FREE ENERGY PREDICTED BY IDOCK:   -1.27 KCAL/MOL
REMARK 927      BINDING AFFINITY PREDICTED BY RF-SCORE:    0.00 PKD
ROOT
HETATM    1  N   UNL     1     -10.667   5.931  66.549  1.00  0.00    -0.554 NA 
HETATM    2  C   UNL     1     -10.523   5.623  67.848  1.00  0.00    -0.211 A  
HETATM    3  H1  UNL     1     -10.161   5.450  65.805  1.00  0.00     0.000 HD 
HETATM    4  H2  UNL     1     -11.311   6.679  66.294  1.00  0.00     0.000 HD 
HETATM    5  N   UNL     1     -11.173   6.241  68.803  1.00  0.00    -0.354 NA 
HETATM    6  C   UNL     1     -10.827   5.707  70.040  1.00  0.00    -0.296 A  
HETATM    7  S   UNL     1      -9.484   4.358  68.359  1.00  0.00    -0.146 SA 
HETATM    8  C   UNL     1      -9.919   4.668  69.986  1.00  0.00    -0.232 A  
ENDROOT
BRANCH   6   9
HETATM    9  C   UNL     1     -11.461   6.268  71.266  1.00  0.00    -0.352 C  
BRANCH   9  10
HETATM   10  C   UNL     1     -11.929   7.707  71.127  1.00  0.00    -0.297 C  
HETATM   11  N   UNL     1     -10.973   8.607  70.680  1.00  0.00    -0.235 N  
HETATM   12  O   UNL     1     -13.121   7.960  71.309  1.00  0.00    -0.279 OA 
HETATM   13  H   UNL     1     -10.024   8.253  70.558  1.00  0.00     0.000 HD 
BRANCH  11  14
HETATM   14  C   UNL     1     -11.194   9.966  70.380  1.00  0.00    -0.313 A  
HETATM   15  C   UNL     1     -12.067  10.772  71.109  1.00  0.00    -0.415 A  
HETATM   16  C   UNL     1     -12.343  12.080  70.706  1.00  0.00    -0.403 A  
HETATM   17  C   UNL     1     -11.739  12.617  69.566  1.00  0.00    -0.374 A  
HETATM   18  C   UNL     1     -10.532  10.521  69.279  1.00  0.00    -0.258 A  
HETATM   19  C   UNL     1     -10.813  11.831  68.867  1.00  0.00    -0.265 A  
BRANCH  17  20
HETATM   20  C   UNL     1     -12.121  13.998  69.075  1.00  0.00    -0.358 C  
BRANCH  20  21
HETATM   21  C   UNL     1     -11.414  14.443  67.783  1.00  0.00    -0.336 C  
BRANCH  21  22
HETATM   22  N   UNL     1     -12.269  14.239  66.616  1.00  0.00    -0.501 NA 
HETATM   23  H   UNL     1     -13.041  14.905  66.606  1.00  0.00     0.000 HD 
BRANCH  22  24
HETATM   24  C   UNL     1     -11.516  14.283  65.357  1.00  0.00    -0.332 C  
BRANCH  24  25
HETATM   25  C   UNL     1     -11.838  13.094  64.416  1.00  0.00    -0.388 C  
HETATM   26  O   UNL     1     -13.094  12.507  64.791  1.00  0.00    -0.853 OA 
HETATM   27  H   UNL     1     -13.291  11.778  64.214  1.00  0.00     0.000 HD 
BRANCH  25  28
HETATM   28  C   UNL     1     -10.772  12.017  64.324  1.00  0.00    -0.382 A  
HETATM   29  C   UNL     1     -10.083  11.806  63.120  1.00  0.00    -0.386 A  
HETATM   30  C   UNL     1      -9.152  10.769  63.004  1.00  0.00    -0.290 A  
HETATM   31  C   UNL     1      -8.894   9.935  64.090  1.00  0.00    -0.251 A  
HETATM   32  C   UNL     1      -9.551  10.147  65.298  1.00  0.00    -0.338 A  
HETATM   33  C   UNL     1     -10.483  11.180  65.414  1.00  0.00    -0.321 A  
ENDBRANCH  25  28
ENDBRANCH  24  25
ENDBRANCH  22  24
ENDBRANCH  21  22
ENDBRANCH  20  21
ENDBRANCH  17  20
ENDBRANCH  11  14
ENDBRANCH   9  10
ENDBRANCH   6   9
TORSDOF 9
ENDMDL
MODEL       39
REMARK 921   NORMALIZED FREE ENERGY PREDICTED BY IDOCK:   -5.59 KCAL/MOL
REMARK 922        TOTAL FREE ENERGY PREDICTED BY IDOCK:  -10.98 KCAL/MOL
REMARK 923 INTER-LIGAND FREE ENERGY PREDICTED BY IDOCK:   -8.85 KCAL/MOL
REMARK 924 INTRA-LIGAND FREE ENERGY PREDICTED BY IDOCK:   -2.13 KCAL/MOL
REMARK 927      BINDING AFFINITY PREDICTED BY RF-SCORE:    0.00 PKD
ROOT
HETATM    1  N   UNL     1     -12.344  16.070  71.613  1.00  0.00    -0.557 NA 
HETATM    2  C   UNL     1     -11.841  15.674  70.431  1.00  0.00    -0.370 A  
HETATM    3  H1  UNL     1     -11.977  16.867  72.133  1.00  0.00     0.000 HD 
HETATM    4  H2  UNL     1     -13.126  15.550  72.007  1.00  0.00     0.000 HD 
HETATM    5  N   UNL     1     -12.312  14.651  69.764  1.00  0.00    -0.294 NA 
HETATM    6  C   UNL     1     -11.601  14.484  68.580  1.00  0.00    -0.313 A  
HETATM    7  S   UNL     1     -10.546  16.513  69.684  1.00  0.00    -0.258 SA 
HETATM    8  C   UNL     1     -10.601  15.414  68.371  1.00  0.00    -0.247 A  
ENDROOT
BRANCH   6   9
HETATM    9  C   UNL     1     -11.982  13.372  67.664  1.00  0.00    -0.362 C  
BRANCH   9  10
HETATM   10  C   UNL     1     -11.778  11.984  68.247  1.00  0.00    -0.334 C  
HETATM   11  N   UNL     1     -11.627  11.928  69.625  1.00  0.00    -0.374 N  
HETATM   12  O   UNL     1     -11.865  11.011  67.497  1.00  0.00    -0.571 OA 
HETATM   13  H   UNL     1     -11.586  12.817  70.123  1.00  0.00     0.000 HD 
BRANCH  11  14
HETATM   14  C   UNL     1     -11.526  10.755  70.399  1.00  0.00    -0.307 A  
HETATM   15  C   UNL     1     -12.556  10.295  71.219  1.00  0.00    -0.522 A  
HETATM   16  C   UNL     1     -12.370   9.194  72.055  1.00  0.00    -0.448 A  
HETATM   17  C   UNL     1     -11.149   8.516  72.081  1.00  0.00    -0.436 A  
HETATM   18  C   UNL     1     -10.325  10.038  70.368  1.00  0.00    -0.268 A  
HETATM   19  C   UNL     1     -10.132   8.936  71.213  1.00  0.00    -0.365 A  
BRANCH  17  20
HETATM   20  C   UNL     1     -10.919   7.388  73.065  1.00  0.00    -0.422 C  
BRANCH  20  21
HETATM   21  C   UNL     1     -11.535   6.038  72.658  1.00  0.00    -0.253 C  
BRANCH  21  22
HETATM   22  N   UNL     1     -10.568   4.953  72.794  1.00  0.00    -0.207 NA 
HETATM   23  H   UNL     1     -11.030   4.044  72.782  1.00  0.00     0.000 HD 
BRANCH  22  24
HETATM   24  C   UNL     1      -9.506   5.020  71.782  1.00  0.00    -0.150 C  
BRANCH  24  25
HETATM   25  C   UNL     1     -10.004   4.672  70.356  1.00  0.00    -0.230 C  
HETATM   26  O   UNL     1      -9.377   3.460  69.908  1.00  0.00    -0.142 OA 
HETATM   27  H   UNL     1      -9.682   3.247  69.034  1.00  0.00     0.000 HD 
BRANCH  25  28
HETATM   28  C   UNL     1      -9.830   5.761  69.313  1.00  0.00    -0.220 A  
HETATM   29  C   UNL     1     -10.937   6.225  68.585  1.00  0.00    -0.423 A  
HETATM   30  C   UNL     1     -10.776   7.173  67.571  1.00  0.00    -0.344 A  
HETATM   31  C   UNL     1      -9.509   7.674  67.275  1.00  0.00    -0.185 A  
HETATM   32  C   UNL     1      -8.405   7.241  68.004  1.00  0.00    -0.123 A  
HETATM   33  C   UNL     1      -8.565   6.292  69.015  1.00  0.00    -0.123 A  
ENDBRANCH  25  28
ENDBRANCH  24  25
ENDBRANCH  22  24
ENDBRANCH  21  22
ENDBRANCH  20  21
ENDBRANCH  17  20
ENDBRANCH  11  14
ENDBRANCH   9  10
ENDBRANCH   6   9
TORSDOF 9
ENDMDL
MODEL       40
REMARK 921   NORMALIZED FREE ENERGY PREDICTED BY IDOCK:   -5.59 KCAL/MOL
REMARK 922        TOTAL FREE ENERGY PREDICTED BY IDOCK:  -10.97 KCAL/MOL
REMARK 923 INTER-LIGAND FREE ENERGY PREDICTED BY IDOCK:   -8.83 KCAL/MOL
REMARK 924 INTRA-LIGAND FREE ENERGY PREDICTED BY IDOCK:   -2.14 KCAL/MOL
REMARK 927      BINDING AFFINITY PREDICTED BY RF-SCORE:    0.00 PKD
ROOT
HETATM    1  N   UNL     1      -9.147  14.086  66.087  1.00  0.00    -0.495 NA 
HETATM    2  C   UNL     1      -9.298  15.151  66.893  1.00  0.00    -0.234 A  
HETATM    3  H1  UNL     1      -8.445  14.044  65.349  1.00  0.00     0.000 HD 
HETATM    4  H2  UNL     1      -9.763  13.285  66.220  1.00  0.00     0.000 HD 
HETATM    5  N   UNL     1     -10.200  15.205  67.840  1.00  0.00    -0.231 NA 
HETATM    6  C   UNL     1     -10.118  16.421  68.510  1.00  0.00    -0.248 A  
HETATM    7  S   UNL     1      -8.285  16.527  66.756  1.00  0.00    -0.275 SA 
HETATM    8  C   UNL     1      -9.125  17.266  68.053  1.00  0.00    -0.249 A  
ENDROOT
BRANCH   6   9
HETATM    9  C   UNL     1     -11.058  16.686  69.635  1.00  0.00    -0.146 C  
BRANCH   9  10
HETATM   10  C   UNL     1     -11.371  15.469  70.489  1.00  0.00    -0.351 C  
HETATM   11  N   UNL     1     -12.140  14.490  69.878  1.00  0.00    -0.318 N  
HETATM   12  O   UNL     1     -10.848  15.378  71.600  1.00  0.00    -0.217 OA 
HETATM   13  H   UNL     1     -12.496  14.695  68.944  1.00  0.00     0.000 HD 
BRANCH  11  14
HETATM   14  C   UNL     1     -12.473  13.236  70.429  1.00  0.00    -0.225 A  
HETATM   15  C   UNL     1     -13.233  13.095  71.590  1.00  0.00    -0.435 A  
HETATM   16  C   UNL     1     -13.440  11.840  72.164  1.00  0.00    -0.273 A  
HETATM   17  C   UNL     1     -12.901  10.691  71.580  1.00  0.00    -0.567 A  
HETATM   18  C   UNL     1     -11.991  12.082  69.801  1.00  0.00    -0.370 A  
HETATM   19  C   UNL     1     -12.190  10.821  70.379  1.00  0.00    -0.437 A  
BRANCH  17  20
HETATM   20  C   UNL     1     -13.041   9.346  72.263  1.00  0.00    -0.509 C  
BRANCH  20  21
HETATM   21  C   UNL     1     -14.182   8.464  71.726  1.00  0.00    -0.458 C  
BRANCH  21  22
HETATM   22  N   UNL     1     -13.664   7.372  70.906  1.00  0.00    -0.577 NA 
HETATM   23  H   UNL     1     -13.603   7.647  69.925  1.00  0.00     0.000 HD 
BRANCH  22  24
HETATM   24  C   UNL     1     -12.376   6.866  71.395  1.00  0.00    -0.376 C  
BRANCH  24  25
HETATM   25  C   UNL     1     -11.382   6.532  70.254  1.00  0.00    -0.395 C  
HETATM   26  O   UNL     1     -10.599   5.384  70.616  1.00  0.00    -0.263 OA 
HETATM   27  H   UNL     1      -9.989   5.179  69.916  1.00  0.00     0.000 HD 
BRANCH  25  28
HETATM   28  C   UNL     1     -10.469   7.665  69.821  1.00  0.00    -0.232 A  
HETATM   29  C   UNL     1     -10.437   8.073  68.479  1.00  0.00    -0.200 A  
HETATM   30  C   UNL     1      -9.547   9.065  68.057  1.00  0.00    -0.166 A  
HETATM   31  C   UNL     1      -8.682   9.664  68.971  1.00  0.00    -0.142 A  
HETATM   32  C   UNL     1      -8.718   9.287  70.309  1.00  0.00    -0.246 A  
HETATM   33  C   UNL     1      -9.605   8.295  70.732  1.00  0.00    -0.196 A  
ENDBRANCH  25  28
ENDBRANCH  24  25
ENDBRANCH  22  24
ENDBRANCH  21  22
ENDBRANCH  20  21
ENDBRANCH  17  20
ENDBRANCH  11  14
ENDBRANCH   9  10
ENDBRANCH   6   9
TORSDOF 9
ENDMDL
MODEL       41
REMARK 921   NORMALIZED FREE ENERGY PREDICTED BY IDOCK:   -5.57 KCAL/MOL
REMARK 922        TOTAL FREE ENERGY PREDICTED BY IDOCK:  -10.95 KCAL/MOL
REMARK 923 INTER-LIGAND FREE ENERGY PREDICTED BY IDOCK:   -9.93 KCAL/MOL
REMARK 924 INTRA-LIGAND FREE ENERGY PREDICTED BY IDOCK:   -1.02 KCAL/MOL
REMARK 927      BINDING AFFINITY PREDICTED BY RF-SCORE:    0.00 PKD
ROOT
HETATM    1  N   UNL     1      -6.805  17.198  66.630  1.00  0.00    -0.219 NA 
HETATM    2  C   UNL     1      -8.131  17.287  66.433  1.00  0.00    -0.293 A  
HETATM    3  H1  UNL     1      -6.257  17.939  67.068  1.00  0.00     0.000 HD 
HETATM    4  H2  UNL     1      -6.325  16.352  66.327  1.00  0.00     0.000 HD 
HETATM    5  N   UNL     1      -8.833  16.337  65.870  1.00  0.00    -0.421 NA 
HETATM    6  C   UNL     1     -10.173  16.706  65.805  1.00  0.00    -0.307 A  
HETATM    7  S   UNL     1      -9.019  18.664  66.940  1.00  0.00    -0.303 SA 
HETATM    8  C   UNL     1     -10.457  17.945  66.346  1.00  0.00    -0.317 A  
ENDROOT
BRANCH   6   9
HETATM    9  C   UNL     1     -11.151  15.758  65.202  1.00  0.00    -0.332 C  
BRANCH   9  10
HETATM   10  C   UNL     1     -11.659  14.691  66.156  1.00  0.00    -0.332 C  
HETATM   11  N   UNL     1     -10.981  14.592  67.361  1.00  0.00    -0.299 N  
HETATM   12  O   UNL     1     -12.680  14.070  65.857  1.00  0.00    -0.495 OA 
HETATM   13  H   UNL     1     -10.156  15.182  67.479  1.00  0.00     0.000 HD 
BRANCH  11  14
HETATM   14  C   UNL     1     -11.327  13.753  68.439  1.00  0.00    -0.293 A  
HETATM   15  C   UNL     1     -11.046  12.387  68.458  1.00  0.00    -0.296 A  
HETATM   16  C   UNL     1     -11.510  11.573  69.493  1.00  0.00    -0.378 A  
HETATM   17  C   UNL     1     -12.257  12.112  70.543  1.00  0.00    -0.392 A  
HETATM   18  C   UNL     1     -12.014  14.310  69.523  1.00  0.00    -0.384 A  
HETATM   19  C   UNL     1     -12.488  13.494  70.560  1.00  0.00    -0.373 A  
BRANCH  17  20
HETATM   20  C   UNL     1     -12.846  11.209  71.607  1.00  0.00    -0.524 C  
BRANCH  20  21
HETATM   21  C   UNL     1     -12.346   9.754  71.569  1.00  0.00    -0.405 C  
BRANCH  21  22
HETATM   22  N   UNL     1     -13.405   8.843  71.144  1.00  0.00    -0.540 NA 
HETATM   23  H   UNL     1     -13.683   9.026  70.179  1.00  0.00     0.000 HD 
BRANCH  22  24
HETATM   24  C   UNL     1     -13.040   7.433  71.330  1.00  0.00    -0.350 C  
BRANCH  24  25
HETATM   25  C   UNL     1     -11.650   7.083  70.739  1.00  0.00    -0.338 C  
HETATM   26  O   UNL     1     -11.757   6.924  69.315  1.00  0.00    -0.580 OA 
HETATM   27  H   UNL     1     -10.905   6.710  68.953  1.00  0.00     0.000 HD 
BRANCH  25  28
HETATM   28  C   UNL     1     -10.961   5.874  71.344  1.00  0.00    -0.327 A  
HETATM   29  C   UNL     1     -10.139   5.059  70.551  1.00  0.00    -0.323 A  
HETATM   30  C   UNL     1      -9.559   3.902  71.080  1.00  0.00    -0.251 A  
HETATM   31  C   UNL     1      -9.789   3.548  72.407  1.00  0.00    -0.229 A  
HETATM   32  C   UNL     1     -10.583   4.358  73.213  1.00  0.00    -0.281 A  
HETATM   33  C   UNL     1     -11.165   5.512  72.685  1.00  0.00    -0.348 A  
ENDBRANCH  25  28
ENDBRANCH  24  25
ENDBRANCH  22  24
ENDBRANCH  21  22
ENDBRANCH  20  21
ENDBRANCH  17  20
ENDBRANCH  11  14
ENDBRANCH   9  10
ENDBRANCH   6   9
TORSDOF 9
ENDMDL
MODEL       42
REMARK 921   NORMALIZED FREE ENERGY PREDICTED BY IDOCK:   -5.57 KCAL/MOL
REMARK 922        TOTAL FREE ENERGY PREDICTED BY IDOCK:  -10.95 KCAL/MOL
REMARK 923 INTER-LIGAND FREE ENERGY PREDICTED BY IDOCK:   -9.50 KCAL/MOL
REMARK 924 INTRA-LIGAND FREE ENERGY PREDICTED BY IDOCK:   -1.45 KCAL/MOL
REMARK 927      BINDING AFFINITY PREDICTED BY RF-SCORE:    0.00 PKD
ROOT
HETATM    1  N   UNL     1     -10.501  20.038  65.646  1.00  0.00    -0.401 NA 
HETATM    2  C   UNL     1     -10.353  18.792  66.126  1.00  0.00    -0.448 A  
HETATM    3  H1  UNL     1     -10.321  20.873  66.203  1.00  0.00     0.000 HD 
HETATM    4  H2  UNL     1     -10.808  20.154  64.681  1.00  0.00     0.000 HD 
HETATM    5  N   UNL     1     -10.584  17.721  65.410  1.00  0.00    -0.614 NA 
HETATM    6  C   UNL     1     -10.342  16.579  66.167  1.00  0.00    -0.334 A  
HETATM    7  S   UNL     1      -9.811  18.510  67.728  1.00  0.00    -0.327 SA 
HETATM    8  C   UNL     1      -9.909  16.822  67.456  1.00  0.00    -0.255 A  
ENDROOT
BRANCH   6   9
HETATM    9  C   UNL     1     -10.541  15.244  65.535  1.00  0.00    -0.390 C  
BRANCH   9  10
HETATM   10  C   UNL     1     -11.302  14.251  66.397  1.00  0.00    -0.343 C  
HETATM   11  N   UNL     1     -10.576  13.669  67.425  1.00  0.00    -0.258 N  
HETATM   12  O   UNL     1     -12.511  14.110  66.207  1.00  0.00    -0.466 OA 
HETATM   13  H   UNL     1      -9.581  13.889  67.472  1.00  0.00     0.000 HD 
BRANCH  11  14
HETATM   14  C   UNL     1     -11.087  12.800  68.410  1.00  0.00    -0.262 A  
HETATM   15  C   UNL     1     -11.087  11.413  68.273  1.00  0.00    -0.300 A  
HETATM   16  C   UNL     1     -11.708  10.598  69.220  1.00  0.00    -0.336 A  
HETATM   17  C   UNL     1     -12.334  11.155  70.339  1.00  0.00    -0.430 A  
HETATM   18  C   UNL     1     -11.650  13.359  69.563  1.00  0.00    -0.352 A  
HETATM   19  C   UNL     1     -12.281  12.544  70.513  1.00  0.00    -0.382 A  
BRANCH  17  20
HETATM   20  C   UNL     1     -13.095  10.274  71.309  1.00  0.00    -0.492 C  
BRANCH  20  21
HETATM   21  C   UNL     1     -12.295   9.084  71.867  1.00  0.00    -0.384 C  
BRANCH  21  22
HETATM   22  N   UNL     1     -12.603   7.855  71.142  1.00  0.00    -0.483 NA 
HETATM   23  H   UNL     1     -12.984   8.058  70.218  1.00  0.00     0.000 HD 
BRANCH  22  24
HETATM   24  C   UNL     1     -11.447   6.954  71.051  1.00  0.00    -0.314 C  
BRANCH  24  25
HETATM   25  C   UNL     1     -11.187   6.444  69.610  1.00  0.00    -0.418 C  
HETATM   26  O   UNL     1     -10.669   5.106  69.658  1.00  0.00    -0.212 OA 
HETATM   27  H   UNL     1     -10.510   4.793  68.775  1.00  0.00     0.000 HD 
BRANCH  25  28
HETATM   28  C   UNL     1     -10.286   7.316  68.754  1.00  0.00    -0.209 A  
HETATM   29  C   UNL     1      -9.237   8.040  69.342  1.00  0.00    -0.152 A  
HETATM   30  C   UNL     1      -8.449   8.903  68.574  1.00  0.00    -0.129 A  
HETATM   31  C   UNL     1      -8.696   9.049  67.211  1.00  0.00    -0.122 A  
HETATM   32  C   UNL     1      -9.717   8.320  66.609  1.00  0.00    -0.321 A  
HETATM   33  C   UNL     1     -10.507   7.461  67.375  1.00  0.00    -0.366 A  
ENDBRANCH  25  28
ENDBRANCH  24  25
ENDBRANCH  22  24
ENDBRANCH  21  22
ENDBRANCH  20  21
ENDBRANCH  17  20
ENDBRANCH  11  14
ENDBRANCH   9  10
ENDBRANCH   6   9
TORSDOF 9
ENDMDL
MODEL       43
REMARK 921   NORMALIZED FREE ENERGY PREDICTED BY IDOCK:   -5.57 KCAL/MOL
REMARK 922        TOTAL FREE ENERGY PREDICTED BY IDOCK:  -10.94 KCAL/MOL
REMARK 923 INTER-LIGAND FREE ENERGY PREDICTED BY IDOCK:   -9.94 KCAL/MOL
REMARK 924 INTRA-LIGAND FREE ENERGY PREDICTED BY IDOCK:   -1.01 KCAL/MOL
REMARK 927      BINDING AFFINITY PREDICTED BY RF-SCORE:    0.00 PKD
ROOT
HETATM    1  N   UNL     1      -9.911   4.653  69.481  1.00  0.00    -0.216 NA 
HETATM    2  C   UNL     1     -10.178   5.064  70.732  1.00  0.00    -0.229 A  
HETATM    3  H1  UNL     1      -9.567   3.718  69.266  1.00  0.00     0.000 HD 
HETATM    4  H2  UNL     1     -10.059   5.306  68.712  1.00  0.00     0.000 HD 
HETATM    5  N   UNL     1     -10.620   6.265  71.008  1.00  0.00    -0.228 NA 
HETATM    6  C   UNL     1     -10.810   6.402  72.379  1.00  0.00    -0.236 A  
HETATM    7  S   UNL     1      -9.985   4.019  72.077  1.00  0.00    -0.158 SA 
HETATM    8  C   UNL     1     -10.515   5.272  73.117  1.00  0.00    -0.212 A  
ENDROOT
BRANCH   6   9
HETATM    9  C   UNL     1     -11.316   7.700  72.908  1.00  0.00    -0.394 C  
BRANCH   9  10
HETATM   10  C   UNL     1     -11.885   8.628  71.849  1.00  0.00    -0.351 C  
HETATM   11  N   UNL     1     -10.961   9.430  71.196  1.00  0.00    -0.331 N  
HETATM   12  O   UNL     1     -13.080   8.537  71.565  1.00  0.00    -0.325 OA 
HETATM   13  H   UNL     1      -9.997   9.392  71.528  1.00  0.00     0.000 HD 
BRANCH  11  14
HETATM   14  C   UNL     1     -11.233  10.293  70.114  1.00  0.00    -0.318 A  
HETATM   15  C   UNL     1     -11.027   9.930  68.784  1.00  0.00    -0.217 A  
HETATM   16  C   UNL     1     -11.199  10.855  67.753  1.00  0.00    -0.384 A  
HETATM   17  C   UNL     1     -11.596  12.166  68.030  1.00  0.00    -0.411 A  
HETATM   18  C   UNL     1     -11.698  11.582  70.392  1.00  0.00    -0.328 A  
HETATM   19  C   UNL     1     -11.865  12.516  69.360  1.00  0.00    -0.368 A  
BRANCH  17  20
HETATM   20  C   UNL     1     -11.680  13.192  66.920  1.00  0.00    -0.441 C  
BRANCH  20  21
HETATM   21  C   UNL     1     -12.018  12.618  65.533  1.00  0.00    -0.456 C  
BRANCH  21  22
HETATM   22  N   UNL     1     -11.613  13.533  64.469  1.00  0.00    -0.365 NA 
HETATM   23  H   UNL     1     -12.422  13.986  64.046  1.00  0.00     0.000 HD 
BRANCH  22  24
HETATM   24  C   UNL     1     -10.631  14.524  64.928  1.00  0.00    -0.427 C  
BRANCH  24  25
HETATM   25  C   UNL     1     -11.229  15.946  65.079  1.00  0.00    -0.290 C  
HETATM   26  O   UNL     1     -11.355  16.557  63.785  1.00  0.00    -1.553 OA 
HETATM   27  H   UNL     1     -11.722  17.429  63.878  1.00  0.00     0.000 HD 
BRANCH  25  28
HETATM   28  C   UNL     1     -10.488  16.877  66.021  1.00  0.00    -0.297 A  
HETATM   29  C   UNL     1     -10.543  18.266  65.829  1.00  0.00    -0.205 A  
HETATM   30  C   UNL     1      -9.804  19.128  66.645  1.00  0.00    -0.415 A  
HETATM   31  C   UNL     1      -9.008  18.614  67.666  1.00  0.00    -0.291 A  
HETATM   32  C   UNL     1      -8.962  17.240  67.885  1.00  0.00    -0.235 A  
HETATM   33  C   UNL     1      -9.696  16.378  67.068  1.00  0.00    -0.253 A  
ENDBRANCH  25  28
ENDBRANCH  24  25
ENDBRANCH  22  24
ENDBRANCH  21  22
ENDBRANCH  20  21
ENDBRANCH  17  20
ENDBRANCH  11  14
ENDBRANCH   9  10
ENDBRANCH   6   9
TORSDOF 9
ENDMDL
MODEL       44
REMARK 921   NORMALIZED FREE ENERGY PREDICTED BY IDOCK:   -5.55 KCAL/MOL
REMARK 922        TOTAL FREE ENERGY PREDICTED BY IDOCK:  -10.92 KCAL/MOL
REMARK 923 INTER-LIGAND FREE ENERGY PREDICTED BY IDOCK:   -9.75 KCAL/MOL
REMARK 924 INTRA-LIGAND FREE ENERGY PREDICTED BY IDOCK:   -1.17 KCAL/MOL
REMARK 927      BINDING AFFINITY PREDICTED BY RF-SCORE:    0.00 PKD
ROOT
HETATM    1  N   UNL     1     -13.412   7.345  72.216  1.00  0.00    -0.501 NA 
HETATM    2  C   UNL     1     -12.376   6.667  71.696  1.00  0.00    -0.332 A  
HETATM    3  H1  UNL     1     -13.640   7.333  73.211  1.00  0.00     0.000 HD 
HETATM    4  H2  UNL     1     -13.998   7.895  71.590  1.00  0.00     0.000 HD 
HETATM    5  N   UNL     1     -12.084   6.682  70.420  1.00  0.00    -0.309 NA 
HETATM    6  C   UNL     1     -10.962   5.897  70.176  1.00  0.00    -0.342 A  
HETATM    7  S   UNL     1     -11.324   5.742  72.685  1.00  0.00    -0.277 SA 
HETATM    8  C   UNL     1     -10.414   5.309  71.300  1.00  0.00    -0.204 A  
ENDROOT
BRANCH   6   9
HETATM    9  C   UNL     1     -10.455   5.781  68.780  1.00  0.00    -0.312 C  
BRANCH   9  10
HETATM   10  C   UNL     1     -10.788   6.970  67.893  1.00  0.00    -0.183 C  
HETATM   11  N   UNL     1     -10.544   8.217  68.447  1.00  0.00    -0.381 N  
HETATM   12  O   UNL     1     -11.139   6.759  66.732  1.00  0.00    -0.338 OA 
HETATM   13  H   UNL     1     -10.240   8.241  69.421  1.00  0.00     0.000 HD 
BRANCH  11  14
HETATM   14  C   UNL     1     -10.677   9.456  67.787  1.00  0.00    -0.229 A  
HETATM   15  C   UNL     1      -9.999   9.764  66.608  1.00  0.00    -0.292 A  
HETATM   16  C   UNL     1     -10.071  11.042  66.053  1.00  0.00    -0.297 A  
HETATM   17  C   UNL     1     -10.837  12.041  66.659  1.00  0.00    -0.311 A  
HETATM   18  C   UNL     1     -11.501  10.430  68.360  1.00  0.00    -0.227 A  
HETATM   19  C   UNL     1     -11.570  11.718  67.809  1.00  0.00    -0.374 A  
BRANCH  17  20
HETATM   20  C   UNL     1     -10.828  13.453  66.111  1.00  0.00    -0.287 C  
BRANCH  20  21
HETATM   21  C   UNL     1      -9.850  14.413  66.811  1.00  0.00    -0.264 C  
BRANCH  21  22
HETATM   22  N   UNL     1     -10.527  15.631  67.247  1.00  0.00    -0.286 NA 
HETATM   23  H   UNL     1     -10.819  16.195  66.449  1.00  0.00     0.000 HD 
BRANCH  22  24
HETATM   24  C   UNL     1     -11.658  15.354  68.140  1.00  0.00    -0.319 C  
BRANCH  24  25
HETATM   25  C   UNL     1     -11.328  15.607  69.634  1.00  0.00    -0.329 C  
HETATM   26  O   UNL     1      -9.940  15.331  69.876  1.00  0.00    -0.399 OA 
HETATM   27  H   UNL     1      -9.738  15.487  70.791  1.00  0.00     0.000 HD 
BRANCH  25  28
HETATM   28  C   UNL     1     -12.186  14.857  70.636  1.00  0.00    -0.379 A  
HETATM   29  C   UNL     1     -12.140  13.456  70.697  1.00  0.00    -0.374 A  
HETATM   30  C   UNL     1     -12.981  12.753  71.565  1.00  0.00    -0.388 A  
HETATM   31  C   UNL     1     -13.873  13.440  72.385  1.00  0.00    -0.665 A  
HETATM   32  C   UNL     1     -13.914  14.830  72.354  1.00  0.00    -0.575 A  
HETATM   33  C   UNL     1     -13.077  15.534  71.485  1.00  0.00    -0.573 A  
ENDBRANCH  25  28
ENDBRANCH  24  25
ENDBRANCH  22  24
ENDBRANCH  21  22
ENDBRANCH  20  21
ENDBRANCH  17  20
ENDBRANCH  11  14
ENDBRANCH   9  10
ENDBRANCH   6   9
TORSDOF 9
ENDMDL
MODEL       45
REMARK 921   NORMALIZED FREE ENERGY PREDICTED BY IDOCK:   -5.54 KCAL/MOL
REMARK 922        TOTAL FREE ENERGY PREDICTED BY IDOCK:  -10.90 KCAL/MOL
REMARK 923 INTER-LIGAND FREE ENERGY PREDICTED BY IDOCK:   -9.29 KCAL/MOL
REMARK 924 INTRA-LIGAND FREE ENERGY PREDICTED BY IDOCK:   -1.61 KCAL/MOL
REMARK 927      BINDING AFFINITY PREDICTED BY RF-SCORE:    0.00 PKD
ROOT
HETATM    1  N   UNL     1      -9.076   3.916  73.285  1.00  0.00    -0.105 NA 
HETATM    2  C   UNL     1      -9.700   4.574  72.294  1.00  0.00    -0.163 A  
HETATM    3  H1  UNL     1      -8.283   3.294  73.125  1.00  0.00     0.000 HD 
HETATM    4  H2  UNL     1      -9.409   4.044  74.239  1.00  0.00     0.000 HD 
HETATM    5  N   UNL     1     -10.717   5.372  72.499  1.00  0.00    -0.226 NA 
HETATM    6  C   UNL     1     -11.152   5.913  71.293  1.00  0.00    -0.241 A  
HETATM    7  S   UNL     1      -9.184   4.436  70.664  1.00  0.00    -0.144 SA 
HETATM    8  C   UNL     1     -10.426   5.514  70.187  1.00  0.00    -0.300 A  
ENDROOT
BRANCH   6   9
HETATM    9  C   UNL     1     -12.303   6.858  71.304  1.00  0.00    -0.422 C  
BRANCH   9  10
HETATM   10  C   UNL     1     -11.913   8.320  71.447  1.00  0.00    -0.299 C  
HETATM   11  N   UNL     1     -12.837   9.236  70.969  1.00  0.00    -0.511 N  
HETATM   12  O   UNL     1     -10.880   8.597  72.058  1.00  0.00    -0.314 OA 
HETATM   13  H   UNL     1     -13.659   8.862  70.494  1.00  0.00     0.000 HD 
BRANCH  11  14
HETATM   14  C   UNL     1     -12.744  10.639  71.080  1.00  0.00    -0.422 A  
HETATM   15  C   UNL     1     -13.398  11.366  72.074  1.00  0.00    -0.388 A  
HETATM   16  C   UNL     1     -13.372  12.761  72.076  1.00  0.00    -0.565 A  
HETATM   17  C   UNL     1     -12.677  13.463  71.088  1.00  0.00    -0.411 A  
HETATM   18  C   UNL     1     -11.989  11.333  70.129  1.00  0.00    -0.452 A  
HETATM   19  C   UNL     1     -11.966  12.735  70.124  1.00  0.00    -0.371 A  
BRANCH  17  20
HETATM   20  C   UNL     1     -12.739  14.976  71.036  1.00  0.00    -0.432 C  
BRANCH  20  21
HETATM   21  C   UNL     1     -11.376  15.683  71.136  1.00  0.00    -0.393 C  
BRANCH  21  22
HETATM   22  N   UNL     1     -11.263  16.754  70.150  1.00  0.00    -0.383 NA 
HETATM   23  H   UNL     1     -10.329  17.165  70.159  1.00  0.00     0.000 HD 
BRANCH  22  24
HETATM   24  C   UNL     1     -11.634  16.313  68.800  1.00  0.00    -0.223 C  
BRANCH  24  25
HETATM   25  C   UNL     1     -10.432  15.770  67.986  1.00  0.00    -0.270 C  
HETATM   26  O   UNL     1     -10.016  16.753  67.025  1.00  0.00    -0.255 OA 
HETATM   27  H   UNL     1      -9.279  16.419  66.526  1.00  0.00     0.000 HD 
BRANCH  25  28
HETATM   28  C   UNL     1     -10.650  14.434  67.299  1.00  0.00    -0.279 A  
HETATM   29  C   UNL     1      -9.657  13.444  67.350  1.00  0.00    -0.223 A  
HETATM   30  C   UNL     1      -9.817  12.239  66.659  1.00  0.00    -0.230 A  
HETATM   31  C   UNL     1     -10.971  12.007  65.914  1.00  0.00    -0.342 A  
HETATM   32  C   UNL     1     -11.975  12.970  65.873  1.00  0.00    -0.491 A  
HETATM   33  C   UNL     1     -11.816  14.175  66.561  1.00  0.00    -0.439 A  
ENDBRANCH  25  28
ENDBRANCH  24  25
ENDBRANCH  22  24
ENDBRANCH  21  22
ENDBRANCH  20  21
ENDBRANCH  17  20
ENDBRANCH  11  14
ENDBRANCH   9  10
ENDBRANCH   6   9
TORSDOF 9
ENDMDL
MODEL       46
REMARK 921   NORMALIZED FREE ENERGY PREDICTED BY IDOCK:   -5.54 KCAL/MOL
REMARK 922        TOTAL FREE ENERGY PREDICTED BY IDOCK:  -10.90 KCAL/MOL
REMARK 923 INTER-LIGAND FREE ENERGY PREDICTED BY IDOCK:   -8.13 KCAL/MOL
REMARK 924 INTRA-LIGAND FREE ENERGY PREDICTED BY IDOCK:   -2.77 KCAL/MOL
REMARK 927      BINDING AFFINITY PREDICTED BY RF-SCORE:    0.00 PKD
ROOT
HETATM    1  N   UNL     1     -12.520  13.908  63.354  1.00  0.00    -1.110 NA 
HETATM    2  C   UNL     1     -12.071  14.189  64.588  1.00  0.00    -0.452 A  
HETATM    3  H1  UNL     1     -12.265  14.456  62.532  1.00  0.00     0.000 HD 
HETATM    4  H2  UNL     1     -13.143  13.110  63.233  1.00  0.00     0.000 HD 
HETATM    5  N   UNL     1     -12.397  13.486  65.643  1.00  0.00    -0.455 NA 
HETATM    6  C   UNL     1     -11.781  14.007  66.776  1.00  0.00    -0.407 A  
HETATM    7  S   UNL     1     -10.995  15.494  64.872  1.00  0.00    -0.386 SA 
HETATM    8  C   UNL     1     -10.975  15.105  66.540  1.00  0.00    -0.318 A  
ENDROOT
BRANCH   6   9
HETATM    9  C   UNL     1     -12.017  13.347  68.090  1.00  0.00    -0.356 C  
BRANCH   9  10
HETATM   10  C   UNL     1     -11.648  11.874  68.126  1.00  0.00    -0.334 C  
HETATM   11  N   UNL     1     -10.419  11.550  67.570  1.00  0.00    -0.193 N  
HETATM   12  O   UNL     1     -12.389  11.094  68.726  1.00  0.00    -0.539 OA 
HETATM   13  H   UNL     1      -9.903  12.304  67.117  1.00  0.00     0.000 HD 
BRANCH  11  14
HETATM   14  C   UNL     1      -9.819  10.275  67.576  1.00  0.00    -0.173 A  
HETATM   15  C   UNL     1      -8.489  10.064  67.938  1.00  0.00    -0.118 A  
HETATM   16  C   UNL     1      -7.905   8.802  67.817  1.00  0.00    -0.102 A  
HETATM   17  C   UNL     1      -8.644   7.716  67.343  1.00  0.00    -0.125 A  
HETATM   18  C   UNL     1     -10.584   9.177  67.168  1.00  0.00    -0.286 A  
HETATM   19  C   UNL     1      -9.998   7.910  67.038  1.00  0.00    -0.322 A  
BRANCH  17  20
HETATM   20  C   UNL     1      -7.977   6.375  67.117  1.00  0.00    -0.112 C  
BRANCH  20  21
HETATM   21  C   UNL     1      -8.946   5.199  66.899  1.00  0.00    -0.109 C  
BRANCH  21  22
HETATM   22  N   UNL     1      -8.955   4.302  68.051  1.00  0.00    -0.115 NA 
HETATM   23  H   UNL     1      -8.046   4.289  68.514  1.00  0.00     0.000 HD 
BRANCH  22  24
HETATM   24  C   UNL     1     -10.028   4.622  69.000  1.00  0.00    -0.116 C  
BRANCH  24  25
HETATM   25  C   UNL     1      -9.499   5.148  70.359  1.00  0.00    -0.169 C  
HETATM   26  O   UNL     1      -9.958   4.295  71.419  1.00  0.00    -0.186 OA 
HETATM   27  H   UNL     1      -9.634   4.617  72.252  1.00  0.00     0.000 HD 
BRANCH  25  28
HETATM   28  C   UNL     1      -9.829   6.594  70.680  1.00  0.00    -0.198 A  
HETATM   29  C   UNL     1     -11.131   7.081  70.491  1.00  0.00    -0.316 A  
HETATM   30  C   UNL     1     -11.428   8.429  70.714  1.00  0.00    -0.277 A  
HETATM   31  C   UNL     1     -10.429   9.305  71.133  1.00  0.00    -0.401 A  
HETATM   32  C   UNL     1      -9.138   8.833  71.348  1.00  0.00    -0.313 A  
HETATM   33  C   UNL     1      -8.840   7.488  71.123  1.00  0.00    -0.142 A  
ENDBRANCH  25  28
ENDBRANCH  24  25
ENDBRANCH  22  24
ENDBRANCH  21  22
ENDBRANCH  20  21
ENDBRANCH  17  20
ENDBRANCH  11  14
ENDBRANCH   9  10
ENDBRANCH   6   9
TORSDOF 9
ENDMDL
MODEL       47
REMARK 921   NORMALIZED FREE ENERGY PREDICTED BY IDOCK:   -5.54 KCAL/MOL
REMARK 922        TOTAL FREE ENERGY PREDICTED BY IDOCK:  -10.90 KCAL/MOL
REMARK 923 INTER-LIGAND FREE ENERGY PREDICTED BY IDOCK:   -9.38 KCAL/MOL
REMARK 924 INTRA-LIGAND FREE ENERGY PREDICTED BY IDOCK:   -1.51 KCAL/MOL
REMARK 927      BINDING AFFINITY PREDICTED BY RF-SCORE:    0.00 PKD
ROOT
HETATM    1  N   UNL     1      -9.926  20.524  66.083  1.00  0.00    -0.566 NA 
HETATM    2  C   UNL     1      -9.737  19.491  66.921  1.00  0.00    -0.356 A  
HETATM    3  H1  UNL     1      -9.197  21.205  65.869  1.00  0.00     0.000 HD 
HETATM    4  H2  UNL     1     -10.838  20.631  65.641  1.00  0.00     0.000 HD 
HETATM    5  N   UNL     1     -10.672  18.617  67.196  1.00  0.00    -0.413 NA 
HETATM    6  C   UNL     1     -10.189  17.663  68.086  1.00  0.00    -0.371 A  
HETATM    7  S   UNL     1      -8.225  19.222  67.682  1.00  0.00    -0.300 SA 
HETATM    8  C   UNL     1      -8.870  17.837  68.457  1.00  0.00    -0.283 A  
ENDROOT
BRANCH   6   9
HETATM    9  C   UNL     1     -11.097  16.568  68.527  1.00  0.00    -0.335 C  
BRANCH   9  10
HETATM   10  C   UNL     1     -10.798  15.217  67.900  1.00  0.00    -0.291 C  
HETATM   11  N   UNL     1     -10.678  14.158  68.788  1.00  0.00    -0.251 N  
HETATM   12  O   UNL     1     -10.789  15.125  66.672  1.00  0.00    -0.311 OA 
HETATM   13  H   UNL     1     -10.720  14.379  69.782  1.00  0.00     0.000 HD 
BRANCH  11  14
HETATM   14  C   UNL     1     -10.503  12.803  68.440  1.00  0.00    -0.243 A  
HETATM   15  C   UNL     1      -9.252  12.239  68.191  1.00  0.00    -0.197 A  
HETATM   16  C   UNL     1      -9.136  10.924  67.736  1.00  0.00    -0.149 A  
HETATM   17  C   UNL     1     -10.272  10.137  67.533  1.00  0.00    -0.257 A  
HETATM   18  C   UNL     1     -11.639  11.998  68.305  1.00  0.00    -0.394 A  
HETATM   19  C   UNL     1     -11.527  10.679  67.842  1.00  0.00    -0.261 A  
BRANCH  17  20
HETATM   20  C   UNL     1     -10.146   8.748  66.942  1.00  0.00    -0.348 C  
BRANCH  20  21
HETATM   21  C   UNL     1      -9.950   7.622  67.971  1.00  0.00    -0.175 C  
BRANCH  21  22
HETATM   22  N   UNL     1     -11.167   6.830  68.126  1.00  0.00    -0.554 NA 
HETATM   23  H   UNL     1     -11.294   6.194  67.338  1.00  0.00     0.000 HD 
BRANCH  22  24
HETATM   24  C   UNL     1     -11.204   6.105  69.402  1.00  0.00    -0.396 C  
BRANCH  24  25
HETATM   25  C   UNL     1     -10.814   6.989  70.614  1.00  0.00    -0.246 C  
HETATM   26  O   UNL     1     -10.394   6.155  71.705  1.00  0.00    -0.202 OA 
HETATM   27  H   UNL     1     -10.155   6.698  72.448  1.00  0.00     0.000 HD 
BRANCH  25  28
HETATM   28  C   UNL     1     -11.874   7.966  71.087  1.00  0.00    -0.307 A  
HETATM   29  C   UNL     1     -11.599   9.342  71.130  1.00  0.00    -0.397 A  
HETATM   30  C   UNL     1     -12.543  10.242  71.634  1.00  0.00    -0.534 A  
HETATM   31  C   UNL     1     -13.774   9.780  72.096  1.00  0.00    -0.350 A  
HETATM   32  C   UNL     1     -14.071   8.422  72.038  1.00  0.00    -0.495 A  
HETATM   33  C   UNL     1     -13.128   7.522  71.538  1.00  0.00    -0.402 A  
ENDBRANCH  25  28
ENDBRANCH  24  25
ENDBRANCH  22  24
ENDBRANCH  21  22
ENDBRANCH  20  21
ENDBRANCH  17  20
ENDBRANCH  11  14
ENDBRANCH   9  10
ENDBRANCH   6   9
TORSDOF 9
ENDMDL
MODEL       48
REMARK 921   NORMALIZED FREE ENERGY PREDICTED BY IDOCK:   -5.51 KCAL/MOL
REMARK 922        TOTAL FREE ENERGY PREDICTED BY IDOCK:  -10.85 KCAL/MOL
REMARK 923 INTER-LIGAND FREE ENERGY PREDICTED BY IDOCK:   -8.41 KCAL/MOL
REMARK 924 INTRA-LIGAND FREE ENERGY PREDICTED BY IDOCK:   -2.44 KCAL/MOL
REMARK 927      BINDING AFFINITY PREDICTED BY RF-SCORE:    0.00 PKD
ROOT
HETATM    1  N   UNL     1     -12.512  14.223  63.365  1.00  0.00    -1.101 NA 
HETATM    2  C   UNL     1     -11.989  14.331  64.598  1.00  0.00    -0.455 A  
HETATM    3  H1  UNL     1     -12.280  14.863  62.606  1.00  0.00     0.000 HD 
HETATM    4  H2  UNL     1     -13.172  13.469  63.181  1.00  0.00     0.000 HD 
HETATM    5  N   UNL     1     -12.288  13.510  65.573  1.00  0.00    -0.452 NA 
HETATM    6  C   UNL     1     -11.593  13.862  66.725  1.00  0.00    -0.378 A  
HETATM    7  S   UNL     1     -10.849  15.552  64.982  1.00  0.00    -0.424 SA 
HETATM    8  C   UNL     1     -10.757  14.953  66.584  1.00  0.00    -0.312 A  
ENDROOT
BRANCH   6   9
HETATM    9  C   UNL     1     -11.787  13.047  67.958  1.00  0.00    -0.391 C  
BRANCH   9  10
HETATM   10  C   UNL     1     -11.270  11.622  67.854  1.00  0.00    -0.269 C  
HETATM   11  N   UNL     1      -9.926  11.493  67.540  1.00  0.00    -0.188 N  
HETATM   12  O   UNL     1     -12.027  10.698  68.153  1.00  0.00    -0.460 OA 
HETATM   13  H   UNL     1      -9.415  12.350  67.328  1.00  0.00     0.000 HD 
BRANCH  11  14
HETATM   14  C   UNL     1      -9.201  10.285  67.487  1.00  0.00    -0.141 A  
HETATM   15  C   UNL     1      -8.422   9.821  68.546  1.00  0.00    -0.115 A  
HETATM   16  C   UNL     1      -7.630   8.681  68.408  1.00  0.00    -0.096 A  
HETATM   17  C   UNL     1      -7.610   7.967  67.206  1.00  0.00    -0.097 A  
HETATM   18  C   UNL     1      -9.240   9.537  66.306  1.00  0.00    -0.219 A  
HETATM   19  C   UNL     1      -8.439   8.395  66.161  1.00  0.00    -0.139 A  
BRANCH  17  20
HETATM   20  C   UNL     1      -6.671   6.793  67.028  1.00  0.00    -0.059 C  
BRANCH  20  21
HETATM   21  C   UNL     1      -6.771   6.085  65.665  1.00  0.00    -0.048 C  
BRANCH  21  22
HETATM   22  N   UNL     1      -7.580   4.873  65.758  1.00  0.00    -0.085 NA 
HETATM   23  H   UNL     1      -7.683   4.572  66.727  1.00  0.00     0.000 HD 
BRANCH  22  24
HETATM   24  C   UNL     1      -8.889   5.023  65.110  1.00  0.00    -0.153 C  
BRANCH  24  25
HETATM   25  C   UNL     1     -10.059   4.484  65.972  1.00  0.00    -0.259 C  
HETATM   26  O   UNL     1     -11.292   4.607  65.246  1.00  0.00    -0.980 OA 
HETATM   27  H   UNL     1     -12.008   4.277  65.775  1.00  0.00     0.000 HD 
BRANCH  25  28
HETATM   28  C   UNL     1     -10.206   5.106  67.349  1.00  0.00    -0.224 A  
HETATM   29  C   UNL     1     -10.872   6.331  67.503  1.00  0.00    -0.436 A  
HETATM   30  C   UNL     1     -10.948   6.948  68.755  1.00  0.00    -0.210 A  
HETATM   31  C   UNL     1     -10.364   6.347  69.868  1.00  0.00    -0.242 A  
HETATM   32  C   UNL     1      -9.720   5.121  69.736  1.00  0.00    -0.263 A  
HETATM   33  C   UNL     1      -9.642   4.505  68.486  1.00  0.00    -0.212 A  
ENDBRANCH  25  28
ENDBRANCH  24  25
ENDBRANCH  22  24
ENDBRANCH  21  22
ENDBRANCH  20  21
ENDBRANCH  17  20
ENDBRANCH  11  14
ENDBRANCH   9  10
ENDBRANCH   6   9
TORSDOF 9
ENDMDL
MODEL       49
REMARK 921   NORMALIZED FREE ENERGY PREDICTED BY IDOCK:   -5.51 KCAL/MOL
REMARK 922        TOTAL FREE ENERGY PREDICTED BY IDOCK:  -10.85 KCAL/MOL
REMARK 923 INTER-LIGAND FREE ENERGY PREDICTED BY IDOCK:   -9.93 KCAL/MOL
REMARK 924 INTRA-LIGAND FREE ENERGY PREDICTED BY IDOCK:   -0.92 KCAL/MOL
REMARK 927      BINDING AFFINITY PREDICTED BY RF-SCORE:    0.00 PKD
ROOT
HETATM    1  N   UNL     1     -10.321  19.826  69.671  1.00  0.00    -0.517 NA 
HETATM    2  C   UNL     1      -9.808  19.418  68.499  1.00  0.00    -0.427 A  
HETATM    3  H1  UNL     1     -10.651  20.778  69.832  1.00  0.00     0.000 HD 
HETATM    4  H2  UNL     1     -10.385  19.154  70.435  1.00  0.00     0.000 HD 
HETATM    5  N   UNL     1      -9.385  18.196  68.293  1.00  0.00    -0.294 NA 
HETATM    6  C   UNL     1      -8.914  18.066  66.990  1.00  0.00    -0.258 A  
HETATM    7  S   UNL     1      -9.694  20.477  67.155  1.00  0.00    -0.370 SA 
HETATM    8  C   UNL     1      -9.009  19.212  66.225  1.00  0.00    -0.309 A  
ENDROOT
BRANCH   6   9
HETATM    9  C   UNL     1      -8.389  16.744  66.546  1.00  0.00    -0.320 C  
BRANCH   9  10
HETATM   10  C   UNL     1      -9.341  15.583  66.775  1.00  0.00    -0.245 C  
HETATM   11  N   UNL     1      -9.325  15.038  68.050  1.00  0.00    -0.183 N  
HETATM   12  O   UNL     1     -10.125  15.277  65.876  1.00  0.00    -0.287 OA 
HETATM   13  H   UNL     1      -8.629  15.401  68.701  1.00  0.00     0.000 HD 
BRANCH  11  14
HETATM   14  C   UNL     1     -10.183  14.027  68.528  1.00  0.00    -0.237 A  
HETATM   15  C   UNL     1     -11.314  14.293  69.299  1.00  0.00    -0.322 A  
HETATM   16  C   UNL     1     -12.069  13.256  69.847  1.00  0.00    -0.377 A  
HETATM   17  C   UNL     1     -11.717  11.922  69.624  1.00  0.00    -0.413 A  
HETATM   18  C   UNL     1      -9.867  12.694  68.242  1.00  0.00    -0.227 A  
HETATM   19  C   UNL     1     -10.618  11.649  68.798  1.00  0.00    -0.241 A  
BRANCH  17  20
HETATM   20  C   UNL     1     -12.478  10.804  70.306  1.00  0.00    -0.395 C  
BRANCH  20  21
HETATM   21  C   UNL     1     -13.100  11.179  71.663  1.00  0.00    -0.424 C  
BRANCH  21  22
HETATM   22  N   UNL     1     -13.636  10.002  72.341  1.00  0.00    -0.599 NA 
HETATM   23  H   UNL     1     -14.515   9.703  71.919  1.00  0.00     0.000 HD 
BRANCH  22  24
HETATM   24  C   UNL     1     -12.671   8.897  72.391  1.00  0.00    -0.368 C  
BRANCH  24  25
HETATM   25  C   UNL     1     -13.114   7.665  71.562  1.00  0.00    -0.338 C  
HETATM   26  O   UNL     1     -14.264   7.060  72.172  1.00  0.00    -0.601 OA 
HETATM   27  H   UNL     1     -14.536   6.305  71.663  1.00  0.00     0.000 HD 
BRANCH  25  28
HETATM   28  C   UNL     1     -12.046   6.615  71.317  1.00  0.00    -0.395 A  
HETATM   29  C   UNL     1     -11.524   5.874  72.389  1.00  0.00    -0.358 A  
HETATM   30  C   UNL     1     -10.489   4.958  72.185  1.00  0.00    -0.257 A  
HETATM   31  C   UNL     1      -9.966   4.765  70.907  1.00  0.00    -0.283 A  
HETATM   32  C   UNL     1     -10.488   5.474  69.830  1.00  0.00    -0.386 A  
HETATM   33  C   UNL     1     -11.521   6.392  70.034  1.00  0.00    -0.496 A  
ENDBRANCH  25  28
ENDBRANCH  24  25
ENDBRANCH  22  24
ENDBRANCH  21  22
ENDBRANCH  20  21
ENDBRANCH  17  20
ENDBRANCH  11  14
ENDBRANCH   9  10
ENDBRANCH   6   9
TORSDOF 9
ENDMDL
MODEL       50
REMARK 921   NORMALIZED FREE ENERGY PREDICTED BY IDOCK:   -5.50 KCAL/MOL
REMARK 922        TOTAL FREE ENERGY PREDICTED BY IDOCK:  -10.84 KCAL/MOL
REMARK 923 INTER-LIGAND FREE ENERGY PREDICTED BY IDOCK:   -9.64 KCAL/MOL
REMARK 924 INTRA-LIGAND FREE ENERGY PREDICTED BY IDOCK:   -1.20 KCAL/MOL
REMARK 927      BINDING AFFINITY PREDICTED BY RF-SCORE:    0.00 PKD
ROOT
HETATM    1  N   UNL     1      -8.286  20.825  66.753  1.00  0.00    -0.563 NA 
HETATM    2  C   UNL     1      -9.150  19.802  66.864  1.00  0.00    -0.347 A  
HETATM    3  H1  UNL     1      -8.084  21.467  67.520  1.00  0.00     0.000 HD 
HETATM    4  H2  UNL     1      -7.811  20.966  65.862  1.00  0.00     0.000 HD 
HETATM    5  N   UNL     1      -9.409  18.978  65.880  1.00  0.00    -0.409 NA 
HETATM    6  C   UNL     1     -10.333  18.022  66.287  1.00  0.00    -0.382 A  
HETATM    7  S   UNL     1      -9.967  19.477  68.336  1.00  0.00    -0.461 SA 
HETATM    8  C   UNL     1     -10.746  18.141  67.600  1.00  0.00    -0.343 A  
ENDROOT
BRANCH   6   9
HETATM    9  C   UNL     1     -10.764  16.979  65.314  1.00  0.00    -0.108 C  
BRANCH   9  10
HETATM   10  C   UNL     1     -10.262  15.581  65.631  1.00  0.00    -0.376 C  
HETATM   11  N   UNL     1     -11.205  14.569  65.533  1.00  0.00    -0.325 N  
HETATM   12  O   UNL     1      -9.059  15.420  65.843  1.00  0.00    -0.311 OA 
HETATM   13  H   UNL     1     -12.166  14.848  65.336  1.00  0.00     0.000 HD 
BRANCH  11  14
HETATM   14  C   UNL     1     -10.955  13.189  65.681  1.00  0.00    -0.277 A  
HETATM   15  C   UNL     1     -10.841  12.568  66.924  1.00  0.00    -0.280 A  
HETATM   16  C   UNL     1     -10.479  11.224  67.023  1.00  0.00    -0.272 A  
HETATM   17  C   UNL     1     -10.235  10.464  65.876  1.00  0.00    -0.302 A  
HETATM   18  C   UNL     1     -10.781  12.417  64.528  1.00  0.00    -0.355 A  
HETATM   19  C   UNL     1     -10.410  11.068  64.624  1.00  0.00    -0.410 A  
BRANCH  17  20
HETATM   20  C   UNL     1      -9.742   9.037  65.992  1.00  0.00    -0.339 C  
BRANCH  20  21
HETATM   21  C   UNL     1      -9.732   8.471  67.423  1.00  0.00    -0.170 C  
BRANCH  21  22
HETATM   22  N   UNL     1     -10.901   7.631  67.667  1.00  0.00    -0.502 NA 
HETATM   23  H   UNL     1     -10.958   6.873  66.988  1.00  0.00     0.000 HD 
BRANCH  22  24
HETATM   24  C   UNL     1     -10.943   7.115  69.041  1.00  0.00    -0.089 C  
BRANCH  24  25
HETATM   25  C   UNL     1     -10.344   8.100  70.078  1.00  0.00    -0.215 C  
HETATM   26  O   UNL     1      -9.646   7.365  71.095  1.00  0.00    -0.160 OA 
HETATM   27  H   UNL     1      -9.279   7.969  71.730  1.00  0.00     0.000 HD 
BRANCH  25  28
HETATM   28  C   UNL     1     -11.327   9.062  70.719  1.00  0.00    -0.329 A  
HETATM   29  C   UNL     1     -12.303   8.588  71.608  1.00  0.00    -0.371 A  
HETATM   30  C   UNL     1     -13.259   9.455  72.146  1.00  0.00    -0.541 A  
HETATM   31  C   UNL     1     -13.249  10.806  71.806  1.00  0.00    -0.523 A  
HETATM   32  C   UNL     1     -12.274  11.296  70.944  1.00  0.00    -0.460 A  
HETATM   33  C   UNL     1     -11.320  10.431  70.404  1.00  0.00    -0.417 A  
ENDBRANCH  25  28
ENDBRANCH  24  25
ENDBRANCH  22  24
ENDBRANCH  21  22
ENDBRANCH  20  21
ENDBRANCH  17  20
ENDBRANCH  11  14
ENDBRANCH   9  10
ENDBRANCH   6   9
TORSDOF 9
ENDMDL
MODEL       51
REMARK 921   NORMALIZED FREE ENERGY PREDICTED BY IDOCK:   -5.48 KCAL/MOL
REMARK 922        TOTAL FREE ENERGY PREDICTED BY IDOCK:  -10.81 KCAL/MOL
REMARK 923 INTER-LIGAND FREE ENERGY PREDICTED BY IDOCK:   -9.96 KCAL/MOL
REMARK 924 INTRA-LIGAND FREE ENERGY PREDICTED BY IDOCK:   -0.85 KCAL/MOL
REMARK 927      BINDING AFFINITY PREDICTED BY RF-SCORE:    0.00 PKD
ROOT
HETATM    1  N   UNL     1     -12.391   6.740  72.454  1.00  0.00    -0.518 NA 
HETATM    2  C   UNL     1     -11.428   6.153  71.725  1.00  0.00    -0.285 A  
HETATM    3  H1  UNL     1     -12.476   6.618  73.464  1.00  0.00     0.000 HD 
HETATM    4  H2  UNL     1     -13.067   7.335  71.978  1.00  0.00     0.000 HD 
HETATM    5  N   UNL     1     -11.319   6.310  70.430  1.00  0.00    -0.369 NA 
HETATM    6  C   UNL     1     -10.230   5.589  69.950  1.00  0.00    -0.268 A  
HETATM    7  S   UNL     1     -10.233   5.162  72.454  1.00  0.00    -0.204 SA 
HETATM    8  C   UNL     1      -9.520   4.904  70.918  1.00  0.00    -0.165 A  
ENDROOT
BRANCH   6   9
HETATM    9  C   UNL     1      -9.924   5.636  68.493  1.00  0.00    -0.205 C  
BRANCH   9  10
HETATM   10  C   UNL     1     -10.544   6.814  67.761  1.00  0.00    -0.249 C  
HETATM   11  N   UNL     1     -10.185   8.068  68.231  1.00  0.00    -0.200 N  
HETATM   12  O   UNL     1     -11.220   6.593  66.755  1.00  0.00    -0.333 OA 
HETATM   13  H   UNL     1      -9.604   8.100  69.069  1.00  0.00     0.000 HD 
BRANCH  11  14
HETATM   14  C   UNL     1     -10.549   9.302  67.655  1.00  0.00    -0.261 A  
HETATM   15  C   UNL     1     -10.144   9.693  66.379  1.00  0.00    -0.317 A  
HETATM   16  C   UNL     1     -10.430  10.971  65.896  1.00  0.00    -0.300 A  
HETATM   17  C   UNL     1     -11.144  11.885  66.676  1.00  0.00    -0.360 A  
HETATM   18  C   UNL     1     -11.324  10.187  68.412  1.00  0.00    -0.179 A  
HETATM   19  C   UNL     1     -11.607  11.474  67.933  1.00  0.00    -0.352 A  
BRANCH  17  20
HETATM   20  C   UNL     1     -11.362  13.302  66.189  1.00  0.00    -0.335 C  
BRANCH  20  21
HETATM   21  C   UNL     1     -11.146  13.508  64.679  1.00  0.00    -0.374 C  
BRANCH  21  22
HETATM   22  N   UNL     1     -10.073  14.465  64.425  1.00  0.00    -0.561 NA 
HETATM   23  H   UNL     1     -10.285  15.048  63.615  1.00  0.00     0.000 HD 
BRANCH  22  24
HETATM   24  C   UNL     1      -9.766  15.287  65.602  1.00  0.00    -0.325 C  
BRANCH  24  25
HETATM   25  C   UNL     1     -10.649  16.558  65.702  1.00  0.00    -0.304 C  
HETATM   26  O   UNL     1     -11.054  16.970  64.388  1.00  0.00    -1.149 OA 
HETATM   27  H   UNL     1     -11.595  17.749  64.450  1.00  0.00     0.000 HD 
BRANCH  25  28
HETATM   28  C   UNL     1     -10.036  17.730  66.446  1.00  0.00    -0.357 A  
HETATM   29  C   UNL     1     -10.219  19.039  65.975  1.00  0.00    -0.462 A  
HETATM   30  C   UNL     1      -9.598  20.118  66.611  1.00  0.00    -0.547 A  
HETATM   31  C   UNL     1      -8.792  19.904  67.726  1.00  0.00    -0.390 A  
HETATM   32  C   UNL     1      -8.619  18.615  68.220  1.00  0.00    -0.347 A  
HETATM   33  C   UNL     1      -9.237  17.535  67.585  1.00  0.00    -0.243 A  
ENDBRANCH  25  28
ENDBRANCH  24  25
ENDBRANCH  22  24
ENDBRANCH  21  22
ENDBRANCH  20  21
ENDBRANCH  17  20
ENDBRANCH  11  14
ENDBRANCH   9  10
ENDBRANCH   6   9
TORSDOF 9
ENDMDL
MODEL       52
REMARK 921   NORMALIZED FREE ENERGY PREDICTED BY IDOCK:   -5.46 KCAL/MOL
REMARK 922        TOTAL FREE ENERGY PREDICTED BY IDOCK:  -10.78 KCAL/MOL
REMARK 923 INTER-LIGAND FREE ENERGY PREDICTED BY IDOCK:   -9.02 KCAL/MOL
REMARK 924 INTRA-LIGAND FREE ENERGY PREDICTED BY IDOCK:   -1.77 KCAL/MOL
REMARK 927      BINDING AFFINITY PREDICTED BY RF-SCORE:    0.00 PKD
ROOT
HETATM    1  N   UNL     1     -11.841  16.093  70.603  1.00  0.00    -0.494 NA 
HETATM    2  C   UNL     1     -12.476  15.000  71.057  1.00  0.00    -0.338 A  
HETATM    3  H1  UNL     1     -12.155  17.042  70.805  1.00  0.00     0.000 HD 
HETATM    4  H2  UNL     1     -11.007  15.968  70.029  1.00  0.00     0.000 HD 
HETATM    5  N   UNL     1     -12.073  13.782  70.798  1.00  0.00    -0.341 NA 
HETATM    6  C   UNL     1     -12.920  12.858  71.402  1.00  0.00    -0.270 A  
HETATM    7  S   UNL     1     -13.867  15.123  72.053  1.00  0.00    -0.561 SA 
HETATM    8  C   UNL     1     -13.953  13.415  72.131  1.00  0.00    -0.437 A  
ENDROOT
BRANCH   6   9
HETATM    9  C   UNL     1     -12.635  11.406  71.235  1.00  0.00    -0.480 C  
BRANCH   9  10
HETATM   10  C   UNL     1     -11.968  11.046  69.918  1.00  0.00    -0.351 C  
HETATM   11  N   UNL     1     -10.645  10.638  70.008  1.00  0.00    -0.463 N  
HETATM   12  O   UNL     1     -12.652  11.034  68.894  1.00  0.00    -0.366 OA 
HETATM   13  H   UNL     1     -10.206  10.687  70.928  1.00  0.00     0.000 HD 
BRANCH  11  14
HETATM   14  C   UNL     1      -9.852  10.163  68.944  1.00  0.00    -0.189 A  
HETATM   15  C   UNL     1     -10.310   9.228  68.016  1.00  0.00    -0.270 A  
HETATM   16  C   UNL     1      -9.454   8.698  67.049  1.00  0.00    -0.221 A  
HETATM   17  C   UNL     1      -8.119   9.104  66.980  1.00  0.00    -0.109 A  
HETATM   18  C   UNL     1      -8.536  10.625  68.835  1.00  0.00    -0.158 A  
HETATM   19  C   UNL     1      -7.672  10.090  67.870  1.00  0.00    -0.090 A  
BRANCH  17  20
HETATM   20  C   UNL     1      -7.169   8.451  65.998  1.00  0.00    -0.073 C  
BRANCH  20  21
HETATM   21  C   UNL     1      -7.769   8.168  64.609  1.00  0.00    -0.118 C  
BRANCH  21  22
HETATM   22  N   UNL     1      -7.826   9.383  63.801  1.00  0.00    -0.125 NA 
HETATM   23  H   UNL     1      -7.017   9.453  63.184  1.00  0.00     0.000 HD 
BRANCH  22  24
HETATM   24  C   UNL     1      -9.079   9.492  63.044  1.00  0.00    -0.142 C  
BRANCH  24  25
HETATM   25  C   UNL     1      -9.506  10.960  62.786  1.00  0.00    -0.333 C  
HETATM   26  O   UNL     1      -8.341  11.773  62.580  1.00  0.00    -0.614 OA 
HETATM   27  H   UNL     1      -8.603  12.673  62.421  1.00  0.00     0.000 HD 
BRANCH  25  28
HETATM   28  C   UNL     1     -10.392  11.586  63.848  1.00  0.00    -0.422 A  
HETATM   29  C   UNL     1      -9.895  11.811  65.140  1.00  0.00    -0.263 A  
HETATM   30  C   UNL     1     -10.725  12.318  66.145  1.00  0.00    -0.296 A  
HETATM   31  C   UNL     1     -12.059  12.612  65.869  1.00  0.00    -0.459 A  
HETATM   32  C   UNL     1     -12.561  12.417  64.586  1.00  0.00    -0.459 A  
HETATM   33  C   UNL     1     -11.734  11.908  63.582  1.00  0.00    -0.572 A  
ENDBRANCH  25  28
ENDBRANCH  24  25
ENDBRANCH  22  24
ENDBRANCH  21  22
ENDBRANCH  20  21
ENDBRANCH  17  20
ENDBRANCH  11  14
ENDBRANCH   9  10
ENDBRANCH   6   9
TORSDOF 9
ENDMDL
MODEL       53
REMARK 921   NORMALIZED FREE ENERGY PREDICTED BY IDOCK:   -5.42 KCAL/MOL
REMARK 922        TOTAL FREE ENERGY PREDICTED BY IDOCK:  -10.71 KCAL/MOL
REMARK 923 INTER-LIGAND FREE ENERGY PREDICTED BY IDOCK:   -9.80 KCAL/MOL
REMARK 924 INTRA-LIGAND FREE ENERGY PREDICTED BY IDOCK:   -0.92 KCAL/MOL
REMARK 927      BINDING AFFINITY PREDICTED BY RF-SCORE:    0.00 PKD
ROOT
HETATM    1  N   UNL     1     -12.895  16.056  74.341  1.00  0.00    -0.956 NA 
HETATM    2  C   UNL     1     -12.823  15.876  73.012  1.00  0.00    -0.513 A  
HETATM    3  H1  UNL     1     -13.719  15.811  74.891  1.00  0.00     0.000 HD 
HETATM    4  H2  UNL     1     -12.090  16.455  74.822  1.00  0.00     0.000 HD 
HETATM    5  N   UNL     1     -11.766  16.190  72.306  1.00  0.00    -0.493 NA 
HETATM    6  C   UNL     1     -11.978  15.889  70.965  1.00  0.00    -0.412 A  
HETATM    7  S   UNL     1     -14.121  15.183  72.131  1.00  0.00    -0.581 SA 
HETATM    8  C   UNL     1     -13.210  15.328  70.688  1.00  0.00    -0.323 A  
ENDROOT
BRANCH   6   9
HETATM    9  C   UNL     1     -10.890  16.165  69.986  1.00  0.00    -0.349 C  
BRANCH   9  10
HETATM   10  C   UNL     1     -10.750  15.119  68.894  1.00  0.00    -0.240 C  
HETATM   11  N   UNL     1     -10.459  13.834  69.328  1.00  0.00    -0.436 N  
HETATM   12  O   UNL     1     -11.003  15.441  67.732  1.00  0.00    -0.294 OA 
HETATM   13  H   UNL     1     -10.287  13.710  70.326  1.00  0.00     0.000 HD 
BRANCH  11  14
HETATM   14  C   UNL     1     -10.381  12.684  68.517  1.00  0.00    -0.221 A  
HETATM   15  C   UNL     1     -11.501  12.086  67.939  1.00  0.00    -0.396 A  
HETATM   16  C   UNL     1     -11.390  10.883  67.240  1.00  0.00    -0.230 A  
HETATM   17  C   UNL     1     -10.150  10.257  67.089  1.00  0.00    -0.259 A  
HETATM   18  C   UNL     1      -9.128  12.099  68.309  1.00  0.00    -0.191 A  
HETATM   19  C   UNL     1      -9.014  10.888  67.613  1.00  0.00    -0.140 A  
BRANCH  17  20
HETATM   20  C   UNL     1     -10.053   8.902  66.420  1.00  0.00    -0.333 C  
BRANCH  20  21
HETATM   21  C   UNL     1      -9.836   7.720  67.380  1.00  0.00    -0.175 C  
BRANCH  21  22
HETATM   22  N   UNL     1     -11.086   7.327  68.025  1.00  0.00    -0.491 NA 
HETATM   23  H   UNL     1     -11.635   6.715  67.421  1.00  0.00     0.000 HD 
BRANCH  22  24
HETATM   24  C   UNL     1     -10.869   6.715  69.341  1.00  0.00    -0.292 C  
BRANCH  24  25
HETATM   25  C   UNL     1     -11.454   7.555  70.506  1.00  0.00    -0.237 C  
HETATM   26  O   UNL     1     -11.623   8.917  70.082  1.00  0.00    -0.455 OA 
HETATM   27  H   UNL     1     -11.982   9.431  70.795  1.00  0.00     0.000 HD 
BRANCH  25  28
HETATM   28  C   UNL     1     -10.674   7.512  71.807  1.00  0.00    -0.243 A  
HETATM   29  C   UNL     1      -9.555   8.339  71.988  1.00  0.00    -0.316 A  
HETATM   30  C   UNL     1      -8.787   8.254  73.153  1.00  0.00    -0.292 A  
HETATM   31  C   UNL     1      -9.130   7.347  74.153  1.00  0.00    -0.267 A  
HETATM   32  C   UNL     1     -10.251   6.537  73.999  1.00  0.00    -0.374 A  
HETATM   33  C   UNL     1     -11.017   6.619  72.835  1.00  0.00    -0.286 A  
ENDBRANCH  25  28
ENDBRANCH  24  25
ENDBRANCH  22  24
ENDBRANCH  21  22
ENDBRANCH  20  21
ENDBRANCH  17  20
ENDBRANCH  11  14
ENDBRANCH   9  10
ENDBRANCH   6   9
TORSDOF 9
ENDMDL
MODEL       54
REMARK 921   NORMALIZED FREE ENERGY PREDICTED BY IDOCK:   -5.42 KCAL/MOL
REMARK 922        TOTAL FREE ENERGY PREDICTED BY IDOCK:  -10.71 KCAL/MOL
REMARK 923 INTER-LIGAND FREE ENERGY PREDICTED BY IDOCK:   -9.54 KCAL/MOL
REMARK 924 INTRA-LIGAND FREE ENERGY PREDICTED BY IDOCK:   -1.17 KCAL/MOL
REMARK 927      BINDING AFFINITY PREDICTED BY RF-SCORE:    0.00 PKD
ROOT
HETATM    1  N   UNL     1     -10.527   5.320  70.110  1.00  0.00    -0.286 NA 
HETATM    2  C   UNL     1     -10.720   6.221  71.088  1.00  0.00    -0.249 A  
HETATM    3  H1  UNL     1     -10.001   4.457  70.246  1.00  0.00     0.000 HD 
HETATM    4  H2  UNL     1     -10.925   5.508  69.191  1.00  0.00     0.000 HD 
HETATM    5  N   UNL     1     -11.395   7.329  70.913  1.00  0.00    -0.272 NA 
HETATM    6  C   UNL     1     -11.432   8.059  72.097  1.00  0.00    -0.335 A  
HETATM    7  S   UNL     1     -10.111   5.967  72.671  1.00  0.00    -0.182 SA 
HETATM    8  C   UNL     1     -10.785   7.463  73.162  1.00  0.00    -0.387 A  
ENDROOT
BRANCH   6   9
HETATM    9  C   UNL     1     -12.160   9.358  72.116  1.00  0.00    -0.293 C  
BRANCH   9  10
HETATM   10  C   UNL     1     -12.302  10.017  70.755  1.00  0.00    -0.303 C  
HETATM   11  N   UNL     1     -11.124  10.174  70.039  1.00  0.00    -0.286 N  
HETATM   12  O   UNL     1     -13.432  10.264  70.334  1.00  0.00    -0.099 OA 
HETATM   13  H   UNL     1     -10.257   9.912  70.509  1.00  0.00     0.000 HD 
BRANCH  11  14
HETATM   14  C   UNL     1     -11.015  10.663  68.722  1.00  0.00    -0.246 A  
HETATM   15  C   UNL     1     -11.560  11.882  68.318  1.00  0.00    -0.390 A  
HETATM   16  C   UNL     1     -11.529  12.272  66.978  1.00  0.00    -0.419 A  
HETATM   17  C   UNL     1     -10.939  11.455  66.010  1.00  0.00    -0.286 A  
HETATM   18  C   UNL     1     -10.361   9.874  67.770  1.00  0.00    -0.268 A  
HETATM   19  C   UNL     1     -10.335  10.259  66.422  1.00  0.00    -0.262 A  
BRANCH  17  20
HETATM   20  C   UNL     1     -11.001  11.834  64.545  1.00  0.00    -0.382 C  
BRANCH  20  21
HETATM   21  C   UNL     1     -12.349  12.413  64.084  1.00  0.00    -0.467 C  
BRANCH  21  22
HETATM   22  N   UNL     1     -12.182  13.744  63.506  1.00  0.00    -1.000 NA 
HETATM   23  H   UNL     1     -12.855  13.906  62.756  1.00  0.00     0.000 HD 
BRANCH  22  24
HETATM   24  C   UNL     1     -12.250  14.806  64.517  1.00  0.00    -0.428 C  
BRANCH  24  25
HETATM   25  C   UNL     1     -10.923  15.595  64.658  1.00  0.00    -0.325 C  
HETATM   26  O   UNL     1      -9.810  14.701  64.503  1.00  0.00    -0.508 OA 
HETATM   27  H   UNL     1      -8.997  15.185  64.589  1.00  0.00     0.000 HD 
BRANCH  25  28
HETATM   28  C   UNL     1     -10.766  16.399  65.935  1.00  0.00    -0.219 A  
HETATM   29  C   UNL     1     -10.635  17.795  65.880  1.00  0.00    -0.205 A  
HETATM   30  C   UNL     1     -10.416  18.537  67.044  1.00  0.00    -0.440 A  
HETATM   31  C   UNL     1     -10.330  17.895  68.277  1.00  0.00    -0.389 A  
HETATM   32  C   UNL     1     -10.482  16.514  68.352  1.00  0.00    -0.307 A  
HETATM   33  C   UNL     1     -10.698  15.772  67.190  1.00  0.00    -0.312 A  
ENDBRANCH  25  28
ENDBRANCH  24  25
ENDBRANCH  22  24
ENDBRANCH  21  22
ENDBRANCH  20  21
ENDBRANCH  17  20
ENDBRANCH  11  14
ENDBRANCH   9  10
ENDBRANCH   6   9
TORSDOF 9
ENDMDL
MODEL       55
REMARK 921   NORMALIZED FREE ENERGY PREDICTED BY IDOCK:   -5.41 KCAL/MOL
REMARK 922        TOTAL FREE ENERGY PREDICTED BY IDOCK:  -10.70 KCAL/MOL
REMARK 923 INTER-LIGAND FREE ENERGY PREDICTED BY IDOCK:   -7.70 KCAL/MOL
REMARK 924 INTRA-LIGAND FREE ENERGY PREDICTED BY IDOCK:   -3.00 KCAL/MOL
REMARK 927      BINDING AFFINITY PREDICTED BY RF-SCORE:    0.00 PKD
ROOT
HETATM    1  N   UNL     1     -11.793  11.874  66.153  1.00  0.00    -0.508 NA 
HETATM    2  C   UNL     1     -10.803  11.535  66.996  1.00  0.00    -0.273 A  
HETATM    3  H1  UNL     1     -12.775  11.677  66.344  1.00  0.00     0.000 HD 
HETATM    4  H2  UNL     1     -11.551  12.347  65.284  1.00  0.00     0.000 HD 
HETATM    5  N   UNL     1      -9.542  11.787  66.751  1.00  0.00    -0.196 NA 
HETATM    6  C   UNL     1      -8.750  11.329  67.799  1.00  0.00    -0.134 A  
HETATM    7  S   UNL     1     -11.126  10.764  68.492  1.00  0.00    -0.285 SA 
HETATM    8  C   UNL     1      -9.449  10.745  68.837  1.00  0.00    -0.181 A  
ENDROOT
BRANCH   6   9
HETATM    9  C   UNL     1      -7.274  11.521  67.721  1.00  0.00    -0.094 C  
BRANCH   9  10
HETATM   10  C   UNL     1      -6.841  12.966  67.541  1.00  0.00    -0.153 C  
HETATM   11  N   UNL     1      -7.786  13.922  67.878  1.00  0.00    -0.144 N  
HETATM   12  O   UNL     1      -5.674  13.196  67.220  1.00  0.00    -0.348 OA 
HETATM   13  H   UNL     1      -8.713  13.586  68.141  1.00  0.00     0.000 HD 
BRANCH  11  14
HETATM   14  C   UNL     1      -7.584  15.318  67.890  1.00  0.00    -0.139 A  
HETATM   15  C   UNL     1      -7.376  16.064  66.731  1.00  0.00    -0.186 A  
HETATM   16  C   UNL     1      -7.065  17.423  66.800  1.00  0.00    -0.245 A  
HETATM   17  C   UNL     1      -6.967  18.071  68.034  1.00  0.00    -0.211 A  
HETATM   18  C   UNL     1      -7.557  15.976  69.125  1.00  0.00    -0.225 A  
HETATM   19  C   UNL     1      -7.237  17.338  69.197  1.00  0.00    -0.182 A  
BRANCH  17  20
HETATM   20  C   UNL     1      -6.527  19.518  68.106  1.00  0.00    -0.270 C  
BRANCH  20  21
HETATM   21  C   UNL     1      -7.074  20.418  66.985  1.00  0.00    -0.283 C  
BRANCH  21  22
HETATM   22  N   UNL     1      -8.414  20.905  67.304  1.00  0.00    -0.494 NA 
HETATM   23  H   UNL     1      -8.477  21.915  67.178  1.00  0.00     0.000 HD 
BRANCH  22  24
HETATM   24  C   UNL     1      -9.459  20.210  66.543  1.00  0.00    -0.374 C  
BRANCH  24  25
HETATM   25  C   UNL     1     -10.510  19.518  67.447  1.00  0.00    -0.471 C  
HETATM   26  O   UNL     1     -10.238  19.821  68.824  1.00  0.00    -0.491 OA 
HETATM   27  H   UNL     1     -10.883  19.397  69.378  1.00  0.00     0.000 HD 
BRANCH  25  28
HETATM   28  C   UNL     1     -10.651  18.018  67.266  1.00  0.00    -0.358 A  
HETATM   29  C   UNL     1     -10.583  17.451  65.985  1.00  0.00    -0.210 A  
HETATM   30  C   UNL     1     -10.785  16.080  65.800  1.00  0.00    -0.310 A  
HETATM   31  C   UNL     1     -11.052  15.258  66.893  1.00  0.00    -0.288 A  
HETATM   32  C   UNL     1     -11.100  15.801  68.173  1.00  0.00    -0.341 A  
HETATM   33  C   UNL     1     -10.901  17.171  68.359  1.00  0.00    -0.309 A  
ENDBRANCH  25  28
ENDBRANCH  24  25
ENDBRANCH  22  24
ENDBRANCH  21  22
ENDBRANCH  20  21
ENDBRANCH  17  20
ENDBRANCH  11  14
ENDBRANCH   9  10
ENDBRANCH   6   9
TORSDOF 9
ENDMDL
MODEL       56
REMARK 921   NORMALIZED FREE ENERGY PREDICTED BY IDOCK:   -5.40 KCAL/MOL
REMARK 922        TOTAL FREE ENERGY PREDICTED BY IDOCK:  -10.68 KCAL/MOL
REMARK 923 INTER-LIGAND FREE ENERGY PREDICTED BY IDOCK:   -7.96 KCAL/MOL
REMARK 924 INTRA-LIGAND FREE ENERGY PREDICTED BY IDOCK:   -2.73 KCAL/MOL
REMARK 927      BINDING AFFINITY PREDICTED BY RF-SCORE:    0.00 PKD
ROOT
HETATM    1  N   UNL     1     -12.425  13.883  63.579  1.00  0.00    -1.067 NA 
HETATM    2  C   UNL     1     -11.948  14.167  64.802  1.00  0.00    -0.431 A  
HETATM    3  H1  UNL     1     -12.035  14.282  62.725  1.00  0.00     0.000 HD 
HETATM    4  H2  UNL     1     -13.212  13.240  63.501  1.00  0.00     0.000 HD 
HETATM    5  N   UNL     1     -12.448  13.655  65.899  1.00  0.00    -0.461 NA 
HETATM    6  C   UNL     1     -11.751  14.124  67.008  1.00  0.00    -0.405 A  
HETATM    7  S   UNL     1     -10.607  15.214  65.019  1.00  0.00    -0.375 SA 
HETATM    8  C   UNL     1     -10.710  14.984  66.713  1.00  0.00    -0.308 A  
ENDROOT
BRANCH   6   9
HETATM    9  C   UNL     1     -12.159  13.657  68.362  1.00  0.00    -0.312 C  
BRANCH   9  10
HETATM   10  C   UNL     1     -11.661  12.268  68.722  1.00  0.00    -0.340 C  
HETATM   11  N   UNL     1     -10.962  11.605  67.725  1.00  0.00    -0.218 N  
HETATM   12  O   UNL     1     -11.808  11.869  69.878  1.00  0.00    -0.319 OA 
HETATM   13  H   UNL     1     -10.906  12.063  66.815  1.00  0.00     0.000 HD 
BRANCH  11  14
HETATM   14  C   UNL     1     -10.321  10.356  67.854  1.00  0.00    -0.190 A  
HETATM   15  C   UNL     1     -10.759   9.207  67.196  1.00  0.00    -0.213 A  
HETATM   16  C   UNL     1     -10.165   7.969  67.444  1.00  0.00    -0.330 A  
HETATM   17  C   UNL     1      -9.106   7.854  68.349  1.00  0.00    -0.135 A  
HETATM   18  C   UNL     1      -9.216  10.260  68.707  1.00  0.00    -0.166 A  
HETATM   19  C   UNL     1      -8.622   9.016  68.964  1.00  0.00    -0.134 A  
BRANCH  17  20
HETATM   20  C   UNL     1      -8.535   6.493  68.692  1.00  0.00    -0.121 C  
BRANCH  20  21
HETATM   21  C   UNL     1      -7.408   6.510  69.739  1.00  0.00    -0.079 C  
BRANCH  21  22
HETATM   22  N   UNL     1      -7.461   5.325  70.591  1.00  0.00    -0.069 NA 
HETATM   23  H   UNL     1      -6.647   4.728  70.443  1.00  0.00     0.000 HD 
BRANCH  22  24
HETATM   24  C   UNL     1      -7.618   5.663  72.011  1.00  0.00    -0.100 C  
BRANCH  24  25
HETATM   25  C   UNL     1      -9.072   5.487  72.520  1.00  0.00    -0.136 C  
HETATM   26  O   UNL     1      -9.532   4.160  72.220  1.00  0.00    -0.123 OA 
HETATM   27  H   UNL     1     -10.422   4.052  72.533  1.00  0.00     0.000 HD 
BRANCH  25  28
HETATM   28  C   UNL     1     -10.076   6.508  72.017  1.00  0.00    -0.201 A  
HETATM   29  C   UNL     1     -11.073   6.128  71.106  1.00  0.00    -0.360 A  
HETATM   30  C   UNL     1     -11.956   7.076  70.580  1.00  0.00    -0.361 A  
HETATM   31  C   UNL     1     -11.856   8.413  70.962  1.00  0.00    -0.278 A  
HETATM   32  C   UNL     1     -10.888   8.801  71.882  1.00  0.00    -0.431 A  
HETATM   33  C   UNL     1     -10.003   7.856  72.405  1.00  0.00    -0.291 A  
ENDBRANCH  25  28
ENDBRANCH  24  25
ENDBRANCH  22  24
ENDBRANCH  21  22
ENDBRANCH  20  21
ENDBRANCH  17  20
ENDBRANCH  11  14
ENDBRANCH   9  10
ENDBRANCH   6   9
TORSDOF 9
ENDMDL
MODEL       57
REMARK 921   NORMALIZED FREE ENERGY PREDICTED BY IDOCK:   -5.39 KCAL/MOL
REMARK 922        TOTAL FREE ENERGY PREDICTED BY IDOCK:  -10.67 KCAL/MOL
REMARK 923 INTER-LIGAND FREE ENERGY PREDICTED BY IDOCK:   -9.61 KCAL/MOL
REMARK 924 INTRA-LIGAND FREE ENERGY PREDICTED BY IDOCK:   -1.07 KCAL/MOL
REMARK 927      BINDING AFFINITY PREDICTED BY RF-SCORE:    0.00 PKD
ROOT
HETATM    1  N   UNL     1     -11.430   4.358  65.191  1.00  0.00    -1.054 NA 
HETATM    2  C   UNL     1     -10.308   4.784  65.794  1.00  0.00    -0.237 A  
HETATM    3  H1  UNL     1     -12.070   3.687  65.617  1.00  0.00     0.000 HD 
HETATM    4  H2  UNL     1     -11.653   4.722  64.265  1.00  0.00     0.000 HD 
HETATM    5  N   UNL     1      -9.488   5.645  65.247  1.00  0.00     0.166 NA 
HETATM    6  C   UNL     1      -8.421   5.900  66.102  1.00  0.00    -0.132 A  
HETATM    7  S   UNL     1      -9.876   4.245  67.363  1.00  0.00    -0.067 SA 
HETATM    8  C   UNL     1      -8.472   5.223  67.305  1.00  0.00    -0.106 A  
ENDROOT
BRANCH   6   9
HETATM    9  C   UNL     1      -7.369   6.863  65.670  1.00  0.00    -0.079 C  
BRANCH   9  10
HETATM   10  C   UNL     1      -7.830   8.309  65.610  1.00  0.00    -0.104 C  
HETATM   11  N   UNL     1      -9.201   8.504  65.683  1.00  0.00    -0.388 N  
HETATM   12  O   UNL     1      -6.979   9.200  65.612  1.00  0.00    -0.079 OA 
HETATM   13  H   UNL     1      -9.789   7.671  65.690  1.00  0.00     0.000 HD 
BRANCH  11  14
HETATM   14  C   UNL     1      -9.857   9.751  65.747  1.00  0.00    -0.290 A  
HETATM   15  C   UNL     1     -10.399  10.263  66.926  1.00  0.00    -0.298 A  
HETATM   16  C   UNL     1     -11.140  11.445  66.919  1.00  0.00    -0.356 A  
HETATM   17  C   UNL     1     -11.344  12.153  65.732  1.00  0.00    -0.402 A  
HETATM   18  C   UNL     1      -9.998  10.490  64.568  1.00  0.00    -0.413 A  
HETATM   19  C   UNL     1     -10.748  11.675  64.557  1.00  0.00    -0.378 A  
BRANCH  17  20
HETATM   20  C   UNL     1     -12.235  13.377  65.713  1.00  0.00    -0.507 C  
BRANCH  20  21
HETATM   21  C   UNL     1     -11.656  14.610  66.430  1.00  0.00    -0.339 C  
BRANCH  21  22
HETATM   22  N   UNL     1     -12.256  14.783  67.750  1.00  0.00    -0.562 NA 
HETATM   23  H   UNL     1     -12.188  13.927  68.300  1.00  0.00     0.000 HD 
BRANCH  22  24
HETATM   24  C   UNL     1     -11.689  15.925  68.477  1.00  0.00    -0.292 C  
BRANCH  24  25
HETATM   25  C   UNL     1     -11.265  15.573  69.926  1.00  0.00    -0.316 C  
HETATM   26  O   UNL     1     -10.037  14.828  69.903  1.00  0.00    -0.438 OA 
HETATM   27  H   UNL     1      -9.778  14.612  70.791  1.00  0.00     0.000 HD 
BRANCH  25  28
HETATM   28  C   UNL     1     -12.300  14.836  70.756  1.00  0.00    -0.397 A  
HETATM   29  C   UNL     1     -13.358  15.540  71.352  1.00  0.00    -0.592 A  
HETATM   30  C   UNL     1     -14.274  14.883  72.179  1.00  0.00    -0.616 A  
HETATM   31  C   UNL     1     -14.148  13.516  72.416  1.00  0.00    -0.563 A  
HETATM   32  C   UNL     1     -13.119  12.799  71.813  1.00  0.00    -0.455 A  
HETATM   33  C   UNL     1     -12.202  13.455  70.989  1.00  0.00    -0.312 A  
ENDBRANCH  25  28
ENDBRANCH  24  25
ENDBRANCH  22  24
ENDBRANCH  21  22
ENDBRANCH  20  21
ENDBRANCH  17  20
ENDBRANCH  11  14
ENDBRANCH   9  10
ENDBRANCH   6   9
TORSDOF 9
ENDMDL
MODEL       58
REMARK 921   NORMALIZED FREE ENERGY PREDICTED BY IDOCK:   -5.39 KCAL/MOL
REMARK 922        TOTAL FREE ENERGY PREDICTED BY IDOCK:  -10.66 KCAL/MOL
REMARK 923 INTER-LIGAND FREE ENERGY PREDICTED BY IDOCK:   -8.18 KCAL/MOL
REMARK 924 INTRA-LIGAND FREE ENERGY PREDICTED BY IDOCK:   -2.49 KCAL/MOL
REMARK 927      BINDING AFFINITY PREDICTED BY RF-SCORE:    0.00 PKD
ROOT
HETATM    1  N   UNL     1     -11.335   4.335  65.315  1.00  0.00    -0.905 NA 
HETATM    2  C   UNL     1     -10.113   4.686  65.748  1.00  0.00    -0.244 A  
HETATM    3  H1  UNL     1     -11.494   3.563  64.668  1.00  0.00     0.000 HD 
HETATM    4  H2  UNL     1     -12.140   4.864  65.648  1.00  0.00     0.000 HD 
HETATM    5  N   UNL     1      -9.908   5.678  66.578  1.00  0.00    -0.160 NA 
HETATM    6  C   UNL     1      -8.550   5.803  66.849  1.00  0.00    -0.111 A  
HETATM    7  S   UNL     1      -8.710   3.829  65.260  1.00  0.00    -0.120 SA 
HETATM    8  C   UNL     1      -7.747   4.873  66.217  1.00  0.00    -0.092 A  
ENDROOT
BRANCH   6   9
HETATM    9  C   UNL     1      -8.100   6.874  67.782  1.00  0.00    -0.114 C  
BRANCH   9  10
HETATM   10  C   UNL     1      -8.538   8.274  67.386  1.00  0.00    -0.125 C  
HETATM   11  N   UNL     1      -9.294   8.954  68.328  1.00  0.00    -0.142 N  
HETATM   12  O   UNL     1      -8.115   8.747  66.330  1.00  0.00    -0.103 OA 
HETATM   13  H   UNL     1      -9.561   8.440  69.168  1.00  0.00     0.000 HD 
BRANCH  11  14
HETATM   14  C   UNL     1      -9.728  10.292  68.230  1.00  0.00    -0.142 A  
HETATM   15  C   UNL     1      -8.861  11.380  68.327  1.00  0.00    -0.167 A  
HETATM   16  C   UNL     1      -9.350  12.687  68.341  1.00  0.00    -0.148 A  
HETATM   17  C   UNL     1     -10.721  12.937  68.245  1.00  0.00    -0.261 A  
HETATM   18  C   UNL     1     -11.095  10.538  68.063  1.00  0.00    -0.361 A  
HETATM   19  C   UNL     1     -11.590  11.850  68.085  1.00  0.00    -0.400 A  
BRANCH  17  20
HETATM   20  C   UNL     1     -11.252  14.350  68.366  1.00  0.00    -0.294 C  
BRANCH  20  21
HETATM   21  C   UNL     1     -10.180  15.426  68.615  1.00  0.00    -0.217 C  
BRANCH  21  22
HETATM   22  N   UNL     1      -9.815  16.104  67.374  1.00  0.00    -0.235 NA 
HETATM   23  H   UNL     1      -9.030  15.639  66.918  1.00  0.00     0.000 HD 
BRANCH  22  24
HETATM   24  C   UNL     1     -10.953  16.245  66.457  1.00  0.00    -0.007 C  
BRANCH  24  25
HETATM   25  C   UNL     1     -10.630  15.781  65.014  1.00  0.00    -0.371 C  
HETATM   26  O   UNL     1     -11.332  16.607  64.072  1.00  0.00    -1.486 OA 
HETATM   27  H   UNL     1     -11.134  16.322  63.188  1.00  0.00     0.000 HD 
BRANCH  25  28
HETATM   28  C   UNL     1     -10.897  14.316  64.716  1.00  0.00    -0.420 A  
HETATM   29  C   UNL     1     -12.197  13.881  64.417  1.00  0.00    -0.449 A  
HETATM   30  C   UNL     1     -12.465  12.524  64.215  1.00  0.00    -0.520 A  
HETATM   31  C   UNL     1     -11.438  11.587  64.303  1.00  0.00    -0.271 A  
HETATM   32  C   UNL     1     -10.140  12.005  64.575  1.00  0.00    -0.293 A  
HETATM   33  C   UNL     1      -9.871  13.359  64.781  1.00  0.00    -0.021 A  
ENDBRANCH  25  28
ENDBRANCH  24  25
ENDBRANCH  22  24
ENDBRANCH  21  22
ENDBRANCH  20  21
ENDBRANCH  17  20
ENDBRANCH  11  14
ENDBRANCH   9  10
ENDBRANCH   6   9
TORSDOF 9
ENDMDL
MODEL       59
REMARK 921   NORMALIZED FREE ENERGY PREDICTED BY IDOCK:   -5.38 KCAL/MOL
REMARK 922        TOTAL FREE ENERGY PREDICTED BY IDOCK:  -10.65 KCAL/MOL
REMARK 923 INTER-LIGAND FREE ENERGY PREDICTED BY IDOCK:   -9.66 KCAL/MOL
REMARK 924 INTRA-LIGAND FREE ENERGY PREDICTED BY IDOCK:   -0.99 KCAL/MOL
REMARK 927      BINDING AFFINITY PREDICTED BY RF-SCORE:    0.00 PKD
ROOT
HETATM    1  N   UNL     1      -7.836   3.792  71.550  1.00  0.00    -0.060 NA 
HETATM    2  C   UNL     1      -8.814   4.431  72.213  1.00  0.00    -0.113 A  
HETATM    3  H1  UNL     1      -7.089   3.280  72.020  1.00  0.00     0.000 HD 
HETATM    4  H2  UNL     1      -7.840   3.821  70.531  1.00  0.00     0.000 HD 
HETATM    5  N   UNL     1      -9.772   5.088  71.610  1.00  0.00    -0.163 NA 
HETATM    6  C   UNL     1     -10.640   5.639  72.548  1.00  0.00    -0.224 A  
HETATM    7  S   UNL     1      -8.898   4.406  73.926  1.00  0.00    -0.103 SA 
HETATM    8  C   UNL     1     -10.316   5.364  73.863  1.00  0.00    -0.259 A  
ENDROOT
BRANCH   6   9
HETATM    9  C   UNL     1     -11.809   6.427  72.069  1.00  0.00    -0.382 C  
BRANCH   9  10
HETATM   10  C   UNL     1     -11.524   7.903  71.855  1.00  0.00    -0.280 C  
HETATM   11  N   UNL     1     -12.452   8.587  71.084  1.00  0.00    -0.452 N  
HETATM   12  O   UNL     1     -10.574   8.413  72.451  1.00  0.00    -0.316 OA 
HETATM   13  H   UNL     1     -13.199   8.037  70.661  1.00  0.00     0.000 HD 
BRANCH  11  14
HETATM   14  C   UNL     1     -12.455   9.974  70.831  1.00  0.00    -0.337 A  
HETATM   15  C   UNL     1     -11.818  10.547  69.731  1.00  0.00    -0.329 A  
HETATM   16  C   UNL     1     -11.749  11.933  69.583  1.00  0.00    -0.413 A  
HETATM   17  C   UNL     1     -12.330  12.781  70.530  1.00  0.00    -0.355 A  
HETATM   18  C   UNL     1     -13.099  10.816  71.745  1.00  0.00    -0.573 A  
HETATM   19  C   UNL     1     -13.024  12.209  71.604  1.00  0.00    -0.427 A  
BRANCH  17  20
HETATM   20  C   UNL     1     -12.161  14.282  70.420  1.00  0.00    -0.411 C  
BRANCH  20  21
HETATM   21  C   UNL     1     -11.335  14.753  69.210  1.00  0.00    -0.294 C  
BRANCH  21  22
HETATM   22  N   UNL     1     -12.166  14.862  68.014  1.00  0.00    -0.547 NA 
HETATM   23  H   UNL     1     -12.857  15.606  68.112  1.00  0.00     0.000 HD 
BRANCH  22  24
HETATM   24  C   UNL     1     -11.370  15.037  66.793  1.00  0.00    -0.293 C  
BRANCH  24  25
HETATM   25  C   UNL     1     -11.997  14.349  65.554  1.00  0.00    -0.358 C  
HETATM   26  O   UNL     1     -13.398  14.129  65.781  1.00  0.00    -0.677 OA 
HETATM   27  H   UNL     1     -13.783  13.708  65.021  1.00  0.00     0.000 HD 
BRANCH  25  28
HETATM   28  C   UNL     1     -11.336  13.056  65.112  1.00  0.00    -0.320 A  
HETATM   29  C   UNL     1     -11.332  12.691  63.758  1.00  0.00    -0.529 A  
HETATM   30  C   UNL     1     -10.792  11.468  63.350  1.00  0.00    -0.423 A  
HETATM   31  C   UNL     1     -10.245  10.597  64.290  1.00  0.00    -0.391 A  
HETATM   32  C   UNL     1     -10.220  10.954  65.634  1.00  0.00    -0.323 A  
HETATM   33  C   UNL     1     -10.761  12.175  66.043  1.00  0.00    -0.308 A  
ENDBRANCH  25  28
ENDBRANCH  24  25
ENDBRANCH  22  24
ENDBRANCH  21  22
ENDBRANCH  20  21
ENDBRANCH  17  20
ENDBRANCH  11  14
ENDBRANCH   9  10
ENDBRANCH   6   9
TORSDOF 9
ENDMDL
MODEL       60
REMARK 921   NORMALIZED FREE ENERGY PREDICTED BY IDOCK:   -5.37 KCAL/MOL
REMARK 922        TOTAL FREE ENERGY PREDICTED BY IDOCK:  -10.65 KCAL/MOL
REMARK 923 INTER-LIGAND FREE ENERGY PREDICTED BY IDOCK:   -9.77 KCAL/MOL
REMARK 924 INTRA-LIGAND FREE ENERGY PREDICTED BY IDOCK:   -0.87 KCAL/MOL
REMARK 927      BINDING AFFINITY PREDICTED BY RF-SCORE:    0.00 PKD
ROOT
HETATM    1  N   UNL     1      -9.507   4.278  68.934  1.00  0.00    -0.159 NA 
HETATM    2  C   UNL     1      -9.753   4.133  70.246  1.00  0.00    -0.207 A  
HETATM    3  H1  UNL     1      -9.111   3.534  68.358  1.00  0.00     0.000 HD 
HETATM    4  H2  UNL     1      -9.725   5.171  68.493  1.00  0.00     0.000 HD 
HETATM    5  N   UNL     1     -10.260   5.088  70.985  1.00  0.00    -0.223 NA 
HETATM    6  C   UNL     1     -10.408   4.650  72.297  1.00  0.00    -0.185 A  
HETATM    7  S   UNL     1      -9.444   2.655  71.057  1.00  0.00    -0.144 SA 
HETATM    8  C   UNL     1     -10.014   3.344  72.517  1.00  0.00    -0.159 A  
ENDROOT
BRANCH   6   9
HETATM    9  C   UNL     1     -10.977   5.587  73.307  1.00  0.00    -0.339 C  
BRANCH   9  10
HETATM   10  C   UNL     1     -10.913   7.051  72.908  1.00  0.00    -0.302 C  
HETATM   11  N   UNL     1     -11.768   7.432  71.884  1.00  0.00    -0.279 N  
HETATM   12  O   UNL     1     -10.208   7.813  73.571  1.00  0.00    -0.323 OA 
HETATM   13  H   UNL     1     -12.306   6.693  71.431  1.00  0.00     0.000 HD 
BRANCH  11  14
HETATM   14  C   UNL     1     -11.959   8.746  71.412  1.00  0.00    -0.310 A  
HETATM   15  C   UNL     1     -11.228   9.286  70.354  1.00  0.00    -0.290 A  
HETATM   16  C   UNL     1     -11.369  10.628  69.996  1.00  0.00    -0.400 A  
HETATM   17  C   UNL     1     -12.258  11.459  70.683  1.00  0.00    -0.484 A  
HETATM   18  C   UNL     1     -12.901   9.555  72.057  1.00  0.00    -0.499 A  
HETATM   19  C   UNL     1     -13.040  10.905  71.705  1.00  0.00    -0.564 A  
BRANCH  17  20
HETATM   20  C   UNL     1     -12.330  12.937  70.359  1.00  0.00    -0.333 C  
BRANCH  20  21
HETATM   21  C   UNL     1     -11.671  13.341  69.028  1.00  0.00    -0.322 C  
BRANCH  21  22
HETATM   22  N   UNL     1     -12.314  14.521  68.457  1.00  0.00    -0.595 NA 
HETATM   23  H   UNL     1     -13.323  14.500  68.607  1.00  0.00     0.000 HD 
BRANCH  22  24
HETATM   24  C   UNL     1     -11.731  15.772  68.958  1.00  0.00    -0.396 C  
BRANCH  24  25
HETATM   25  C   UNL     1     -10.455  16.198  68.189  1.00  0.00    -0.279 C  
HETATM   26  O   UNL     1      -9.291  15.855  68.957  1.00  0.00    -0.213 OA 
HETATM   27  H   UNL     1      -8.508  16.115  68.485  1.00  0.00     0.000 HD 
BRANCH  25  28
HETATM   28  C   UNL     1     -10.389  17.656  67.774  1.00  0.00    -0.365 A  
HETATM   29  C   UNL     1     -10.526  18.014  66.424  1.00  0.00    -0.345 A  
HETATM   30  C   UNL     1     -10.393  19.347  66.023  1.00  0.00    -0.584 A  
HETATM   31  C   UNL     1     -10.127  20.338  66.966  1.00  0.00    -0.567 A  
HETATM   32  C   UNL     1     -10.012  20.003  68.311  1.00  0.00    -0.508 A  
HETATM   33  C   UNL     1     -10.142  18.672  68.713  1.00  0.00    -0.398 A  
ENDBRANCH  25  28
ENDBRANCH  24  25
ENDBRANCH  22  24
ENDBRANCH  21  22
ENDBRANCH  20  21
ENDBRANCH  17  20
ENDBRANCH  11  14
ENDBRANCH   9  10
ENDBRANCH   6   9
TORSDOF 9
ENDMDL
MODEL       61
REMARK 921   NORMALIZED FREE ENERGY PREDICTED BY IDOCK:   -5.37 KCAL/MOL
REMARK 922        TOTAL FREE ENERGY PREDICTED BY IDOCK:  -10.63 KCAL/MOL
REMARK 923 INTER-LIGAND FREE ENERGY PREDICTED BY IDOCK:   -8.14 KCAL/MOL
REMARK 924 INTRA-LIGAND FREE ENERGY PREDICTED BY IDOCK:   -2.49 KCAL/MOL
REMARK 927      BINDING AFFINITY PREDICTED BY RF-SCORE:    0.00 PKD
ROOT
HETATM    1  N   UNL     1     -12.396  15.557  69.582  1.00  0.00    -0.565 NA 
HETATM    2  C   UNL     1     -12.903  14.750  70.529  1.00  0.00    -0.322 A  
HETATM    3  H1  UNL     1     -12.682  16.529  69.469  1.00  0.00     0.000 HD 
HETATM    4  H2  UNL     1     -11.693  15.180  68.946  1.00  0.00     0.000 HD 
HETATM    5  N   UNL     1     -12.536  13.502  70.673  1.00  0.00    -0.349 NA 
HETATM    6  C   UNL     1     -13.223  12.920  71.733  1.00  0.00    -0.384 A  
HETATM    7  S   UNL     1     -14.065  15.315  71.656  1.00  0.00    -0.544 SA 
HETATM    8  C   UNL     1     -14.098  13.766  72.386  1.00  0.00    -0.492 A  
ENDROOT
BRANCH   6   9
HETATM    9  C   UNL     1     -12.947  11.495  72.072  1.00  0.00    -0.373 C  
BRANCH   9  10
HETATM   10  C   UNL     1     -12.523  10.642  70.889  1.00  0.00    -0.397 C  
HETATM   11  N   UNL     1     -11.217  10.821  70.459  1.00  0.00    -0.446 N  
HETATM   12  O   UNL     1     -13.304   9.789  70.466  1.00  0.00    -0.088 OA 
HETATM   13  H   UNL     1     -10.676  11.557  70.912  1.00  0.00     0.000 HD 
BRANCH  11  14
HETATM   14  C   UNL     1     -10.568  10.077  69.452  1.00  0.00    -0.233 A  
HETATM   15  C   UNL     1      -9.368   9.399  69.664  1.00  0.00    -0.199 A  
HETATM   16  C   UNL     1      -8.703   8.772  68.609  1.00  0.00    -0.134 A  
HETATM   17  C   UNL     1      -9.232   8.798  67.316  1.00  0.00    -0.165 A  
HETATM   18  C   UNL     1     -11.138  10.046  68.175  1.00  0.00    -0.252 A  
HETATM   19  C   UNL     1     -10.469   9.424  67.112  1.00  0.00    -0.315 A  
BRANCH  17  20
HETATM   20  C   UNL     1      -8.455   8.207  66.159  1.00  0.00    -0.143 C  
BRANCH  20  21
HETATM   21  C   UNL     1      -8.396   6.669  66.137  1.00  0.00    -0.130 C  
BRANCH  21  22
HETATM   22  N   UNL     1      -9.690   6.096  65.775  1.00  0.00    -0.363 NA 
HETATM   23  H   UNL     1      -9.723   5.858  64.784  1.00  0.00     0.000 HD 
BRANCH  22  24
HETATM   24  C   UNL     1     -10.043   4.941  66.609  1.00  0.00    -0.249 C  
BRANCH  24  25
HETATM   25  C   UNL     1      -9.201   4.849  67.907  1.00  0.00    -0.122 C  
HETATM   26  O   UNL     1      -8.844   3.480  68.156  1.00  0.00    -0.099 OA 
HETATM   27  H   UNL     1      -8.328   3.424  68.951  1.00  0.00     0.000 HD 
BRANCH  25  28
HETATM   28  C   UNL     1      -9.832   5.452  69.148  1.00  0.00    -0.242 A  
HETATM   29  C   UNL     1      -9.170   5.383  70.383  1.00  0.00    -0.190 A  
HETATM   30  C   UNL     1      -9.776   5.870  71.545  1.00  0.00    -0.189 A  
HETATM   31  C   UNL     1     -11.047   6.437  71.487  1.00  0.00    -0.322 A  
HETATM   32  C   UNL     1     -11.707   6.534  70.266  1.00  0.00    -0.430 A  
HETATM   33  C   UNL     1     -11.104   6.046  69.105  1.00  0.00    -0.405 A  
ENDBRANCH  25  28
ENDBRANCH  24  25
ENDBRANCH  22  24
ENDBRANCH  21  22
ENDBRANCH  20  21
ENDBRANCH  17  20
ENDBRANCH  11  14
ENDBRANCH   9  10
ENDBRANCH   6   9
TORSDOF 9
ENDMDL
MODEL       62
REMARK 921   NORMALIZED FREE ENERGY PREDICTED BY IDOCK:   -5.27 KCAL/MOL
REMARK 922        TOTAL FREE ENERGY PREDICTED BY IDOCK:  -10.49 KCAL/MOL
REMARK 923 INTER-LIGAND FREE ENERGY PREDICTED BY IDOCK:   -9.32 KCAL/MOL
REMARK 924 INTRA-LIGAND FREE ENERGY PREDICTED BY IDOCK:   -1.17 KCAL/MOL
REMARK 927      BINDING AFFINITY PREDICTED BY RF-SCORE:    0.00 PKD
ROOT
HETATM    1  N   UNL     1     -11.186   4.685  65.380  1.00  0.00    -0.984 NA 
HETATM    2  C   UNL     1     -10.354   5.071  66.361  1.00  0.00    -0.294 A  
HETATM    3  H1  UNL     1     -10.888   4.574  64.410  1.00  0.00     0.000 HD 
HETATM    4  H2  UNL     1     -12.160   4.494  65.614  1.00  0.00     0.000 HD 
HETATM    5  N   UNL     1     -10.737   5.213  67.605  1.00  0.00     0.007 NA 
HETATM    6  C   UNL     1      -9.664   5.616  68.393  1.00  0.00    -0.128 A  
HETATM    7  S   UNL     1      -8.696   5.383  66.057  1.00  0.00    -0.142 SA 
HETATM    8  C   UNL     1      -8.470   5.756  67.713  1.00  0.00    -0.103 A  
ENDROOT
BRANCH   6   9
HETATM    9  C   UNL     1      -9.885   5.832  69.851  1.00  0.00    -0.234 C  
BRANCH   9  10
HETATM   10  C   UNL     1     -10.131   7.280  70.239  1.00  0.00    -0.192 C  
HETATM   11  N   UNL     1     -11.404   7.763  69.975  1.00  0.00    -0.458 N  
HETATM   12  O   UNL     1      -9.248   7.885  70.848  1.00  0.00    -0.150 OA 
HETATM   13  H   UNL     1     -12.041   7.143  69.475  1.00  0.00     0.000 HD 
BRANCH  11  14
HETATM   14  C   UNL     1     -11.897   9.034  70.334  1.00  0.00     0.011 A  
HETATM   15  C   UNL     1     -11.451  10.216  69.743  1.00  0.00    -0.288 A  
HETATM   16  C   UNL     1     -11.882  11.458  70.210  1.00  0.00    -0.438 A  
HETATM   17  C   UNL     1     -12.782  11.547  71.275  1.00  0.00    -0.469 A  
HETATM   18  C   UNL     1     -12.852   9.114  71.353  1.00  0.00    -0.376 A  
HETATM   19  C   UNL     1     -13.281  10.361  71.830  1.00  0.00    -0.535 A  
BRANCH  17  20
HETATM   20  C   UNL     1     -13.165  12.897  71.845  1.00  0.00    -0.521 C  
BRANCH  20  21
HETATM   21  C   UNL     1     -12.335  14.080  71.317  1.00  0.00    -0.355 C  
BRANCH  21  22
HETATM   22  N   UNL     1     -13.148  14.967  70.489  1.00  0.00    -0.623 NA 
HETATM   23  H   UNL     1     -13.781  15.527  71.060  1.00  0.00     0.000 HD 
BRANCH  22  24
HETATM   24  C   UNL     1     -12.333  15.818  69.614  1.00  0.00    -0.091 C  
BRANCH  24  25
HETATM   25  C   UNL     1     -11.173  15.051  68.929  1.00  0.00    -0.277 C  
HETATM   26  O   UNL     1      -9.937  15.752  69.141  1.00  0.00    -0.210 OA 
HETATM   27  H   UNL     1      -9.227  15.281  68.722  1.00  0.00     0.000 HD 
BRANCH  25  28
HETATM   28  C   UNL     1     -11.355  14.761  67.450  1.00  0.00    -0.361 A  
HETATM   29  C   UNL     1     -10.632  15.489  66.493  1.00  0.00    -0.307 A  
HETATM   30  C   UNL     1     -10.847  15.281  65.128  1.00  0.00    -0.441 A  
HETATM   31  C   UNL     1     -11.782  14.339  64.702  1.00  0.00    -0.439 A  
HETATM   32  C   UNL     1     -12.490  13.592  65.639  1.00  0.00    -0.540 A  
HETATM   33  C   UNL     1     -12.278  13.802  67.003  1.00  0.00    -0.381 A  
ENDBRANCH  25  28
ENDBRANCH  24  25
ENDBRANCH  22  24
ENDBRANCH  21  22
ENDBRANCH  20  21
ENDBRANCH  17  20
ENDBRANCH  11  14
ENDBRANCH   9  10
ENDBRANCH   6   9
TORSDOF 9
ENDMDL
MODEL       63
REMARK 921   NORMALIZED FREE ENERGY PREDICTED BY IDOCK:   -5.26 KCAL/MOL
REMARK 922        TOTAL FREE ENERGY PREDICTED BY IDOCK:  -10.47 KCAL/MOL
REMARK 923 INTER-LIGAND FREE ENERGY PREDICTED BY IDOCK:   -9.13 KCAL/MOL
REMARK 924 INTRA-LIGAND FREE ENERGY PREDICTED BY IDOCK:   -1.34 KCAL/MOL
REMARK 927      BINDING AFFINITY PREDICTED BY RF-SCORE:    0.00 PKD
ROOT
HETATM    1  N   UNL     1     -10.069  10.582  62.330  1.00  0.00    -0.746 NA 
HETATM    2  C   UNL     1      -9.526  10.223  63.505  1.00  0.00    -0.298 A  
HETATM    3  H1  UNL     1      -9.721  10.247  61.432  1.00  0.00     0.000 HD 
HETATM    4  H2  UNL     1     -10.865  11.219  62.336  1.00  0.00     0.000 HD 
HETATM    5  N   UNL     1      -9.972  10.655  64.657  1.00  0.00    -0.313 NA 
HETATM    6  C   UNL     1      -9.220  10.113  65.695  1.00  0.00    -0.187 A  
HETATM    7  S   UNL     1      -8.205   9.133  63.584  1.00  0.00    -0.182 SA 
HETATM    8  C   UNL     1      -8.214   9.257  65.292  1.00  0.00    -0.134 A  
ENDROOT
BRANCH   6   9
HETATM    9  C   UNL     1      -9.568  10.474  67.098  1.00  0.00    -0.194 C  
BRANCH   9  10
HETATM   10  C   UNL     1      -9.630  11.969  67.363  1.00  0.00    -0.176 C  
HETATM   11  N   UNL     1      -9.093  12.776  66.372  1.00  0.00    -0.411 N  
HETATM   12  O   UNL     1     -10.235  12.366  68.360  1.00  0.00    -0.220 OA 
HETATM   13  H   UNL     1      -8.633  12.308  65.591  1.00  0.00     0.000 HD 
BRANCH  11  14
HETATM   14  C   UNL     1      -9.124  14.185  66.346  1.00  0.00    -0.114 A  
HETATM   15  C   UNL     1      -8.213  14.978  67.043  1.00  0.00    -0.246 A  
HETATM   16  C   UNL     1      -8.353  16.366  67.082  1.00  0.00    -0.214 A  
HETATM   17  C   UNL     1      -9.403  16.996  66.410  1.00  0.00    -0.295 A  
HETATM   18  C   UNL     1     -10.136  14.815  65.613  1.00  0.00    -0.393 A  
HETATM   19  C   UNL     1     -10.284  16.208  65.656  1.00  0.00    -0.390 A  
BRANCH  17  20
HETATM   20  C   UNL     1      -9.610  18.491  66.541  1.00  0.00    -0.335 C  
BRANCH  20  21
HETATM   21  C   UNL     1      -9.855  18.986  67.977  1.00  0.00    -0.352 C  
BRANCH  21  22
HETATM   22  N   UNL     1     -10.897  18.203  68.635  1.00  0.00    -0.190 NA 
HETATM   23  H   UNL     1     -11.455  17.688  67.954  1.00  0.00     0.000 HD 
BRANCH  22  24
HETATM   24  C   UNL     1     -10.358  17.306  69.664  1.00  0.00     0.042 C  
BRANCH  24  25
HETATM   25  C   UNL     1     -10.994  15.893  69.631  1.00  0.00    -0.319 C  
HETATM   26  O   UNL     1     -11.897  15.794  68.519  1.00  0.00    -0.435 OA 
HETATM   27  H   UNL     1     -12.286  14.928  68.499  1.00  0.00     0.000 HD 
BRANCH  25  28
HETATM   28  C   UNL     1     -11.693  15.454  70.905  1.00  0.00    -0.395 A  
HETATM   29  C   UNL     1     -12.220  14.158  71.012  1.00  0.00    -0.432 A  
HETATM   30  C   UNL     1     -12.930  13.769  72.151  1.00  0.00    -0.437 A  
HETATM   31  C   UNL     1     -13.118  14.667  73.200  1.00  0.00    -0.580 A  
HETATM   32  C   UNL     1     -12.581  15.948  73.119  1.00  0.00    -0.622 A  
HETATM   33  C   UNL     1     -11.874  16.339  71.981  1.00  0.00    -0.568 A  
ENDBRANCH  25  28
ENDBRANCH  24  25
ENDBRANCH  22  24
ENDBRANCH  21  22
ENDBRANCH  20  21
ENDBRANCH  17  20
ENDBRANCH  11  14
ENDBRANCH   9  10
ENDBRANCH   6   9
TORSDOF 9
ENDMDL
MODEL       64
REMARK 921   NORMALIZED FREE ENERGY PREDICTED BY IDOCK:   -5.24 KCAL/MOL
REMARK 922        TOTAL FREE ENERGY PREDICTED BY IDOCK:  -10.44 KCAL/MOL
REMARK 923 INTER-LIGAND FREE ENERGY PREDICTED BY IDOCK:   -8.24 KCAL/MOL
REMARK 924 INTRA-LIGAND FREE ENERGY PREDICTED BY IDOCK:   -2.20 KCAL/MOL
REMARK 927      BINDING AFFINITY PREDICTED BY RF-SCORE:    0.00 PKD
ROOT
HETATM    1  N   UNL     1      -9.549   3.071  72.547  1.00  0.00    -0.116 NA 
HETATM    2  C   UNL     1     -10.189   4.153  72.074  1.00  0.00    -0.129 A  
HETATM    3  H1  UNL     1      -9.549   2.813  73.534  1.00  0.00     0.000 HD 
HETATM    4  H2  UNL     1      -9.041   2.480  71.890  1.00  0.00     0.000 HD 
HETATM    5  N   UNL     1     -10.189   4.484  70.808  1.00  0.00    -0.157 NA 
HETATM    6  C   UNL     1     -10.935   5.643  70.615  1.00  0.00    -0.188 A  
HETATM    7  S   UNL     1     -11.092   5.181  73.108  1.00  0.00    -0.332 SA 
HETATM    8  C   UNL     1     -11.504   6.159  71.763  1.00  0.00    -0.285 A  
ENDROOT
BRANCH   6   9
HETATM    9  C   UNL     1     -11.067   6.190  69.236  1.00  0.00    -0.463 C  
BRANCH   9  10
HETATM   10  C   UNL     1     -10.275   7.463  68.989  1.00  0.00    -0.199 C  
HETATM   11  N   UNL     1     -10.972   8.494  68.377  1.00  0.00    -0.439 N  
HETATM   12  O   UNL     1      -9.128   7.538  69.432  1.00  0.00    -0.143 OA 
HETATM   13  H   UNL     1     -11.925   8.293  68.074  1.00  0.00     0.000 HD 
BRANCH  11  14
HETATM   14  C   UNL     1     -10.483   9.794  68.137  1.00  0.00    -0.216 A  
HETATM   15  C   UNL     1      -9.379  10.052  67.325  1.00  0.00    -0.170 A  
HETATM   16  C   UNL     1      -8.859  11.342  67.209  1.00  0.00    -0.150 A  
HETATM   17  C   UNL     1      -9.444  12.410  67.894  1.00  0.00    -0.198 A  
HETATM   18  C   UNL     1     -11.114  10.870  68.770  1.00  0.00    -0.310 A  
HETATM   19  C   UNL     1     -10.591  12.166  68.662  1.00  0.00    -0.248 A  
BRANCH  17  20
HETATM   20  C   UNL     1      -8.814  13.787  67.847  1.00  0.00    -0.186 C  
BRANCH  20  21
HETATM   21  C   UNL     1      -9.776  14.949  68.149  1.00  0.00    -0.214 C  
BRANCH  21  22
HETATM   22  N   UNL     1      -9.478  16.111  67.315  1.00  0.00    -0.225 NA 
HETATM   23  H   UNL     1      -8.622  15.969  66.780  1.00  0.00     0.000 HD 
BRANCH  22  24
HETATM   24  C   UNL     1     -10.598  16.472  66.438  1.00  0.00    -0.221 C  
BRANCH  24  25
HETATM   25  C   UNL     1     -10.499  15.827  65.031  1.00  0.00    -0.301 C  
HETATM   26  O   UNL     1     -11.172  16.656  64.071  1.00  0.00    -1.449 OA 
HETATM   27  H   UNL     1     -11.111  16.261  63.209  1.00  0.00     0.000 HD 
BRANCH  25  28
HETATM   28  C   UNL     1     -11.001  14.399  64.923  1.00  0.00    -0.416 A  
HETATM   29  C   UNL     1     -12.289  14.067  65.371  1.00  0.00    -0.495 A  
HETATM   30  C   UNL     1     -12.733  12.742  65.344  1.00  0.00    -0.234 A  
HETATM   31  C   UNL     1     -11.900  11.734  64.864  1.00  0.00    -0.135 A  
HETATM   32  C   UNL     1     -10.629  12.050  64.394  1.00  0.00    -0.361 A  
HETATM   33  C   UNL     1     -10.183  13.373  64.423  1.00  0.00    -0.262 A  
ENDBRANCH  25  28
ENDBRANCH  24  25
ENDBRANCH  22  24
ENDBRANCH  21  22
ENDBRANCH  20  21
ENDBRANCH  17  20
ENDBRANCH  11  14
ENDBRANCH   9  10
ENDBRANCH   6   9
TORSDOF 9
ENDMDL
MODEL       65
REMARK 921   NORMALIZED FREE ENERGY PREDICTED BY IDOCK:   -5.23 KCAL/MOL
REMARK 922        TOTAL FREE ENERGY PREDICTED BY IDOCK:  -10.42 KCAL/MOL
REMARK 923 INTER-LIGAND FREE ENERGY PREDICTED BY IDOCK:   -9.98 KCAL/MOL
REMARK 924 INTRA-LIGAND FREE ENERGY PREDICTED BY IDOCK:   -0.44 KCAL/MOL
REMARK 927      BINDING AFFINITY PREDICTED BY RF-SCORE:    0.00 PKD
ROOT
HETATM    1  N   UNL     1      -9.872   5.222  69.229  1.00  0.00    -0.169 NA 
HETATM    2  C   UNL     1     -10.527   5.641  70.324  1.00  0.00    -0.293 A  
HETATM    3  H1  UNL     1      -8.999   4.696  69.272  1.00  0.00     0.000 HD 
HETATM    4  H2  UNL     1     -10.265   5.439  68.314  1.00  0.00     0.000 HD 
HETATM    5  N   UNL     1     -11.648   6.316  70.269  1.00  0.00    -0.374 NA 
HETATM    6  C   UNL     1     -12.095   6.608  71.554  1.00  0.00    -0.355 A  
HETATM    7  S   UNL     1      -9.950   5.292  71.901  1.00  0.00    -0.193 SA 
HETATM    8  C   UNL     1     -11.291   6.122  72.568  1.00  0.00    -0.286 A  
ENDROOT
BRANCH   6   9
HETATM    9  C   UNL     1     -13.364   7.370  71.717  1.00  0.00    -0.373 C  
BRANCH   9  10
HETATM   10  C   UNL     1     -13.194   8.879  71.706  1.00  0.00    -0.378 C  
HETATM   11  N   UNL     1     -12.444   9.391  70.658  1.00  0.00    -0.492 N  
HETATM   12  O   UNL     1     -13.805   9.548  72.541  1.00  0.00    -0.409 OA 
HETATM   13  H   UNL     1     -12.005   8.717  70.030  1.00  0.00     0.000 HD 
BRANCH  11  14
HETATM   14  C   UNL     1     -12.233  10.757  70.381  1.00  0.00    -0.349 A  
HETATM   15  C   UNL     1     -12.602  11.775  71.260  1.00  0.00    -0.401 A  
HETATM   16  C   UNL     1     -12.481  13.116  70.895  1.00  0.00    -0.407 A  
HETATM   17  C   UNL     1     -11.972  13.471  69.643  1.00  0.00    -0.397 A  
HETATM   18  C   UNL     1     -11.658  11.107  69.155  1.00  0.00    -0.393 A  
HETATM   19  C   UNL     1     -11.542  12.453  68.782  1.00  0.00    -0.373 A  
BRANCH  17  20
HETATM   20  C   UNL     1     -11.940  14.923  69.213  1.00  0.00    -0.326 C  
BRANCH  20  21
HETATM   21  C   UNL     1     -11.523  15.156  67.750  1.00  0.00    -0.318 C  
BRANCH  21  22
HETATM   22  N   UNL     1     -10.395  16.079  67.663  1.00  0.00    -0.277 NA 
HETATM   23  H   UNL     1     -10.003  16.093  66.721  1.00  0.00     0.000 HD 
BRANCH  22  24
HETATM   24  C   UNL     1     -10.744  17.432  68.112  1.00  0.00    -0.343 C  
BRANCH  24  25
HETATM   25  C   UNL     1     -10.245  18.539  67.147  1.00  0.00    -0.378 C  
HETATM   26  O   UNL     1     -10.129  18.006  65.819  1.00  0.00    -0.564 OA 
HETATM   27  H   UNL     1      -9.824  18.685  65.228  1.00  0.00     0.000 HD 
BRANCH  25  28
HETATM   28  C   UNL     1      -8.951  19.226  67.543  1.00  0.00    -0.344 A  
HETATM   29  C   UNL     1      -8.337  20.135  66.669  1.00  0.00    -0.338 A  
HETATM   30  C   UNL     1      -7.108  20.717  66.993  1.00  0.00    -0.375 A  
HETATM   31  C   UNL     1      -6.480  20.401  68.196  1.00  0.00    -0.339 A  
HETATM   32  C   UNL     1      -7.087  19.520  69.084  1.00  0.00    -0.392 A  
HETATM   33  C   UNL     1      -8.313  18.936  68.761  1.00  0.00    -0.345 A  
ENDBRANCH  25  28
ENDBRANCH  24  25
ENDBRANCH  22  24
ENDBRANCH  21  22
ENDBRANCH  20  21
ENDBRANCH  17  20
ENDBRANCH  11  14
ENDBRANCH   9  10
ENDBRANCH   6   9
TORSDOF 9
ENDMDL
MODEL       66
REMARK 921   NORMALIZED FREE ENERGY PREDICTED BY IDOCK:   -5.21 KCAL/MOL
REMARK 922        TOTAL FREE ENERGY PREDICTED BY IDOCK:  -10.39 KCAL/MOL
REMARK 923 INTER-LIGAND FREE ENERGY PREDICTED BY IDOCK:   -8.72 KCAL/MOL
REMARK 924 INTRA-LIGAND FREE ENERGY PREDICTED BY IDOCK:   -1.67 KCAL/MOL
REMARK 927      BINDING AFFINITY PREDICTED BY RF-SCORE:    0.00 PKD
ROOT
HETATM    1  N   UNL     1      -8.190  16.810  66.543  1.00  0.00    -0.261 NA 
HETATM    2  C   UNL     1      -9.336  16.386  67.100  1.00  0.00    -0.218 A  
HETATM    3  H1  UNL     1      -7.618  17.554  66.945  1.00  0.00     0.000 HD 
HETATM    4  H2  UNL     1      -7.876  16.369  65.679  1.00  0.00     0.000 HD 
HETATM    5  N   UNL     1     -10.069  15.432  66.583  1.00  0.00    -0.258 NA 
HETATM    6  C   UNL     1     -11.189  15.206  67.376  1.00  0.00    -0.323 A  
HETATM    7  S   UNL     1      -9.918  17.054  68.568  1.00  0.00    -0.312 SA 
HETATM    8  C   UNL     1     -11.267  16.000  68.504  1.00  0.00    -0.374 A  
ENDROOT
BRANCH   6   9
HETATM    9  C   UNL     1     -12.157  14.150  66.967  1.00  0.00    -0.449 C  
BRANCH   9  10
HETATM   10  C   UNL     1     -11.931  12.802  67.631  1.00  0.00    -0.273 C  
HETATM   11  N   UNL     1     -11.821  12.825  69.013  1.00  0.00    -0.305 N  
HETATM   12  O   UNL     1     -11.967  11.788  66.933  1.00  0.00    -0.605 OA 
HETATM   13  H   UNL     1     -11.822  13.741  69.463  1.00  0.00     0.000 HD 
BRANCH  11  14
HETATM   14  C   UNL     1     -11.710  11.698  69.853  1.00  0.00    -0.337 A  
HETATM   15  C   UNL     1     -10.629  10.819  69.802  1.00  0.00    -0.191 A  
HETATM   16  C   UNL     1     -10.617   9.654  70.571  1.00  0.00    -0.369 A  
HETATM   17  C   UNL     1     -11.684   9.348  71.420  1.00  0.00    -0.448 A  
HETATM   18  C   UNL     1     -12.748  11.434  70.753  1.00  0.00    -0.343 A  
HETATM   19  C   UNL     1     -12.742  10.261  71.520  1.00  0.00    -0.557 A  
BRANCH  17  20
HETATM   20  C   UNL     1     -11.712   8.033  72.171  1.00  0.00    -0.399 C  
BRANCH  20  21
HETATM   21  C   UNL     1     -10.836   6.923  71.566  1.00  0.00    -0.230 C  
BRANCH  21  22
HETATM   22  N   UNL     1     -11.561   6.180  70.538  1.00  0.00    -0.280 NA 
HETATM   23  H   UNL     1     -12.330   6.732  70.159  1.00  0.00     0.000 HD 
BRANCH  22  24
HETATM   24  C   UNL     1     -10.678   5.698  69.469  1.00  0.00    -0.310 C  
BRANCH  24  25
HETATM   25  C   UNL     1     -10.976   6.351  68.095  1.00  0.00    -0.307 C  
HETATM   26  O   UNL     1     -10.958   5.347  67.068  1.00  0.00    -0.383 OA 
HETATM   27  H   UNL     1     -11.141   5.747  66.226  1.00  0.00     0.000 HD 
BRANCH  25  28
HETATM   28  C   UNL     1     -10.074   7.507  67.703  1.00  0.00    -0.243 A  
HETATM   29  C   UNL     1     -10.528   8.484  66.804  1.00  0.00    -0.308 A  
HETATM   30  C   UNL     1      -9.679   9.511  66.380  1.00  0.00    -0.295 A  
HETATM   31  C   UNL     1      -8.370   9.578  66.853  1.00  0.00    -0.116 A  
HETATM   32  C   UNL     1      -7.913   8.630  67.763  1.00  0.00    -0.107 A  
HETATM   33  C   UNL     1      -8.758   7.602  68.185  1.00  0.00    -0.122 A  
ENDBRANCH  25  28
ENDBRANCH  24  25
ENDBRANCH  22  24
ENDBRANCH  21  22
ENDBRANCH  20  21
ENDBRANCH  17  20
ENDBRANCH  11  14
ENDBRANCH   9  10
ENDBRANCH   6   9
TORSDOF 9
ENDMDL
MODEL       67
REMARK 921   NORMALIZED FREE ENERGY PREDICTED BY IDOCK:   -5.21 KCAL/MOL
REMARK 922        TOTAL FREE ENERGY PREDICTED BY IDOCK:  -10.39 KCAL/MOL
REMARK 923 INTER-LIGAND FREE ENERGY PREDICTED BY IDOCK:   -9.34 KCAL/MOL
REMARK 924 INTRA-LIGAND FREE ENERGY PREDICTED BY IDOCK:   -1.05 KCAL/MOL
REMARK 927      BINDING AFFINITY PREDICTED BY RF-SCORE:    0.00 PKD
ROOT
HETATM    1  N   UNL     1      -7.462   2.205  72.171  1.00  0.00    -0.039 NA 
HETATM    2  C   UNL     1      -8.090   3.152  72.888  1.00  0.00    -0.072 A  
HETATM    3  H1  UNL     1      -6.478   1.970  72.303  1.00  0.00     0.000 HD 
HETATM    4  H2  UNL     1      -7.993   1.698  71.464  1.00  0.00     0.000 HD 
HETATM    5  N   UNL     1      -9.353   3.452  72.718  1.00  0.00    -0.098 NA 
HETATM    6  C   UNL     1      -9.727   4.462  73.600  1.00  0.00    -0.124 A  
HETATM    7  S   UNL     1      -7.279   4.029  74.117  1.00  0.00    -0.063 SA 
HETATM    8  C   UNL     1      -8.721   4.895  74.441  1.00  0.00    -0.112 A  
ENDROOT
BRANCH   6   9
HETATM    9  C   UNL     1     -11.134   4.951  73.576  1.00  0.00    -0.405 C  
BRANCH   9  10
HETATM   10  C   UNL     1     -11.403   6.034  72.545  1.00  0.00    -0.300 C  
HETATM   11  N   UNL     1     -11.515   7.323  73.044  1.00  0.00    -0.575 N  
HETATM   12  O   UNL     1     -11.395   5.728  71.352  1.00  0.00    -0.225 OA 
HETATM   13  H   UNL     1     -11.488   7.431  74.058  1.00  0.00     0.000 HD 
BRANCH  11  14
HETATM   14  C   UNL     1     -11.662   8.497  72.278  1.00  0.00    -0.373 A  
HETATM   15  C   UNL     1     -12.847   9.231  72.235  1.00  0.00    -0.459 A  
HETATM   16  C   UNL     1     -12.985  10.320  71.373  1.00  0.00    -0.540 A  
HETATM   17  C   UNL     1     -11.931  10.710  70.543  1.00  0.00    -0.446 A  
HETATM   18  C   UNL     1     -10.580   8.925  71.501  1.00  0.00    -0.399 A  
HETATM   19  C   UNL     1     -10.718  10.014  70.629  1.00  0.00    -0.325 A  
BRANCH  17  20
HETATM   20  C   UNL     1     -12.121  11.826  69.537  1.00  0.00    -0.314 C  
BRANCH  20  21
HETATM   21  C   UNL     1     -10.951  12.020  68.556  1.00  0.00    -0.240 C  
BRANCH  21  22
HETATM   22  N   UNL     1     -10.324  13.327  68.734  1.00  0.00    -0.388 NA 
HETATM   23  H   UNL     1      -9.477  13.408  68.172  1.00  0.00     0.000 HD 
BRANCH  22  24
HETATM   24  C   UNL     1     -11.249  14.433  68.461  1.00  0.00    -0.265 C  
BRANCH  24  25
HETATM   25  C   UNL     1     -11.116  15.600  69.473  1.00  0.00    -0.298 C  
HETATM   26  O   UNL     1      -9.750  15.716  69.900  1.00  0.00    -0.283 OA 
HETATM   27  H   UNL     1      -9.669  16.432  70.520  1.00  0.00     0.000 HD 
BRANCH  25  28
HETATM   28  C   UNL     1     -12.032  15.533  70.682  1.00  0.00    -0.416 A  
HETATM   29  C   UNL     1     -13.375  15.158  70.531  1.00  0.00    -0.200 A  
HETATM   30  C   UNL     1     -14.244  15.165  71.626  1.00  0.00    -0.664 A  
HETATM   31  C   UNL     1     -13.781  15.540  72.885  1.00  0.00    -0.599 A  
HETATM   32  C   UNL     1     -12.446  15.892  73.056  1.00  0.00    -0.599 A  
HETATM   33  C   UNL     1     -11.577  15.888  71.962  1.00  0.00    -0.525 A  
ENDBRANCH  25  28
ENDBRANCH  24  25
ENDBRANCH  22  24
ENDBRANCH  21  22
ENDBRANCH  20  21
ENDBRANCH  17  20
ENDBRANCH  11  14
ENDBRANCH   9  10
ENDBRANCH   6   9
TORSDOF 9
ENDMDL
MODEL       68
REMARK 921   NORMALIZED FREE ENERGY PREDICTED BY IDOCK:   -5.19 KCAL/MOL
REMARK 922        TOTAL FREE ENERGY PREDICTED BY IDOCK:  -10.36 KCAL/MOL
REMARK 923 INTER-LIGAND FREE ENERGY PREDICTED BY IDOCK:   -7.82 KCAL/MOL
REMARK 924 INTRA-LIGAND FREE ENERGY PREDICTED BY IDOCK:   -2.54 KCAL/MOL
REMARK 927      BINDING AFFINITY PREDICTED BY RF-SCORE:    0.00 PKD
ROOT
HETATM    1  N   UNL     1     -10.434  20.212  65.547  1.00  0.00    -0.345 NA 
HETATM    2  C   UNL     1      -9.999  19.693  66.706  1.00  0.00    -0.409 A  
HETATM    3  H1  UNL     1      -9.998  21.020  65.102  1.00  0.00     0.000 HD 
HETATM    4  H2  UNL     1     -11.236  19.780  65.090  1.00  0.00     0.000 HD 
HETATM    5  N   UNL     1     -10.559  18.656  67.277  1.00  0.00    -0.427 NA 
HETATM    6  C   UNL     1      -9.895  18.342  68.458  1.00  0.00    -0.381 A  
HETATM    7  S   UNL     1      -8.638  20.341  67.523  1.00  0.00    -0.276 SA 
HETATM    8  C   UNL     1      -8.818  19.157  68.747  1.00  0.00    -0.334 A  
ENDROOT
BRANCH   6   9
HETATM    9  C   UNL     1     -10.372  17.184  69.264  1.00  0.00    -0.257 C  
BRANCH   9  10
HETATM   10  C   UNL     1     -10.236  15.839  68.570  1.00  0.00    -0.216 C  
HETATM   11  N   UNL     1     -10.947  15.701  67.387  1.00  0.00    -0.312 N  
HETATM   12  O   UNL     1      -9.442  15.017  69.027  1.00  0.00    -0.203 OA 
HETATM   13  H   UNL     1     -11.559  16.473  67.121  1.00  0.00     0.000 HD 
BRANCH  11  14
HETATM   14  C   UNL     1     -10.900  14.591  66.519  1.00  0.00    -0.314 A  
HETATM   15  C   UNL     1     -10.129  14.569  65.357  1.00  0.00    -0.394 A  
HETATM   16  C   UNL     1     -10.204  13.496  64.468  1.00  0.00    -0.296 A  
HETATM   17  C   UNL     1     -11.043  12.410  64.730  1.00  0.00    -0.345 A  
HETATM   18  C   UNL     1     -11.689  13.476  66.821  1.00  0.00    -0.430 A  
HETATM   19  C   UNL     1     -11.772  12.400  65.927  1.00  0.00    -0.476 A  
BRANCH  17  20
HETATM   20  C   UNL     1     -11.198  11.299  63.712  1.00  0.00    -0.234 C  
BRANCH  20  21
HETATM   21  C   UNL     1      -9.890  10.859  63.031  1.00  0.00    -0.321 C  
BRANCH  21  22
HETATM   22  N   UNL     1      -9.526   9.498  63.416  1.00  0.00    -0.470 NA 
HETATM   23  H   UNL     1      -9.685   8.844  62.650  1.00  0.00     0.000 HD 
BRANCH  22  24
HETATM   24  C   UNL     1      -8.147   9.408  63.911  1.00  0.00    -0.154 C  
BRANCH  24  25
HETATM   25  C   UNL     1      -7.712  10.651  64.729  1.00  0.00     0.094 C  
HETATM   26  O   UNL     1      -6.280  10.688  64.828  1.00  0.00    -0.330 OA 
HETATM   27  H   UNL     1      -6.014  11.450  65.329  1.00  0.00     0.000 HD 
BRANCH  25  28
HETATM   28  C   UNL     1      -8.330  10.782  66.109  1.00  0.00    -0.166 A  
HETATM   29  C   UNL     1      -8.004  11.874  66.928  1.00  0.00    -0.132 A  
HETATM   30  C   UNL     1      -8.509  11.965  68.228  1.00  0.00    -0.161 A  
HETATM   31  C   UNL     1      -9.350  10.971  68.724  1.00  0.00    -0.185 A  
HETATM   32  C   UNL     1      -9.702   9.894  67.916  1.00  0.00    -0.162 A  
HETATM   33  C   UNL     1      -9.196   9.801  66.618  1.00  0.00    -0.184 A  
ENDBRANCH  25  28
ENDBRANCH  24  25
ENDBRANCH  22  24
ENDBRANCH  21  22
ENDBRANCH  20  21
ENDBRANCH  17  20
ENDBRANCH  11  14
ENDBRANCH   9  10
ENDBRANCH   6   9
TORSDOF 9
ENDMDL
MODEL       69
REMARK 921   NORMALIZED FREE ENERGY PREDICTED BY IDOCK:   -5.18 KCAL/MOL
REMARK 922        TOTAL FREE ENERGY PREDICTED BY IDOCK:  -10.36 KCAL/MOL
REMARK 923 INTER-LIGAND FREE ENERGY PREDICTED BY IDOCK:   -7.91 KCAL/MOL
REMARK 924 INTRA-LIGAND FREE ENERGY PREDICTED BY IDOCK:   -2.44 KCAL/MOL
REMARK 927      BINDING AFFINITY PREDICTED BY RF-SCORE:    0.00 PKD
ROOT
HETATM    1  N   UNL     1     -11.518   5.088  73.574  1.00  0.00    -0.451 NA 
HETATM    2  C   UNL     1     -10.869   5.836  72.667  1.00  0.00    -0.254 A  
HETATM    3  H1  UNL     1     -11.549   4.069  73.535  1.00  0.00     0.000 HD 
HETATM    4  H2  UNL     1     -12.003   5.561  74.336  1.00  0.00     0.000 HD 
HETATM    5  N   UNL     1     -10.830   7.143  72.717  1.00  0.00    -0.276 NA 
HETATM    6  C   UNL     1     -10.084   7.642  71.654  1.00  0.00    -0.180 A  
HETATM    7  S   UNL     1     -10.004   5.119  71.371  1.00  0.00    -0.197 SA 
HETATM    8  C   UNL     1      -9.554   6.676  70.819  1.00  0.00    -0.175 A  
ENDROOT
BRANCH   6   9
HETATM    9  C   UNL     1      -9.910   9.116  71.527  1.00  0.00    -0.335 C  
BRANCH   9  10
HETATM   10  C   UNL     1     -10.749   9.754  70.434  1.00  0.00    -0.308 C  
HETATM   11  N   UNL     1     -10.080  10.642  69.605  1.00  0.00    -0.420 N  
HETATM   12  O   UNL     1     -11.911   9.373  70.284  1.00  0.00    -0.166 OA 
HETATM   13  H   UNL     1      -9.111  10.855  69.840  1.00  0.00     0.000 HD 
BRANCH  11  14
HETATM   14  C   UNL     1     -10.618  11.277  68.467  1.00  0.00    -0.199 A  
HETATM   15  C   UNL     1     -11.467  12.380  68.545  1.00  0.00    -0.350 A  
HETATM   16  C   UNL     1     -12.068  12.904  67.399  1.00  0.00    -0.258 A  
HETATM   17  C   UNL     1     -11.821  12.343  66.144  1.00  0.00    -0.442 A  
HETATM   18  C   UNL     1     -10.311  10.755  67.206  1.00  0.00    -0.262 A  
HETATM   19  C   UNL     1     -10.919  11.274  66.054  1.00  0.00    -0.237 A  
BRANCH  17  20
HETATM   20  C   UNL     1     -12.555  12.849  64.920  1.00  0.00    -0.525 C  
BRANCH  20  21
HETATM   21  C   UNL     1     -11.746  13.810  64.031  1.00  0.00    -0.328 C  
BRANCH  21  22
HETATM   22  N   UNL     1     -11.956  15.200  64.427  1.00  0.00    -0.590 NA 
HETATM   23  H   UNL     1     -12.636  15.267  65.185  1.00  0.00     0.000 HD 
BRANCH  22  24
HETATM   24  C   UNL     1     -10.702  15.877  64.779  1.00  0.00    -0.229 C  
BRANCH  24  25
HETATM   25  C   UNL     1     -10.652  16.329  66.261  1.00  0.00    -0.255 C  
HETATM   26  O   UNL     1     -10.398  17.741  66.327  1.00  0.00    -0.367 OA 
HETATM   27  H   UNL     1     -10.367  18.018  67.236  1.00  0.00     0.000 HD 
BRANCH  25  28
HETATM   28  C   UNL     1      -9.668  15.585  67.145  1.00  0.00    -0.226 A  
HETATM   29  C   UNL     1      -8.895  14.539  66.618  1.00  0.00    -0.214 A  
HETATM   30  C   UNL     1      -8.040  13.799  67.440  1.00  0.00    -0.188 A  
HETATM   31  C   UNL     1      -7.943  14.098  68.798  1.00  0.00    -0.102 A  
HETATM   32  C   UNL     1      -8.685  15.147  69.331  1.00  0.00    -0.173 A  
HETATM   33  C   UNL     1      -9.541  15.885  68.511  1.00  0.00    -0.205 A  
ENDBRANCH  25  28
ENDBRANCH  24  25
ENDBRANCH  22  24
ENDBRANCH  21  22
ENDBRANCH  20  21
ENDBRANCH  17  20
ENDBRANCH  11  14
ENDBRANCH   9  10
ENDBRANCH   6   9
TORSDOF 9
ENDMDL
MODEL       70
REMARK 921   NORMALIZED FREE ENERGY PREDICTED BY IDOCK:   -5.18 KCAL/MOL
REMARK 922        TOTAL FREE ENERGY PREDICTED BY IDOCK:  -10.35 KCAL/MOL
REMARK 923 INTER-LIGAND FREE ENERGY PREDICTED BY IDOCK:   -8.93 KCAL/MOL
REMARK 924 INTRA-LIGAND FREE ENERGY PREDICTED BY IDOCK:   -1.42 KCAL/MOL
REMARK 927      BINDING AFFINITY PREDICTED BY RF-SCORE:    0.00 PKD
ROOT
HETATM    1  N   UNL     1      -8.679  11.138  64.781  1.00  0.00    -0.376 NA 
HETATM    2  C   UNL     1      -9.864  11.745  64.957  1.00  0.00    -0.229 A  
HETATM    3  H1  UNL     1      -8.425  10.655  63.919  1.00  0.00     0.000 HD 
HETATM    4  H2  UNL     1      -8.002  11.161  65.543  1.00  0.00     0.000 HD 
HETATM    5  N   UNL     1     -10.189  12.365  66.063  1.00  0.00    -0.240 NA 
HETATM    6  C   UNL     1     -11.469  12.898  65.955  1.00  0.00    -0.346 A  
HETATM    7  S   UNL     1     -11.045  11.779  63.715  1.00  0.00    -0.456 SA 
HETATM    8  C   UNL     1     -12.085  12.677  64.737  1.00  0.00    -0.436 A  
ENDROOT
BRANCH   6   9
HETATM    9  C   UNL     1     -12.033  13.653  67.109  1.00  0.00    -0.434 C  
BRANCH   9  10
HETATM   10  C   UNL     1     -11.757  13.024  68.463  1.00  0.00    -0.342 C  
HETATM   11  N   UNL     1     -11.965  11.655  68.542  1.00  0.00    -0.287 N  
HETATM   12  O   UNL     1     -11.273  13.726  69.352  1.00  0.00    -0.249 OA 
HETATM   13  H   UNL     1     -12.358  11.198  67.720  1.00  0.00     0.000 HD 
BRANCH  11  14
HETATM   14  C   UNL     1     -11.683  10.838  69.656  1.00  0.00    -0.323 A  
HETATM   15  C   UNL     1     -10.445  10.227  69.855  1.00  0.00    -0.304 A  
HETATM   16  C   UNL     1     -10.247   9.335  70.909  1.00  0.00    -0.371 A  
HETATM   17  C   UNL     1     -11.283   9.043  71.801  1.00  0.00    -0.448 A  
HETATM   18  C   UNL     1     -12.702  10.605  70.586  1.00  0.00    -0.445 A  
HETATM   19  C   UNL     1     -12.509   9.703  71.642  1.00  0.00    -0.494 A  
BRANCH  17  20
HETATM   20  C   UNL     1     -11.093   7.996  72.879  1.00  0.00    -0.399 C  
BRANCH  20  21
HETATM   21  C   UNL     1     -11.332   6.546  72.422  1.00  0.00    -0.279 C  
BRANCH  21  22
HETATM   22  N   UNL     1     -10.124   5.973  71.836  1.00  0.00    -0.189 NA 
HETATM   23  H   UNL     1      -9.602   5.430  72.524  1.00  0.00     0.000 HD 
BRANCH  22  24
HETATM   24  C   UNL     1     -10.408   5.174  70.637  1.00  0.00    -0.235 C  
BRANCH  24  25
HETATM   25  C   UNL     1     -10.431   6.017  69.337  1.00  0.00    -0.267 C  
HETATM   26  O   UNL     1     -11.760   6.508  69.103  1.00  0.00    -0.623 OA 
HETATM   27  H   UNL     1     -11.774   7.025  68.305  1.00  0.00     0.000 HD 
BRANCH  25  28
HETATM   28  C   UNL     1      -9.910   5.323  68.091  1.00  0.00    -0.198 A  
HETATM   29  C   UNL     1     -10.565   5.491  66.862  1.00  0.00    -0.348 A  
HETATM   30  C   UNL     1     -10.137   4.798  65.726  1.00  0.00    -0.236 A  
HETATM   31  C   UNL     1      -9.046   3.935  65.802  1.00  0.00    -0.145 A  
HETATM   32  C   UNL     1      -8.370   3.776  67.008  1.00  0.00    -0.099 A  
HETATM   33  C   UNL     1      -8.799   4.465  68.144  1.00  0.00    -0.128 A  
ENDBRANCH  25  28
ENDBRANCH  24  25
ENDBRANCH  22  24
ENDBRANCH  21  22
ENDBRANCH  20  21
ENDBRANCH  17  20
ENDBRANCH  11  14
ENDBRANCH   9  10
ENDBRANCH   6   9
TORSDOF 9
ENDMDL
MODEL       71
REMARK 921   NORMALIZED FREE ENERGY PREDICTED BY IDOCK:   -5.18 KCAL/MOL
REMARK 922        TOTAL FREE ENERGY PREDICTED BY IDOCK:  -10.35 KCAL/MOL
REMARK 923 INTER-LIGAND FREE ENERGY PREDICTED BY IDOCK:   -8.93 KCAL/MOL
REMARK 924 INTRA-LIGAND FREE ENERGY PREDICTED BY IDOCK:   -1.42 KCAL/MOL
REMARK 927      BINDING AFFINITY PREDICTED BY RF-SCORE:    0.00 PKD
ROOT
HETATM    1  N   UNL     1      -7.738   6.135  73.241  1.00  0.00    -0.100 NA 
HETATM    2  C   UNL     1      -9.024   6.188  72.859  1.00  0.00    -0.125 A  
HETATM    3  H1  UNL     1      -7.139   5.328  73.064  1.00  0.00     0.000 HD 
HETATM    4  H2  UNL     1      -7.342   6.936  73.730  1.00  0.00     0.000 HD 
HETATM    5  N   UNL     1      -9.793   7.223  73.086  1.00  0.00    -0.210 NA 
HETATM    6  C   UNL     1     -11.066   6.996  72.575  1.00  0.00    -0.274 A  
HETATM    7  S   UNL     1      -9.759   4.894  72.005  1.00  0.00    -0.173 SA 
HETATM    8  C   UNL     1     -11.226   5.775  71.948  1.00  0.00    -0.227 A  
ENDROOT
BRANCH   6   9
HETATM    9  C   UNL     1     -12.100   8.058  72.723  1.00  0.00    -0.188 C  
BRANCH   9  10
HETATM   10  C   UNL     1     -12.321   8.896  71.475  1.00  0.00    -0.324 C  
HETATM   11  N   UNL     1     -11.171   9.352  70.848  1.00  0.00    -0.296 N  
HETATM   12  O   UNL     1     -13.468   9.023  71.045  1.00  0.00    -0.154 OA 
HETATM   13  H   UNL     1     -10.283   9.160  71.312  1.00  0.00     0.000 HD 
BRANCH  11  14
HETATM   14  C   UNL     1     -11.118  10.057  69.629  1.00  0.00    -0.259 A  
HETATM   15  C   UNL     1     -11.694  11.315  69.454  1.00  0.00    -0.409 A  
HETATM   16  C   UNL     1     -11.718  11.925  68.199  1.00  0.00    -0.388 A  
HETATM   17  C   UNL     1     -11.151  11.294  67.088  1.00  0.00    -0.364 A  
HETATM   18  C   UNL     1     -10.487   9.452  68.536  1.00  0.00    -0.239 A  
HETATM   19  C   UNL     1     -10.516  10.058  67.273  1.00  0.00    -0.313 A  
BRANCH  17  20
HETATM   20  C   UNL     1     -11.272  11.912  65.711  1.00  0.00    -0.365 C  
BRANCH  20  21
HETATM   21  C   UNL     1      -9.950  12.421  65.112  1.00  0.00    -0.198 C  
BRANCH  21  22
HETATM   22  N   UNL     1     -10.172  13.578  64.249  1.00  0.00    -0.747 NA 
HETATM   23  H   UNL     1      -9.918  13.371  63.283  1.00  0.00     0.000 HD 
BRANCH  22  24
HETATM   24  C   UNL     1     -11.546  14.087  64.338  1.00  0.00    -0.369 C  
BRANCH  24  25
HETATM   25  C   UNL     1     -11.626  15.525  64.910  1.00  0.00    -0.201 C  
HETATM   26  O   UNL     1     -11.468  16.478  63.847  1.00  0.00    -1.608 OA 
HETATM   27  H   UNL     1     -11.517  17.359  64.198  1.00  0.00     0.000 HD 
BRANCH  25  28
HETATM   28  C   UNL     1     -10.659  15.842  66.036  1.00  0.00    -0.331 A  
HETATM   29  C   UNL     1      -9.507  16.602  65.785  1.00  0.00    -0.104 A  
HETATM   30  C   UNL     1      -8.573  16.837  66.798  1.00  0.00    -0.264 A  
HETATM   31  C   UNL     1      -8.782  16.321  68.076  1.00  0.00    -0.178 A  
HETATM   32  C   UNL     1      -9.932  15.586  68.347  1.00  0.00    -0.214 A  
HETATM   33  C   UNL     1     -10.864  15.348  67.335  1.00  0.00    -0.309 A  
ENDBRANCH  25  28
ENDBRANCH  24  25
ENDBRANCH  22  24
ENDBRANCH  21  22
ENDBRANCH  20  21
ENDBRANCH  17  20
ENDBRANCH  11  14
ENDBRANCH   9  10
ENDBRANCH   6   9
TORSDOF 9
ENDMDL
MODEL       72
REMARK 921   NORMALIZED FREE ENERGY PREDICTED BY IDOCK:   -5.14 KCAL/MOL
REMARK 922        TOTAL FREE ENERGY PREDICTED BY IDOCK:  -10.28 KCAL/MOL
REMARK 923 INTER-LIGAND FREE ENERGY PREDICTED BY IDOCK:   -9.50 KCAL/MOL
REMARK 924 INTRA-LIGAND FREE ENERGY PREDICTED BY IDOCK:   -0.79 KCAL/MOL
REMARK 927      BINDING AFFINITY PREDICTED BY RF-SCORE:    0.00 PKD
ROOT
HETATM    1  N   UNL     1     -11.241   5.069  65.858  1.00  0.00    -0.825 NA 
HETATM    2  C   UNL     1     -10.576   5.774  66.788  1.00  0.00    -0.306 A  
HETATM    3  H1  UNL     1     -10.791   4.681  65.028  1.00  0.00     0.000 HD 
HETATM    4  H2  UNL     1     -12.240   4.913  65.988  1.00  0.00     0.000 HD 
HETATM    5  N   UNL     1     -11.153   6.271  67.853  1.00  0.00    -0.327 NA 
HETATM    6  C   UNL     1     -10.219   6.944  68.634  1.00  0.00    -0.173 A  
HETATM    7  S   UNL     1      -8.889   6.054  66.661  1.00  0.00    -0.129 SA 
HETATM    8  C   UNL     1      -8.930   6.925  68.136  1.00  0.00    -0.123 A  
ENDROOT
BRANCH   6   9
HETATM    9  C   UNL     1     -10.670   7.583  69.901  1.00  0.00    -0.254 C  
BRANCH   9  10
HETATM   10  C   UNL     1     -10.604   9.101  69.895  1.00  0.00    -0.230 C  
HETATM   11  N   UNL     1     -11.792   9.751  69.596  1.00  0.00    -0.445 N  
HETATM   12  O   UNL     1      -9.560   9.648  70.253  1.00  0.00    -0.241 OA 
HETATM   13  H   UNL     1     -12.585   9.168  69.330  1.00  0.00     0.000 HD 
BRANCH  11  14
HETATM   14  C   UNL     1     -12.002  11.145  69.627  1.00  0.00    -0.359 A  
HETATM   15  C   UNL     1     -11.830  11.963  68.511  1.00  0.00    -0.357 A  
HETATM   16  C   UNL     1     -11.936  13.351  68.616  1.00  0.00    -0.362 A  
HETATM   17  C   UNL     1     -12.233  13.952  69.842  1.00  0.00    -0.393 A  
HETATM   18  C   UNL     1     -12.368  11.736  70.841  1.00  0.00    -0.420 A  
HETATM   19  C   UNL     1     -12.469  13.130  70.952  1.00  0.00    -0.407 A  
BRANCH  17  20
HETATM   20  C   UNL     1     -12.244  15.461  69.972  1.00  0.00    -0.392 C  
BRANCH  20  21
HETATM   21  C   UNL     1     -10.853  16.117  70.024  1.00  0.00    -0.349 C  
BRANCH  21  22
HETATM   22  N   UNL     1     -10.762  17.238  69.093  1.00  0.00    -0.350 NA 
HETATM   23  H   UNL     1     -10.036  17.895  69.378  1.00  0.00     0.000 HD 
BRANCH  22  24
HETATM   24  C   UNL     1     -10.563  16.798  67.706  1.00  0.00    -0.341 C  
BRANCH  24  25
HETATM   25  C   UNL     1     -10.238  17.966  66.740  1.00  0.00    -0.360 C  
HETATM   26  O   UNL     1     -10.657  17.624  65.410  1.00  0.00    -0.657 OA 
HETATM   27  H   UNL     1     -10.457  18.340  64.818  1.00  0.00     0.000 HD 
BRANCH  25  28
HETATM   28  C   UNL     1      -8.791  18.426  66.724  1.00  0.00    -0.283 A  
HETATM   29  C   UNL     1      -7.776  17.552  66.308  1.00  0.00    -0.334 A  
HETATM   30  C   UNL     1      -6.434  17.941  66.360  1.00  0.00    -0.263 A  
HETATM   31  C   UNL     1      -6.091  19.210  66.822  1.00  0.00    -0.177 A  
HETATM   32  C   UNL     1      -7.088  20.097  67.216  1.00  0.00    -0.297 A  
HETATM   33  C   UNL     1      -8.428  19.709  67.167  1.00  0.00    -0.345 A  
ENDBRANCH  25  28
ENDBRANCH  24  25
ENDBRANCH  22  24
ENDBRANCH  21  22
ENDBRANCH  20  21
ENDBRANCH  17  20
ENDBRANCH  11  14
ENDBRANCH   9  10
ENDBRANCH   6   9
TORSDOF 9
ENDMDL
MODEL       73
REMARK 921   NORMALIZED FREE ENERGY PREDICTED BY IDOCK:   -5.13 KCAL/MOL
REMARK 922        TOTAL FREE ENERGY PREDICTED BY IDOCK:  -10.27 KCAL/MOL
REMARK 923 INTER-LIGAND FREE ENERGY PREDICTED BY IDOCK:   -7.71 KCAL/MOL
REMARK 924 INTRA-LIGAND FREE ENERGY PREDICTED BY IDOCK:   -2.56 KCAL/MOL
REMARK 927      BINDING AFFINITY PREDICTED BY RF-SCORE:    0.00 PKD
ROOT
HETATM    1  N   UNL     1      -7.355  14.109  66.855  1.00  0.00    -0.274 NA 
HETATM    2  C   UNL     1      -8.616  14.570  66.904  1.00  0.00    -0.179 A  
HETATM    3  H1  UNL     1      -6.587  14.637  66.438  1.00  0.00     0.000 HD 
HETATM    4  H2  UNL     1      -7.157  13.192  67.251  1.00  0.00     0.000 HD 
HETATM    5  N   UNL     1      -9.601  13.894  67.437  1.00  0.00    -0.229 NA 
HETATM    6  C   UNL     1     -10.784  14.620  67.349  1.00  0.00    -0.280 A  
HETATM    7  S   UNL     1      -9.028  16.117  66.288  1.00  0.00    -0.352 SA 
HETATM    8  C   UNL     1     -10.656  15.860  66.752  1.00  0.00    -0.309 A  
ENDROOT
BRANCH   6   9
HETATM    9  C   UNL     1     -12.034  14.029  67.905  1.00  0.00    -0.387 C  
BRANCH   9  10
HETATM   10  C   UNL     1     -11.812  13.080  69.070  1.00  0.00    -0.316 C  
HETATM   11  N   UNL     1     -11.407  11.798  68.730  1.00  0.00    -0.241 N  
HETATM   12  O   UNL     1     -11.896  13.523  70.216  1.00  0.00    -0.309 OA 
HETATM   13  H   UNL     1     -11.367  11.573  67.736  1.00  0.00     0.000 HD 
BRANCH  11  14
HETATM   14  C   UNL     1     -11.045  10.777  69.633  1.00  0.00    -0.279 A  
HETATM   15  C   UNL     1     -11.933  10.237  70.563  1.00  0.00    -0.415 A  
HETATM   16  C   UNL     1     -11.500   9.312  71.514  1.00  0.00    -0.454 A  
HETATM   17  C   UNL     1     -10.167   8.894  71.548  1.00  0.00    -0.398 A  
HETATM   18  C   UNL     1      -9.726  10.311  69.617  1.00  0.00    -0.216 A  
HETATM   19  C   UNL     1      -9.287   9.387  70.575  1.00  0.00    -0.319 A  
BRANCH  17  20
HETATM   20  C   UNL     1      -9.681   7.971  72.646  1.00  0.00    -0.332 C  
BRANCH  20  21
HETATM   21  C   UNL     1     -10.788   7.409  73.555  1.00  0.00    -0.219 C  
BRANCH  21  22
HETATM   22  N   UNL     1     -11.342   6.173  73.010  1.00  0.00    -0.465 NA 
HETATM   23  H   UNL     1     -11.941   6.361  72.207  1.00  0.00     0.000 HD 
BRANCH  22  24
HETATM   24  C   UNL     1     -10.301   5.193  72.676  1.00  0.00    -0.200 C  
BRANCH  24  25
HETATM   25  C   UNL     1     -10.508   4.538  71.286  1.00  0.00     0.062 C  
HETATM   26  O   UNL     1      -9.811   3.283  71.234  1.00  0.00    -0.169 OA 
HETATM   27  H   UNL     1      -9.938   2.882  70.382  1.00  0.00     0.000 HD 
BRANCH  25  28
HETATM   28  C   UNL     1     -10.126   5.391  70.090  1.00  0.00    -0.322 A  
HETATM   29  C   UNL     1      -8.780   5.519  69.714  1.00  0.00    -0.118 A  
HETATM   30  C   UNL     1      -8.411   6.360  68.661  1.00  0.00    -0.121 A  
HETATM   31  C   UNL     1      -9.381   7.080  67.968  1.00  0.00    -0.127 A  
HETATM   32  C   UNL     1     -10.722   6.947  68.313  1.00  0.00    -0.265 A  
HETATM   33  C   UNL     1     -11.092   6.109  69.366  1.00  0.00    -0.479 A  
ENDBRANCH  25  28
ENDBRANCH  24  25
ENDBRANCH  22  24
ENDBRANCH  21  22
ENDBRANCH  20  21
ENDBRANCH  17  20
ENDBRANCH  11  14
ENDBRANCH   9  10
ENDBRANCH   6   9
TORSDOF 9
ENDMDL
MODEL       74
REMARK 921   NORMALIZED FREE ENERGY PREDICTED BY IDOCK:   -5.12 KCAL/MOL
REMARK 922        TOTAL FREE ENERGY PREDICTED BY IDOCK:  -10.26 KCAL/MOL
REMARK 923 INTER-LIGAND FREE ENERGY PREDICTED BY IDOCK:   -9.80 KCAL/MOL
REMARK 924 INTRA-LIGAND FREE ENERGY PREDICTED BY IDOCK:   -0.46 KCAL/MOL
REMARK 927      BINDING AFFINITY PREDICTED BY RF-SCORE:    0.00 PKD
ROOT
HETATM    1  N   UNL     1     -11.028   5.633  66.211  1.00  0.00    -0.748 NA 
HETATM    2  C   UNL     1     -10.610   5.891  67.461  1.00  0.00    -0.273 A  
HETATM    3  H1  UNL     1     -10.531   5.007  65.577  1.00  0.00     0.000 HD 
HETATM    4  H2  UNL     1     -11.881   6.084  65.880  1.00  0.00     0.000 HD 
HETATM    5  N   UNL     1     -11.248   6.694  68.274  1.00  0.00    -0.188 NA 
HETATM    6  C   UNL     1     -10.586   6.763  69.496  1.00  0.00    -0.232 A  
HETATM    7  S   UNL     1      -9.203   5.151  68.104  1.00  0.00    -0.121 SA 
HETATM    8  C   UNL     1      -9.450   5.981  69.582  1.00  0.00    -0.144 A  
ENDROOT
BRANCH   6   9
HETATM    9  C   UNL     1     -11.153   7.624  70.572  1.00  0.00    -0.267 C  
BRANCH   9  10
HETATM   10  C   UNL     1     -11.399   9.064  70.157  1.00  0.00    -0.121 C  
HETATM   11  N   UNL     1     -10.928   9.414  68.900  1.00  0.00    -0.422 N  
HETATM   12  O   UNL     1     -12.078   9.782  70.892  1.00  0.00    -0.296 OA 
HETATM   13  H   UNL     1     -10.391   8.711  68.393  1.00  0.00     0.000 HD 
BRANCH  11  14
HETATM   14  C   UNL     1     -11.125  10.655  68.260  1.00  0.00    -0.279 A  
HETATM   15  C   UNL     1     -11.522  11.806  68.940  1.00  0.00    -0.357 A  
HETATM   16  C   UNL     1     -11.816  12.981  68.249  1.00  0.00    -0.381 A  
HETATM   17  C   UNL     1     -11.707  13.037  66.857  1.00  0.00    -0.441 A  
HETATM   18  C   UNL     1     -10.945  10.724  66.874  1.00  0.00    -0.255 A  
HETATM   19  C   UNL     1     -11.247  11.902  66.176  1.00  0.00    -0.387 A  
BRANCH  17  20
HETATM   20  C   UNL     1     -12.127  14.283  66.104  1.00  0.00    -0.424 C  
BRANCH  20  21
HETATM   21  C   UNL     1     -11.483  14.449  64.717  1.00  0.00    -0.402 C  
BRANCH  21  22
HETATM   22  N   UNL     1     -10.972  15.804  64.531  1.00  0.00    -0.820 NA 
HETATM   23  H   UNL     1     -11.725  16.452  64.299  1.00  0.00     0.000 HD 
BRANCH  22  24
HETATM   24  C   UNL     1     -10.204  16.277  65.689  1.00  0.00    -0.343 C  
BRANCH  24  25
HETATM   25  C   UNL     1     -10.577  17.719  66.118  1.00  0.00    -0.235 C  
HETATM   26  O   UNL     1     -11.021  18.464  64.973  1.00  0.00    -0.644 OA 
HETATM   27  H   UNL     1     -11.250  19.348  65.235  1.00  0.00     0.000 HD 
BRANCH  25  28
HETATM   28  C   UNL     1      -9.494  18.492  66.849  1.00  0.00    -0.300 A  
HETATM   29  C   UNL     1      -8.893  19.607  66.246  1.00  0.00    -0.410 A  
HETATM   30  C   UNL     1      -7.844  20.280  66.880  1.00  0.00    -0.351 A  
HETATM   31  C   UNL     1      -7.388  19.851  68.124  1.00  0.00    -0.338 A  
HETATM   32  C   UNL     1      -7.989  18.761  68.746  1.00  0.00    -0.335 A  
HETATM   33  C   UNL     1      -9.035  18.086  68.112  1.00  0.00    -0.287 A  
ENDBRANCH  25  28
ENDBRANCH  24  25
ENDBRANCH  22  24
ENDBRANCH  21  22
ENDBRANCH  20  21
ENDBRANCH  17  20
ENDBRANCH  11  14
ENDBRANCH   9  10
ENDBRANCH   6   9
TORSDOF 9
ENDMDL
MODEL       75
REMARK 921   NORMALIZED FREE ENERGY PREDICTED BY IDOCK:   -5.12 KCAL/MOL
REMARK 922        TOTAL FREE ENERGY PREDICTED BY IDOCK:  -10.26 KCAL/MOL
REMARK 923 INTER-LIGAND FREE ENERGY PREDICTED BY IDOCK:   -9.56 KCAL/MOL
REMARK 924 INTRA-LIGAND FREE ENERGY PREDICTED BY IDOCK:   -0.70 KCAL/MOL
REMARK 927      BINDING AFFINITY PREDICTED BY RF-SCORE:    0.00 PKD
ROOT
HETATM    1  N   UNL     1     -10.882   5.166  73.427  1.00  0.00    -0.277 NA 
HETATM    2  C   UNL     1     -11.038   6.012  72.396  1.00  0.00    -0.277 A  
HETATM    3  H1  UNL     1     -10.602   4.192  73.309  1.00  0.00     0.000 HD 
HETATM    4  H2  UNL     1     -11.051   5.512  74.371  1.00  0.00     0.000 HD 
HETATM    5  N   UNL     1     -11.397   7.261  72.548  1.00  0.00    -0.292 NA 
HETATM    6  C   UNL     1     -11.472   7.892  71.310  1.00  0.00    -0.265 A  
HETATM    7  S   UNL     1     -10.745   5.517  70.781  1.00  0.00    -0.177 SA 
HETATM    8  C   UNL     1     -11.146   7.090  70.234  1.00  0.00    -0.285 A  
ENDROOT
BRANCH   6   9
HETATM    9  C   UNL     1     -11.862   9.329  71.258  1.00  0.00    -0.415 C  
BRANCH   9  10
HETATM   10  C   UNL     1     -11.224  10.110  70.122  1.00  0.00    -0.310 C  
HETATM   11  N   UNL     1     -12.105  10.640  69.191  1.00  0.00    -0.536 N  
HETATM   12  O   UNL     1     -10.010  10.313  70.154  1.00  0.00    -0.185 OA 
HETATM   13  H   UNL     1     -13.091  10.401  69.297  1.00  0.00     0.000 HD 
BRANCH  11  14
HETATM   14  C   UNL     1     -11.761  11.480  68.112  1.00  0.00    -0.287 A  
HETATM   15  C   UNL     1     -11.153  11.010  66.948  1.00  0.00    -0.280 A  
HETATM   16  C   UNL     1     -10.726  11.893  65.956  1.00  0.00    -0.326 A  
HETATM   17  C   UNL     1     -10.909  13.270  66.099  1.00  0.00    -0.290 A  
HETATM   18  C   UNL     1     -12.011  12.851  68.230  1.00  0.00    -0.297 A  
HETATM   19  C   UNL     1     -11.576  13.742  67.239  1.00  0.00    -0.391 A  
BRANCH  17  20
HETATM   20  C   UNL     1     -10.351  14.229  65.069  1.00  0.00    -0.448 C  
BRANCH  20  21
HETATM   21  C   UNL     1     -11.105  15.565  64.952  1.00  0.00    -0.416 C  
BRANCH  21  22
HETATM   22  N   UNL     1     -10.251  16.689  65.328  1.00  0.00    -0.605 NA 
HETATM   23  H   UNL     1     -10.437  17.504  64.743  1.00  0.00     0.000 HD 
BRANCH  22  24
HETATM   24  C   UNL     1     -10.362  17.024  66.753  1.00  0.00    -0.302 C  
BRANCH  24  25
HETATM   25  C   UNL     1     -10.294  18.548  67.025  1.00  0.00    -0.399 C  
HETATM   26  O   UNL     1     -10.788  19.266  65.884  1.00  0.00    -0.411 OA 
HETATM   27  H   UNL     1     -10.747  20.200  66.051  1.00  0.00     0.000 HD 
BRANCH  25  28
HETATM   28  C   UNL     1      -8.933  19.087  67.425  1.00  0.00    -0.318 A  
HETATM   29  C   UNL     1      -8.344  18.693  68.637  1.00  0.00    -0.344 A  
HETATM   30  C   UNL     1      -7.126  19.241  69.049  1.00  0.00    -0.391 A  
HETATM   31  C   UNL     1      -6.478  20.183  68.253  1.00  0.00    -0.326 A  
HETATM   32  C   UNL     1      -7.036  20.567  67.038  1.00  0.00    -0.351 A  
HETATM   33  C   UNL     1      -8.255  20.023  66.627  1.00  0.00    -0.355 A  
ENDBRANCH  25  28
ENDBRANCH  24  25
ENDBRANCH  22  24
ENDBRANCH  21  22
ENDBRANCH  20  21
ENDBRANCH  17  20
ENDBRANCH  11  14
ENDBRANCH   9  10
ENDBRANCH   6   9
TORSDOF 9
ENDMDL
MODEL       76
REMARK 921   NORMALIZED FREE ENERGY PREDICTED BY IDOCK:   -5.06 KCAL/MOL
REMARK 922        TOTAL FREE ENERGY PREDICTED BY IDOCK:  -10.17 KCAL/MOL
REMARK 923 INTER-LIGAND FREE ENERGY PREDICTED BY IDOCK:   -7.74 KCAL/MOL
REMARK 924 INTRA-LIGAND FREE ENERGY PREDICTED BY IDOCK:   -2.42 KCAL/MOL
REMARK 927      BINDING AFFINITY PREDICTED BY RF-SCORE:    0.00 PKD
ROOT
HETATM    1  N   UNL     1     -13.232   7.350  72.142  1.00  0.00    -0.517 NA 
HETATM    2  C   UNL     1     -12.317   6.756  71.358  1.00  0.00    -0.353 A  
HETATM    3  H1  UNL     1     -13.276   7.206  73.151  1.00  0.00     0.000 HD 
HETATM    4  H2  UNL     1     -13.914   7.972  71.710  1.00  0.00     0.000 HD 
HETATM    5  N   UNL     1     -12.261   6.941  70.063  1.00  0.00    -0.004 NA 
HETATM    6  C   UNL     1     -11.214   6.205  69.520  1.00  0.00    -0.411 A  
HETATM    7  S   UNL     1     -11.117   5.720  72.011  1.00  0.00    -0.239 SA 
HETATM    8  C   UNL     1     -10.479   5.481  70.439  1.00  0.00    -0.286 A  
ENDROOT
BRANCH   6   9
HETATM    9  C   UNL     1     -10.971   6.278  68.051  1.00  0.00    -0.418 C  
BRANCH   9  10
HETATM   10  C   UNL     1     -10.197   7.507  67.606  1.00  0.00    -0.213 C  
HETATM   11  N   UNL     1     -10.845   8.721  67.786  1.00  0.00    -0.491 N  
HETATM   12  O   UNL     1      -9.035   7.367  67.225  1.00  0.00    -0.122 OA 
HETATM   13  H   UNL     1     -11.806   8.687  68.125  1.00  0.00     0.000 HD 
BRANCH  11  14
HETATM   14  C   UNL     1     -10.294   9.996  67.543  1.00  0.00    -0.232 A  
HETATM   15  C   UNL     1     -10.074  10.495  66.260  1.00  0.00    -0.290 A  
HETATM   16  C   UNL     1      -9.420  11.713  66.067  1.00  0.00    -0.246 A  
HETATM   17  C   UNL     1      -8.983  12.468  67.158  1.00  0.00    -0.200 A  
HETATM   18  C   UNL     1      -9.922  10.780  68.640  1.00  0.00    -0.189 A  
HETATM   19  C   UNL     1      -9.258  12.000  68.450  1.00  0.00    -0.160 A  
BRANCH  17  20
HETATM   20  C   UNL     1      -8.183  13.736  66.941  1.00  0.00     0.045 C  
BRANCH  20  21
HETATM   21  C   UNL     1      -7.883  14.539  68.220  1.00  0.00    -0.131 C  
BRANCH  21  22
HETATM   22  N   UNL     1      -8.538  15.844  68.189  1.00  0.00    -0.167 NA 
HETATM   23  H   UNL     1      -8.064  16.507  68.802  1.00  0.00     0.000 HD 
BRANCH  22  24
HETATM   24  C   UNL     1      -8.659  16.377  66.827  1.00  0.00    -0.235 C  
BRANCH  24  25
HETATM   25  C   UNL     1     -10.120  16.722  66.437  1.00  0.00    -0.317 C  
HETATM   26  O   UNL     1     -10.741  17.461  67.500  1.00  0.00    -0.347 OA 
HETATM   27  H   UNL     1     -11.637  17.672  67.261  1.00  0.00     0.000 HD 
BRANCH  25  28
HETATM   28  C   UNL     1     -10.994  15.544  66.047  1.00  0.00    -0.251 A  
HETATM   29  C   UNL     1     -11.732  14.858  67.023  1.00  0.00    -0.274 A  
HETATM   30  C   UNL     1     -12.482  13.727  66.685  1.00  0.00    -0.307 A  
HETATM   31  C   UNL     1     -12.508  13.272  65.368  1.00  0.00    -0.543 A  
HETATM   32  C   UNL     1     -11.800  13.956  64.384  1.00  0.00    -0.456 A  
HETATM   33  C   UNL     1     -11.049  15.083  64.721  1.00  0.00    -0.388 A  
ENDBRANCH  25  28
ENDBRANCH  24  25
ENDBRANCH  22  24
ENDBRANCH  21  22
ENDBRANCH  20  21
ENDBRANCH  17  20
ENDBRANCH  11  14
ENDBRANCH   9  10
ENDBRANCH   6   9
TORSDOF 9
ENDMDL
MODEL       77
REMARK 921   NORMALIZED FREE ENERGY PREDICTED BY IDOCK:   -5.05 KCAL/MOL
REMARK 922        TOTAL FREE ENERGY PREDICTED BY IDOCK:  -10.16 KCAL/MOL
REMARK 923 INTER-LIGAND FREE ENERGY PREDICTED BY IDOCK:   -8.40 KCAL/MOL
REMARK 924 INTRA-LIGAND FREE ENERGY PREDICTED BY IDOCK:   -1.76 KCAL/MOL
REMARK 927      BINDING AFFINITY PREDICTED BY RF-SCORE:    0.00 PKD
ROOT
HETATM    1  N   UNL     1     -10.314   4.303  65.920  1.00  0.00    -0.450 NA 
HETATM    2  C   UNL     1      -9.967   4.367  67.216  1.00  0.00    -0.115 A  
HETATM    3  H1  UNL     1      -9.889   3.649  65.263  1.00  0.00     0.000 HD 
HETATM    4  H2  UNL     1     -11.035   4.937  65.578  1.00  0.00     0.000 HD 
HETATM    5  N   UNL     1     -10.513   5.207  68.059  1.00  0.00    -0.076 NA 
HETATM    6  C   UNL     1      -9.961   5.042  69.325  1.00  0.00    -0.207 A  
HETATM    7  S   UNL     1      -8.785   3.317  67.879  1.00  0.00    -0.124 SA 
HETATM    8  C   UNL     1      -9.003   4.050  69.412  1.00  0.00    -0.108 A  
ENDROOT
BRANCH   6   9
HETATM    9  C   UNL     1     -10.449   5.902  70.440  1.00  0.00    -0.324 C  
BRANCH   9  10
HETATM   10  C   UNL     1     -10.620   7.366  70.072  1.00  0.00    -0.232 C  
HETATM   11  N   UNL     1      -9.780   7.835  69.073  1.00  0.00    -0.156 N  
HETATM   12  O   UNL     1     -11.540   8.001  70.590  1.00  0.00    -0.272 OA 
HETATM   13  H   UNL     1      -9.070   7.191  68.724  1.00  0.00     0.000 HD 
BRANCH  11  14
HETATM   14  C   UNL     1      -9.819   9.121  68.496  1.00  0.00    -0.164 A  
HETATM   15  C   UNL     1      -9.152  10.217  69.041  1.00  0.00    -0.187 A  
HETATM   16  C   UNL     1      -9.313  11.495  68.502  1.00  0.00    -0.171 A  
HETATM   17  C   UNL     1     -10.136  11.702  67.392  1.00  0.00    -0.218 A  
HETATM   18  C   UNL     1     -10.588   9.310  67.343  1.00  0.00    -0.324 A  
HETATM   19  C   UNL     1     -10.757  10.593  66.803  1.00  0.00    -0.272 A  
BRANCH  17  20
HETATM   20  C   UNL     1     -10.388  13.104  66.877  1.00  0.00    -0.247 C  
BRANCH  20  21
HETATM   21  C   UNL     1     -11.840  13.387  66.456  1.00  0.00    -0.396 C  
BRANCH  21  22
HETATM   22  N   UNL     1     -12.421  14.463  67.253  1.00  0.00    -0.529 NA 
HETATM   23  H   UNL     1     -13.288  14.164  67.700  1.00  0.00     0.000 HD 
BRANCH  22  24
HETATM   24  C   UNL     1     -11.477  15.001  68.240  1.00  0.00    -0.332 C  
BRANCH  24  25
HETATM   25  C   UNL     1     -12.156  15.410  69.572  1.00  0.00    -0.305 C  
HETATM   26  O   UNL     1     -11.330  16.357  70.266  1.00  0.00    -0.436 OA 
HETATM   27  H   UNL     1     -11.747  16.607  71.082  1.00  0.00     0.000 HD 
BRANCH  25  28
HETATM   28  C   UNL     1     -12.527  14.268  70.501  1.00  0.00    -0.428 A  
HETATM   29  C   UNL     1     -12.040  12.975  70.260  1.00  0.00    -0.388 A  
HETATM   30  C   UNL     1     -12.435  11.903  71.067  1.00  0.00    -0.390 A  
HETATM   31  C   UNL     1     -13.315  12.112  72.126  1.00  0.00    -0.438 A  
HETATM   32  C   UNL     1     -13.788  13.393  72.393  1.00  0.00    -0.665 A  
HETATM   33  C   UNL     1     -13.397  14.463  71.586  1.00  0.00    -0.442 A  
ENDBRANCH  25  28
ENDBRANCH  24  25
ENDBRANCH  22  24
ENDBRANCH  21  22
ENDBRANCH  20  21
ENDBRANCH  17  20
ENDBRANCH  11  14
ENDBRANCH   9  10
ENDBRANCH   6   9
TORSDOF 9
ENDMDL
MODEL       78
REMARK 921   NORMALIZED FREE ENERGY PREDICTED BY IDOCK:   -5.05 KCAL/MOL
REMARK 922        TOTAL FREE ENERGY PREDICTED BY IDOCK:  -10.15 KCAL/MOL
REMARK 923 INTER-LIGAND FREE ENERGY PREDICTED BY IDOCK:   -8.63 KCAL/MOL
REMARK 924 INTRA-LIGAND FREE ENERGY PREDICTED BY IDOCK:   -1.53 KCAL/MOL
REMARK 927      BINDING AFFINITY PREDICTED BY RF-SCORE:    0.00 PKD
ROOT
HETATM    1  N   UNL     1     -12.036   7.728  72.970  1.00  0.00    -0.629 NA 
HETATM    2  C   UNL     1     -11.347   6.768  72.331  1.00  0.00    -0.268 A  
HETATM    3  H1  UNL     1     -12.310   7.655  73.950  1.00  0.00     0.000 HD 
HETATM    4  H2  UNL     1     -12.297   8.566  72.453  1.00  0.00     0.000 HD 
HETATM    5  N   UNL     1     -10.996   6.861  71.073  1.00  0.00    -0.244 NA 
HETATM    6  C   UNL     1     -10.292   5.725  70.687  1.00  0.00    -0.245 A  
HETATM    7  S   UNL     1     -10.844   5.341  73.136  1.00  0.00    -0.310 SA 
HETATM    8  C   UNL     1     -10.113   4.790  71.688  1.00  0.00    -0.194 A  
ENDROOT
BRANCH   6   9
HETATM    9  C   UNL     1      -9.794   5.631  69.286  1.00  0.00    -0.230 C  
BRANCH   9  10
HETATM   10  C   UNL     1     -10.382   6.665  68.342  1.00  0.00    -0.193 C  
HETATM   11  N   UNL     1      -9.847   7.941  68.442  1.00  0.00    -0.168 N  
HETATM   12  O   UNL     1     -11.195   6.295  67.494  1.00  0.00    -0.328 OA 
HETATM   13  H   UNL     1      -9.167   8.102  69.185  1.00  0.00     0.000 HD 
BRANCH  11  14
HETATM   14  C   UNL     1     -10.157   9.035  67.609  1.00  0.00    -0.216 A  
HETATM   15  C   UNL     1     -10.965  10.096  68.020  1.00  0.00    -0.326 A  
HETATM   16  C   UNL     1     -11.340  11.099  67.125  1.00  0.00    -0.257 A  
HETATM   17  C   UNL     1     -10.903  11.072  65.798  1.00  0.00    -0.167 A  
HETATM   18  C   UNL     1      -9.660   9.040  66.302  1.00  0.00    -0.327 A  
HETATM   19  C   UNL     1     -10.041  10.042  65.399  1.00  0.00    -0.317 A  
BRANCH  17  20
HETATM   20  C   UNL     1     -11.398  12.105  64.807  1.00  0.00    -0.378 C  
BRANCH  20  21
HETATM   21  C   UNL     1     -10.290  12.881  64.074  1.00  0.00    -0.322 C  
BRANCH  21  22
HETATM   22  N   UNL     1      -9.817  14.007  64.873  1.00  0.00    -0.569 NA 
HETATM   23  H   UNL     1      -9.012  14.456  64.437  1.00  0.00     0.000 HD 
BRANCH  22  24
HETATM   24  C   UNL     1     -10.879  14.982  65.151  1.00  0.00    -0.407 C  
BRANCH  24  25
HETATM   25  C   UNL     1     -10.528  15.950  66.309  1.00  0.00    -0.318 C  
HETATM   26  O   UNL     1      -9.119  16.226  66.298  1.00  0.00    -0.277 OA 
HETATM   27  H   UNL     1      -8.903  16.819  67.008  1.00  0.00     0.000 HD 
BRANCH  25  28
HETATM   28  C   UNL     1     -10.956  15.504  67.695  1.00  0.00    -0.315 A  
HETATM   29  C   UNL     1     -10.388  16.094  68.835  1.00  0.00    -0.250 A  
HETATM   30  C   UNL     1     -10.721  15.639  70.114  1.00  0.00    -0.355 A  
HETATM   31  C   UNL     1     -11.629  14.594  70.271  1.00  0.00    -0.335 A  
HETATM   32  C   UNL     1     -12.220  14.015  69.152  1.00  0.00    -0.299 A  
HETATM   33  C   UNL     1     -11.886  14.467  67.874  1.00  0.00    -0.384 A  
ENDBRANCH  25  28
ENDBRANCH  24  25
ENDBRANCH  22  24
ENDBRANCH  21  22
ENDBRANCH  20  21
ENDBRANCH  17  20
ENDBRANCH  11  14
ENDBRANCH   9  10
ENDBRANCH   6   9
TORSDOF 9
ENDMDL
MODEL       79
REMARK 921   NORMALIZED FREE ENERGY PREDICTED BY IDOCK:   -5.05 KCAL/MOL
REMARK 922        TOTAL FREE ENERGY PREDICTED BY IDOCK:  -10.15 KCAL/MOL
REMARK 923 INTER-LIGAND FREE ENERGY PREDICTED BY IDOCK:   -9.55 KCAL/MOL
REMARK 924 INTRA-LIGAND FREE ENERGY PREDICTED BY IDOCK:   -0.59 KCAL/MOL
REMARK 927      BINDING AFFINITY PREDICTED BY RF-SCORE:    0.00 PKD
ROOT
HETATM    1  N   UNL     1      -7.061  16.714  66.674  1.00  0.00    -0.232 NA 
HETATM    2  C   UNL     1      -8.343  16.837  66.295  1.00  0.00    -0.318 A  
HETATM    3  H1  UNL     1      -6.532  17.474  67.102  1.00  0.00     0.000 HD 
HETATM    4  H2  UNL     1      -6.593  15.820  66.526  1.00  0.00     0.000 HD 
HETATM    5  N   UNL     1      -9.021  15.861  65.745  1.00  0.00    -0.293 NA 
HETATM    6  C   UNL     1     -10.318  16.277  65.466  1.00  0.00    -0.338 A  
HETATM    7  S   UNL     1      -9.211  18.296  66.536  1.00  0.00    -0.269 SA 
HETATM    8  C   UNL     1     -10.599  17.579  65.834  1.00  0.00    -0.203 A  
ENDROOT
BRANCH   6   9
HETATM    9  C   UNL     1     -11.263  15.310  64.839  1.00  0.00    -0.422 C  
BRANCH   9  10
HETATM   10  C   UNL     1     -11.914  14.347  65.816  1.00  0.00    -0.357 C  
HETATM   11  N   UNL     1     -11.260  14.191  67.029  1.00  0.00    -0.307 N  
HETATM   12  O   UNL     1     -13.007  13.861  65.526  1.00  0.00    -0.673 OA 
HETATM   13  H   UNL     1     -10.364  14.668  67.138  1.00  0.00     0.000 HD 
BRANCH  11  14
HETATM   14  C   UNL     1     -11.721  13.435  68.126  1.00  0.00    -0.362 A  
HETATM   15  C   UNL     1     -12.161  14.014  69.316  1.00  0.00    -0.380 A  
HETATM   16  C   UNL     1     -12.498  13.224  70.416  1.00  0.00    -0.295 A  
HETATM   17  C   UNL     1     -12.416  11.831  70.346  1.00  0.00    -0.280 A  
HETATM   18  C   UNL     1     -11.703  12.040  68.027  1.00  0.00    -0.398 A  
HETATM   19  C   UNL     1     -12.034  11.244  69.132  1.00  0.00    -0.405 A  
BRANCH  17  20
HETATM   20  C   UNL     1     -12.682  10.985  71.574  1.00  0.00    -0.521 C  
BRANCH  20  21
HETATM   21  C   UNL     1     -11.952   9.631  71.597  1.00  0.00    -0.394 C  
BRANCH  21  22
HETATM   22  N   UNL     1     -12.676   8.655  72.408  1.00  0.00    -0.482 NA 
HETATM   23  H   UNL     1     -13.552   9.044  72.756  1.00  0.00     0.000 HD 
BRANCH  22  24
HETATM   24  C   UNL     1     -12.903   7.393  71.694  1.00  0.00    -0.367 C  
BRANCH  24  25
HETATM   25  C   UNL     1     -11.816   6.327  71.983  1.00  0.00    -0.318 C  
HETATM   26  O   UNL     1     -12.257   5.461  73.040  1.00  0.00    -0.533 OA 
HETATM   27  H   UNL     1     -11.590   4.808  73.217  1.00  0.00     0.000 HD 
BRANCH  25  28
HETATM   28  C   UNL     1     -10.432   6.865  72.299  1.00  0.00    -0.233 A  
HETATM   29  C   UNL     1     -10.071   7.152  73.624  1.00  0.00    -0.389 A  
HETATM   30  C   UNL     1      -8.826   7.717  73.917  1.00  0.00    -0.311 A  
HETATM   31  C   UNL     1      -7.925   7.995  72.891  1.00  0.00    -0.202 A  
HETATM   32  C   UNL     1      -8.259   7.694  71.574  1.00  0.00    -0.108 A  
HETATM   33  C   UNL     1      -9.503   7.133  71.280  1.00  0.00    -0.163 A  
ENDBRANCH  25  28
ENDBRANCH  24  25
ENDBRANCH  22  24
ENDBRANCH  21  22
ENDBRANCH  20  21
ENDBRANCH  17  20
ENDBRANCH  11  14
ENDBRANCH   9  10
ENDBRANCH   6   9
TORSDOF 9
ENDMDL
MODEL       80
REMARK 921   NORMALIZED FREE ENERGY PREDICTED BY IDOCK:   -5.02 KCAL/MOL
REMARK 922        TOTAL FREE ENERGY PREDICTED BY IDOCK:  -10.11 KCAL/MOL
REMARK 923 INTER-LIGAND FREE ENERGY PREDICTED BY IDOCK:   -8.58 KCAL/MOL
REMARK 924 INTRA-LIGAND FREE ENERGY PREDICTED BY IDOCK:   -1.53 KCAL/MOL
REMARK 927      BINDING AFFINITY PREDICTED BY RF-SCORE:    0.00 PKD
ROOT
HETATM    1  N   UNL     1      -6.245   8.531  65.731  1.00  0.00    -0.051 NA 
HETATM    2  C   UNL     1      -6.790   9.224  64.718  1.00  0.00    -0.087 A  
HETATM    3  H1  UNL     1      -5.240   8.386  65.827  1.00  0.00     0.000 HD 
HETATM    4  H2  UNL     1      -6.863   8.132  66.436  1.00  0.00     0.000 HD 
HETATM    5  N   UNL     1      -8.080   9.410  64.595  1.00  0.00    -0.125 NA 
HETATM    6  C   UNL     1      -8.349  10.166  63.459  1.00  0.00    -0.169 A  
HETATM    7  S   UNL     1      -5.819   9.954  63.508  1.00  0.00    -0.125 SA 
HETATM    8  C   UNL     1      -7.230  10.553  62.746  1.00  0.00    -0.078 A  
ENDROOT
BRANCH   6   9
HETATM    9  C   UNL     1      -9.765  10.498  63.136  1.00  0.00    -0.351 C  
BRANCH   9  10
HETATM   10  C   UNL     1     -10.310  11.706  63.878  1.00  0.00    -0.369 C  
HETATM   11  N   UNL     1     -10.080  11.722  65.246  1.00  0.00    -0.254 N  
HETATM   12  O   UNL     1     -10.811  12.623  63.226  1.00  0.00    -0.357 OA 
HETATM   13  H   UNL     1      -9.640  10.897  65.652  1.00  0.00     0.000 HD 
BRANCH  11  14
HETATM   14  C   UNL     1     -10.399  12.777  66.126  1.00  0.00    -0.269 A  
HETATM   15  C   UNL     1      -9.434  13.498  66.828  1.00  0.00    -0.272 A  
HETATM   16  C   UNL     1      -9.802  14.455  67.775  1.00  0.00    -0.221 A  
HETATM   17  C   UNL     1     -11.149  14.723  68.032  1.00  0.00    -0.294 A  
HETATM   18  C   UNL     1     -11.748  13.090  66.328  1.00  0.00    -0.440 A  
HETATM   19  C   UNL     1     -12.121  14.045  67.284  1.00  0.00    -0.405 A  
BRANCH  17  20
HETATM   20  C   UNL     1     -11.542  15.685  69.133  1.00  0.00    -0.393 C  
BRANCH  20  21
HETATM   21  C   UNL     1     -10.740  15.538  70.438  1.00  0.00    -0.320 C  
BRANCH  21  22
HETATM   22  N   UNL     1     -11.492  14.783  71.437  1.00  0.00    -0.531 NA 
HETATM   23  H   UNL     1     -11.508  15.271  72.332  1.00  0.00     0.000 HD 
BRANCH  22  24
HETATM   24  C   UNL     1     -12.851  14.458  70.987  1.00  0.00    -0.353 C  
BRANCH  24  25
HETATM   25  C   UNL     1     -13.370  13.109  71.547  1.00  0.00    -0.222 C  
HETATM   26  O   UNL     1     -13.334  13.135  72.982  1.00  0.00    -0.518 OA 
HETATM   27  H   UNL     1     -13.652  12.308  73.325  1.00  0.00     0.000 HD 
BRANCH  25  28
HETATM   28  C   UNL     1     -12.665  11.866  71.034  1.00  0.00    -0.354 A  
HETATM   29  C   UNL     1     -12.796  10.647  71.716  1.00  0.00    -0.549 A  
HETATM   30  C   UNL     1     -12.092   9.515  71.295  1.00  0.00    -0.443 A  
HETATM   31  C   UNL     1     -11.253   9.586  70.185  1.00  0.00    -0.275 A  
HETATM   32  C   UNL     1     -11.130  10.782  69.484  1.00  0.00    -0.334 A  
HETATM   33  C   UNL     1     -11.831  11.913  69.905  1.00  0.00    -0.418 A  
ENDBRANCH  25  28
ENDBRANCH  24  25
ENDBRANCH  22  24
ENDBRANCH  21  22
ENDBRANCH  20  21
ENDBRANCH  17  20
ENDBRANCH  11  14
ENDBRANCH   9  10
ENDBRANCH   6   9
TORSDOF 9
ENDMDL
MODEL       81
REMARK 921   NORMALIZED FREE ENERGY PREDICTED BY IDOCK:   -5.02 KCAL/MOL
REMARK 922        TOTAL FREE ENERGY PREDICTED BY IDOCK:  -10.11 KCAL/MOL
REMARK 923 INTER-LIGAND FREE ENERGY PREDICTED BY IDOCK:   -9.50 KCAL/MOL
REMARK 924 INTRA-LIGAND FREE ENERGY PREDICTED BY IDOCK:   -0.61 KCAL/MOL
REMARK 927      BINDING AFFINITY PREDICTED BY RF-SCORE:    0.00 PKD
ROOT
HETATM    1  N   UNL     1     -10.956   4.549  74.075  1.00  0.00    -0.256 NA 
HETATM    2  C   UNL     1     -10.756   5.365  73.027  1.00  0.00    -0.257 A  
HETATM    3  H1  UNL     1     -10.928   3.531  74.000  1.00  0.00     0.000 HD 
HETATM    4  H2  UNL     1     -11.144   4.964  74.987  1.00  0.00     0.000 HD 
HETATM    5  N   UNL     1     -10.791   6.670  73.124  1.00  0.00    -0.274 NA 
HETATM    6  C   UNL     1     -10.544   7.249  71.883  1.00  0.00    -0.212 A  
HETATM    7  S   UNL     1     -10.404   4.747  71.467  1.00  0.00    -0.079 SA 
HETATM    8  C   UNL     1     -10.308   6.347  70.863  1.00  0.00    -0.204 A  
ENDROOT
BRANCH   6   9
HETATM    9  C   UNL     1     -10.534   8.734  71.773  1.00  0.00    -0.417 C  
BRANCH   9  10
HETATM   10  C   UNL     1     -10.060   9.259  70.429  1.00  0.00    -0.236 C  
HETATM   11  N   UNL     1     -11.054   9.481  69.488  1.00  0.00    -0.387 N  
HETATM   12  O   UNL     1      -8.871   9.552  70.296  1.00  0.00    -0.216 OA 
HETATM   13  H   UNL     1     -12.002   9.203  69.741  1.00  0.00     0.000 HD 
BRANCH  11  14
HETATM   14  C   UNL     1     -10.872  10.056  68.213  1.00  0.00    -0.241 A  
HETATM   15  C   UNL     1     -10.349   9.350  67.130  1.00  0.00    -0.326 A  
HETATM   16  C   UNL     1     -10.079   9.991  65.920  1.00  0.00    -0.319 A  
HETATM   17  C   UNL     1     -10.341  11.354  65.761  1.00  0.00    -0.304 A  
HETATM   18  C   UNL     1     -11.202  11.404  68.038  1.00  0.00    -0.346 A  
HETATM   19  C   UNL     1     -10.925  12.052  66.826  1.00  0.00    -0.329 A  
BRANCH  17  20
HETATM   20  C   UNL     1      -9.949  12.065  64.482  1.00  0.00    -0.239 C  
BRANCH  20  21
HETATM   21  C   UNL     1     -10.771  13.327  64.166  1.00  0.00    -0.326 C  
BRANCH  21  22
HETATM   22  N   UNL     1      -9.982  14.537  64.376  1.00  0.00    -0.430 NA 
HETATM   23  H   UNL     1     -10.114  15.200  63.612  1.00  0.00     0.000 HD 
BRANCH  22  24
HETATM   24  C   UNL     1     -10.258  15.166  65.674  1.00  0.00    -0.361 C  
BRANCH  24  25
HETATM   25  C   UNL     1     -11.040  16.499  65.549  1.00  0.00     0.038 C  
HETATM   26  O   UNL     1     -11.163  16.859  64.164  1.00  0.00    -1.386 OA 
HETATM   27  H   UNL     1     -11.642  17.676  64.087  1.00  0.00     0.000 HD 
BRANCH  25  28
HETATM   28  C   UNL     1     -10.481  17.669  66.339  1.00  0.00    -0.286 A  
HETATM   29  C   UNL     1     -10.167  17.518  67.698  1.00  0.00    -0.343 A  
HETATM   30  C   UNL     1      -9.722  18.608  68.452  1.00  0.00    -0.405 A  
HETATM   31  C   UNL     1      -9.580  19.859  67.856  1.00  0.00    -0.490 A  
HETATM   32  C   UNL     1      -9.864  20.020  66.504  1.00  0.00    -0.581 A  
HETATM   33  C   UNL     1     -10.311  18.933  65.750  1.00  0.00    -0.285 A  
ENDBRANCH  25  28
ENDBRANCH  24  25
ENDBRANCH  22  24
ENDBRANCH  21  22
ENDBRANCH  20  21
ENDBRANCH  17  20
ENDBRANCH  11  14
ENDBRANCH   9  10
ENDBRANCH   6   9
TORSDOF 9
ENDMDL
MODEL       82
REMARK 921   NORMALIZED FREE ENERGY PREDICTED BY IDOCK:   -5.00 KCAL/MOL
REMARK 922        TOTAL FREE ENERGY PREDICTED BY IDOCK:  -10.08 KCAL/MOL
REMARK 923 INTER-LIGAND FREE ENERGY PREDICTED BY IDOCK:   -8.34 KCAL/MOL
REMARK 924 INTRA-LIGAND FREE ENERGY PREDICTED BY IDOCK:   -1.74 KCAL/MOL
REMARK 927      BINDING AFFINITY PREDICTED BY RF-SCORE:    0.00 PKD
ROOT
HETATM    1  N   UNL     1     -10.456  16.889  68.429  1.00  0.00    -0.334 NA 
HETATM    2  C   UNL     1     -10.525  15.992  67.432  1.00  0.00    -0.308 A  
HETATM    3  H1  UNL     1      -9.821  17.687  68.414  1.00  0.00     0.000 HD 
HETATM    4  H2  UNL     1     -11.066  16.767  69.236  1.00  0.00     0.000 HD 
HETATM    5  N   UNL     1     -11.340  14.967  67.450  1.00  0.00    -0.337 NA 
HETATM    6  C   UNL     1     -11.194  14.218  66.287  1.00  0.00    -0.337 A  
HETATM    7  S   UNL     1      -9.557  16.142  66.025  1.00  0.00    -0.338 SA 
HETATM    8  C   UNL     1     -10.265  14.716  65.394  1.00  0.00    -0.387 A  
ENDROOT
BRANCH   6   9
HETATM    9  C   UNL     1     -12.038  13.004  66.104  1.00  0.00    -0.473 C  
BRANCH   9  10
HETATM   10  C   UNL     1     -11.732  11.877  67.075  1.00  0.00    -0.227 C  
HETATM   11  N   UNL     1     -11.855  12.193  68.420  1.00  0.00    -0.329 N  
HETATM   12  O   UNL     1     -11.506  10.754  66.622  1.00  0.00    -0.169 OA 
HETATM   13  H   UNL     1     -12.061  13.165  68.650  1.00  0.00     0.000 HD 
BRANCH  11  14
HETATM   14  C   UNL     1     -11.721  11.294  69.497  1.00  0.00    -0.345 A  
HETATM   15  C   UNL     1     -10.667  10.386  69.600  1.00  0.00    -0.304 A  
HETATM   16  C   UNL     1     -10.637   9.436  70.622  1.00  0.00    -0.354 A  
HETATM   17  C   UNL     1     -11.658   9.381  71.576  1.00  0.00    -0.467 A  
HETATM   18  C   UNL     1     -12.708  11.290  70.488  1.00  0.00    -0.257 A  
HETATM   19  C   UNL     1     -12.685  10.332  71.511  1.00  0.00    -0.557 A  
BRANCH  17  20
HETATM   20  C   UNL     1     -11.674   8.284  72.619  1.00  0.00    -0.406 C  
BRANCH  20  21
HETATM   21  C   UNL     1     -10.290   7.719  72.986  1.00  0.00    -0.347 C  
BRANCH  21  22
HETATM   22  N   UNL     1     -10.349   6.277  73.204  1.00  0.00    -0.208 NA 
HETATM   23  H   UNL     1     -10.584   6.060  74.172  1.00  0.00     0.000 HD 
BRANCH  22  24
HETATM   24  C   UNL     1     -11.267   5.607  72.274  1.00  0.00    -0.259 C  
BRANCH  24  25
HETATM   25  C   UNL     1     -10.535   4.765  71.199  1.00  0.00    -0.051 C  
HETATM   26  O   UNL     1      -9.389   4.126  71.783  1.00  0.00    -0.122 OA 
HETATM   27  H   UNL     1      -8.940   3.609  71.123  1.00  0.00     0.000 HD 
BRANCH  25  28
HETATM   28  C   UNL     1     -10.126   5.510  69.942  1.00  0.00    -0.305 A  
HETATM   29  C   UNL     1     -11.087   6.192  69.181  1.00  0.00    -0.448 A  
HETATM   30  C   UNL     1     -10.733   6.820  67.982  1.00  0.00    -0.302 A  
HETATM   31  C   UNL     1      -9.415   6.778  67.533  1.00  0.00    -0.139 A  
HETATM   32  C   UNL     1      -8.446   6.125  68.288  1.00  0.00    -0.113 A  
HETATM   33  C   UNL     1      -8.798   5.496  69.484  1.00  0.00    -0.115 A  
ENDBRANCH  25  28
ENDBRANCH  24  25
ENDBRANCH  22  24
ENDBRANCH  21  22
ENDBRANCH  20  21
ENDBRANCH  17  20
ENDBRANCH  11  14
ENDBRANCH   9  10
ENDBRANCH   6   9
TORSDOF 9
ENDMDL
MODEL       83
REMARK 921   NORMALIZED FREE ENERGY PREDICTED BY IDOCK:   -4.98 KCAL/MOL
REMARK 922        TOTAL FREE ENERGY PREDICTED BY IDOCK:  -10.05 KCAL/MOL
REMARK 923 INTER-LIGAND FREE ENERGY PREDICTED BY IDOCK:   -9.00 KCAL/MOL
REMARK 924 INTRA-LIGAND FREE ENERGY PREDICTED BY IDOCK:   -1.04 KCAL/MOL
REMARK 927      BINDING AFFINITY PREDICTED BY RF-SCORE:    0.00 PKD
ROOT
HETATM    1  N   UNL     1     -13.160  11.556  63.199  1.00  0.00    -0.670 NA 
HETATM    2  C   UNL     1     -12.385  12.278  64.024  1.00  0.00    -0.475 A  
HETATM    3  H1  UNL     1     -12.804  11.101  62.358  1.00  0.00     0.000 HD 
HETATM    4  H2  UNL     1     -14.150  11.458  63.422  1.00  0.00     0.000 HD 
HETATM    5  N   UNL     1     -12.843  12.862  65.102  1.00  0.00    -0.773 NA 
HETATM    6  C   UNL     1     -11.815  13.531  65.759  1.00  0.00    -0.372 A  
HETATM    7  S   UNL     1     -10.705  12.466  63.737  1.00  0.00    -0.459 SA 
HETATM    8  C   UNL     1     -10.577  13.419  65.155  1.00  0.00    -0.343 A  
ENDROOT
BRANCH   6   9
HETATM    9  C   UNL     1     -12.123  14.262  67.020  1.00  0.00    -0.424 C  
BRANCH   9  10
HETATM   10  C   UNL     1     -11.692  13.538  68.284  1.00  0.00    -0.359 C  
HETATM   11  N   UNL     1     -12.063  12.205  68.368  1.00  0.00    -0.184 N  
HETATM   12  O   UNL     1     -10.966  14.130  69.084  1.00  0.00    -0.252 OA 
HETATM   13  H   UNL     1     -12.656  11.841  67.622  1.00  0.00     0.000 HD 
BRANCH  11  14
HETATM   14  C   UNL     1     -11.695  11.306  69.390  1.00  0.00    -0.339 A  
HETATM   15  C   UNL     1     -10.613  10.433  69.280  1.00  0.00    -0.259 A  
HETATM   16  C   UNL     1     -10.356   9.482  70.268  1.00  0.00    -0.321 A  
HETATM   17  C   UNL     1     -11.171   9.390  71.399  1.00  0.00    -0.452 A  
HETATM   18  C   UNL     1     -12.472  11.267  70.553  1.00  0.00    -0.398 A  
HETATM   19  C   UNL     1     -12.221  10.307  71.543  1.00  0.00    -0.449 A  
BRANCH  17  20
HETATM   20  C   UNL     1     -10.950   8.289  72.415  1.00  0.00    -0.438 C  
BRANCH  20  21
HETATM   21  C   UNL     1      -9.551   7.649  72.382  1.00  0.00    -0.168 C  
BRANCH  21  22
HETATM   22  N   UNL     1      -9.378   6.702  73.480  1.00  0.00    -0.138 NA 
HETATM   23  H   UNL     1     -10.214   6.657  74.062  1.00  0.00     0.000 HD 
BRANCH  22  24
HETATM   24  C   UNL     1      -8.987   5.367  73.011  1.00  0.00    -0.119 C  
BRANCH  24  25
HETATM   25  C   UNL     1     -10.142   4.606  72.312  1.00  0.00    -0.189 C  
HETATM   26  O   UNL     1     -10.726   3.667  73.227  1.00  0.00    -0.176 OA 
HETATM   27  H   UNL     1     -11.435   3.201  72.798  1.00  0.00     0.000 HD 
BRANCH  25  28
HETATM   28  C   UNL     1      -9.782   3.908  71.013  1.00  0.00    -0.252 A  
HETATM   29  C   UNL     1      -9.944   4.569  69.786  1.00  0.00    -0.268 A  
HETATM   30  C   UNL     1      -9.686   3.909  68.581  1.00  0.00    -0.114 A  
HETATM   31  C   UNL     1      -9.257   2.583  68.588  1.00  0.00    -0.239 A  
HETATM   32  C   UNL     1      -9.069   1.921  69.796  1.00  0.00    -0.159 A  
HETATM   33  C   UNL     1      -9.330   2.578  71.001  1.00  0.00    -0.214 A  
ENDBRANCH  25  28
ENDBRANCH  24  25
ENDBRANCH  22  24
ENDBRANCH  21  22
ENDBRANCH  20  21
ENDBRANCH  17  20
ENDBRANCH  11  14
ENDBRANCH   9  10
ENDBRANCH   6   9
TORSDOF 9
ENDMDL
MODEL       84
REMARK 921   NORMALIZED FREE ENERGY PREDICTED BY IDOCK:   -4.96 KCAL/MOL
REMARK 922        TOTAL FREE ENERGY PREDICTED BY IDOCK:  -10.02 KCAL/MOL
REMARK 923 INTER-LIGAND FREE ENERGY PREDICTED BY IDOCK:   -8.55 KCAL/MOL
REMARK 924 INTRA-LIGAND FREE ENERGY PREDICTED BY IDOCK:   -1.47 KCAL/MOL
REMARK 927      BINDING AFFINITY PREDICTED BY RF-SCORE:    0.00 PKD
ROOT
HETATM    1  N   UNL     1     -10.616   4.313  65.252  1.00  0.00    -0.569 NA 
HETATM    2  C   UNL     1      -9.737   4.945  66.046  1.00  0.00    -0.188 A  
HETATM    3  H1  UNL     1     -11.282   3.622  65.599  1.00  0.00     0.000 HD 
HETATM    4  H2  UNL     1     -10.619   4.533  64.257  1.00  0.00     0.000 HD 
HETATM    5  N   UNL     1      -8.883   5.831  65.600  1.00  0.00    -0.153 NA 
HETATM    6  C   UNL     1      -8.107   6.319  66.647  1.00  0.00    -0.110 A  
HETATM    7  S   UNL     1      -9.688   4.655  67.735  1.00  0.00    -0.134 SA 
HETATM    8  C   UNL     1      -8.413   5.789  67.886  1.00  0.00    -0.103 A  
ENDROOT
BRANCH   6   9
HETATM    9  C   UNL     1      -7.071   7.348  66.354  1.00  0.00    -0.074 C  
BRANCH   9  10
HETATM   10  C   UNL     1      -7.627   8.726  66.041  1.00  0.00    -0.093 C  
HETATM   11  N   UNL     1      -8.756   8.748  65.235  1.00  0.00    -0.220 N  
HETATM   12  O   UNL     1      -7.124   9.705  66.594  1.00  0.00    -0.084 OA 
HETATM   13  H   UNL     1      -9.072   7.856  64.856  1.00  0.00     0.000 HD 
BRANCH  11  14
HETATM   14  C   UNL     1      -9.506   9.892  64.893  1.00  0.00    -0.291 A  
HETATM   15  C   UNL     1     -10.304  10.578  65.808  1.00  0.00    -0.270 A  
HETATM   16  C   UNL     1     -11.119  11.634  65.398  1.00  0.00    -0.299 A  
HETATM   17  C   UNL     1     -11.143  12.039  64.061  1.00  0.00    -0.452 A  
HETATM   18  C   UNL     1      -9.473  10.337  63.567  1.00  0.00    -0.345 A  
HETATM   19  C   UNL     1     -10.295  11.393  63.151  1.00  0.00    -0.357 A  
BRANCH  17  20
HETATM   20  C   UNL     1     -12.105  13.116  63.604  1.00  0.00    -0.583 C  
BRANCH  20  21
HETATM   21  C   UNL     1     -12.100  14.394  64.460  1.00  0.00    -0.481 C  
BRANCH  21  22
HETATM   22  N   UNL     1     -10.772  14.999  64.498  1.00  0.00    -0.596 NA 
HETATM   23  H   UNL     1     -10.511  15.371  63.585  1.00  0.00     0.000 HD 
BRANCH  22  24
HETATM   24  C   UNL     1     -10.654  16.026  65.540  1.00  0.00    -0.398 C  
BRANCH  24  25
HETATM   25  C   UNL     1      -9.916  15.524  66.807  1.00  0.00    -0.249 C  
HETATM   26  O   UNL     1      -9.012  14.466  66.452  1.00  0.00    -0.439 OA 
HETATM   27  H   UNL     1      -8.559  14.158  67.229  1.00  0.00     0.000 HD 
BRANCH  25  28
HETATM   28  C   UNL     1     -10.803  15.081  67.956  1.00  0.00    -0.270 A  
HETATM   29  C   UNL     1     -11.214  16.006  68.929  1.00  0.00    -0.353 A  
HETATM   30  C   UNL     1     -11.969  15.594  70.030  1.00  0.00    -0.384 A  
HETATM   31  C   UNL     1     -12.329  14.255  70.171  1.00  0.00    -0.413 A  
HETATM   32  C   UNL     1     -11.950  13.330  69.203  1.00  0.00    -0.343 A  
HETATM   33  C   UNL     1     -11.192  13.740  68.104  1.00  0.00    -0.298 A  
ENDBRANCH  25  28
ENDBRANCH  24  25
ENDBRANCH  22  24
ENDBRANCH  21  22
ENDBRANCH  20  21
ENDBRANCH  17  20
ENDBRANCH  11  14
ENDBRANCH   9  10
ENDBRANCH   6   9
TORSDOF 9
ENDMDL
MODEL       85
REMARK 921   NORMALIZED FREE ENERGY PREDICTED BY IDOCK:   -4.96 KCAL/MOL
REMARK 922        TOTAL FREE ENERGY PREDICTED BY IDOCK:  -10.01 KCAL/MOL
REMARK 923 INTER-LIGAND FREE ENERGY PREDICTED BY IDOCK:   -8.67 KCAL/MOL
REMARK 924 INTRA-LIGAND FREE ENERGY PREDICTED BY IDOCK:   -1.34 KCAL/MOL
REMARK 927      BINDING AFFINITY PREDICTED BY RF-SCORE:    0.00 PKD
ROOT
HETATM    1  N   UNL     1      -6.796   5.295  71.064  1.00  0.00    -0.046 NA 
HETATM    2  C   UNL     1      -7.775   5.532  71.952  1.00  0.00    -0.104 A  
HETATM    3  H1  UNL     1      -5.835   5.090  71.338  1.00  0.00     0.000 HD 
HETATM    4  H2  UNL     1      -7.024   5.322  70.071  1.00  0.00     0.000 HD 
HETATM    5  N   UNL     1      -9.008   5.796  71.601  1.00  0.00    -0.136 NA 
HETATM    6  C   UNL     1      -9.797   5.992  72.730  1.00  0.00    -0.163 A  
HETATM    7  S   UNL     1      -7.483   5.477  73.641  1.00  0.00    -0.091 SA 
HETATM    8  C   UNL     1      -9.129   5.852  73.931  1.00  0.00    -0.127 A  
ENDROOT
BRANCH   6   9
HETATM    9  C   UNL     1     -11.244   6.300  72.551  1.00  0.00    -0.316 C  
BRANCH   9  10
HETATM   10  C   UNL     1     -11.554   7.162  71.339  1.00  0.00    -0.283 C  
HETATM   11  N   UNL     1     -10.793   8.314  71.212  1.00  0.00    -0.230 N  
HETATM   12  O   UNL     1     -12.362   6.743  70.509  1.00  0.00    -0.326 OA 
HETATM   13  H   UNL     1     -10.149   8.530  71.973  1.00  0.00     0.000 HD 
BRANCH  11  14
HETATM   14  C   UNL     1     -10.829   9.214  70.127  1.00  0.00    -0.240 A  
HETATM   15  C   UNL     1      -9.954   9.132  69.044  1.00  0.00    -0.189 A  
HETATM   16  C   UNL     1      -9.949  10.111  68.051  1.00  0.00    -0.173 A  
HETATM   17  C   UNL     1     -10.832  11.192  68.110  1.00  0.00    -0.266 A  
HETATM   18  C   UNL     1     -11.763  10.255  70.156  1.00  0.00    -0.364 A  
HETATM   19  C   UNL     1     -11.756  11.245  69.163  1.00  0.00    -0.410 A  
BRANCH  17  20
HETATM   20  C   UNL     1     -10.752  12.305  67.086  1.00  0.00    -0.265 C  
BRANCH  20  21
HETATM   21  C   UNL     1      -9.627  13.327  67.328  1.00  0.00    -0.234 C  
BRANCH  21  22
HETATM   22  N   UNL     1      -9.470  13.612  68.752  1.00  0.00    -0.403 NA 
HETATM   23  H   UNL     1      -8.488  13.584  69.027  1.00  0.00     0.000 HD 
BRANCH  22  24
HETATM   24  C   UNL     1     -10.092  14.884  69.140  1.00  0.00    -0.226 C  
BRANCH  24  25
HETATM   25  C   UNL     1     -11.619  14.766  69.377  1.00  0.00    -0.310 C  
HETATM   26  O   UNL     1     -12.312  15.710  68.546  1.00  0.00    -0.489 OA 
HETATM   27  H   UNL     1     -13.248  15.637  68.692  1.00  0.00     0.000 HD 
BRANCH  25  28
HETATM   28  C   UNL     1     -12.077  14.911  70.817  1.00  0.00    -0.377 A  
HETATM   29  C   UNL     1     -12.916  13.945  71.393  1.00  0.00    -0.430 A  
HETATM   30  C   UNL     1     -13.403  14.107  72.693  1.00  0.00    -0.638 A  
HETATM   31  C   UNL     1     -13.052  15.233  73.436  1.00  0.00    -0.612 A  
HETATM   32  C   UNL     1     -12.202  16.188  72.888  1.00  0.00    -0.640 A  
HETATM   33  C   UNL     1     -11.718  16.028  71.588  1.00  0.00    -0.583 A  
ENDBRANCH  25  28
ENDBRANCH  24  25
ENDBRANCH  22  24
ENDBRANCH  21  22
ENDBRANCH  20  21
ENDBRANCH  17  20
ENDBRANCH  11  14
ENDBRANCH   9  10
ENDBRANCH   6   9
TORSDOF 9
ENDMDL
MODEL       86
REMARK 921   NORMALIZED FREE ENERGY PREDICTED BY IDOCK:   -4.95 KCAL/MOL
REMARK 922        TOTAL FREE ENERGY PREDICTED BY IDOCK:  -10.00 KCAL/MOL
REMARK 923 INTER-LIGAND FREE ENERGY PREDICTED BY IDOCK:   -8.82 KCAL/MOL
REMARK 924 INTRA-LIGAND FREE ENERGY PREDICTED BY IDOCK:   -1.18 KCAL/MOL
REMARK 927      BINDING AFFINITY PREDICTED BY RF-SCORE:    0.00 PKD
ROOT
HETATM    1  N   UNL     1     -11.748   4.931  73.478  1.00  0.00    -0.403 NA 
HETATM    2  C   UNL     1     -11.173   5.687  72.528  1.00  0.00    -0.293 A  
HETATM    3  H1  UNL     1     -12.459   5.289  74.117  1.00  0.00     0.000 HD 
HETATM    4  H2  UNL     1     -11.462   3.957  73.565  1.00  0.00     0.000 HD 
HETATM    5  N   UNL     1     -10.260   5.229  71.709  1.00  0.00    -0.203 NA 
HETATM    6  C   UNL     1      -9.854   6.232  70.835  1.00  0.00    -0.181 A  
HETATM    7  S   UNL     1     -11.619   7.326  72.296  1.00  0.00    -0.264 SA 
HETATM    8  C   UNL     1     -10.494   7.444  71.011  1.00  0.00    -0.215 A  
ENDROOT
BRANCH   6   9
HETATM    9  C   UNL     1      -8.819   5.916  69.811  1.00  0.00    -0.129 C  
BRANCH   9  10
HETATM   10  C   UNL     1      -8.551   7.040  68.825  1.00  0.00    -0.125 C  
HETATM   11  N   UNL     1      -9.442   7.134  67.766  1.00  0.00    -0.126 N  
HETATM   12  O   UNL     1      -7.652   7.844  69.076  1.00  0.00    -0.095 OA 
HETATM   13  H   UNL     1     -10.150   6.403  67.690  1.00  0.00     0.000 HD 
BRANCH  11  14
HETATM   14  C   UNL     1      -9.459   8.147  66.786  1.00  0.00    -0.198 A  
HETATM   15  C   UNL     1     -10.289   9.265  66.865  1.00  0.00    -0.316 A  
HETATM   16  C   UNL     1     -10.356  10.183  65.816  1.00  0.00    -0.216 A  
HETATM   17  C   UNL     1      -9.581  10.010  64.666  1.00  0.00    -0.363 A  
HETATM   18  C   UNL     1      -8.629   8.006  65.669  1.00  0.00    -0.167 A  
HETATM   19  C   UNL     1      -8.700   8.922  64.610  1.00  0.00    -0.138 A  
BRANCH  17  20
HETATM   20  C   UNL     1      -9.736  10.951  63.489  1.00  0.00    -0.384 C  
BRANCH  20  21
HETATM   21  C   UNL     1     -10.759  12.082  63.695  1.00  0.00    -0.449 C  
BRANCH  21  22
HETATM   22  N   UNL     1     -10.093  13.353  63.968  1.00  0.00    -0.749 NA 
HETATM   23  H   UNL     1      -9.839  13.828  63.102  1.00  0.00     0.000 HD 
BRANCH  22  24
HETATM   24  C   UNL     1     -10.891  14.227  64.836  1.00  0.00    -0.416 C  
BRANCH  24  25
HETATM   25  C   UNL     1     -11.917  13.451  65.701  1.00  0.00    -0.401 C  
HETATM   26  O   UNL     1     -13.250  13.785  65.285  1.00  0.00    -0.755 OA 
HETATM   27  H   UNL     1     -13.879  13.310  65.815  1.00  0.00     0.000 HD 
BRANCH  25  28
HETATM   28  C   UNL     1     -11.784  13.630  67.203  1.00  0.00    -0.418 A  
HETATM   29  C   UNL     1     -11.749  12.510  68.047  1.00  0.00    -0.410 A  
HETATM   30  C   UNL     1     -11.702  12.666  69.436  1.00  0.00    -0.387 A  
HETATM   31  C   UNL     1     -11.683  13.941  69.997  1.00  0.00    -0.338 A  
HETATM   32  C   UNL     1     -11.693  15.062  69.172  1.00  0.00    -0.345 A  
HETATM   33  C   UNL     1     -11.743  14.907  67.785  1.00  0.00    -0.340 A  
ENDBRANCH  25  28
ENDBRANCH  24  25
ENDBRANCH  22  24
ENDBRANCH  21  22
ENDBRANCH  20  21
ENDBRANCH  17  20
ENDBRANCH  11  14
ENDBRANCH   9  10
ENDBRANCH   6   9
TORSDOF 9
ENDMDL
MODEL       87
REMARK 921   NORMALIZED FREE ENERGY PREDICTED BY IDOCK:   -4.94 KCAL/MOL
REMARK 922        TOTAL FREE ENERGY PREDICTED BY IDOCK:   -9.99 KCAL/MOL
REMARK 923 INTER-LIGAND FREE ENERGY PREDICTED BY IDOCK:   -8.99 KCAL/MOL
REMARK 924 INTRA-LIGAND FREE ENERGY PREDICTED BY IDOCK:   -1.00 KCAL/MOL
REMARK 927      BINDING AFFINITY PREDICTED BY RF-SCORE:    0.00 PKD
ROOT
HETATM    1  N   UNL     1      -8.186   3.400  74.440  1.00  0.00    -0.069 NA 
HETATM    2  C   UNL     1      -8.857   3.953  73.416  1.00  0.00    -0.096 A  
HETATM    3  H1  UNL     1      -7.328   2.863  74.316  1.00  0.00     0.000 HD 
HETATM    4  H2  UNL     1      -8.551   3.523  75.384  1.00  0.00     0.000 HD 
HETATM    5  N   UNL     1      -9.959   4.642  73.575  1.00  0.00    -0.143 NA 
HETATM    6  C   UNL     1     -10.424   5.093  72.344  1.00  0.00    -0.216 A  
HETATM    7  S   UNL     1      -8.295   3.819  71.802  1.00  0.00    -0.079 SA 
HETATM    8  C   UNL     1      -9.637   4.738  71.266  1.00  0.00    -0.168 A  
ENDROOT
BRANCH   6   9
HETATM    9  C   UNL     1     -11.671   5.907  72.302  1.00  0.00    -0.309 C  
BRANCH   9  10
HETATM   10  C   UNL     1     -11.704   6.945  71.193  1.00  0.00    -0.336 C  
HETATM   11  N   UNL     1     -11.435   8.248  71.584  1.00  0.00    -0.264 N  
HETATM   12  O   UNL     1     -11.854   6.563  70.032  1.00  0.00    -0.404 OA 
HETATM   13  H   UNL     1     -11.316   8.418  72.582  1.00  0.00     0.000 HD 
BRANCH  11  14
HETATM   14  C   UNL     1     -11.310   9.360  70.725  1.00  0.00    -0.300 A  
HETATM   15  C   UNL     1     -10.193   9.574  69.919  1.00  0.00    -0.261 A  
HETATM   16  C   UNL     1     -10.061  10.746  69.173  1.00  0.00    -0.224 A  
HETATM   17  C   UNL     1     -11.054  11.728  69.207  1.00  0.00    -0.278 A  
HETATM   18  C   UNL     1     -12.340  10.307  70.709  1.00  0.00    -0.445 A  
HETATM   19  C   UNL     1     -12.207  11.489  69.966  1.00  0.00    -0.354 A  
BRANCH  17  20
HETATM   20  C   UNL     1     -10.858  13.042  68.478  1.00  0.00    -0.282 C  
BRANCH  20  21
HETATM   21  C   UNL     1     -12.157  13.792  68.136  1.00  0.00    -0.281 C  
BRANCH  21  22
HETATM   22  N   UNL     1     -12.062  14.443  66.832  1.00  0.00    -0.496 NA 
HETATM   23  H   UNL     1     -11.103  14.726  66.631  1.00  0.00     0.000 HD 
BRANCH  22  24
HETATM   24  C   UNL     1     -12.607  13.614  65.751  1.00  0.00    -0.461 C  
BRANCH  24  25
HETATM   25  C   UNL     1     -11.680  13.545  64.511  1.00  0.00    -0.397 C  
HETATM   26  O   UNL     1     -12.439  13.819  63.324  1.00  0.00    -1.065 OA 
HETATM   27  H   UNL     1     -11.870  13.778  62.564  1.00  0.00     0.000 HD 
BRANCH  25  28
HETATM   28  C   UNL     1     -10.900  12.254  64.340  1.00  0.00    -0.370 A  
HETATM   29  C   UNL     1     -10.631  11.439  65.450  1.00  0.00    -0.333 A  
HETATM   30  C   UNL     1      -9.851  10.287  65.315  1.00  0.00    -0.372 A  
HETATM   31  C   UNL     1      -9.336   9.932  64.070  1.00  0.00    -0.280 A  
HETATM   32  C   UNL     1      -9.614  10.717  62.955  1.00  0.00    -0.379 A  
HETATM   33  C   UNL     1     -10.390  11.870  63.089  1.00  0.00    -0.330 A  
ENDBRANCH  25  28
ENDBRANCH  24  25
ENDBRANCH  22  24
ENDBRANCH  21  22
ENDBRANCH  20  21
ENDBRANCH  17  20
ENDBRANCH  11  14
ENDBRANCH   9  10
ENDBRANCH   6   9
TORSDOF 9
ENDMDL
MODEL       88
REMARK 921   NORMALIZED FREE ENERGY PREDICTED BY IDOCK:   -4.94 KCAL/MOL
REMARK 922        TOTAL FREE ENERGY PREDICTED BY IDOCK:   -9.98 KCAL/MOL
REMARK 923 INTER-LIGAND FREE ENERGY PREDICTED BY IDOCK:   -7.10 KCAL/MOL
REMARK 924 INTRA-LIGAND FREE ENERGY PREDICTED BY IDOCK:   -2.87 KCAL/MOL
REMARK 927      BINDING AFFINITY PREDICTED BY RF-SCORE:    0.00 PKD
ROOT
HETATM    1  N   UNL     1      -9.950   9.763  64.230  1.00  0.00    -0.395 NA 
HETATM    2  C   UNL     1      -9.915  10.553  65.316  1.00  0.00    -0.299 A  
HETATM    3  H1  UNL     1      -9.117   9.517  63.696  1.00  0.00     0.000 HD 
HETATM    4  H2  UNL     1     -10.850   9.392  63.927  1.00  0.00     0.000 HD 
HETATM    5  N   UNL     1     -10.985  10.869  66.002  1.00  0.00    -0.081 NA 
HETATM    6  C   UNL     1     -10.643  11.692  67.070  1.00  0.00    -0.237 A  
HETATM    7  S   UNL     1      -8.440  11.193  65.910  1.00  0.00    -0.049 SA 
HETATM    8  C   UNL     1      -9.294  11.970  67.175  1.00  0.00    -0.187 A  
ENDROOT
BRANCH   6   9
HETATM    9  C   UNL     1     -11.720  12.164  67.985  1.00  0.00    -0.409 C  
BRANCH   9  10
HETATM   10  C   UNL     1     -11.690  11.531  69.366  1.00  0.00    -0.346 C  
HETATM   11  N   UNL     1     -11.250  10.217  69.413  1.00  0.00    -0.304 N  
HETATM   12  O   UNL     1     -11.945  12.236  70.343  1.00  0.00    -0.343 OA 
HETATM   13  H   UNL     1     -11.060   9.759  68.521  1.00  0.00     0.000 HD 
BRANCH  11  14
HETATM   14  C   UNL     1     -11.043   9.456  70.581  1.00  0.00    -0.289 A  
HETATM   15  C   UNL     1      -9.778   9.223  71.120  1.00  0.00    -0.327 A  
HETATM   16  C   UNL     1      -9.609   8.368  72.210  1.00  0.00    -0.374 A  
HETATM   17  C   UNL     1     -10.708   7.735  72.797  1.00  0.00    -0.417 A  
HETATM   18  C   UNL     1     -12.154   8.881  71.208  1.00  0.00    -0.360 A  
HETATM   19  C   UNL     1     -11.987   8.016  72.298  1.00  0.00    -0.412 A  
BRANCH  17  20
HETATM   20  C   UNL     1     -10.507   6.730  73.912  1.00  0.00    -0.356 C  
BRANCH  20  21
HETATM   21  C   UNL     1      -9.053   6.269  74.114  1.00  0.00    -0.147 C  
BRANCH  21  22
HETATM   22  N   UNL     1      -8.870   4.890  73.669  1.00  0.00    -0.109 NA 
HETATM   23  H   UNL     1      -9.745   4.369  73.717  1.00  0.00     0.000 HD 
BRANCH  22  24
HETATM   24  C   UNL     1      -8.278   4.808  72.329  1.00  0.00    -0.115 C  
BRANCH  24  25
HETATM   25  C   UNL     1      -9.288   4.352  71.245  1.00  0.00    -0.146 C  
HETATM   26  O   UNL     1      -8.879   3.086  70.704  1.00  0.00    -0.071 OA 
HETATM   27  H   UNL     1      -9.498   2.807  70.040  1.00  0.00     0.000 HD 
BRANCH  25  28
HETATM   28  C   UNL     1      -9.540   5.338  70.120  1.00  0.00    -0.241 A  
HETATM   29  C   UNL     1     -10.835   5.513  69.610  1.00  0.00    -0.279 A  
HETATM   30  C   UNL     1     -11.065   6.364  68.524  1.00  0.00    -0.385 A  
HETATM   31  C   UNL     1     -10.005   7.054  67.940  1.00  0.00    -0.183 A  
HETATM   32  C   UNL     1      -8.718   6.910  68.449  1.00  0.00    -0.124 A  
HETATM   33  C   UNL     1      -8.487   6.058  69.531  1.00  0.00    -0.119 A  
ENDBRANCH  25  28
ENDBRANCH  24  25
ENDBRANCH  22  24
ENDBRANCH  21  22
ENDBRANCH  20  21
ENDBRANCH  17  20
ENDBRANCH  11  14
ENDBRANCH   9  10
ENDBRANCH   6   9
TORSDOF 9
ENDMDL
MODEL       89
REMARK 921   NORMALIZED FREE ENERGY PREDICTED BY IDOCK:   -4.92 KCAL/MOL
REMARK 922        TOTAL FREE ENERGY PREDICTED BY IDOCK:   -9.96 KCAL/MOL
REMARK 923 INTER-LIGAND FREE ENERGY PREDICTED BY IDOCK:   -8.70 KCAL/MOL
REMARK 924 INTRA-LIGAND FREE ENERGY PREDICTED BY IDOCK:   -1.26 KCAL/MOL
REMARK 927      BINDING AFFINITY PREDICTED BY RF-SCORE:    0.00 PKD
ROOT
HETATM    1  N   UNL     1     -11.083  14.679  68.533  1.00  0.00    -0.249 NA 
HETATM    2  C   UNL     1     -11.126  14.924  67.213  1.00  0.00    -0.336 A  
HETATM    3  H1  UNL     1     -10.546  15.249  69.187  1.00  0.00     0.000 HD 
HETATM    4  H2  UNL     1     -11.611  13.887  68.899  1.00  0.00     0.000 HD 
HETATM    5  N   UNL     1     -11.815  14.192  66.375  1.00  0.00    -0.405 NA 
HETATM    6  C   UNL     1     -11.676  14.685  65.082  1.00  0.00    -0.364 A  
HETATM    7  S   UNL     1     -10.292  16.253  66.522  1.00  0.00    -0.300 SA 
HETATM    8  C   UNL     1     -10.880  15.810  64.976  1.00  0.00    -0.443 A  
ENDROOT
BRANCH   6   9
HETATM    9  C   UNL     1     -12.388  13.995  63.970  1.00  0.00    -0.341 C  
BRANCH   9  10
HETATM   10  C   UNL     1     -11.843  12.617  63.637  1.00  0.00    -0.530 C  
HETATM   11  N   UNL     1     -10.521  12.394  63.991  1.00  0.00    -0.386 N  
HETATM   12  O   UNL     1     -12.616  11.770  63.186  1.00  0.00    -0.514 OA 
HETATM   13  H   UNL     1     -10.002  13.186  64.369  1.00  0.00     0.000 HD 
BRANCH  11  14
HETATM   14  C   UNL     1      -9.829  11.171  63.876  1.00  0.00    -0.308 A  
HETATM   15  C   UNL     1      -9.763  10.236  64.909  1.00  0.00    -0.385 A  
HETATM   16  C   UNL     1      -8.971   9.093  64.792  1.00  0.00    -0.177 A  
HETATM   17  C   UNL     1      -8.236   8.850  63.629  1.00  0.00    -0.172 A  
HETATM   18  C   UNL     1      -9.151  10.899  62.683  1.00  0.00    -0.364 A  
HETATM   19  C   UNL     1      -8.349   9.755  62.565  1.00  0.00    -0.156 A  
BRANCH  17  20
HETATM   20  C   UNL     1      -7.298   7.663  63.549  1.00  0.00    -0.090 C  
BRANCH  20  21
HETATM   21  C   UNL     1      -7.989   6.308  63.315  1.00  0.00    -0.098 C  
BRANCH  21  22
HETATM   22  N   UNL     1      -8.459   5.732  64.572  1.00  0.00    -0.290 NA 
HETATM   23  H   UNL     1      -8.977   6.419  65.120  1.00  0.00     0.000 HD 
BRANCH  22  24
HETATM   24  C   UNL     1      -9.251   4.513  64.367  1.00  0.00    -0.127 C  
BRANCH  24  25
HETATM   25  C   UNL     1     -10.339   4.306  65.452  1.00  0.00    -0.197 C  
HETATM   26  O   UNL     1     -11.641   4.460  64.867  1.00  0.00    -1.053 OA 
HETATM   27  H   UNL     1     -12.307   4.333  65.532  1.00  0.00     0.000 HD 
BRANCH  25  28
HETATM   28  C   UNL     1     -10.218   5.185  66.684  1.00  0.00    -0.297 A  
HETATM   29  C   UNL     1     -10.813   6.455  66.706  1.00  0.00    -0.361 A  
HETATM   30  C   UNL     1     -10.645   7.301  67.807  1.00  0.00    -0.289 A  
HETATM   31  C   UNL     1      -9.887   6.886  68.899  1.00  0.00    -0.147 A  
HETATM   32  C   UNL     1      -9.311   5.620  68.903  1.00  0.00    -0.144 A  
HETATM   33  C   UNL     1      -9.475   4.775  67.803  1.00  0.00    -0.180 A  
ENDBRANCH  25  28
ENDBRANCH  24  25
ENDBRANCH  22  24
ENDBRANCH  21  22
ENDBRANCH  20  21
ENDBRANCH  17  20
ENDBRANCH  11  14
ENDBRANCH   9  10
ENDBRANCH   6   9
TORSDOF 9
ENDMDL
MODEL       90
REMARK 921   NORMALIZED FREE ENERGY PREDICTED BY IDOCK:   -4.92 KCAL/MOL
REMARK 922        TOTAL FREE ENERGY PREDICTED BY IDOCK:   -9.95 KCAL/MOL
REMARK 923 INTER-LIGAND FREE ENERGY PREDICTED BY IDOCK:   -7.86 KCAL/MOL
REMARK 924 INTRA-LIGAND FREE ENERGY PREDICTED BY IDOCK:   -2.09 KCAL/MOL
REMARK 927      BINDING AFFINITY PREDICTED BY RF-SCORE:    0.00 PKD
ROOT
HETATM    1  N   UNL     1     -11.100   4.738  65.903  1.00  0.00    -0.792 NA 
HETATM    2  C   UNL     1      -9.765   4.856  65.995  1.00  0.00    -0.188 A  
HETATM    3  H1  UNL     1     -11.588   3.851  66.022  1.00  0.00     0.000 HD 
HETATM    4  H2  UNL     1     -11.649   5.573  65.705  1.00  0.00     0.000 HD 
HETATM    5  N   UNL     1      -9.138   5.995  65.842  1.00  0.00    -0.138 NA 
HETATM    6  C   UNL     1      -7.768   5.812  65.996  1.00  0.00    -0.095 A  
HETATM    7  S   UNL     1      -8.771   3.506  66.356  1.00  0.00    -0.131 SA 
HETATM    8  C   UNL     1      -7.388   4.515  66.284  1.00  0.00    -0.081 A  
ENDROOT
BRANCH   6   9
HETATM    9  C   UNL     1      -6.866   6.991  65.865  1.00  0.00    -0.057 C  
BRANCH   9  10
HETATM   10  C   UNL     1      -7.585   8.329  65.845  1.00  0.00    -0.082 C  
HETATM   11  N   UNL     1      -8.266   8.626  64.674  1.00  0.00    -0.159 N  
HETATM   12  O   UNL     1      -7.611   9.001  66.877  1.00  0.00    -0.092 OA 
HETATM   13  H   UNL     1      -8.167   7.968  63.900  1.00  0.00     0.000 HD 
BRANCH  11  14
HETATM   14  C   UNL     1      -9.084   9.753  64.455  1.00  0.00    -0.249 A  
HETATM   15  C   UNL     1     -10.128  10.110  65.308  1.00  0.00    -0.344 A  
HETATM   16  C   UNL     1     -10.983  11.166  64.991  1.00  0.00    -0.174 A  
HETATM   17  C   UNL     1     -10.805  11.901  63.816  1.00  0.00    -0.481 A  
HETATM   18  C   UNL     1      -8.857  10.529  63.313  1.00  0.00    -0.212 A  
HETATM   19  C   UNL     1      -9.719  11.585  62.988  1.00  0.00    -0.382 A  
BRANCH  17  20
HETATM   20  C   UNL     1     -11.798  12.976  63.426  1.00  0.00    -0.543 C  
BRANCH  20  21
HETATM   21  C   UNL     1     -11.947  14.119  64.446  1.00  0.00    -0.457 C  
BRANCH  21  22
HETATM   22  N   UNL     1     -10.757  14.966  64.468  1.00  0.00    -0.601 NA 
HETATM   23  H   UNL     1     -10.928  15.852  63.993  1.00  0.00     0.000 HD 
BRANCH  22  24
HETATM   24  C   UNL     1     -10.249  15.182  65.828  1.00  0.00    -0.341 C  
BRANCH  24  25
HETATM   25  C   UNL     1     -11.232  14.702  66.926  1.00  0.00    -0.343 C  
HETATM   26  O   UNL     1     -11.443  15.755  67.880  1.00  0.00    -0.316 OA 
HETATM   27  H   UNL     1     -12.046  15.460  68.553  1.00  0.00     0.000 HD 
BRANCH  25  28
HETATM   28  C   UNL     1     -10.844  13.423  67.646  1.00  0.00    -0.273 A  
HETATM   29  C   UNL     1      -9.497  13.042  67.732  1.00  0.00    -0.209 A  
HETATM   30  C   UNL     1      -9.136  11.829  68.327  1.00  0.00    -0.187 A  
HETATM   31  C   UNL     1     -10.116  10.987  68.849  1.00  0.00    -0.212 A  
HETATM   32  C   UNL     1     -11.454  11.362  68.793  1.00  0.00    -0.354 A  
HETATM   33  C   UNL     1     -11.816  12.571  68.196  1.00  0.00    -0.371 A  
ENDBRANCH  25  28
ENDBRANCH  24  25
ENDBRANCH  22  24
ENDBRANCH  21  22
ENDBRANCH  20  21
ENDBRANCH  17  20
ENDBRANCH  11  14
ENDBRANCH   9  10
ENDBRANCH   6   9
TORSDOF 9
ENDMDL
MODEL       91
REMARK 921   NORMALIZED FREE ENERGY PREDICTED BY IDOCK:   -4.91 KCAL/MOL
REMARK 922        TOTAL FREE ENERGY PREDICTED BY IDOCK:   -9.94 KCAL/MOL
REMARK 923 INTER-LIGAND FREE ENERGY PREDICTED BY IDOCK:   -9.24 KCAL/MOL
REMARK 924 INTRA-LIGAND FREE ENERGY PREDICTED BY IDOCK:   -0.69 KCAL/MOL
REMARK 927      BINDING AFFINITY PREDICTED BY RF-SCORE:    0.00 PKD
ROOT
HETATM    1  N   UNL     1      -7.232  21.335  67.210  1.00  0.00    -0.736 NA 
HETATM    2  C   UNL     1      -7.792  20.150  66.914  1.00  0.00    -0.315 A  
HETATM    3  H1  UNL     1      -6.289  21.591  66.917  1.00  0.00     0.000 HD 
HETATM    4  H2  UNL     1      -7.773  22.008  67.751  1.00  0.00     0.000 HD 
HETATM    5  N   UNL     1      -9.002  19.821  67.290  1.00  0.00    -0.313 NA 
HETATM    6  C   UNL     1      -9.313  18.543  66.837  1.00  0.00    -0.294 A  
HETATM    7  S   UNL     1      -6.961  18.975  65.982  1.00  0.00    -0.270 SA 
HETATM    8  C   UNL     1      -8.315  17.933  66.102  1.00  0.00    -0.128 A  
ENDROOT
BRANCH   6   9
HETATM    9  C   UNL     1     -10.654  17.976  67.154  1.00  0.00    -0.337 C  
BRANCH   9  10
HETATM   10  C   UNL     1     -10.652  16.957  68.281  1.00  0.00    -0.363 C  
HETATM   11  N   UNL     1     -11.789  16.170  68.379  1.00  0.00    -0.252 N  
HETATM   12  O   UNL     1      -9.628  16.821  68.951  1.00  0.00    -0.247 OA 
HETATM   13  H   UNL     1     -12.559  16.386  67.746  1.00  0.00     0.000 HD 
BRANCH  11  14
HETATM   14  C   UNL     1     -11.978  15.097  69.274  1.00  0.00    -0.292 A  
HETATM   15  C   UNL     1     -11.594  13.789  68.982  1.00  0.00    -0.356 A  
HETATM   16  C   UNL     1     -11.905  12.740  69.848  1.00  0.00    -0.371 A  
HETATM   17  C   UNL     1     -12.598  12.979  71.038  1.00  0.00    -0.386 A  
HETATM   18  C   UNL     1     -12.610  15.353  70.496  1.00  0.00    -0.471 A  
HETATM   19  C   UNL     1     -12.930  14.300  71.365  1.00  0.00    -0.411 A  
BRANCH  17  20
HETATM   20  C   UNL     1     -13.023  11.825  71.922  1.00  0.00    -0.435 C  
BRANCH  20  21
HETATM   21  C   UNL     1     -13.097  10.461  71.214  1.00  0.00    -0.399 C  
BRANCH  21  22
HETATM   22  N   UNL     1     -12.296   9.459  71.913  1.00  0.00    -0.375 NA 
HETATM   23  H   UNL     1     -12.797   8.574  71.987  1.00  0.00     0.000 HD 
BRANCH  22  24
HETATM   24  C   UNL     1     -10.976   9.270  71.298  1.00  0.00    -0.351 C  
BRANCH  24  25
HETATM   25  C   UNL     1      -9.990   8.490  72.205  1.00  0.00    -0.315 C  
HETATM   26  O   UNL     1      -8.640   8.846  71.871  1.00  0.00    -0.347 OA 
HETATM   27  H   UNL     1      -8.036   8.368  72.427  1.00  0.00     0.000 HD 
BRANCH  25  28
HETATM   28  C   UNL     1     -10.143   6.980  72.200  1.00  0.00    -0.198 A  
HETATM   29  C   UNL     1     -10.839   6.336  73.234  1.00  0.00    -0.269 A  
HETATM   30  C   UNL     1     -10.921   4.941  73.277  1.00  0.00    -0.390 A  
HETATM   31  C   UNL     1     -10.314   4.173  72.286  1.00  0.00    -0.197 A  
HETATM   32  C   UNL     1      -9.641   4.797  71.241  1.00  0.00    -0.232 A  
HETATM   33  C   UNL     1      -9.555   6.190  71.198  1.00  0.00    -0.193 A  
ENDBRANCH  25  28
ENDBRANCH  24  25
ENDBRANCH  22  24
ENDBRANCH  21  22
ENDBRANCH  20  21
ENDBRANCH  17  20
ENDBRANCH  11  14
ENDBRANCH   9  10
ENDBRANCH   6   9
TORSDOF 9
ENDMDL
MODEL       92
REMARK 921   NORMALIZED FREE ENERGY PREDICTED BY IDOCK:   -4.90 KCAL/MOL
REMARK 922        TOTAL FREE ENERGY PREDICTED BY IDOCK:   -9.92 KCAL/MOL
REMARK 923 INTER-LIGAND FREE ENERGY PREDICTED BY IDOCK:   -7.53 KCAL/MOL
REMARK 924 INTRA-LIGAND FREE ENERGY PREDICTED BY IDOCK:   -2.39 KCAL/MOL
REMARK 927      BINDING AFFINITY PREDICTED BY RF-SCORE:    0.00 PKD
ROOT
HETATM    1  N   UNL     1     -11.113  11.283  63.023  1.00  0.00    -0.841 NA 
HETATM    2  C   UNL     1     -10.047  10.919  63.755  1.00  0.00    -0.353 A  
HETATM    3  H1  UNL     1     -11.122  11.253  62.003  1.00  0.00     0.000 HD 
HETATM    4  H2  UNL     1     -11.950  11.604  63.508  1.00  0.00     0.000 HD 
HETATM    5  N   UNL     1     -10.035  10.958  65.063  1.00  0.00    -0.275 NA 
HETATM    6  C   UNL     1      -8.805  10.520  65.544  1.00  0.00    -0.184 A  
HETATM    7  S   UNL     1      -8.611  10.339  63.018  1.00  0.00    -0.212 SA 
HETATM    8  C   UNL     1      -7.906  10.139  64.566  1.00  0.00    -0.141 A  
ENDROOT
BRANCH   6   9
HETATM    9  C   UNL     1      -8.582  10.481  67.017  1.00  0.00    -0.127 C  
BRANCH   9  10
HETATM   10  C   UNL     1      -8.640  11.840  67.695  1.00  0.00    -0.153 C  
HETATM   11  N   UNL     1      -7.642  12.733  67.334  1.00  0.00    -0.208 N  
HETATM   12  O   UNL     1      -9.603  12.097  68.418  1.00  0.00    -0.209 OA 
HETATM   13  H   UNL     1      -6.913  12.386  66.711  1.00  0.00     0.000 HD 
BRANCH  11  14
HETATM   14  C   UNL     1      -7.545  14.076  67.749  1.00  0.00    -0.170 A  
HETATM   15  C   UNL     1      -7.584  15.150  66.860  1.00  0.00     0.011 A  
HETATM   16  C   UNL     1      -7.367  16.456  67.303  1.00  0.00    -0.209 A  
HETATM   17  C   UNL     1      -7.120  16.719  68.653  1.00  0.00    -0.195 A  
HETATM   18  C   UNL     1      -7.367  14.341  69.111  1.00  0.00    -0.092 A  
HETATM   19  C   UNL     1      -7.142  15.650  69.558  1.00  0.00    -0.195 A  
BRANCH  17  20
HETATM   20  C   UNL     1      -6.783  18.123  69.110  1.00  0.00    -0.252 C  
BRANCH  20  21
HETATM   21  C   UNL     1      -6.757  19.179  67.991  1.00  0.00    -0.235 C  
BRANCH  21  22
HETATM   22  N   UNL     1      -7.933  20.043  68.053  1.00  0.00    -0.278 NA 
HETATM   23  H   UNL     1      -7.665  21.025  68.115  1.00  0.00     0.000 HD 
BRANCH  22  24
HETATM   24  C   UNL     1      -8.855  19.815  66.934  1.00  0.00    -0.335 C  
BRANCH  24  25
HETATM   25  C   UNL     1     -10.259  19.341  67.389  1.00  0.00    -0.414 C  
HETATM   26  O   UNL     1     -10.515  19.804  68.724  1.00  0.00    -0.558 OA 
HETATM   27  H   UNL     1     -11.376  19.514  69.003  1.00  0.00     0.000 HD 
BRANCH  25  28
HETATM   28  C   UNL     1     -10.511  17.847  67.303  1.00  0.00    -0.373 A  
HETATM   29  C   UNL     1     -10.530  17.204  66.056  1.00  0.00    -0.271 A  
HETATM   30  C   UNL     1     -10.835  15.843  65.960  1.00  0.00    -0.226 A  
HETATM   31  C   UNL     1     -11.119  15.107  67.109  1.00  0.00    -0.335 A  
HETATM   32  C   UNL     1     -11.081  15.724  68.355  1.00  0.00    -0.341 A  
HETATM   33  C   UNL     1     -10.779  17.084  68.452  1.00  0.00    -0.361 A  
ENDBRANCH  25  28
ENDBRANCH  24  25
ENDBRANCH  22  24
ENDBRANCH  21  22
ENDBRANCH  20  21
ENDBRANCH  17  20
ENDBRANCH  11  14
ENDBRANCH   9  10
ENDBRANCH   6   9
TORSDOF 9
ENDMDL
MODEL       93
REMARK 921   NORMALIZED FREE ENERGY PREDICTED BY IDOCK:   -4.88 KCAL/MOL
REMARK 922        TOTAL FREE ENERGY PREDICTED BY IDOCK:   -9.90 KCAL/MOL
REMARK 923 INTER-LIGAND FREE ENERGY PREDICTED BY IDOCK:   -8.83 KCAL/MOL
REMARK 924 INTRA-LIGAND FREE ENERGY PREDICTED BY IDOCK:   -1.07 KCAL/MOL
REMARK 927      BINDING AFFINITY PREDICTED BY RF-SCORE:    0.00 PKD
ROOT
HETATM    1  N   UNL     1     -11.369   4.263  65.284  1.00  0.00    -0.905 NA 
HETATM    2  C   UNL     1     -10.205   4.678  65.811  1.00  0.00    -0.258 A  
HETATM    3  H1  UNL     1     -11.993   3.612  65.761  1.00  0.00     0.000 HD 
HETATM    4  H2  UNL     1     -11.641   4.615  64.368  1.00  0.00     0.000 HD 
HETATM    5  N   UNL     1      -9.404   5.513  65.199  1.00  0.00     0.095 NA 
HETATM    6  C   UNL     1      -8.282   5.763  65.983  1.00  0.00    -0.114 A  
HETATM    7  S   UNL     1      -9.687   4.158  67.360  1.00  0.00    -0.106 SA 
HETATM    8  C   UNL     1      -8.271   5.108  67.199  1.00  0.00    -0.107 A  
ENDROOT
BRANCH   6   9
HETATM    9  C   UNL     1      -7.241   6.697  65.470  1.00  0.00    -0.070 C  
BRANCH   9  10
HETATM   10  C   UNL     1      -7.668   8.155  65.441  1.00  0.00    -0.101 C  
HETATM   11  N   UNL     1      -9.036   8.379  65.478  1.00  0.00    -0.390 N  
HETATM   12  O   UNL     1      -6.798   9.025  65.495  1.00  0.00    -0.071 OA 
HETATM   13  H   UNL     1      -9.642   7.560  65.443  1.00  0.00     0.000 HD 
BRANCH  11  14
HETATM   14  C   UNL     1      -9.665   9.638  65.562  1.00  0.00    -0.301 A  
HETATM   15  C   UNL     1     -10.143  10.170  66.759  1.00  0.00    -0.277 A  
HETATM   16  C   UNL     1     -10.862  11.366  66.776  1.00  0.00    -0.336 A  
HETATM   17  C   UNL     1     -11.109  12.067  65.593  1.00  0.00    -0.361 A  
HETATM   18  C   UNL     1      -9.848  10.371  64.384  1.00  0.00    -0.395 A  
HETATM   19  C   UNL     1     -10.576  11.568  64.396  1.00  0.00    -0.392 A  
BRANCH  17  20
HETATM   20  C   UNL     1     -11.978  13.307  65.604  1.00  0.00    -0.455 C  
BRANCH  20  21
HETATM   21  C   UNL     1     -11.967  14.116  64.295  1.00  0.00    -0.435 C  
BRANCH  21  22
HETATM   22  N   UNL     1     -11.238  15.372  64.456  1.00  0.00    -0.685 NA 
HETATM   23  H   UNL     1     -11.769  16.156  64.077  1.00  0.00     0.000 HD 
BRANCH  22  24
HETATM   24  C   UNL     1     -10.852  15.620  65.851  1.00  0.00    -0.293 C  
BRANCH  24  25
HETATM   25  C   UNL     1      -9.402  16.150  65.994  1.00  0.00    -0.333 C  
HETATM   26  O   UNL     1      -8.652  15.277  66.853  1.00  0.00    -0.221 OA 
HETATM   27  H   UNL     1      -7.763  15.602  66.941  1.00  0.00     0.000 HD 
BRANCH  25  28
HETATM   28  C   UNL     1      -9.268  17.585  66.470  1.00  0.00    -0.286 A  
HETATM   29  C   UNL     1      -8.212  17.952  67.317  1.00  0.00    -0.225 A  
HETATM   30  C   UNL     1      -8.122  19.254  67.820  1.00  0.00    -0.321 A  
HETATM   31  C   UNL     1      -9.081  20.204  67.478  1.00  0.00    -0.465 A  
HETATM   32  C   UNL     1     -10.121  19.862  66.620  1.00  0.00    -0.598 A  
HETATM   33  C   UNL     1     -10.214  18.562  66.119  1.00  0.00    -0.424 A  
ENDBRANCH  25  28
ENDBRANCH  24  25
ENDBRANCH  22  24
ENDBRANCH  21  22
ENDBRANCH  20  21
ENDBRANCH  17  20
ENDBRANCH  11  14
ENDBRANCH   9  10
ENDBRANCH   6   9
TORSDOF 9
ENDMDL
MODEL       94
REMARK 921   NORMALIZED FREE ENERGY PREDICTED BY IDOCK:   -4.88 KCAL/MOL
REMARK 922        TOTAL FREE ENERGY PREDICTED BY IDOCK:   -9.89 KCAL/MOL
REMARK 923 INTER-LIGAND FREE ENERGY PREDICTED BY IDOCK:   -8.13 KCAL/MOL
REMARK 924 INTRA-LIGAND FREE ENERGY PREDICTED BY IDOCK:   -1.76 KCAL/MOL
REMARK 927      BINDING AFFINITY PREDICTED BY RF-SCORE:    0.00 PKD
ROOT
HETATM    1  N   UNL     1     -10.028  17.722  68.741  1.00  0.00    -0.364 NA 
HETATM    2  C   UNL     1     -10.733  16.579  68.752  1.00  0.00    -0.339 A  
HETATM    3  H1  UNL     1      -9.847  18.271  69.582  1.00  0.00     0.000 HD 
HETATM    4  H2  UNL     1      -9.657  18.056  67.853  1.00  0.00     0.000 HD 
HETATM    5  N   UNL     1     -10.965  15.875  67.673  1.00  0.00    -0.318 NA 
HETATM    6  C   UNL     1     -11.713  14.745  67.990  1.00  0.00    -0.333 A  
HETATM    7  S   UNL     1     -11.367  15.932  70.208  1.00  0.00    -0.390 SA 
HETATM    8  C   UNL     1     -12.020  14.614  69.331  1.00  0.00    -0.313 A  
ENDROOT
BRANCH   6   9
HETATM    9  C   UNL     1     -12.084  13.800  66.900  1.00  0.00    -0.454 C  
BRANCH   9  10
HETATM   10  C   UNL     1     -11.583  12.381  67.105  1.00  0.00    -0.365 C  
HETATM   11  N   UNL     1     -10.305  12.122  66.633  1.00  0.00    -0.206 N  
HETATM   12  O   UNL     1     -12.277  11.598  67.755  1.00  0.00    -0.560 OA 
HETATM   13  H   UNL     1      -9.838  12.872  66.122  1.00  0.00     0.000 HD 
BRANCH  11  14
HETATM   14  C   UNL     1      -9.591  10.917  66.796  1.00  0.00    -0.183 A  
HETATM   15  C   UNL     1      -8.578  10.757  67.740  1.00  0.00    -0.127 A  
HETATM   16  C   UNL     1      -7.820   9.586  67.788  1.00  0.00    -0.095 A  
HETATM   17  C   UNL     1      -8.069   8.539  66.897  1.00  0.00    -0.099 A  
HETATM   18  C   UNL     1      -9.891   9.846  65.948  1.00  0.00    -0.342 A  
HETATM   19  C   UNL     1      -9.127   8.671  65.988  1.00  0.00    -0.255 A  
BRANCH  17  20
HETATM   20  C   UNL     1      -7.177   7.315  66.884  1.00  0.00    -0.088 C  
BRANCH  20  21
HETATM   21  C   UNL     1      -7.899   5.986  67.166  1.00  0.00    -0.102 C  
BRANCH  21  22
HETATM   22  N   UNL     1      -8.576   6.016  68.459  1.00  0.00    -0.112 NA 
HETATM   23  H   UNL     1      -8.785   6.974  68.743  1.00  0.00     0.000 HD 
BRANCH  22  24
HETATM   24  C   UNL     1      -9.784   5.183  68.478  1.00  0.00    -0.149 C  
BRANCH  24  25
HETATM   25  C   UNL     1     -11.086   6.005  68.665  1.00  0.00    -0.211 C  
HETATM   26  O   UNL     1     -11.411   6.679  67.440  1.00  0.00    -0.747 OA 
HETATM   27  H   UNL     1     -12.209   7.183  67.555  1.00  0.00     0.000 HD 
BRANCH  25  28
HETATM   28  C   UNL     1     -11.081   6.995  69.815  1.00  0.00    -0.278 A  
HETATM   29  C   UNL     1     -11.443   6.581  71.106  1.00  0.00    -0.380 A  
HETATM   30  C   UNL     1     -11.514   7.501  72.156  1.00  0.00    -0.334 A  
HETATM   31  C   UNL     1     -11.219   8.844  71.931  1.00  0.00    -0.447 A  
HETATM   32  C   UNL     1     -10.836   9.266  70.662  1.00  0.00    -0.339 A  
HETATM   33  C   UNL     1     -10.767   8.349  69.612  1.00  0.00    -0.201 A  
ENDBRANCH  25  28
ENDBRANCH  24  25
ENDBRANCH  22  24
ENDBRANCH  21  22
ENDBRANCH  20  21
ENDBRANCH  17  20
ENDBRANCH  11  14
ENDBRANCH   9  10
ENDBRANCH   6   9
TORSDOF 9
ENDMDL
MODEL       95
REMARK 921   NORMALIZED FREE ENERGY PREDICTED BY IDOCK:   -4.87 KCAL/MOL
REMARK 922        TOTAL FREE ENERGY PREDICTED BY IDOCK:   -9.88 KCAL/MOL
REMARK 923 INTER-LIGAND FREE ENERGY PREDICTED BY IDOCK:   -6.97 KCAL/MOL
REMARK 924 INTRA-LIGAND FREE ENERGY PREDICTED BY IDOCK:   -2.92 KCAL/MOL
REMARK 927      BINDING AFFINITY PREDICTED BY RF-SCORE:    0.00 PKD
ROOT
HETATM    1  N   UNL     1     -11.509   4.254  64.635  1.00  0.00    -0.935 NA 
HETATM    2  C   UNL     1     -10.230   3.905  64.851  1.00  0.00    -0.164 A  
HETATM    3  H1  UNL     1     -12.160   3.675  64.102  1.00  0.00     0.000 HD 
HETATM    4  H2  UNL     1     -11.845   5.136  65.019  1.00  0.00     0.000 HD 
HETATM    5  N   UNL     1      -9.396   4.647  65.534  1.00  0.00    -0.152 NA 
HETATM    6  C   UNL     1      -8.149   4.032  65.597  1.00  0.00    -0.101 A  
HETATM    7  S   UNL     1      -9.595   2.424  64.265  1.00  0.00    -0.109 SA 
HETATM    8  C   UNL     1      -8.078   2.808  64.961  1.00  0.00    -0.083 A  
ENDROOT
BRANCH   6   9
HETATM    9  C   UNL     1      -7.050   4.712  66.338  1.00  0.00    -0.075 C  
BRANCH   9  10
HETATM   10  C   UNL     1      -7.516   5.795  67.296  1.00  0.00    -0.081 C  
HETATM   11  N   UNL     1      -8.048   6.930  66.703  1.00  0.00    -0.108 N  
HETATM   12  O   UNL     1      -7.496   5.561  68.505  1.00  0.00    -0.074 OA 
HETATM   13  H   UNL     1      -8.012   6.982  65.685  1.00  0.00     0.000 HD 
BRANCH  11  14
HETATM   14  C   UNL     1      -8.634   8.019  67.381  1.00  0.00    -0.125 A  
HETATM   15  C   UNL     1      -7.927   8.831  68.266  1.00  0.00    -0.106 A  
HETATM   16  C   UNL     1      -8.575   9.824  69.002  1.00  0.00    -0.146 A  
HETATM   17  C   UNL     1      -9.949  10.037  68.858  1.00  0.00    -0.198 A  
HETATM   18  C   UNL     1      -9.995   8.273  67.180  1.00  0.00    -0.307 A  
HETATM   19  C   UNL     1     -10.651   9.265  67.923  1.00  0.00    -0.288 A  
BRANCH  17  20
HETATM   20  C   UNL     1     -10.664  11.045  69.734  1.00  0.00    -0.135 C  
BRANCH  20  21
HETATM   21  C   UNL     1     -12.036  11.501  69.207  1.00  0.00    -0.330 C  
BRANCH  21  22
HETATM   22  N   UNL     1     -13.118  10.737  69.820  1.00  0.00    -0.352 NA 
HETATM   23  H   UNL     1     -13.300   9.877  69.303  1.00  0.00     0.000 HD 
BRANCH  22  24
HETATM   24  C   UNL     1     -12.871  10.457  71.240  1.00  0.00    -0.433 C  
BRANCH  24  25
HETATM   25  C   UNL     1     -13.158   8.984  71.628  1.00  0.00    -0.365 C  
HETATM   26  O   UNL     1     -13.408   8.896  73.039  1.00  0.00    -0.865 OA 
HETATM   27  H   UNL     1     -13.584   7.993  73.276  1.00  0.00     0.000 HD 
BRANCH  25  28
HETATM   28  C   UNL     1     -12.096   7.977  71.227  1.00  0.00    -0.314 A  
HETATM   29  C   UNL     1     -10.814   8.037  71.795  1.00  0.00    -0.297 A  
HETATM   30  C   UNL     1      -9.808   7.161  71.378  1.00  0.00    -0.178 A  
HETATM   31  C   UNL     1     -10.070   6.211  70.394  1.00  0.00    -0.237 A  
HETATM   32  C   UNL     1     -11.343   6.122  69.838  1.00  0.00    -0.454 A  
HETATM   33  C   UNL     1     -12.348   6.999  70.251  1.00  0.00     0.042 A  
ENDBRANCH  25  28
ENDBRANCH  24  25
ENDBRANCH  22  24
ENDBRANCH  21  22
ENDBRANCH  20  21
ENDBRANCH  17  20
ENDBRANCH  11  14
ENDBRANCH   9  10
ENDBRANCH   6   9
TORSDOF 9
ENDMDL
MODEL       96
REMARK 921   NORMALIZED FREE ENERGY PREDICTED BY IDOCK:   -4.87 KCAL/MOL
REMARK 922        TOTAL FREE ENERGY PREDICTED BY IDOCK:   -9.88 KCAL/MOL
REMARK 923 INTER-LIGAND FREE ENERGY PREDICTED BY IDOCK:   -9.40 KCAL/MOL
REMARK 924 INTRA-LIGAND FREE ENERGY PREDICTED BY IDOCK:   -0.48 KCAL/MOL
REMARK 927      BINDING AFFINITY PREDICTED BY RF-SCORE:    0.00 PKD
ROOT
HETATM    1  N   UNL     1     -12.953  16.076  74.453  1.00  0.00    -0.929 NA 
HETATM    2  C   UNL     1     -12.811  15.861  73.134  1.00  0.00    -0.537 A  
HETATM    3  H1  UNL     1     -13.752  15.733  74.987  1.00  0.00     0.000 HD 
HETATM    4  H2  UNL     1     -12.232  16.604  74.941  1.00  0.00     0.000 HD 
HETATM    5  N   UNL     1     -11.786  16.300  72.448  1.00  0.00    -0.533 NA 
HETATM    6  C   UNL     1     -11.906  15.924  71.114  1.00  0.00    -0.438 A  
HETATM    7  S   UNL     1     -13.964  14.956  72.245  1.00  0.00    -0.516 SA 
HETATM    8  C   UNL     1     -13.034  15.181  70.824  1.00  0.00    -0.414 A  
ENDROOT
BRANCH   6   9
HETATM    9  C   UNL     1     -10.836  16.321  70.157  1.00  0.00    -0.299 C  
BRANCH   9  10
HETATM   10  C   UNL     1     -11.102  15.916  68.717  1.00  0.00    -0.328 C  
HETATM   11  N   UNL     1     -10.721  14.626  68.377  1.00  0.00    -0.235 N  
HETATM   12  O   UNL     1     -11.721  16.694  67.990  1.00  0.00     0.065 OA 
HETATM   13  H   UNL     1     -10.227  14.086  69.088  1.00  0.00     0.000 HD 
BRANCH  11  14
HETATM   14  C   UNL     1     -10.955  13.994  67.139  1.00  0.00    -0.296 A  
HETATM   15  C   UNL     1     -11.785  12.882  67.000  1.00  0.00    -0.447 A  
HETATM   16  C   UNL     1     -11.895  12.219  65.777  1.00  0.00    -0.417 A  
HETATM   17  C   UNL     1     -11.186  12.663  64.658  1.00  0.00    -0.348 A  
HETATM   18  C   UNL     1     -10.298  14.486  66.006  1.00  0.00    -0.320 A  
HETATM   19  C   UNL     1     -10.401  13.818  64.778  1.00  0.00    -0.422 A  
BRANCH  17  20
HETATM   20  C   UNL     1     -11.229  11.879  63.362  1.00  0.00    -0.463 C  
BRANCH  20  21
HETATM   21  C   UNL     1      -9.922  11.152  63.003  1.00  0.00    -0.311 C  
BRANCH  21  22
HETATM   22  N   UNL     1      -9.142  10.847  64.199  1.00  0.00    -0.293 NA 
HETATM   23  H   UNL     1      -9.565  11.260  65.030  1.00  0.00     0.000 HD 
BRANCH  22  24
HETATM   24  C   UNL     1      -8.929   9.405  64.376  1.00  0.00    -0.169 C  
BRANCH  24  25
HETATM   25  C   UNL     1      -8.741   8.996  65.860  1.00  0.00    -0.166 C  
HETATM   26  O   UNL     1      -7.348   9.048  66.203  1.00  0.00    -0.088 OA 
HETATM   27  H   UNL     1      -7.233   8.797  67.112  1.00  0.00     0.000 HD 
BRANCH  25  28
HETATM   28  C   UNL     1      -9.321   7.650  66.252  1.00  0.00    -0.189 A  
HETATM   29  C   UNL     1     -10.577   7.575  66.874  1.00  0.00    -0.367 A  
HETATM   30  C   UNL     1     -11.086   6.347  67.306  1.00  0.00    -0.416 A  
HETATM   31  C   UNL     1     -10.351   5.179  67.116  1.00  0.00    -0.246 A  
HETATM   32  C   UNL     1      -9.115   5.233  66.480  1.00  0.00    -0.129 A  
HETATM   33  C   UNL     1      -8.604   6.459  66.051  1.00  0.00    -0.149 A  
ENDBRANCH  25  28
ENDBRANCH  24  25
ENDBRANCH  22  24
ENDBRANCH  21  22
ENDBRANCH  20  21
ENDBRANCH  17  20
ENDBRANCH  11  14
ENDBRANCH   9  10
ENDBRANCH   6   9
TORSDOF 9
ENDMDL
MODEL       97
REMARK 921   NORMALIZED FREE ENERGY PREDICTED BY IDOCK:   -4.87 KCAL/MOL
REMARK 922        TOTAL FREE ENERGY PREDICTED BY IDOCK:   -9.87 KCAL/MOL
REMARK 923 INTER-LIGAND FREE ENERGY PREDICTED BY IDOCK:   -9.34 KCAL/MOL
REMARK 924 INTRA-LIGAND FREE ENERGY PREDICTED BY IDOCK:   -0.53 KCAL/MOL
REMARK 927      BINDING AFFINITY PREDICTED BY RF-SCORE:    0.00 PKD
ROOT
HETATM    1  N   UNL     1      -7.550  20.230  65.845  1.00  0.00    -0.507 NA 
HETATM    2  C   UNL     1      -8.572  19.489  66.305  1.00  0.00    -0.361 A  
HETATM    3  H1  UNL     1      -7.331  21.158  66.207  1.00  0.00     0.000 HD 
HETATM    4  H2  UNL     1      -6.968  19.848  65.101  1.00  0.00     0.000 HD 
HETATM    5  N   UNL     1      -8.854  18.298  65.840  1.00  0.00    -0.467 NA 
HETATM    6  C   UNL     1      -9.956  17.772  66.507  1.00  0.00    -0.346 A  
HETATM    7  S   UNL     1      -9.580  20.046  67.576  1.00  0.00    -0.415 SA 
HETATM    8  C   UNL     1     -10.479  18.590  67.490  1.00  0.00    -0.418 A  
ENDROOT
BRANCH   6   9
HETATM    9  C   UNL     1     -10.442  16.415  66.132  1.00  0.00    -0.321 C  
BRANCH   9  10
HETATM   10  C   UNL     1     -10.444  15.413  67.274  1.00  0.00    -0.282 C  
HETATM   11  N   UNL     1     -11.657  14.790  67.522  1.00  0.00    -0.358 N  
HETATM   12  O   UNL     1      -9.375  15.142  67.823  1.00  0.00    -0.187 OA 
HETATM   13  H   UNL     1     -12.461  15.106  66.979  1.00  0.00     0.000 HD 
BRANCH  11  14
HETATM   14  C   UNL     1     -11.882  13.759  68.457  1.00  0.00    -0.370 A  
HETATM   15  C   UNL     1     -12.144  14.000  69.805  1.00  0.00    -0.405 A  
HETATM   16  C   UNL     1     -12.244  12.948  70.716  1.00  0.00    -0.348 A  
HETATM   17  C   UNL     1     -12.098  11.624  70.295  1.00  0.00    -0.443 A  
HETATM   18  C   UNL     1     -11.804  12.433  68.017  1.00  0.00    -0.376 A  
HETATM   19  C   UNL     1     -11.897  11.374  68.931  1.00  0.00    -0.413 A  
BRANCH  17  20
HETATM   20  C   UNL     1     -12.104  10.494  71.304  1.00  0.00    -0.432 C  
BRANCH  20  21
HETATM   21  C   UNL     1     -11.039   9.409  71.066  1.00  0.00    -0.344 C  
BRANCH  21  22
HETATM   22  N   UNL     1     -11.544   8.356  70.190  1.00  0.00    -0.462 NA 
HETATM   23  H   UNL     1     -12.084   8.748  69.418  1.00  0.00     0.000 HD 
BRANCH  22  24
HETATM   24  C   UNL     1     -10.476   7.479  69.696  1.00  0.00    -0.234 C  
BRANCH  24  25
HETATM   25  C   UNL     1      -9.977   7.867  68.280  1.00  0.00    -0.180 C  
HETATM   26  O   UNL     1     -10.964   8.680  67.626  1.00  0.00    -0.495 OA 
HETATM   27  H   UNL     1     -10.657   8.917  66.759  1.00  0.00     0.000 HD 
BRANCH  25  28
HETATM   28  C   UNL     1      -9.580   6.711  67.380  1.00  0.00    -0.147 A  
HETATM   29  C   UNL     1     -10.558   5.840  66.876  1.00  0.00    -0.377 A  
HETATM   30  C   UNL     1     -10.196   4.730  66.107  1.00  0.00    -0.313 A  
HETATM   31  C   UNL     1      -8.854   4.480  65.828  1.00  0.00    -0.124 A  
HETATM   32  C   UNL     1      -7.874   5.347  66.301  1.00  0.00    -0.100 A  
HETATM   33  C   UNL     1      -8.235   6.454  67.071  1.00  0.00    -0.113 A  
ENDBRANCH  25  28
ENDBRANCH  24  25
ENDBRANCH  22  24
ENDBRANCH  21  22
ENDBRANCH  20  21
ENDBRANCH  17  20
ENDBRANCH  11  14
ENDBRANCH   9  10
ENDBRANCH   6   9
TORSDOF 9
ENDMDL
MODEL       98
REMARK 921   NORMALIZED FREE ENERGY PREDICTED BY IDOCK:   -4.86 KCAL/MOL
REMARK 922        TOTAL FREE ENERGY PREDICTED BY IDOCK:   -9.87 KCAL/MOL
REMARK 923 INTER-LIGAND FREE ENERGY PREDICTED BY IDOCK:   -9.24 KCAL/MOL
REMARK 924 INTRA-LIGAND FREE ENERGY PREDICTED BY IDOCK:   -0.63 KCAL/MOL
REMARK 927      BINDING AFFINITY PREDICTED BY RF-SCORE:    0.00 PKD
ROOT
HETATM    1  N   UNL     1      -6.713  18.889  65.034  1.00  0.00    -0.493 NA 
HETATM    2  C   UNL     1      -7.585  19.064  66.040  1.00  0.00    -0.248 A  
HETATM    3  H1  UNL     1      -5.844  19.417  64.955  1.00  0.00     0.000 HD 
HETATM    4  H2  UNL     1      -6.929  18.197  64.317  1.00  0.00     0.000 HD 
HETATM    5  N   UNL     1      -8.701  18.387  66.142  1.00  0.00    -0.493 NA 
HETATM    6  C   UNL     1      -9.396  18.776  67.282  1.00  0.00    -0.290 A  
HETATM    7  S   UNL     1      -7.283  20.185  67.302  1.00  0.00    -0.285 SA 
HETATM    8  C   UNL     1      -8.767  19.748  68.037  1.00  0.00    -0.302 A  
ENDROOT
BRANCH   6   9
HETATM    9  C   UNL     1     -10.698  18.120  67.589  1.00  0.00    -0.364 C  
BRANCH   9  10
HETATM   10  C   UNL     1     -10.571  16.746  68.224  1.00  0.00    -0.352 C  
HETATM   11  N   UNL     1     -11.752  16.026  68.335  1.00  0.00    -0.322 N  
HETATM   12  O   UNL     1      -9.447  16.321  68.492  1.00  0.00    -0.206 OA 
HETATM   13  H   UNL     1     -12.612  16.501  68.060  1.00  0.00     0.000 HD 
BRANCH  11  14
HETATM   14  C   UNL     1     -11.871  14.699  68.795  1.00  0.00    -0.313 A  
HETATM   15  C   UNL     1     -12.360  14.375  70.060  1.00  0.00    -0.391 A  
HETATM   16  C   UNL     1     -12.352  13.056  70.516  1.00  0.00    -0.365 A  
HETATM   17  C   UNL     1     -11.865  12.025  69.709  1.00  0.00    -0.401 A  
HETATM   18  C   UNL     1     -11.447  13.663  67.956  1.00  0.00    -0.345 A  
HETATM   19  C   UNL     1     -11.430  12.338  68.414  1.00  0.00    -0.356 A  
BRANCH  17  20
HETATM   20  C   UNL     1     -11.761  10.614  70.247  1.00  0.00    -0.433 C  
BRANCH  20  21
HETATM   21  C   UNL     1     -10.439   9.894  69.928  1.00  0.00    -0.269 C  
BRANCH  21  22
HETATM   22  N   UNL     1     -10.676   8.660  69.185  1.00  0.00    -0.376 NA 
HETATM   23  H   UNL     1     -10.347   8.741  68.223  1.00  0.00     0.000 HD 
BRANCH  22  24
HETATM   24  C   UNL     1     -10.091   7.487  69.847  1.00  0.00    -0.193 C  
BRANCH  24  25
HETATM   25  C   UNL     1     -11.117   6.350  70.087  1.00  0.00    -0.365 C  
HETATM   26  O   UNL     1     -12.424   6.913  70.283  1.00  0.00    -0.613 OA 
HETATM   27  H   UNL     1     -13.053   6.216  70.430  1.00  0.00     0.000 HD 
BRANCH  25  28
HETATM   28  C   UNL     1     -10.790   5.394  71.219  1.00  0.00    -0.201 A  
HETATM   29  C   UNL     1     -11.501   5.460  72.427  1.00  0.00    -0.212 A  
HETATM   30  C   UNL     1     -11.158   4.634  73.501  1.00  0.00    -0.412 A  
HETATM   31  C   UNL     1     -10.106   3.728  73.380  1.00  0.00    -0.200 A  
HETATM   32  C   UNL     1      -9.407   3.634  72.181  1.00  0.00    -0.184 A  
HETATM   33  C   UNL     1      -9.747   4.461  71.108  1.00  0.00    -0.256 A  
ENDBRANCH  25  28
ENDBRANCH  24  25
ENDBRANCH  22  24
ENDBRANCH  21  22
ENDBRANCH  20  21
ENDBRANCH  17  20
ENDBRANCH  11  14
ENDBRANCH   9  10
ENDBRANCH   6   9
TORSDOF 9
ENDMDL
MODEL       99
REMARK 921   NORMALIZED FREE ENERGY PREDICTED BY IDOCK:   -4.86 KCAL/MOL
REMARK 922        TOTAL FREE ENERGY PREDICTED BY IDOCK:   -9.87 KCAL/MOL
REMARK 923 INTER-LIGAND FREE ENERGY PREDICTED BY IDOCK:   -9.51 KCAL/MOL
REMARK 924 INTRA-LIGAND FREE ENERGY PREDICTED BY IDOCK:   -0.35 KCAL/MOL
REMARK 927      BINDING AFFINITY PREDICTED BY RF-SCORE:    0.00 PKD
ROOT
HETATM    1  N   UNL     1      -7.030  10.112  65.503  1.00  0.00    -0.125 NA 
HETATM    2  C   UNL     1      -7.953  10.340  64.555  1.00  0.00    -0.133 A  
HETATM    3  H1  UNL     1      -6.100   9.748  65.296  1.00  0.00     0.000 HD 
HETATM    4  H2  UNL     1      -7.269  10.312  66.474  1.00  0.00     0.000 HD 
HETATM    5  N   UNL     1      -9.147  10.807  64.820  1.00  0.00    -0.200 NA 
HETATM    6  C   UNL     1      -9.880  10.945  63.646  1.00  0.00    -0.351 A  
HETATM    7  S   UNL     1      -7.621  10.059  62.896  1.00  0.00    -0.137 SA 
HETATM    8  C   UNL     1      -9.201  10.585  62.498  1.00  0.00    -0.297 A  
ENDROOT
BRANCH   6   9
HETATM    9  C   UNL     1     -11.272  11.470  63.725  1.00  0.00    -0.456 C  
BRANCH   9  10
HETATM   10  C   UNL     1     -11.364  12.955  64.031  1.00  0.00    -0.415 C  
HETATM   11  N   UNL     1     -10.376  13.458  64.864  1.00  0.00    -0.447 N  
HETATM   12  O   UNL     1     -12.220  13.625  63.452  1.00  0.00    -0.607 OA 
HETATM   13  H   UNL     1      -9.720  12.786  65.264  1.00  0.00     0.000 HD 
BRANCH  11  14
HETATM   14  C   UNL     1     -10.194  14.813  65.208  1.00  0.00    -0.384 A  
HETATM   15  C   UNL     1      -9.129  15.262  65.988  1.00  0.00    -0.244 A  
HETATM   16  C   UNL     1      -9.054  16.593  66.400  1.00  0.00    -0.325 A  
HETATM   17  C   UNL     1     -10.038  17.512  66.028  1.00  0.00    -0.270 A  
HETATM   18  C   UNL     1     -11.145  15.743  64.774  1.00  0.00    -0.413 A  
HETATM   19  C   UNL     1     -11.076  17.079  65.192  1.00  0.00     0.087 A  
BRANCH  17  20
HETATM   20  C   UNL     1     -10.006  18.929  66.564  1.00  0.00    -0.426 C  
BRANCH  20  21
HETATM   21  C   UNL     1     -10.298  19.058  68.069  1.00  0.00    -0.394 C  
BRANCH  21  22
HETATM   22  N   UNL     1     -11.101  17.936  68.549  1.00  0.00    -0.069 NA 
HETATM   23  H   UNL     1     -11.473  17.391  67.771  1.00  0.00     0.000 HD 
BRANCH  22  24
HETATM   24  C   UNL     1     -10.363  17.082  69.488  1.00  0.00    -0.156 C  
BRANCH  24  25
HETATM   25  C   UNL     1     -11.054  15.717  69.739  1.00  0.00    -0.322 C  
HETATM   26  O   UNL     1     -11.663  15.254  68.523  1.00  0.00    -0.340 OA 
HETATM   27  H   UNL     1     -12.086  14.417  68.677  1.00  0.00     0.000 HD 
BRANCH  25  28
HETATM   28  C   UNL     1     -12.067  15.687  70.869  1.00  0.00    -0.452 A  
HETATM   29  C   UNL     1     -11.667  15.972  72.183  1.00  0.00    -0.587 A  
HETATM   30  C   UNL     1     -12.576  15.874  73.241  1.00  0.00    -0.640 A  
HETATM   31  C   UNL     1     -13.895  15.497  72.998  1.00  0.00    -0.425 A  
HETATM   32  C   UNL     1     -14.313  15.234  71.697  1.00  0.00    -0.666 A  
HETATM   33  C   UNL     1     -13.405  15.329  70.640  1.00  0.00    -0.320 A  
ENDBRANCH  25  28
ENDBRANCH  24  25
ENDBRANCH  22  24
ENDBRANCH  21  22
ENDBRANCH  20  21
ENDBRANCH  17  20
ENDBRANCH  11  14
ENDBRANCH   9  10
ENDBRANCH   6   9
TORSDOF 9
ENDMDL
MODEL      100
REMARK 921   NORMALIZED FREE ENERGY PREDICTED BY IDOCK:   -4.86 KCAL/MOL
REMARK 922        TOTAL FREE ENERGY PREDICTED BY IDOCK:   -9.86 KCAL/MOL
REMARK 923 INTER-LIGAND FREE ENERGY PREDICTED BY IDOCK:   -8.93 KCAL/MOL
REMARK 924 INTRA-LIGAND FREE ENERGY PREDICTED BY IDOCK:   -0.93 KCAL/MOL
REMARK 927      BINDING AFFINITY PREDICTED BY RF-SCORE:    0.00 PKD
ROOT
HETATM    1  N   UNL     1     -14.178   9.046  72.586  1.00  0.00    -0.930 NA 
HETATM    2  C   UNL     1     -13.000   8.547  72.176  1.00  0.00    -0.363 A  
HETATM    3  H1  UNL     1     -14.952   8.458  72.895  1.00  0.00     0.000 HD 
HETATM    4  H2  UNL     1     -14.303  10.057  72.589  1.00  0.00     0.000 HD 
HETATM    5  N   UNL     1     -12.006   9.300  71.779  1.00  0.00    -0.371 NA 
HETATM    6  C   UNL     1     -10.919   8.510  71.420  1.00  0.00    -0.264 A  
HETATM    7  S   UNL     1     -12.697   6.859  72.170  1.00  0.00     0.005 SA 
HETATM    8  C   UNL     1     -11.119   7.151  71.573  1.00  0.00    -0.239 A  
ENDROOT
BRANCH   6   9
HETATM    9  C   UNL     1      -9.674   9.175  70.942  1.00  0.00    -0.352 C  
BRANCH   9  10
HETATM   10  C   UNL     1      -9.760   9.721  69.527  1.00  0.00    -0.212 C  
HETATM   11  N   UNL     1     -10.075  11.067  69.422  1.00  0.00    -0.427 N  
HETATM   12  O   UNL     1      -9.447   8.984  68.591  1.00  0.00    -0.145 OA 
HETATM   13  H   UNL     1     -10.299  11.560  70.286  1.00  0.00     0.000 HD 
BRANCH  11  14
HETATM   14  C   UNL     1     -10.113  11.817  68.229  1.00  0.00    -0.197 A  
HETATM   15  C   UNL     1      -8.967  12.312  67.607  1.00  0.00    -0.181 A  
HETATM   16  C   UNL     1      -9.059  13.147  66.493  1.00  0.00    -0.135 A  
HETATM   17  C   UNL     1     -10.305  13.495  65.964  1.00  0.00    -0.303 A  
HETATM   18  C   UNL     1     -11.359  12.104  67.662  1.00  0.00    -0.379 A  
HETATM   19  C   UNL     1     -11.456  12.948  66.547  1.00  0.00    -0.390 A  
BRANCH  17  20
HETATM   20  C   UNL     1     -10.403  14.483  64.820  1.00  0.00    -0.319 C  
BRANCH  20  21
HETATM   21  C   UNL     1     -10.814  15.908  65.229  1.00  0.00    -0.387 C  
BRANCH  21  22
HETATM   22  N   UNL     1      -9.734  16.585  65.942  1.00  0.00    -0.470 NA 
HETATM   23  H   UNL     1      -9.536  17.497  65.530  1.00  0.00     0.000 HD 
BRANCH  22  24
HETATM   24  C   UNL     1      -9.999  16.701  67.381  1.00  0.00    -0.265 C  
BRANCH  24  25
HETATM   25  C   UNL     1      -9.976  18.166  67.886  1.00  0.00    -0.333 C  
HETATM   26  O   UNL     1     -10.955  18.939  67.174  1.00  0.00    -0.410 OA 
HETATM   27  H   UNL     1     -10.940  19.837  67.484  1.00  0.00     0.000 HD 
BRANCH  25  28
HETATM   28  C   UNL     1      -8.628  18.862  67.831  1.00  0.00    -0.323 A  
HETATM   29  C   UNL     1      -8.496  20.097  67.177  1.00  0.00    -0.403 A  
HETATM   30  C   UNL     1      -7.246  20.710  67.057  1.00  0.00    -0.372 A  
HETATM   31  C   UNL     1      -6.113  20.100  67.593  1.00  0.00    -0.244 A  
HETATM   32  C   UNL     1      -6.231  18.888  68.266  1.00  0.00    -0.228 A  
HETATM   33  C   UNL     1      -7.479  18.273  68.384  1.00  0.00    -0.292 A  
ENDBRANCH  25  28
ENDBRANCH  24  25
ENDBRANCH  22  24
ENDBRANCH  21  22
ENDBRANCH  20  21
ENDBRANCH  17  20
ENDBRANCH  11  14
ENDBRANCH   9  10
ENDBRANCH   6   9
TORSDOF 9
ENDMDL
MODEL      101
REMARK 921   NORMALIZED FREE ENERGY PREDICTED BY IDOCK:   -4.85 KCAL/MOL
REMARK 922        TOTAL FREE ENERGY PREDICTED BY IDOCK:   -9.85 KCAL/MOL
REMARK 923 INTER-LIGAND FREE ENERGY PREDICTED BY IDOCK:   -8.68 KCAL/MOL
REMARK 924 INTRA-LIGAND FREE ENERGY PREDICTED BY IDOCK:   -1.17 KCAL/MOL
REMARK 927      BINDING AFFINITY PREDICTED BY RF-SCORE:    0.00 PKD
ROOT
HETATM    1  N   UNL     1      -6.580  18.445  65.276  1.00  0.00    -0.468 NA 
HETATM    2  C   UNL     1      -7.541  18.786  66.150  1.00  0.00    -0.258 A  
HETATM    3  H1  UNL     1      -5.695  18.948  65.200  1.00  0.00     0.000 HD 
HETATM    4  H2  UNL     1      -6.741  17.648  64.662  1.00  0.00     0.000 HD 
HETATM    5  N   UNL     1      -8.676  18.141  66.248  1.00  0.00    -0.450 NA 
HETATM    6  C   UNL     1      -9.470  18.715  67.236  1.00  0.00    -0.298 A  
HETATM    7  S   UNL     1      -7.338  20.095  67.239  1.00  0.00    -0.291 SA 
HETATM    8  C   UNL     1      -8.895  19.792  67.883  1.00  0.00    -0.321 A  
ENDROOT
BRANCH   6   9
HETATM    9  C   UNL     1     -10.809  18.126  67.514  1.00  0.00    -0.264 C  
BRANCH   9  10
HETATM   10  C   UNL     1     -10.779  16.893  68.401  1.00  0.00    -0.368 C  
HETATM   11  N   UNL     1     -11.820  15.995  68.216  1.00  0.00    -0.284 N  
HETATM   12  O   UNL     1      -9.804  16.717  69.133  1.00  0.00    -0.263 OA 
HETATM   13  H   UNL     1     -12.556  16.267  67.564  1.00  0.00     0.000 HD 
BRANCH  11  14
HETATM   14  C   UNL     1     -11.952  14.742  68.846  1.00  0.00    -0.263 A  
HETATM   15  C   UNL     1     -12.024  14.593  70.231  1.00  0.00    -0.370 A  
HETATM   16  C   UNL     1     -12.038  13.326  70.816  1.00  0.00    -0.311 A  
HETATM   17  C   UNL     1     -11.994  12.174  70.026  1.00  0.00    -0.391 A  
HETATM   18  C   UNL     1     -11.979  13.594  68.047  1.00  0.00    -0.385 A  
HETATM   19  C   UNL     1     -11.985  12.320  68.632  1.00  0.00    -0.276 A  
BRANCH  17  20
HETATM   20  C   UNL     1     -11.904  10.806  70.669  1.00  0.00    -0.460 C  
BRANCH  20  21
HETATM   21  C   UNL     1     -10.986   9.808  69.941  1.00  0.00    -0.264 C  
BRANCH  21  22
HETATM   22  N   UNL     1      -9.603  10.275  69.929  1.00  0.00    -0.405 NA 
HETATM   23  H   UNL     1      -9.101   9.959  70.759  1.00  0.00     0.000 HD 
BRANCH  22  24
HETATM   24  C   UNL     1      -8.893   9.890  68.703  1.00  0.00    -0.128 C  
BRANCH  24  25
HETATM   25  C   UNL     1      -8.453  11.107  67.849  1.00  0.00    -0.131 C  
HETATM   26  O   UNL     1      -8.603  12.314  68.613  1.00  0.00    -0.324 OA 
HETATM   27  H   UNL     1      -8.333  13.059  68.090  1.00  0.00     0.000 HD 
BRANCH  25  28
HETATM   28  C   UNL     1      -9.145  11.256  66.507  1.00  0.00    -0.193 A  
HETATM   29  C   UNL     1      -9.654  12.501  66.108  1.00  0.00    -0.230 A  
HETATM   30  C   UNL     1     -10.358  12.633  64.908  1.00  0.00    -0.330 A  
HETATM   31  C   UNL     1     -10.556  11.524  64.088  1.00  0.00    -0.420 A  
HETATM   32  C   UNL     1     -10.037  10.287  64.457  1.00  0.00    -0.286 A  
HETATM   33  C   UNL     1      -9.337  10.154  65.658  1.00  0.00    -0.250 A  
ENDBRANCH  25  28
ENDBRANCH  24  25
ENDBRANCH  22  24
ENDBRANCH  21  22
ENDBRANCH  20  21
ENDBRANCH  17  20
ENDBRANCH  11  14
ENDBRANCH   9  10
ENDBRANCH   6   9
TORSDOF 9
ENDMDL
MODEL      102
REMARK 921   NORMALIZED FREE ENERGY PREDICTED BY IDOCK:   -4.82 KCAL/MOL
REMARK 922        TOTAL FREE ENERGY PREDICTED BY IDOCK:   -9.80 KCAL/MOL
REMARK 923 INTER-LIGAND FREE ENERGY PREDICTED BY IDOCK:   -8.98 KCAL/MOL
REMARK 924 INTRA-LIGAND FREE ENERGY PREDICTED BY IDOCK:   -0.82 KCAL/MOL
REMARK 927      BINDING AFFINITY PREDICTED BY RF-SCORE:    0.00 PKD
ROOT
HETATM    1  N   UNL     1      -9.595   2.759  67.245  1.00  0.00    -0.398 NA 
HETATM    2  C   UNL     1      -9.626   4.052  67.606  1.00  0.00    -0.159 A  
HETATM    3  H1  UNL     1      -9.509   1.997  67.918  1.00  0.00     0.000 HD 
HETATM    4  H2  UNL     1      -9.659   2.529  66.254  1.00  0.00     0.000 HD 
HETATM    5  N   UNL     1      -9.736   5.030  66.743  1.00  0.00    -0.157 NA 
HETATM    6  C   UNL     1      -9.747   6.254  67.404  1.00  0.00    -0.120 A  
HETATM    7  S   UNL     1      -9.554   4.524  69.253  1.00  0.00    -0.191 SA 
HETATM    8  C   UNL     1      -9.659   6.167  68.780  1.00  0.00    -0.125 A  
ENDROOT
BRANCH   6   9
HETATM    9  C   UNL     1      -9.871   7.503  66.601  1.00  0.00    -0.274 C  
BRANCH   9  10
HETATM   10  C   UNL     1      -9.885   8.779  67.427  1.00  0.00    -0.194 C  
HETATM   11  N   UNL     1     -11.141   9.274  67.742  1.00  0.00    -0.478 N  
HETATM   12  O   UNL     1      -8.815   9.222  67.846  1.00  0.00    -0.124 OA 
HETATM   13  H   UNL     1     -11.944   8.796  67.334  1.00  0.00     0.000 HD 
BRANCH  11  14
HETATM   14  C   UNL     1     -11.409  10.380  68.575  1.00  0.00    -0.220 A  
HETATM   15  C   UNL     1     -11.683  10.255  69.937  1.00  0.00    -0.298 A  
HETATM   16  C   UNL     1     -12.056  11.364  70.697  1.00  0.00    -0.469 A  
HETATM   17  C   UNL     1     -12.151  12.630  70.114  1.00  0.00    -0.368 A  
HETATM   18  C   UNL     1     -11.434  11.655  68.001  1.00  0.00    -0.385 A  
HETATM   19  C   UNL     1     -11.816  12.770  68.761  1.00  0.00    -0.346 A  
BRANCH  17  20
HETATM   20  C   UNL     1     -12.657  13.809  70.920  1.00  0.00    -0.428 C  
BRANCH  20  21
HETATM   21  C   UNL     1     -12.559  15.169  70.207  1.00  0.00    -0.326 C  
BRANCH  21  22
HETATM   22  N   UNL     1     -11.342  15.879  70.591  1.00  0.00    -0.370 NA 
HETATM   23  H   UNL     1     -10.958  15.508  71.460  1.00  0.00     0.000 HD 
BRANCH  22  24
HETATM   24  C   UNL     1     -10.333  15.879  69.524  1.00  0.00    -0.277 C  
BRANCH  24  25
HETATM   25  C   UNL     1     -10.882  16.394  68.169  1.00  0.00    -0.346 C  
HETATM   26  O   UNL     1     -10.455  15.522  67.111  1.00  0.00    -0.275 OA 
HETATM   27  H   UNL     1     -10.792  15.838  66.281  1.00  0.00     0.000 HD 
BRANCH  25  28
HETATM   28  C   UNL     1     -10.542  17.832  67.823  1.00  0.00    -0.392 A  
HETATM   29  C   UNL     1     -10.571  18.263  66.488  1.00  0.00    -0.313 A  
HETATM   30  C   UNL     1     -10.187  19.565  66.151  1.00  0.00    -0.588 A  
HETATM   31  C   UNL     1      -9.777  20.452  67.144  1.00  0.00    -0.601 A  
HETATM   32  C   UNL     1      -9.765  20.048  68.475  1.00  0.00    -0.355 A  
HETATM   33  C   UNL     1     -10.145  18.747  68.812  1.00  0.00    -0.407 A  
ENDBRANCH  25  28
ENDBRANCH  24  25
ENDBRANCH  22  24
ENDBRANCH  21  22
ENDBRANCH  20  21
ENDBRANCH  17  20
ENDBRANCH  11  14
ENDBRANCH   9  10
ENDBRANCH   6   9
TORSDOF 9
ENDMDL
MODEL      103
REMARK 921   NORMALIZED FREE ENERGY PREDICTED BY IDOCK:   -4.81 KCAL/MOL
REMARK 922        TOTAL FREE ENERGY PREDICTED BY IDOCK:   -9.79 KCAL/MOL
REMARK 923 INTER-LIGAND FREE ENERGY PREDICTED BY IDOCK:   -7.76 KCAL/MOL
REMARK 924 INTRA-LIGAND FREE ENERGY PREDICTED BY IDOCK:   -2.02 KCAL/MOL
REMARK 927      BINDING AFFINITY PREDICTED BY RF-SCORE:    0.00 PKD
ROOT
HETATM    1  N   UNL     1      -7.835   5.632  70.413  1.00  0.00    -0.100 NA 
HETATM    2  C   UNL     1      -8.992   6.299  70.556  1.00  0.00    -0.151 A  
HETATM    3  H1  UNL     1      -7.780   4.695  70.012  1.00  0.00     0.000 HD 
HETATM    4  H2  UNL     1      -6.973   6.082  70.719  1.00  0.00     0.000 HD 
HETATM    5  N   UNL     1      -9.063   7.500  71.071  1.00  0.00    -0.148 NA 
HETATM    6  C   UNL     1     -10.384   7.937  71.087  1.00  0.00    -0.200 A  
HETATM    7  S   UNL     1     -10.482   5.626  70.039  1.00  0.00    -0.311 SA 
HETATM    8  C   UNL     1     -11.294   7.042  70.559  1.00  0.00    -0.312 A  
ENDROOT
BRANCH   6   9
HETATM    9  C   UNL     1     -10.685   9.291  71.632  1.00  0.00    -0.393 C  
BRANCH   9  10
HETATM   10  C   UNL     1     -11.415  10.207  70.664  1.00  0.00    -0.349 C  
HETATM   11  N   UNL     1     -10.616  10.855  69.734  1.00  0.00    -0.444 N  
HETATM   12  O   UNL     1     -12.646  10.233  70.692  1.00  0.00    -0.313 OA 
HETATM   13  H   UNL     1      -9.608  10.730  69.822  1.00  0.00     0.000 HD 
BRANCH  11  14
HETATM   14  C   UNL     1     -11.071  11.670  68.679  1.00  0.00    -0.234 A  
HETATM   15  C   UNL     1     -11.156  11.227  67.359  1.00  0.00    -0.358 A  
HETATM   16  C   UNL     1     -11.501  12.103  66.329  1.00  0.00    -0.433 A  
HETATM   17  C   UNL     1     -11.784  13.444  66.598  1.00  0.00    -0.428 A  
HETATM   18  C   UNL     1     -11.422  12.995  68.964  1.00  0.00    -0.353 A  
HETATM   19  C   UNL     1     -11.762  13.879  67.930  1.00  0.00    -0.396 A  
BRANCH  17  20
HETATM   20  C   UNL     1     -12.056  14.412  65.465  1.00  0.00    -0.358 C  
BRANCH  20  21
HETATM   21  C   UNL     1     -10.802  15.065  64.857  1.00  0.00    -0.411 C  
BRANCH  21  22
HETATM   22  N   UNL     1     -10.556  16.380  65.441  1.00  0.00    -0.548 NA 
HETATM   23  H   UNL     1     -11.267  16.614  66.134  1.00  0.00     0.000 HD 
BRANCH  22  24
HETATM   24  C   UNL     1      -9.207  16.498  66.008  1.00  0.00    -0.260 C  
BRANCH  24  25
HETATM   25  C   UNL     1      -9.187  16.402  67.555  1.00  0.00    -0.198 C  
HETATM   26  O   UNL     1      -8.762  17.656  68.111  1.00  0.00    -0.249 OA 
HETATM   27  H   UNL     1      -8.750  17.597  69.060  1.00  0.00     0.000 HD 
BRANCH  25  28
HETATM   28  C   UNL     1      -8.359  15.271  68.137  1.00  0.00    -0.149 A  
HETATM   29  C   UNL     1      -7.810  15.386  69.422  1.00  0.00    -0.232 A  
HETATM   30  C   UNL     1      -6.985  14.382  69.938  1.00  0.00    -0.009 A  
HETATM   31  C   UNL     1      -6.704  13.249  69.177  1.00  0.00    -0.092 A  
HETATM   32  C   UNL     1      -7.260  13.109  67.910  1.00  0.00    -0.133 A  
HETATM   33  C   UNL     1      -8.082  14.112  67.393  1.00  0.00    -0.205 A  
ENDBRANCH  25  28
ENDBRANCH  24  25
ENDBRANCH  22  24
ENDBRANCH  21  22
ENDBRANCH  20  21
ENDBRANCH  17  20
ENDBRANCH  11  14
ENDBRANCH   9  10
ENDBRANCH   6   9
TORSDOF 9
ENDMDL
MODEL      104
REMARK 921   NORMALIZED FREE ENERGY PREDICTED BY IDOCK:   -4.81 KCAL/MOL
REMARK 922        TOTAL FREE ENERGY PREDICTED BY IDOCK:   -9.79 KCAL/MOL
REMARK 923 INTER-LIGAND FREE ENERGY PREDICTED BY IDOCK:   -8.37 KCAL/MOL
REMARK 924 INTRA-LIGAND FREE ENERGY PREDICTED BY IDOCK:   -1.42 KCAL/MOL
REMARK 927      BINDING AFFINITY PREDICTED BY RF-SCORE:    0.00 PKD
ROOT
HETATM    1  N   UNL     1      -7.946  14.846  66.886  1.00  0.00    -0.338 NA 
HETATM    2  C   UNL     1      -8.974  15.543  67.399  1.00  0.00    -0.192 A  
HETATM    3  H1  UNL     1      -7.142  15.289  66.441  1.00  0.00     0.000 HD 
HETATM    4  H2  UNL     1      -7.971  13.829  66.943  1.00  0.00     0.000 HD 
HETATM    5  N   UNL     1     -10.005  14.974  67.969  1.00  0.00    -0.217 NA 
HETATM    6  C   UNL     1     -10.904  15.941  68.407  1.00  0.00    -0.316 A  
HETATM    7  S   UNL     1      -8.995  17.257  67.370  1.00  0.00    -0.224 SA 
HETATM    8  C   UNL     1     -10.512  17.244  68.166  1.00  0.00    -0.382 A  
ENDROOT
BRANCH   6   9
HETATM    9  C   UNL     1     -12.152  15.503  69.093  1.00  0.00    -0.266 C  
BRANCH   9  10
HETATM   10  C   UNL     1     -11.998  14.245  69.931  1.00  0.00    -0.339 C  
HETATM   11  N   UNL     1     -11.958  13.054  69.221  1.00  0.00    -0.302 N  
HETATM   12  O   UNL     1     -11.813  14.362  71.143  1.00  0.00    -0.322 OA 
HETATM   13  H   UNL     1     -12.113  13.109  68.215  1.00  0.00     0.000 HD 
BRANCH  11  14
HETATM   14  C   UNL     1     -11.723  11.775  69.765  1.00  0.00    -0.335 A  
HETATM   15  C   UNL     1     -12.469  11.250  70.819  1.00  0.00    -0.471 A  
HETATM   16  C   UNL     1     -12.127  10.029  71.402  1.00  0.00    -0.498 A  
HETATM   17  C   UNL     1     -11.034   9.296  70.933  1.00  0.00    -0.368 A  
HETATM   18  C   UNL     1     -10.671  11.014  69.245  1.00  0.00    -0.263 A  
HETATM   19  C   UNL     1     -10.320   9.790  69.833  1.00  0.00    -0.291 A  
BRANCH  17  20
HETATM   20  C   UNL     1     -10.605   8.025  71.635  1.00  0.00    -0.280 C  
BRANCH  20  21
HETATM   21  C   UNL     1     -11.527   6.815  71.404  1.00  0.00    -0.292 C  
BRANCH  21  22
HETATM   22  N   UNL     1     -12.031   6.790  70.034  1.00  0.00    -0.656 NA 
HETATM   23  H   UNL     1     -12.262   7.729  69.709  1.00  0.00     0.000 HD 
BRANCH  22  24
HETATM   24  C   UNL     1     -11.106   6.123  69.110  1.00  0.00    -0.378 C  
BRANCH  24  25
HETATM   25  C   UNL     1     -10.811   6.958  67.837  1.00  0.00    -0.218 C  
HETATM   26  O   UNL     1     -11.474   6.368  66.708  1.00  0.00    -0.733 OA 
HETATM   27  H   UNL     1     -11.293   6.880  65.928  1.00  0.00     0.000 HD 
BRANCH  25  28
HETATM   28  C   UNL     1      -9.344   7.180  67.518  1.00  0.00    -0.137 A  
HETATM   29  C   UNL     1      -8.390   7.183  68.546  1.00  0.00    -0.125 A  
HETATM   30  C   UNL     1      -7.047   7.460  68.272  1.00  0.00    -0.084 A  
HETATM   31  C   UNL     1      -6.641   7.731  66.967  1.00  0.00    -0.063 A  
HETATM   32  C   UNL     1      -7.571   7.708  65.932  1.00  0.00    -0.091 A  
HETATM   33  C   UNL     1      -8.913   7.434  66.206  1.00  0.00    -0.192 A  
ENDBRANCH  25  28
ENDBRANCH  24  25
ENDBRANCH  22  24
ENDBRANCH  21  22
ENDBRANCH  20  21
ENDBRANCH  17  20
ENDBRANCH  11  14
ENDBRANCH   9  10
ENDBRANCH   6   9
TORSDOF 9
ENDMDL
MODEL      105
REMARK 921   NORMALIZED FREE ENERGY PREDICTED BY IDOCK:   -4.79 KCAL/MOL
REMARK 922        TOTAL FREE ENERGY PREDICTED BY IDOCK:   -9.76 KCAL/MOL
REMARK 923 INTER-LIGAND FREE ENERGY PREDICTED BY IDOCK:   -8.67 KCAL/MOL
REMARK 924 INTRA-LIGAND FREE ENERGY PREDICTED BY IDOCK:   -1.09 KCAL/MOL
REMARK 927      BINDING AFFINITY PREDICTED BY RF-SCORE:    0.00 PKD
ROOT
HETATM    1  N   UNL     1      -9.448   7.796  72.844  1.00  0.00    -0.208 NA 
HETATM    2  C   UNL     1     -10.702   7.880  72.372  1.00  0.00    -0.305 A  
HETATM    3  H1  UNL     1      -9.008   6.911  73.098  1.00  0.00     0.000 HD 
HETATM    4  H2  UNL     1      -8.911   8.655  72.955  1.00  0.00     0.000 HD 
HETATM    5  N   UNL     1     -11.267   9.015  72.046  1.00  0.00    -0.356 NA 
HETATM    6  C   UNL     1     -12.560   8.793  71.585  1.00  0.00    -0.345 A  
HETATM    7  S   UNL     1     -11.661   6.480  72.127  1.00  0.00    -0.295 SA 
HETATM    8  C   UNL     1     -12.942   7.465  71.558  1.00  0.00    -0.375 A  
ENDROOT
BRANCH   6   9
HETATM    9  C   UNL     1     -13.380   9.960  71.155  1.00  0.00    -0.371 C  
BRANCH   9  10
HETATM   10  C   UNL     1     -12.571  11.140  70.644  1.00  0.00    -0.318 C  
HETATM   11  N   UNL     1     -11.949  10.954  69.419  1.00  0.00    -0.396 N  
HETATM   12  O   UNL     1     -12.604  12.196  71.277  1.00  0.00    -0.342 OA 
HETATM   13  H   UNL     1     -12.017  10.026  69.000  1.00  0.00     0.000 HD 
BRANCH  11  14
HETATM   14  C   UNL     1     -11.231  11.931  68.699  1.00  0.00    -0.257 A  
HETATM   15  C   UNL     1      -9.885  11.790  68.363  1.00  0.00    -0.199 A  
HETATM   16  C   UNL     1      -9.186  12.832  67.752  1.00  0.00    -0.199 A  
HETATM   17  C   UNL     1      -9.823  14.038  67.450  1.00  0.00    -0.240 A  
HETATM   18  C   UNL     1     -11.892  13.109  68.336  1.00  0.00    -0.386 A  
HETATM   19  C   UNL     1     -11.191  14.160  67.729  1.00  0.00    -0.307 A  
BRANCH  17  20
HETATM   20  C   UNL     1      -9.034  15.200  66.883  1.00  0.00    -0.277 C  
BRANCH  20  21
HETATM   21  C   UNL     1      -7.545  15.220  67.269  1.00  0.00    -0.210 C  
BRANCH  21  22
HETATM   22  N   UNL     1      -6.844  16.320  66.613  1.00  0.00    -0.238 NA 
HETATM   23  H   UNL     1      -7.487  16.889  66.061  1.00  0.00     0.000 HD 
BRANCH  22  24
HETATM   24  C   UNL     1      -6.088  17.147  67.560  1.00  0.00    -0.139 C  
BRANCH  24  25
HETATM   25  C   UNL     1      -6.471  18.648  67.498  1.00  0.00    -0.197 C  
HETATM   26  O   UNL     1      -5.923  19.335  68.634  1.00  0.00    -0.209 OA 
HETATM   27  H   UNL     1      -6.159  20.255  68.595  1.00  0.00     0.000 HD 
BRANCH  25  28
HETATM   28  C   UNL     1      -7.955  18.946  67.379  1.00  0.00    -0.264 A  
HETATM   29  C   UNL     1      -8.507  19.304  66.140  1.00  0.00    -0.278 A  
HETATM   30  C   UNL     1      -9.857  19.651  66.036  1.00  0.00    -0.462 A  
HETATM   31  C   UNL     1     -10.672  19.641  67.165  1.00  0.00    -0.587 A  
HETATM   32  C   UNL     1     -10.145  19.265  68.397  1.00  0.00    -0.518 A  
HETATM   33  C   UNL     1      -8.796  18.920  68.504  1.00  0.00    -0.387 A  
ENDBRANCH  25  28
ENDBRANCH  24  25
ENDBRANCH  22  24
ENDBRANCH  21  22
ENDBRANCH  20  21
ENDBRANCH  17  20
ENDBRANCH  11  14
ENDBRANCH   9  10
ENDBRANCH   6   9
TORSDOF 9
ENDMDL
MODEL      106
REMARK 921   NORMALIZED FREE ENERGY PREDICTED BY IDOCK:   -4.79 KCAL/MOL
REMARK 922        TOTAL FREE ENERGY PREDICTED BY IDOCK:   -9.75 KCAL/MOL
REMARK 923 INTER-LIGAND FREE ENERGY PREDICTED BY IDOCK:   -9.16 KCAL/MOL
REMARK 924 INTRA-LIGAND FREE ENERGY PREDICTED BY IDOCK:   -0.59 KCAL/MOL
REMARK 927      BINDING AFFINITY PREDICTED BY RF-SCORE:    0.00 PKD
ROOT
HETATM    1  N   UNL     1     -10.465   2.111  63.935  1.00  0.00    -0.359 NA 
HETATM    2  C   UNL     1      -9.844   3.262  64.239  1.00  0.00    -0.170 A  
HETATM    3  H1  UNL     1     -10.447   1.700  63.001  1.00  0.00     0.000 HD 
HETATM    4  H2  UNL     1     -10.977   1.625  64.670  1.00  0.00     0.000 HD 
HETATM    5  N   UNL     1      -9.868   3.790  65.437  1.00  0.00    -0.160 NA 
HETATM    6  C   UNL     1      -9.137   4.974  65.453  1.00  0.00    -0.154 A  
HETATM    7  S   UNL     1      -8.935   4.125  63.068  1.00  0.00    -0.122 SA 
HETATM    8  C   UNL     1      -8.556   5.309  64.246  1.00  0.00    -0.080 A  
ENDROOT
BRANCH   6   9
HETATM    9  C   UNL     1      -9.032   5.735  66.730  1.00  0.00    -0.118 C  
BRANCH   9  10
HETATM   10  C   UNL     1      -9.905   6.977  66.792  1.00  0.00    -0.186 C  
HETATM   11  N   UNL     1      -9.291   8.160  66.411  1.00  0.00    -0.200 N  
HETATM   12  O   UNL     1     -11.100   6.845  67.062  1.00  0.00    -0.389 OA 
HETATM   13  H   UNL     1      -8.294   8.118  66.199  1.00  0.00     0.000 HD 
BRANCH  11  14
HETATM   14  C   UNL     1      -9.920   9.417  66.291  1.00  0.00    -0.283 A  
HETATM   15  C   UNL     1     -10.582  10.038  67.349  1.00  0.00    -0.330 A  
HETATM   16  C   UNL     1     -11.288  11.226  67.155  1.00  0.00    -0.295 A  
HETATM   17  C   UNL     1     -11.338  11.828  65.895  1.00  0.00    -0.324 A  
HETATM   18  C   UNL     1      -9.906  10.051  65.044  1.00  0.00    -0.374 A  
HETATM   19  C   UNL     1     -10.622  11.240  64.843  1.00  0.00    -0.364 A  
BRANCH  17  20
HETATM   20  C   UNL     1     -12.191  13.059  65.667  1.00  0.00    -0.521 C  
BRANCH  20  21
HETATM   21  C   UNL     1     -12.153  14.092  66.806  1.00  0.00    -0.442 C  
BRANCH  21  22
HETATM   22  N   UNL     1     -10.780  14.402  67.193  1.00  0.00    -0.280 NA 
HETATM   23  H   UNL     1     -10.420  15.198  66.666  1.00  0.00     0.000 HD 
BRANCH  22  24
HETATM   24  C   UNL     1     -10.641  14.618  68.638  1.00  0.00    -0.252 C  
BRANCH  24  25
HETATM   25  C   UNL     1     -11.722  15.566  69.217  1.00  0.00    -0.365 C  
HETATM   26  O   UNL     1     -11.267  16.926  69.134  1.00  0.00    -0.252 OA 
HETATM   27  H   UNL     1     -11.930  17.507  69.489  1.00  0.00     0.000 HD 
BRANCH  25  28
HETATM   28  C   UNL     1     -12.180  15.260  70.631  1.00  0.00    -0.412 A  
HETATM   29  C   UNL     1     -11.685  16.006  71.711  1.00  0.00    -0.593 A  
HETATM   30  C   UNL     1     -12.044  15.683  73.024  1.00  0.00    -0.590 A  
HETATM   31  C   UNL     1     -12.905  14.617  73.272  1.00  0.00    -0.580 A  
HETATM   32  C   UNL     1     -13.423  13.882  72.210  1.00  0.00    -0.623 A  
HETATM   33  C   UNL     1     -13.063  14.201  70.899  1.00  0.00    -0.338 A  
ENDBRANCH  25  28
ENDBRANCH  24  25
ENDBRANCH  22  24
ENDBRANCH  21  22
ENDBRANCH  20  21
ENDBRANCH  17  20
ENDBRANCH  11  14
ENDBRANCH   9  10
ENDBRANCH   6   9
TORSDOF 9
ENDMDL
MODEL      107
REMARK 921   NORMALIZED FREE ENERGY PREDICTED BY IDOCK:   -4.78 KCAL/MOL
REMARK 922        TOTAL FREE ENERGY PREDICTED BY IDOCK:   -9.74 KCAL/MOL
REMARK 923 INTER-LIGAND FREE ENERGY PREDICTED BY IDOCK:   -8.49 KCAL/MOL
REMARK 924 INTRA-LIGAND FREE ENERGY PREDICTED BY IDOCK:   -1.25 KCAL/MOL
REMARK 927      BINDING AFFINITY PREDICTED BY RF-SCORE:    0.00 PKD
ROOT
HETATM    1  N   UNL     1     -11.027   2.454  74.065  1.00  0.00    -0.179 NA 
HETATM    2  C   UNL     1     -10.747   3.467  73.228  1.00  0.00    -0.194 A  
HETATM    3  H1  UNL     1     -10.521   1.568  74.053  1.00  0.00     0.000 HD 
HETATM    4  H2  UNL     1     -11.779   2.576  74.742  1.00  0.00     0.000 HD 
HETATM    5  N   UNL     1     -11.397   4.603  73.243  1.00  0.00    -0.325 NA 
HETATM    6  C   UNL     1     -10.886   5.459  72.272  1.00  0.00    -0.227 A  
HETATM    7  S   UNL     1      -9.478   3.354  72.080  1.00  0.00    -0.138 SA 
HETATM    8  C   UNL     1      -9.832   4.942  71.544  1.00  0.00    -0.183 A  
ENDROOT
BRANCH   6   9
HETATM    9  C   UNL     1     -11.485   6.815  72.124  1.00  0.00    -0.319 C  
BRANCH   9  10
HETATM   10  C   UNL     1     -11.508   7.337  70.698  1.00  0.00    -0.293 C  
HETATM   11  N   UNL     1     -10.584   8.330  70.407  1.00  0.00    -0.219 N  
HETATM   12  O   UNL     1     -12.248   6.788  69.881  1.00  0.00    -0.100 OA 
HETATM   13  H   UNL     1     -10.024   8.683  71.183  1.00  0.00     0.000 HD 
BRANCH  11  14
HETATM   14  C   UNL     1     -10.349   8.895  69.137  1.00  0.00    -0.220 A  
HETATM   15  C   UNL     1     -10.942  10.085  68.715  1.00  0.00    -0.242 A  
HETATM   16  C   UNL     1     -10.773  10.546  67.409  1.00  0.00    -0.334 A  
HETATM   17  C   UNL     1      -9.992   9.833  66.496  1.00  0.00    -0.304 A  
HETATM   18  C   UNL     1      -9.510   8.213  68.250  1.00  0.00    -0.148 A  
HETATM   19  C   UNL     1      -9.344   8.670  66.935  1.00  0.00    -0.216 A  
BRANCH  17  20
HETATM   20  C   UNL     1      -9.896  10.283  65.053  1.00  0.00    -0.397 C  
BRANCH  20  21
HETATM   21  C   UNL     1     -10.861  11.416  64.664  1.00  0.00    -0.292 C  
BRANCH  21  22
HETATM   22  N   UNL     1     -10.134  12.635  64.323  1.00  0.00    -0.563 NA 
HETATM   23  H   UNL     1      -9.813  12.614  63.355  1.00  0.00     0.000 HD 
BRANCH  22  24
HETATM   24  C   UNL     1     -10.915  13.848  64.595  1.00  0.00    -0.398 C  
BRANCH  24  25
HETATM   25  C   UNL     1     -11.954  13.659  65.730  1.00  0.00    -0.395 C  
HETATM   26  O   UNL     1     -13.265  13.991  65.246  1.00  0.00    -0.782 OA 
HETATM   27  H   UNL     1     -13.901  13.875  65.942  1.00  0.00     0.000 HD 
BRANCH  25  28
HETATM   28  C   UNL     1     -11.671  14.415  67.016  1.00  0.00    -0.420 A  
HETATM   29  C   UNL     1     -12.159  13.933  68.240  1.00  0.00    -0.322 A  
HETATM   30  C   UNL     1     -11.967  14.660  69.419  1.00  0.00    -0.351 A  
HETATM   31  C   UNL     1     -11.281  15.872  69.390  1.00  0.00    -0.336 A  
HETATM   32  C   UNL     1     -10.770  16.352  68.188  1.00  0.00    -0.336 A  
HETATM   33  C   UNL     1     -10.964  15.628  67.009  1.00  0.00    -0.261 A  
ENDBRANCH  25  28
ENDBRANCH  24  25
ENDBRANCH  22  24
ENDBRANCH  21  22
ENDBRANCH  20  21
ENDBRANCH  17  20
ENDBRANCH  11  14
ENDBRANCH   9  10
ENDBRANCH   6   9
TORSDOF 9
ENDMDL
MODEL      108
REMARK 921   NORMALIZED FREE ENERGY PREDICTED BY IDOCK:   -4.78 KCAL/MOL
REMARK 922        TOTAL FREE ENERGY PREDICTED BY IDOCK:   -9.74 KCAL/MOL
REMARK 923 INTER-LIGAND FREE ENERGY PREDICTED BY IDOCK:   -8.93 KCAL/MOL
REMARK 924 INTRA-LIGAND FREE ENERGY PREDICTED BY IDOCK:   -0.81 KCAL/MOL
REMARK 927      BINDING AFFINITY PREDICTED BY RF-SCORE:    0.00 PKD
ROOT
HETATM    1  N   UNL     1      -9.953   7.706  73.583  1.00  0.00    -0.331 NA 
HETATM    2  C   UNL     1     -10.427   7.350  72.378  1.00  0.00    -0.233 A  
HETATM    3  H1  UNL     1     -10.210   7.225  74.445  1.00  0.00     0.000 HD 
HETATM    4  H2  UNL     1      -9.307   8.493  73.639  1.00  0.00     0.000 HD 
HETATM    5  N   UNL     1     -10.097   7.968  71.272  1.00  0.00    -0.183 NA 
HETATM    6  C   UNL     1     -10.735   7.379  70.185  1.00  0.00    -0.242 A  
HETATM    7  S   UNL     1     -11.493   6.020  72.193  1.00  0.00    -0.282 SA 
HETATM    8  C   UNL     1     -11.535   6.298  70.503  1.00  0.00    -0.338 A  
ENDROOT
BRANCH   6   9
HETATM    9  C   UNL     1     -10.490   7.930  68.823  1.00  0.00    -0.198 C  
BRANCH   9  10
HETATM   10  C   UNL     1     -10.444   9.448  68.761  1.00  0.00    -0.212 C  
HETATM   11  N   UNL     1     -11.646  10.094  69.006  1.00  0.00    -0.492 N  
HETATM   12  O   UNL     1      -9.353   9.999  68.610  1.00  0.00    -0.147 OA 
HETATM   13  H   UNL     1     -12.472   9.508  69.129  1.00  0.00     0.000 HD 
BRANCH  11  14
HETATM   14  C   UNL     1     -11.830  11.489  69.102  1.00  0.00    -0.340 A  
HETATM   15  C   UNL     1     -11.733  12.344  68.004  1.00  0.00    -0.414 A  
HETATM   16  C   UNL     1     -11.808  13.728  68.165  1.00  0.00    -0.411 A  
HETATM   17  C   UNL     1     -11.997  14.290  69.431  1.00  0.00    -0.381 A  
HETATM   18  C   UNL     1     -12.090  12.041  70.360  1.00  0.00    -0.407 A  
HETATM   19  C   UNL     1     -12.158  13.431  70.527  1.00  0.00    -0.399 A  
BRANCH  17  20
HETATM   20  C   UNL     1     -11.973  15.793  69.613  1.00  0.00    -0.332 C  
BRANCH  20  21
HETATM   21  C   UNL     1     -10.640  16.468  69.245  1.00  0.00    -0.327 C  
BRANCH  21  22
HETATM   22  N   UNL     1     -10.787  17.317  68.065  1.00  0.00    -0.357 NA 
HETATM   23  H   UNL     1     -11.769  17.445  67.823  1.00  0.00     0.000 HD 
BRANCH  22  24
HETATM   24  C   UNL     1     -10.107  18.609  68.217  1.00  0.00    -0.389 C  
BRANCH  24  25
HETATM   25  C   UNL     1      -9.700  19.244  66.863  1.00  0.00    -0.331 C  
HETATM   26  O   UNL     1     -10.331  18.533  65.787  1.00  0.00    -0.590 OA 
HETATM   27  H   UNL     1     -10.081  18.923  64.957  1.00  0.00     0.000 HD 
BRANCH  25  28
HETATM   28  C   UNL     1      -8.208  19.353  66.607  1.00  0.00    -0.322 A  
HETATM   29  C   UNL     1      -7.553  20.584  66.759  1.00  0.00    -0.290 A  
HETATM   30  C   UNL     1      -6.194  20.711  66.454  1.00  0.00    -0.275 A  
HETATM   31  C   UNL     1      -5.473  19.609  65.999  1.00  0.00    -0.166 A  
HETATM   32  C   UNL     1      -6.103  18.376  65.866  1.00  0.00    -0.247 A  
HETATM   33  C   UNL     1      -7.460  18.248  66.168  1.00  0.00    -0.291 A  
ENDBRANCH  25  28
ENDBRANCH  24  25
ENDBRANCH  22  24
ENDBRANCH  21  22
ENDBRANCH  20  21
ENDBRANCH  17  20
ENDBRANCH  11  14
ENDBRANCH   9  10
ENDBRANCH   6   9
TORSDOF 9
ENDMDL
MODEL      109
REMARK 921   NORMALIZED FREE ENERGY PREDICTED BY IDOCK:   -4.74 KCAL/MOL
REMARK 922        TOTAL FREE ENERGY PREDICTED BY IDOCK:   -9.67 KCAL/MOL
REMARK 923 INTER-LIGAND FREE ENERGY PREDICTED BY IDOCK:   -8.45 KCAL/MOL
REMARK 924 INTRA-LIGAND FREE ENERGY PREDICTED BY IDOCK:   -1.23 KCAL/MOL
REMARK 927      BINDING AFFINITY PREDICTED BY RF-SCORE:    0.00 PKD
ROOT
HETATM    1  N   UNL     1      -9.348  20.292  65.346  1.00  0.00    -0.355 NA 
HETATM    2  C   UNL     1      -9.204  19.772  66.576  1.00  0.00    -0.383 A  
HETATM    3  H1  UNL     1      -8.669  20.929  64.930  1.00  0.00     0.000 HD 
HETATM    4  H2  UNL     1     -10.173  20.039  64.804  1.00  0.00     0.000 HD 
HETATM    5  N   UNL     1     -10.076  18.954  67.110  1.00  0.00    -0.337 NA 
HETATM    6  C   UNL     1      -9.662  18.577  68.384  1.00  0.00    -0.364 A  
HETATM    7  S   UNL     1      -7.831  20.122  67.541  1.00  0.00    -0.306 SA 
HETATM    8  C   UNL     1      -8.454  19.118  68.781  1.00  0.00    -0.341 A  
ENDROOT
BRANCH   6   9
HETATM    9  C   UNL     1     -10.514  17.639  69.168  1.00  0.00    -0.128 C  
BRANCH   9  10
HETATM   10  C   UNL     1     -10.586  16.233  68.597  1.00  0.00    -0.297 C  
HETATM   11  N   UNL     1     -10.976  16.145  67.269  1.00  0.00    -0.237 N  
HETATM   12  O   UNL     1     -10.201  15.293  69.294  1.00  0.00    -0.226 OA 
HETATM   13  H   UNL     1     -11.255  17.011  66.809  1.00  0.00     0.000 HD 
BRANCH  11  14
HETATM   14  C   UNL     1     -11.020  14.966  66.497  1.00  0.00    -0.327 A  
HETATM   15  C   UNL     1     -10.011  14.606  65.604  1.00  0.00    -0.381 A  
HETATM   16  C   UNL     1     -10.151  13.491  64.776  1.00  0.00    -0.267 A  
HETATM   17  C   UNL     1     -11.302  12.701  64.832  1.00  0.00    -0.347 A  
HETATM   18  C   UNL     1     -12.143  14.140  66.607  1.00  0.00    -0.480 A  
HETATM   19  C   UNL     1     -12.290  13.024  65.772  1.00  0.00    -0.477 A  
BRANCH  17  20
HETATM   20  C   UNL     1     -11.493  11.556  63.860  1.00  0.00    -0.358 C  
BRANCH  20  21
HETATM   21  C   UNL     1     -10.214  11.106  63.131  1.00  0.00    -0.294 C  
BRANCH  21  22
HETATM   22  N   UNL     1      -9.747   9.816  63.631  1.00  0.00    -0.463 NA 
HETATM   23  H   UNL     1      -9.571   9.166  62.865  1.00  0.00     0.000 HD 
BRANCH  22  24
HETATM   24  C   UNL     1      -8.568   9.946  64.496  1.00  0.00    -0.186 C  
BRANCH  24  25
HETATM   25  C   UNL     1      -8.848   9.546  65.968  1.00  0.00    -0.156 C  
HETATM   26  O   UNL     1      -7.685   9.805  66.769  1.00  0.00    -0.098 OA 
HETATM   27  H   UNL     1      -7.857   9.560  67.670  1.00  0.00     0.000 HD 
BRANCH  25  28
HETATM   28  C   UNL     1      -9.319   8.119  66.186  1.00  0.00    -0.232 A  
HETATM   29  C   UNL     1     -10.458   7.862  66.963  1.00  0.00    -0.419 A  
HETATM   30  C   UNL     1     -10.857   6.549  67.231  1.00  0.00    -0.463 A  
HETATM   31  C   UNL     1     -10.126   5.478  66.722  1.00  0.00    -0.242 A  
HETATM   32  C   UNL     1      -9.007   5.716  65.929  1.00  0.00    -0.160 A  
HETATM   33  C   UNL     1      -8.607   7.027  65.663  1.00  0.00    -0.121 A  
ENDBRANCH  25  28
ENDBRANCH  24  25
ENDBRANCH  22  24
ENDBRANCH  21  22
ENDBRANCH  20  21
ENDBRANCH  17  20
ENDBRANCH  11  14
ENDBRANCH   9  10
ENDBRANCH   6   9
TORSDOF 9
ENDMDL
MODEL      110
REMARK 921   NORMALIZED FREE ENERGY PREDICTED BY IDOCK:   -4.73 KCAL/MOL
REMARK 922        TOTAL FREE ENERGY PREDICTED BY IDOCK:   -9.66 KCAL/MOL
REMARK 923 INTER-LIGAND FREE ENERGY PREDICTED BY IDOCK:   -8.74 KCAL/MOL
REMARK 924 INTRA-LIGAND FREE ENERGY PREDICTED BY IDOCK:   -0.92 KCAL/MOL
REMARK 927      BINDING AFFINITY PREDICTED BY RF-SCORE:    0.00 PKD
ROOT
HETATM    1  N   UNL     1     -10.913   5.809  66.100  1.00  0.00    -0.703 NA 
HETATM    2  C   UNL     1     -10.527   5.781  67.386  1.00  0.00    -0.254 A  
HETATM    3  H1  UNL     1     -10.341   5.439  65.341  1.00  0.00     0.000 HD 
HETATM    4  H2  UNL     1     -11.818   6.219  65.872  1.00  0.00     0.000 HD 
HETATM    5  N   UNL     1     -11.261   6.256  68.360  1.00  0.00    -0.289 NA 
HETATM    6  C   UNL     1     -10.610   6.085  69.578  1.00  0.00    -0.296 A  
HETATM    7  S   UNL     1      -9.034   5.081  67.857  1.00  0.00    -0.110 SA 
HETATM    8  C   UNL     1      -9.382   5.457  69.492  1.00  0.00    -0.124 A  
ENDROOT
BRANCH   6   9
HETATM    9  C   UNL     1     -11.279   6.556  70.823  1.00  0.00    -0.377 C  
BRANCH   9  10
HETATM   10  C   UNL     1     -11.198   8.056  71.048  1.00  0.00    -0.266 C  
HETATM   11  N   UNL     1     -12.261   8.795  70.550  1.00  0.00    -0.473 N  
HETATM   12  O   UNL     1     -10.278   8.501  71.734  1.00  0.00    -0.229 OA 
HETATM   13  H   UNL     1     -12.964   8.290  70.010  1.00  0.00     0.000 HD 
BRANCH  11  14
HETATM   14  C   UNL     1     -12.458  10.180  70.722  1.00  0.00    -0.326 A  
HETATM   15  C   UNL     1     -11.964  11.134  69.833  1.00  0.00    -0.439 A  
HETATM   16  C   UNL     1     -12.082  12.497  70.104  1.00  0.00    -0.368 A  
HETATM   17  C   UNL     1     -12.714  12.941  71.269  1.00  0.00    -0.371 A  
HETATM   18  C   UNL     1     -13.153  10.618  71.855  1.00  0.00    -0.563 A  
HETATM   19  C   UNL     1     -13.267  11.987  72.134  1.00  0.00    -0.400 A  
BRANCH  17  20
HETATM   20  C   UNL     1     -12.747  14.416  71.609  1.00  0.00    -0.419 C  
BRANCH  20  21
HETATM   21  C   UNL     1     -11.423  15.164  71.378  1.00  0.00    -0.354 C  
BRANCH  21  22
HETATM   22  N   UNL     1     -11.621  16.343  70.540  1.00  0.00    -0.492 NA 
HETATM   23  H   UNL     1     -11.349  17.194  71.032  1.00  0.00     0.000 HD 
BRANCH  22  24
HETATM   24  C   UNL     1     -10.930  16.235  69.249  1.00  0.00    -0.317 C  
BRANCH  24  25
HETATM   25  C   UNL     1      -9.727  17.205  69.122  1.00  0.00    -0.150 C  
HETATM   26  O   UNL     1     -10.127  18.380  68.400  1.00  0.00    -0.357 OA 
HETATM   27  H   UNL     1      -9.389  18.973  68.322  1.00  0.00     0.000 HD 
BRANCH  25  28
HETATM   28  C   UNL     1      -8.471  16.620  68.502  1.00  0.00    -0.233 A  
HETATM   29  C   UNL     1      -8.376  15.240  68.265  1.00  0.00    -0.148 A  
HETATM   30  C   UNL     1      -7.196  14.682  67.763  1.00  0.00    -0.191 A  
HETATM   31  C   UNL     1      -6.099  15.496  67.488  1.00  0.00    -0.119 A  
HETATM   32  C   UNL     1      -6.185  16.869  67.695  1.00  0.00    -0.171 A  
HETATM   33  C   UNL     1      -7.362  17.427  68.199  1.00  0.00    -0.205 A  
ENDBRANCH  25  28
ENDBRANCH  24  25
ENDBRANCH  22  24
ENDBRANCH  21  22
ENDBRANCH  20  21
ENDBRANCH  17  20
ENDBRANCH  11  14
ENDBRANCH   9  10
ENDBRANCH   6   9
TORSDOF 9
ENDMDL
MODEL      111
REMARK 921   NORMALIZED FREE ENERGY PREDICTED BY IDOCK:   -4.70 KCAL/MOL
REMARK 922        TOTAL FREE ENERGY PREDICTED BY IDOCK:   -9.62 KCAL/MOL
REMARK 923 INTER-LIGAND FREE ENERGY PREDICTED BY IDOCK:   -8.65 KCAL/MOL
REMARK 924 INTRA-LIGAND FREE ENERGY PREDICTED BY IDOCK:   -0.97 KCAL/MOL
REMARK 927      BINDING AFFINITY PREDICTED BY RF-SCORE:    0.00 PKD
ROOT
HETATM    1  N   UNL     1     -12.331  14.766  69.120  1.00  0.00    -0.577 NA 
HETATM    2  C   UNL     1     -11.591  15.282  68.125  1.00  0.00    -0.330 A  
HETATM    3  H1  UNL     1     -12.399  15.197  70.042  1.00  0.00     0.000 HD 
HETATM    4  H2  UNL     1     -12.848  13.905  68.946  1.00  0.00     0.000 HD 
HETATM    5  N   UNL     1     -11.504  14.729  66.941  1.00  0.00    -0.358 NA 
HETATM    6  C   UNL     1     -10.675  15.485  66.119  1.00  0.00    -0.313 A  
HETATM    7  S   UNL     1     -10.716  16.743  68.325  1.00  0.00    -0.364 SA 
HETATM    8  C   UNL     1     -10.159  16.623  66.710  1.00  0.00    -0.291 A  
ENDROOT
BRANCH   6   9
HETATM    9  C   UNL     1     -10.443  15.031  64.719  1.00  0.00    -0.266 C  
BRANCH   9  10
HETATM   10  C   UNL     1     -10.420  13.522  64.547  1.00  0.00    -0.407 C  
HETATM   11  N   UNL     1      -9.658  12.824  65.473  1.00  0.00    -0.461 N  
HETATM   12  O   UNL     1     -11.144  13.015  63.690  1.00  0.00    -0.383 OA 
HETATM   13  H   UNL     1      -9.117  13.377  66.138  1.00  0.00     0.000 HD 
BRANCH  11  14
HETATM   14  C   UNL     1      -9.563  11.422  65.577  1.00  0.00    -0.228 A  
HETATM   15  C   UNL     1     -10.290  10.680  66.508  1.00  0.00    -0.299 A  
HETATM   16  C   UNL     1     -10.078   9.308  66.654  1.00  0.00    -0.341 A  
HETATM   17  C   UNL     1      -9.141   8.642  65.859  1.00  0.00    -0.259 A  
HETATM   18  C   UNL     1      -8.675  10.749  64.731  1.00  0.00    -0.118 A  
HETATM   19  C   UNL     1      -8.454   9.373  64.880  1.00  0.00    -0.176 A  
BRANCH  17  20
HETATM   20  C   UNL     1      -8.841   7.176  66.093  1.00  0.00    -0.171 C  
BRANCH  20  21
HETATM   21  C   UNL     1      -9.928   6.409  66.866  1.00  0.00    -0.167 C  
BRANCH  21  22
HETATM   22  N   UNL     1      -9.657   6.414  68.301  1.00  0.00    -0.123 NA 
HETATM   23  H   UNL     1      -9.468   7.359  68.637  1.00  0.00     0.000 HD 
BRANCH  22  24
HETATM   24  C   UNL     1     -10.733   5.784  69.076  1.00  0.00    -0.284 C  
BRANCH  24  25
HETATM   25  C   UNL     1     -11.456   6.773  70.026  1.00  0.00    -0.334 C  
HETATM   26  O   UNL     1     -11.288   8.116  69.546  1.00  0.00    -0.444 OA 
HETATM   27  H   UNL     1     -11.731   8.721  70.129  1.00  0.00     0.000 HD 
BRANCH  25  28
HETATM   28  C   UNL     1     -11.059   6.693  71.489  1.00  0.00    -0.297 A  
HETATM   29  C   UNL     1     -10.484   7.803  72.126  1.00  0.00    -0.287 A  
HETATM   30  C   UNL     1     -10.046   7.716  73.451  1.00  0.00    -0.379 A  
HETATM   31  C   UNL     1     -10.183   6.523  74.157  1.00  0.00    -0.380 A  
HETATM   32  C   UNL     1     -10.773   5.420  73.546  1.00  0.00    -0.331 A  
HETATM   33  C   UNL     1     -11.207   5.504  72.222  1.00  0.00    -0.281 A  
ENDBRANCH  25  28
ENDBRANCH  24  25
ENDBRANCH  22  24
ENDBRANCH  21  22
ENDBRANCH  20  21
ENDBRANCH  17  20
ENDBRANCH  11  14
ENDBRANCH   9  10
ENDBRANCH   6   9
TORSDOF 9
ENDMDL
MODEL      112
REMARK 921   NORMALIZED FREE ENERGY PREDICTED BY IDOCK:   -4.70 KCAL/MOL
REMARK 922        TOTAL FREE ENERGY PREDICTED BY IDOCK:   -9.61 KCAL/MOL
REMARK 923 INTER-LIGAND FREE ENERGY PREDICTED BY IDOCK:   -8.16 KCAL/MOL
REMARK 924 INTRA-LIGAND FREE ENERGY PREDICTED BY IDOCK:   -1.45 KCAL/MOL
REMARK 927      BINDING AFFINITY PREDICTED BY RF-SCORE:    0.00 PKD
ROOT
HETATM    1  N   UNL     1     -13.160  11.568  62.776  1.00  0.00    -0.547 NA 
HETATM    2  C   UNL     1     -12.400  11.962  63.811  1.00  0.00    -0.434 A  
HETATM    3  H1  UNL     1     -12.806  10.986  62.016  1.00  0.00     0.000 HD 
HETATM    4  H2  UNL     1     -14.135  11.864  62.748  1.00  0.00     0.000 HD 
HETATM    5  N   UNL     1     -12.854  12.709  64.785  1.00  0.00    -0.830 NA 
HETATM    6  C   UNL     1     -11.846  12.951  65.713  1.00  0.00    -0.419 A  
HETATM    7  S   UNL     1     -10.759  11.483  63.948  1.00  0.00    -0.423 SA 
HETATM    8  C   UNL     1     -10.635  12.355  65.417  1.00  0.00    -0.284 A  
ENDROOT
BRANCH   6   9
HETATM    9  C   UNL     1     -12.156  13.781  66.910  1.00  0.00    -0.454 C  
BRANCH   9  10
HETATM   10  C   UNL     1     -11.062  14.762  67.293  1.00  0.00    -0.332 C  
HETATM   11  N   UNL     1     -10.881  15.828  66.423  1.00  0.00    -0.273 N  
HETATM   12  O   UNL     1     -10.492  14.618  68.375  1.00  0.00    -0.232 OA 
HETATM   13  H   UNL     1     -11.435  15.826  65.567  1.00  0.00     0.000 HD 
BRANCH  11  14
HETATM   14  C   UNL     1     -10.002  16.912  66.616  1.00  0.00    -0.296 A  
HETATM   15  C   UNL     1      -8.702  16.934  66.111  1.00  0.00    -0.280 A  
HETATM   16  C   UNL     1      -7.828  17.977  66.425  1.00  0.00    -0.304 A  
HETATM   17  C   UNL     1      -8.242  19.032  67.241  1.00  0.00    -0.294 A  
HETATM   18  C   UNL     1     -10.443  18.001  67.376  1.00  0.00    -0.399 A  
HETATM   19  C   UNL     1      -9.566  19.046  67.699  1.00  0.00    -0.362 A  
BRANCH  17  20
HETATM   20  C   UNL     1      -7.259  20.106  67.662  1.00  0.00    -0.325 C  
BRANCH  20  21
HETATM   21  C   UNL     1      -6.150  19.629  68.616  1.00  0.00    -0.242 C  
BRANCH  21  22
HETATM   22  N   UNL     1      -6.669  18.678  69.596  1.00  0.00    -0.139 NA 
HETATM   23  H   UNL     1      -7.658  18.488  69.435  1.00  0.00     0.000 HD 
BRANCH  22  24
HETATM   24  C   UNL     1      -5.890  17.435  69.636  1.00  0.00    -0.242 C  
BRANCH  24  25
HETATM   25  C   UNL     1      -6.723  16.184  69.258  1.00  0.00    -0.198 C  
HETATM   26  O   UNL     1      -8.113  16.430  69.527  1.00  0.00    -0.097 OA 
HETATM   27  H   UNL     1      -8.623  15.663  69.295  1.00  0.00     0.000 HD 
BRANCH  25  28
HETATM   28  C   UNL     1      -6.293  14.882  69.910  1.00  0.00    -0.157 A  
HETATM   29  C   UNL     1      -5.720  14.889  71.191  1.00  0.00    -0.008 A  
HETATM   30  C   UNL     1      -5.253  13.705  71.769  1.00  0.00    -0.195 A  
HETATM   31  C   UNL     1      -5.358  12.500  71.078  1.00  0.00    -0.151 A  
HETATM   32  C   UNL     1      -5.946  12.473  69.817  1.00  0.00    -0.135 A  
HETATM   33  C   UNL     1      -6.410  13.655  69.237  1.00  0.00    -0.108 A  
ENDBRANCH  25  28
ENDBRANCH  24  25
ENDBRANCH  22  24
ENDBRANCH  21  22
ENDBRANCH  20  21
ENDBRANCH  17  20
ENDBRANCH  11  14
ENDBRANCH   9  10
ENDBRANCH   6   9
TORSDOF 9
ENDMDL
MODEL      113
REMARK 921   NORMALIZED FREE ENERGY PREDICTED BY IDOCK:   -4.69 KCAL/MOL
REMARK 922        TOTAL FREE ENERGY PREDICTED BY IDOCK:   -9.61 KCAL/MOL
REMARK 923 INTER-LIGAND FREE ENERGY PREDICTED BY IDOCK:   -6.75 KCAL/MOL
REMARK 924 INTRA-LIGAND FREE ENERGY PREDICTED BY IDOCK:   -2.86 KCAL/MOL
REMARK 927      BINDING AFFINITY PREDICTED BY RF-SCORE:    0.00 PKD
ROOT
HETATM    1  N   UNL     1      -7.332  17.888  66.962  1.00  0.00    -0.189 NA 
HETATM    2  C   UNL     1      -8.552  17.333  66.871  1.00  0.00    -0.240 A  
HETATM    3  H1  UNL     1      -6.982  18.322  67.817  1.00  0.00     0.000 HD 
HETATM    4  H2  UNL     1      -6.729  17.875  66.141  1.00  0.00     0.000 HD 
HETATM    5  N   UNL     1      -9.001  16.776  65.775  1.00  0.00    -0.487 NA 
HETATM    6  C   UNL     1     -10.286  16.284  65.979  1.00  0.00    -0.358 A  
HETATM    7  S   UNL     1      -9.616  17.285  68.215  1.00  0.00    -0.300 SA 
HETATM    8  C   UNL     1     -10.779  16.473  67.256  1.00  0.00    -0.243 A  
ENDROOT
BRANCH   6   9
HETATM    9  C   UNL     1     -10.982  15.603  64.852  1.00  0.00    -0.447 C  
BRANCH   9  10
HETATM   10  C   UNL     1     -11.163  14.107  65.040  1.00  0.00    -0.356 C  
HETATM   11  N   UNL     1     -10.058  13.426  65.529  1.00  0.00    -0.390 N  
HETATM   12  O   UNL     1     -12.280  13.620  64.858  1.00  0.00    -0.380 OA 
HETATM   13  H   UNL     1      -9.198  13.962  65.646  1.00  0.00     0.000 HD 
BRANCH  11  14
HETATM   14  C   UNL     1     -10.016  12.061  65.878  1.00  0.00    -0.236 A  
HETATM   15  C   UNL     1      -9.564  11.069  65.008  1.00  0.00    -0.291 A  
HETATM   16  C   UNL     1      -9.648   9.719  65.354  1.00  0.00    -0.359 A  
HETATM   17  C   UNL     1     -10.176   9.331  66.588  1.00  0.00    -0.323 A  
HETATM   18  C   UNL     1     -10.479  11.682  67.143  1.00  0.00    -0.252 A  
HETATM   19  C   UNL     1     -10.573  10.327  67.490  1.00  0.00    -0.320 A  
BRANCH  17  20
HETATM   20  C   UNL     1     -10.361   7.863  66.915  1.00  0.00    -0.400 C  
BRANCH  20  21
HETATM   21  C   UNL     1     -10.487   7.545  68.415  1.00  0.00    -0.175 C  
BRANCH  21  22
HETATM   22  N   UNL     1      -9.240   7.000  68.945  1.00  0.00    -0.137 NA 
HETATM   23  H   UNL     1      -8.682   6.573  68.206  1.00  0.00     0.000 HD 
BRANCH  22  24
HETATM   24  C   UNL     1      -8.462   8.001  69.685  1.00  0.00    -0.131 C  
BRANCH  24  25
HETATM   25  C   UNL     1      -7.091   8.309  69.030  1.00  0.00    -0.065 C  
HETATM   26  O   UNL     1      -6.035   8.016  69.958  1.00  0.00    -0.023 OA 
HETATM   27  H   UNL     1      -5.195   8.204  69.557  1.00  0.00     0.000 HD 
BRANCH  25  28
HETATM   28  C   UNL     1      -6.921   9.714  68.482  1.00  0.00    -0.065 A  
HETATM   29  C   UNL     1      -7.247  10.826  69.274  1.00  0.00    -0.122 A  
HETATM   30  C   UNL     1      -7.165  12.121  68.753  1.00  0.00    -0.103 A  
HETATM   31  C   UNL     1      -6.751  12.321  67.438  1.00  0.00    -0.150 A  
HETATM   32  C   UNL     1      -6.402  11.231  66.647  1.00  0.00    -0.135 A  
HETATM   33  C   UNL     1      -6.487   9.937  67.165  1.00  0.00    -0.069 A  
ENDBRANCH  25  28
ENDBRANCH  24  25
ENDBRANCH  22  24
ENDBRANCH  21  22
ENDBRANCH  20  21
ENDBRANCH  17  20
ENDBRANCH  11  14
ENDBRANCH   9  10
ENDBRANCH   6   9
TORSDOF 9
ENDMDL
MODEL      114
REMARK 921   NORMALIZED FREE ENERGY PREDICTED BY IDOCK:   -4.67 KCAL/MOL
REMARK 922        TOTAL FREE ENERGY PREDICTED BY IDOCK:   -9.58 KCAL/MOL
REMARK 923 INTER-LIGAND FREE ENERGY PREDICTED BY IDOCK:   -7.69 KCAL/MOL
REMARK 924 INTRA-LIGAND FREE ENERGY PREDICTED BY IDOCK:   -1.88 KCAL/MOL
REMARK 927      BINDING AFFINITY PREDICTED BY RF-SCORE:    0.00 PKD
ROOT
HETATM    1  N   UNL     1     -13.199  13.925  65.285  1.00  0.00    -0.721 NA 
HETATM    2  C   UNL     1     -11.921  13.884  65.695  1.00  0.00    -0.392 A  
HETATM    3  H1  UNL     1     -13.710  14.798  65.148  1.00  0.00     0.000 HD 
HETATM    4  H2  UNL     1     -13.680  13.046  65.102  1.00  0.00     0.000 HD 
HETATM    5  N   UNL     1     -11.265  12.765  65.871  1.00  0.00    -0.290 NA 
HETATM    6  C   UNL     1      -9.966  13.032  66.292  1.00  0.00    -0.283 A  
HETATM    7  S   UNL     1     -11.030  15.318  65.995  1.00  0.00    -0.284 SA 
HETATM    8  C   UNL     1      -9.663  14.374  66.412  1.00  0.00    -0.302 A  
ENDROOT
BRANCH   6   9
HETATM    9  C   UNL     1      -9.044  11.889  66.546  1.00  0.00    -0.211 C  
BRANCH   9  10
HETATM   10  C   UNL     1      -8.967  11.459  68.001  1.00  0.00    -0.163 C  
HETATM   11  N   UNL     1      -9.909  10.523  68.400  1.00  0.00    -0.156 N  
HETATM   12  O   UNL     1      -8.032  11.871  68.689  1.00  0.00    -0.145 OA 
HETATM   13  H   UNL     1     -10.620  10.259  67.717  1.00  0.00     0.000 HD 
BRANCH  11  14
HETATM   14  C   UNL     1      -9.974   9.901  69.664  1.00  0.00    -0.231 A  
HETATM   15  C   UNL     1      -8.847   9.425  70.334  1.00  0.00    -0.290 A  
HETATM   16  C   UNL     1      -8.970   8.714  71.528  1.00  0.00    -0.302 A  
HETATM   17  C   UNL     1     -10.227   8.474  72.089  1.00  0.00    -0.403 A  
HETATM   18  C   UNL     1     -11.229   9.725  70.256  1.00  0.00    -0.347 A  
HETATM   19  C   UNL     1     -11.357   9.005  71.452  1.00  0.00    -0.394 A  
BRANCH  17  20
HETATM   20  C   UNL     1     -10.362   7.613  73.328  1.00  0.00    -0.405 C  
BRANCH  20  21
HETATM   21  C   UNL     1      -9.619   6.268  73.265  1.00  0.00    -0.147 C  
BRANCH  21  22
HETATM   22  N   UNL     1     -10.208   5.385  72.262  1.00  0.00    -0.189 NA 
HETATM   23  H   UNL     1     -11.048   5.799  71.856  1.00  0.00     0.000 HD 
BRANCH  22  24
HETATM   24  C   UNL     1      -9.249   5.004  71.219  1.00  0.00    -0.145 C  
BRANCH  24  25
HETATM   25  C   UNL     1      -9.929   4.618  69.880  1.00  0.00    -0.226 C  
HETATM   26  O   UNL     1      -9.436   3.344  69.437  1.00  0.00    -0.171 OA 
HETATM   27  H   UNL     1      -9.853   3.109  68.616  1.00  0.00     0.000 HD 
BRANCH  25  28
HETATM   28  C   UNL     1      -9.808   5.637  68.762  1.00  0.00    -0.193 A  
HETATM   29  C   UNL     1      -8.551   6.147  68.403  1.00  0.00    -0.112 A  
HETATM   30  C   UNL     1      -8.437   7.139  67.425  1.00  0.00    -0.122 A  
HETATM   31  C   UNL     1      -9.576   7.630  66.790  1.00  0.00    -0.269 A  
HETATM   32  C   UNL     1     -10.827   7.118  67.117  1.00  0.00    -0.403 A  
HETATM   33  C   UNL     1     -10.943   6.129  68.096  1.00  0.00    -0.398 A  
ENDBRANCH  25  28
ENDBRANCH  24  25
ENDBRANCH  22  24
ENDBRANCH  21  22
ENDBRANCH  20  21
ENDBRANCH  17  20
ENDBRANCH  11  14
ENDBRANCH   9  10
ENDBRANCH   6   9
TORSDOF 9
ENDMDL
MODEL      115
REMARK 921   NORMALIZED FREE ENERGY PREDICTED BY IDOCK:   -4.66 KCAL/MOL
REMARK 922        TOTAL FREE ENERGY PREDICTED BY IDOCK:   -9.55 KCAL/MOL
REMARK 923 INTER-LIGAND FREE ENERGY PREDICTED BY IDOCK:   -8.39 KCAL/MOL
REMARK 924 INTRA-LIGAND FREE ENERGY PREDICTED BY IDOCK:   -1.16 KCAL/MOL
REMARK 927      BINDING AFFINITY PREDICTED BY RF-SCORE:    0.00 PKD
ROOT
HETATM    1  N   UNL     1     -11.950   6.302  72.259  1.00  0.00    -0.468 NA 
HETATM    2  C   UNL     1     -11.235   6.020  71.157  1.00  0.00    -0.261 A  
HETATM    3  H1  UNL     1     -11.699   5.960  73.187  1.00  0.00     0.000 HD 
HETATM    4  H2  UNL     1     -12.782   6.883  72.163  1.00  0.00     0.000 HD 
HETATM    5  N   UNL     1     -11.558   6.458  69.967  1.00  0.00    -0.432 NA 
HETATM    6  C   UNL     1     -10.635   6.012  69.026  1.00  0.00    -0.291 A  
HETATM    7  S   UNL     1      -9.807   5.075  71.236  1.00  0.00    -0.190 SA 
HETATM    8  C   UNL     1      -9.609   5.246  69.543  1.00  0.00    -0.152 A  
ENDROOT
BRANCH   6   9
HETATM    9  C   UNL     1     -10.816   6.405  67.600  1.00  0.00    -0.425 C  
BRANCH   9  10
HETATM   10  C   UNL     1     -10.505   7.863  67.308  1.00  0.00    -0.320 C  
HETATM   11  N   UNL     1     -10.946   8.772  68.259  1.00  0.00    -0.457 N  
HETATM   12  O   UNL     1      -9.806   8.133  66.331  1.00  0.00    -0.236 OA 
HETATM   13  H   UNL     1     -11.506   8.404  69.028  1.00  0.00     0.000 HD 
BRANCH  11  14
HETATM   14  C   UNL     1     -10.690  10.158  68.258  1.00  0.00    -0.238 A  
HETATM   15  C   UNL     1     -11.640  11.105  67.875  1.00  0.00    -0.328 A  
HETATM   16  C   UNL     1     -11.307  12.457  67.779  1.00  0.00    -0.356 A  
HETATM   17  C   UNL     1     -10.015  12.896  68.078  1.00  0.00    -0.236 A  
HETATM   18  C   UNL     1      -9.415  10.601  68.627  1.00  0.00    -0.176 A  
HETATM   19  C   UNL     1      -9.075  11.957  68.524  1.00  0.00    -0.123 A  
BRANCH  17  20
HETATM   20  C   UNL     1      -9.632  14.347  67.872  1.00  0.00    -0.219 C  
BRANCH  20  21
HETATM   21  C   UNL     1      -8.168  14.683  68.206  1.00  0.00    -0.146 C  
BRANCH  21  22
HETATM   22  N   UNL     1      -8.080  15.550  69.378  1.00  0.00    -0.245 NA 
HETATM   23  H   UNL     1      -7.914  15.008  70.226  1.00  0.00     0.000 HD 
BRANCH  22  24
HETATM   24  C   UNL     1      -7.070  16.604  69.219  1.00  0.00    -0.212 C  
BRANCH  24  25
HETATM   25  C   UNL     1      -7.195  17.367  67.875  1.00  0.00    -0.188 C  
HETATM   26  O   UNL     1      -6.080  18.259  67.720  1.00  0.00    -0.176 OA 
HETATM   27  H   UNL     1      -6.157  18.726  66.897  1.00  0.00     0.000 HD 
BRANCH  25  28
HETATM   28  C   UNL     1      -8.494  18.122  67.662  1.00  0.00    -0.245 A  
HETATM   29  C   UNL     1      -9.219  17.960  66.472  1.00  0.00    -0.286 A  
HETATM   30  C   UNL     1     -10.377  18.706  66.236  1.00  0.00    -0.483 A  
HETATM   31  C   UNL     1     -10.829  19.618  67.187  1.00  0.00    -0.526 A  
HETATM   32  C   UNL     1     -10.134  19.773  68.383  1.00  0.00    -0.568 A  
HETATM   33  C   UNL     1      -8.976  19.031  68.619  1.00  0.00    -0.402 A  
ENDBRANCH  25  28
ENDBRANCH  24  25
ENDBRANCH  22  24
ENDBRANCH  21  22
ENDBRANCH  20  21
ENDBRANCH  17  20
ENDBRANCH  11  14
ENDBRANCH   9  10
ENDBRANCH   6   9
TORSDOF 9
ENDMDL
MODEL      116
REMARK 921   NORMALIZED FREE ENERGY PREDICTED BY IDOCK:   -4.65 KCAL/MOL
REMARK 922        TOTAL FREE ENERGY PREDICTED BY IDOCK:   -9.55 KCAL/MOL
REMARK 923 INTER-LIGAND FREE ENERGY PREDICTED BY IDOCK:   -8.96 KCAL/MOL
REMARK 924 INTRA-LIGAND FREE ENERGY PREDICTED BY IDOCK:   -0.59 KCAL/MOL
REMARK 927      BINDING AFFINITY PREDICTED BY RF-SCORE:    0.00 PKD
ROOT
HETATM    1  N   UNL     1     -11.484   4.578  64.923  1.00  0.00    -1.070 NA 
HETATM    2  C   UNL     1     -10.540   4.755  65.862  1.00  0.00    -0.244 A  
HETATM    3  H1  UNL     1     -11.569   3.722  64.376  1.00  0.00     0.000 HD 
HETATM    4  H2  UNL     1     -12.146   5.334  64.750  1.00  0.00     0.000 HD 
HETATM    5  N   UNL     1     -10.430   5.854  66.564  1.00  0.00    -0.213 NA 
HETATM    6  C   UNL     1      -9.369   5.748  67.458  1.00  0.00    -0.111 A  
HETATM    7  S   UNL     1      -9.408   3.522  66.235  1.00  0.00    -0.139 SA 
HETATM    8  C   UNL     1      -8.700   4.540  67.418  1.00  0.00    -0.104 A  
ENDROOT
BRANCH   6   9
HETATM    9  C   UNL     1      -9.074   6.895  68.362  1.00  0.00    -0.126 C  
BRANCH   9  10
HETATM   10  C   UNL     1      -9.647   8.223  67.896  1.00  0.00    -0.152 C  
HETATM   11  N   UNL     1      -9.245   8.640  66.636  1.00  0.00    -0.168 N  
HETATM   12  O   UNL     1     -10.494   8.778  68.597  1.00  0.00    -0.211 OA 
HETATM   13  H   UNL     1      -8.545   8.071  66.160  1.00  0.00     0.000 HD 
BRANCH  11  14
HETATM   14  C   UNL     1      -9.717   9.779  65.952  1.00  0.00    -0.266 A  
HETATM   15  C   UNL     1     -10.418  10.806  66.583  1.00  0.00    -0.302 A  
HETATM   16  C   UNL     1     -10.966  11.857  65.847  1.00  0.00    -0.354 A  
HETATM   17  C   UNL     1     -10.813  11.913  64.459  1.00  0.00    -0.368 A  
HETATM   18  C   UNL     1      -9.500   9.865  64.573  1.00  0.00    -0.328 A  
HETATM   19  C   UNL     1     -10.056  10.916  63.830  1.00  0.00    -0.413 A  
BRANCH  17  20
HETATM   20  C   UNL     1     -11.498  12.998  63.655  1.00  0.00    -0.449 C  
BRANCH  20  21
HETATM   21  C   UNL     1     -12.110  14.135  64.493  1.00  0.00    -0.468 C  
BRANCH  21  22
HETATM   22  N   UNL     1     -11.676  15.442  64.006  1.00  0.00    -0.894 NA 
HETATM   23  H   UNL     1     -12.469  15.999  63.690  1.00  0.00     0.000 HD 
BRANCH  22  24
HETATM   24  C   UNL     1     -10.879  16.172  65.000  1.00  0.00    -0.363 C  
BRANCH  24  25
HETATM   25  C   UNL     1     -10.233  15.245  66.061  1.00  0.00    -0.317 C  
HETATM   26  O   UNL     1     -11.099  15.138  67.201  1.00  0.00    -0.329 OA 
HETATM   27  H   UNL     1     -10.703  14.569  67.851  1.00  0.00     0.000 HD 
BRANCH  25  28
HETATM   28  C   UNL     1      -8.834  15.628  66.508  1.00  0.00    -0.345 A  
HETATM   29  C   UNL     1      -8.287  16.865  66.137  1.00  0.00    -0.286 A  
HETATM   30  C   UNL     1      -6.974  17.196  66.482  1.00  0.00    -0.296 A  
HETATM   31  C   UNL     1      -6.192  16.298  67.205  1.00  0.00    -0.205 A  
HETATM   32  C   UNL     1      -6.728  15.076  67.602  1.00  0.00    -0.201 A  
HETATM   33  C   UNL     1      -8.039  14.743  67.256  1.00  0.00    -0.232 A  
ENDBRANCH  25  28
ENDBRANCH  24  25
ENDBRANCH  22  24
ENDBRANCH  21  22
ENDBRANCH  20  21
ENDBRANCH  17  20
ENDBRANCH  11  14
ENDBRANCH   9  10
ENDBRANCH   6   9
TORSDOF 9
ENDMDL
MODEL      117
REMARK 921   NORMALIZED FREE ENERGY PREDICTED BY IDOCK:   -4.65 KCAL/MOL
REMARK 922        TOTAL FREE ENERGY PREDICTED BY IDOCK:   -9.55 KCAL/MOL
REMARK 923 INTER-LIGAND FREE ENERGY PREDICTED BY IDOCK:   -8.80 KCAL/MOL
REMARK 924 INTRA-LIGAND FREE ENERGY PREDICTED BY IDOCK:   -0.75 KCAL/MOL
REMARK 927      BINDING AFFINITY PREDICTED BY RF-SCORE:    0.00 PKD
ROOT
HETATM    1  N   UNL     1      -7.956   6.515  71.158  1.00  0.00    -0.110 NA 
HETATM    2  C   UNL     1      -9.289   6.677  71.121  1.00  0.00    -0.163 A  
HETATM    3  H1  UNL     1      -7.463   5.840  70.574  1.00  0.00     0.000 HD 
HETATM    4  H2  UNL     1      -7.414   7.093  71.799  1.00  0.00     0.000 HD 
HETATM    5  N   UNL     1      -9.923   7.543  71.870  1.00  0.00    -0.170 NA 
HETATM    6  C   UNL     1     -11.289   7.491  71.612  1.00  0.00    -0.252 A  
HETATM    7  S   UNL     1     -10.271   5.767  70.050  1.00  0.00    -0.262 SA 
HETATM    8  C   UNL     1     -11.658   6.578  70.643  1.00  0.00    -0.381 A  
ENDROOT
BRANCH   6   9
HETATM    9  C   UNL     1     -12.197   8.406  72.360  1.00  0.00    -0.430 C  
BRANCH   9  10
HETATM   10  C   UNL     1     -12.519   9.700  71.633  1.00  0.00    -0.407 C  
HETATM   11  N   UNL     1     -11.623  10.069  70.640  1.00  0.00    -0.314 N  
HETATM   12  O   UNL     1     -13.581  10.270  71.885  1.00  0.00    -0.314 OA 
HETATM   13  H   UNL     1     -10.788   9.493  70.532  1.00  0.00     0.000 HD 
BRANCH  11  14
HETATM   14  C   UNL     1     -11.761  11.167  69.768  1.00  0.00    -0.345 A  
HETATM   15  C   UNL     1     -11.628  11.058  68.384  1.00  0.00    -0.372 A  
HETATM   16  C   UNL     1     -11.658  12.191  67.569  1.00  0.00    -0.413 A  
HETATM   17  C   UNL     1     -11.837  13.462  68.122  1.00  0.00    -0.396 A  
HETATM   18  C   UNL     1     -12.011  12.429  70.319  1.00  0.00    -0.371 A  
HETATM   19  C   UNL     1     -12.034  13.569  69.505  1.00  0.00    -0.390 A  
BRANCH  17  20
HETATM   20  C   UNL     1     -11.764  14.696  67.245  1.00  0.00    -0.406 C  
BRANCH  20  21
HETATM   21  C   UNL     1     -10.348  15.263  67.043  1.00  0.00    -0.277 C  
BRANCH  21  22
HETATM   22  N   UNL     1     -10.356  16.379  66.101  1.00  0.00    -0.335 NA 
HETATM   23  H   UNL     1     -11.289  16.531  65.719  1.00  0.00     0.000 HD 
BRANCH  22  24
HETATM   24  C   UNL     1      -9.818  17.612  66.690  1.00  0.00    -0.309 C  
BRANCH  24  25
HETATM   25  C   UNL     1      -9.562  17.495  68.214  1.00  0.00    -0.299 C  
HETATM   26  O   UNL     1     -10.591  18.193  68.933  1.00  0.00    -0.389 OA 
HETATM   27  H   UNL     1     -10.434  18.121  69.867  1.00  0.00     0.000 HD 
BRANCH  25  28
HETATM   28  C   UNL     1      -8.196  17.955  68.691  1.00  0.00    -0.281 A  
HETATM   29  C   UNL     1      -7.931  19.322  68.862  1.00  0.00    -0.353 A  
HETATM   30  C   UNL     1      -6.655  19.760  69.229  1.00  0.00    -0.387 A  
HETATM   31  C   UNL     1      -5.631  18.838  69.436  1.00  0.00    -0.223 A  
HETATM   32  C   UNL     1      -5.884  17.477  69.294  1.00  0.00    -0.215 A  
HETATM   33  C   UNL     1      -7.158  17.039  68.924  1.00  0.00    -0.233 A  
ENDBRANCH  25  28
ENDBRANCH  24  25
ENDBRANCH  22  24
ENDBRANCH  21  22
ENDBRANCH  20  21
ENDBRANCH  17  20
ENDBRANCH  11  14
ENDBRANCH   9  10
ENDBRANCH   6   9
TORSDOF 9
ENDMDL
MODEL      118
REMARK 921   NORMALIZED FREE ENERGY PREDICTED BY IDOCK:   -4.64 KCAL/MOL
REMARK 922        TOTAL FREE ENERGY PREDICTED BY IDOCK:   -9.52 KCAL/MOL
REMARK 923 INTER-LIGAND FREE ENERGY PREDICTED BY IDOCK:   -8.61 KCAL/MOL
REMARK 924 INTRA-LIGAND FREE ENERGY PREDICTED BY IDOCK:   -0.91 KCAL/MOL
REMARK 927      BINDING AFFINITY PREDICTED BY RF-SCORE:    0.00 PKD
ROOT
HETATM    1  N   UNL     1      -5.553  19.101  67.627  1.00  0.00    -0.178 NA 
HETATM    2  C   UNL     1      -6.865  19.184  67.351  1.00  0.00    -0.202 A  
HETATM    3  H1  UNL     1      -4.835  19.537  67.048  1.00  0.00     0.000 HD 
HETATM    4  H2  UNL     1      -5.261  18.578  68.452  1.00  0.00     0.000 HD 
HETATM    5  N   UNL     1      -7.786  18.624  68.094  1.00  0.00    -0.272 NA 
HETATM    6  C   UNL     1      -9.048  18.881  67.568  1.00  0.00    -0.280 A  
HETATM    7  S   UNL     1      -7.441  20.068  66.000  1.00  0.00    -0.283 SA 
HETATM    8  C   UNL     1      -9.048  19.659  66.426  1.00  0.00    -0.379 A  
ENDROOT
BRANCH   6   9
HETATM    9  C   UNL     1     -10.243  18.335  68.269  1.00  0.00    -0.405 C  
BRANCH   9  10
HETATM   10  C   UNL     1     -10.599  16.909  67.884  1.00  0.00    -0.361 C  
HETATM   11  N   UNL     1      -9.832  16.354  66.870  1.00  0.00    -0.252 N  
HETATM   12  O   UNL     1     -11.447  16.313  68.548  1.00  0.00    -0.371 OA 
HETATM   13  H   UNL     1      -9.152  16.964  66.416  1.00  0.00     0.000 HD 
BRANCH  11  14
HETATM   14  C   UNL     1      -9.906  15.023  66.412  1.00  0.00    -0.272 A  
HETATM   15  C   UNL     1     -10.680  14.640  65.316  1.00  0.00    -0.396 A  
HETATM   16  C   UNL     1     -10.815  13.295  64.969  1.00  0.00    -0.335 A  
HETATM   17  C   UNL     1     -10.166  12.300  65.705  1.00  0.00    -0.287 A  
HETATM   18  C   UNL     1      -9.199  14.038  67.109  1.00  0.00    -0.240 A  
HETATM   19  C   UNL     1      -9.339  12.686  66.767  1.00  0.00    -0.232 A  
BRANCH  17  20
HETATM   20  C   UNL     1     -10.400  10.838  65.388  1.00  0.00    -0.315 C  
BRANCH  20  21
HETATM   21  C   UNL     1      -9.752   9.850  66.374  1.00  0.00    -0.212 C  
BRANCH  21  22
HETATM   22  N   UNL     1     -10.677   9.490  67.445  1.00  0.00    -0.324 NA 
HETATM   23  H   UNL     1     -10.791   8.478  67.508  1.00  0.00     0.000 HD 
BRANCH  22  24
HETATM   24  C   UNL     1     -10.285  10.060  68.739  1.00  0.00    -0.186 C  
BRANCH  24  25
HETATM   25  C   UNL     1     -10.282   9.017  69.886  1.00  0.00    -0.202 C  
HETATM   26  O   UNL     1     -10.016   7.711  69.351  1.00  0.00    -0.173 OA 
HETATM   27  H   UNL     1     -10.014   7.072  70.055  1.00  0.00     0.000 HD 
BRANCH  25  28
HETATM   28  C   UNL     1     -11.533   8.978  70.746  1.00  0.00    -0.331 A  
HETATM   29  C   UNL     1     -12.076   7.749  71.148  1.00  0.00    -0.306 A  
HETATM   30  C   UNL     1     -13.267   7.701  71.877  1.00  0.00    -0.293 A  
HETATM   31  C   UNL     1     -13.928   8.880  72.218  1.00  0.00    -0.531 A  
HETATM   32  C   UNL     1     -13.390  10.108  71.847  1.00  0.00    -0.505 A  
HETATM   33  C   UNL     1     -12.201  10.157  71.116  1.00  0.00    -0.490 A  
ENDBRANCH  25  28
ENDBRANCH  24  25
ENDBRANCH  22  24
ENDBRANCH  21  22
ENDBRANCH  20  21
ENDBRANCH  17  20
ENDBRANCH  11  14
ENDBRANCH   9  10
ENDBRANCH   6   9
TORSDOF 9
ENDMDL
MODEL      119
REMARK 921   NORMALIZED FREE ENERGY PREDICTED BY IDOCK:   -4.64 KCAL/MOL
REMARK 922        TOTAL FREE ENERGY PREDICTED BY IDOCK:   -9.52 KCAL/MOL
REMARK 923 INTER-LIGAND FREE ENERGY PREDICTED BY IDOCK:   -8.35 KCAL/MOL
REMARK 924 INTRA-LIGAND FREE ENERGY PREDICTED BY IDOCK:   -1.17 KCAL/MOL
REMARK 927      BINDING AFFINITY PREDICTED BY RF-SCORE:    0.00 PKD
ROOT
HETATM    1  N   UNL     1      -9.739   4.290  69.835  1.00  0.00    -0.213 NA 
HETATM    2  C   UNL     1      -9.253   5.225  70.668  1.00  0.00    -0.148 A  
HETATM    3  H1  UNL     1      -9.350   3.350  69.768  1.00  0.00     0.000 HD 
HETATM    4  H2  UNL     1     -10.532   4.532  69.242  1.00  0.00     0.000 HD 
HETATM    5  N   UNL     1      -9.752   6.432  70.753  1.00  0.00    -0.179 NA 
HETATM    6  C   UNL     1      -9.052   7.175  71.698  1.00  0.00    -0.137 A  
HETATM    7  S   UNL     1      -7.940   4.891  71.720  1.00  0.00    -0.111 SA 
HETATM    8  C   UNL     1      -8.030   6.490  72.327  1.00  0.00    -0.102 A  
ENDROOT
BRANCH   6   9
HETATM    9  C   UNL     1      -9.465   8.583  71.955  1.00  0.00    -0.364 C  
BRANCH   9  10
HETATM   10  C   UNL     1     -10.055   9.292  70.749  1.00  0.00    -0.291 C  
HETATM   11  N   UNL     1      -9.164   9.572  69.723  1.00  0.00    -0.192 N  
HETATM   12  O   UNL     1     -11.273   9.473  70.708  1.00  0.00    -0.265 OA 
HETATM   13  H   UNL     1      -8.182   9.354  69.890  1.00  0.00     0.000 HD 
BRANCH  11  14
HETATM   14  C   UNL     1      -9.494  10.129  68.471  1.00  0.00    -0.158 A  
HETATM   15  C   UNL     1      -9.858  11.465  68.307  1.00  0.00    -0.202 A  
HETATM   16  C   UNL     1     -10.288  11.945  67.069  1.00  0.00    -0.239 A  
HETATM   17  C   UNL     1     -10.350  11.099  65.959  1.00  0.00    -0.308 A  
HETATM   18  C   UNL     1      -9.486   9.295  67.348  1.00  0.00    -0.165 A  
HETATM   19  C   UNL     1      -9.925   9.771  66.104  1.00  0.00    -0.338 A  
BRANCH  17  20
HETATM   20  C   UNL     1     -10.915  11.598  64.645  1.00  0.00    -0.363 C  
BRANCH  20  21
HETATM   21  C   UNL     1     -10.320  12.927  64.148  1.00  0.00    -0.361 C  
BRANCH  21  22
HETATM   22  N   UNL     1     -11.355  13.946  63.996  1.00  0.00    -0.596 NA 
HETATM   23  H   UNL     1     -12.170  13.571  63.511  1.00  0.00     0.000 HD 
BRANCH  22  24
HETATM   24  C   UNL     1     -11.733  14.554  65.277  1.00  0.00    -0.361 C  
BRANCH  24  25
HETATM   25  C   UNL     1     -11.532  16.091  65.302  1.00  0.00     0.135 C  
HETATM   26  O   UNL     1     -11.535  16.601  63.959  1.00  0.00    -1.523 OA 
HETATM   27  H   UNL     1     -11.412  17.543  63.975  1.00  0.00     0.000 HD 
BRANCH  25  28
HETATM   28  C   UNL     1     -10.301  16.584  66.040  1.00  0.00    -0.358 A  
HETATM   29  C   UNL     1     -10.215  17.921  66.456  1.00  0.00    -0.379 A  
HETATM   30  C   UNL     1      -9.055  18.403  67.070  1.00  0.00    -0.274 A  
HETATM   31  C   UNL     1      -7.971  17.554  67.281  1.00  0.00    -0.222 A  
HETATM   32  C   UNL     1      -8.049  16.219  66.896  1.00  0.00    -0.270 A  
HETATM   33  C   UNL     1      -9.206  15.738  66.280  1.00  0.00    -0.368 A  
ENDBRANCH  25  28
ENDBRANCH  24  25
ENDBRANCH  22  24
ENDBRANCH  21  22
ENDBRANCH  20  21
ENDBRANCH  17  20
ENDBRANCH  11  14
ENDBRANCH   9  10
ENDBRANCH   6   9
TORSDOF 9
ENDMDL
MODEL      120
REMARK 921   NORMALIZED FREE ENERGY PREDICTED BY IDOCK:   -4.60 KCAL/MOL
REMARK 922        TOTAL FREE ENERGY PREDICTED BY IDOCK:   -9.46 KCAL/MOL
REMARK 923 INTER-LIGAND FREE ENERGY PREDICTED BY IDOCK:   -7.71 KCAL/MOL
REMARK 924 INTRA-LIGAND FREE ENERGY PREDICTED BY IDOCK:   -1.76 KCAL/MOL
REMARK 927      BINDING AFFINITY PREDICTED BY RF-SCORE:    0.00 PKD
ROOT
HETATM    1  N   UNL     1      -9.817  20.729  66.959  1.00  0.00    -0.603 NA 
HETATM    2  C   UNL     1      -9.650  19.540  67.560  1.00  0.00    -0.327 A  
HETATM    3  H1  UNL     1      -9.068  21.416  66.868  1.00  0.00     0.000 HD 
HETATM    4  H2  UNL     1     -10.734  20.956  66.576  1.00  0.00     0.000 HD 
HETATM    5  N   UNL     1     -10.612  18.659  67.677  1.00  0.00    -0.419 NA 
HETATM    6  C   UNL     1     -10.146  17.526  68.337  1.00  0.00    -0.358 A  
HETATM    7  S   UNL     1      -8.133  19.068  68.204  1.00  0.00    -0.325 SA 
HETATM    8  C   UNL     1      -8.813  17.575  68.695  1.00  0.00    -0.255 A  
ENDROOT
BRANCH   6   9
HETATM    9  C   UNL     1     -11.086  16.394  68.569  1.00  0.00    -0.357 C  
BRANCH   9  10
HETATM   10  C   UNL     1     -10.857  15.195  67.664  1.00  0.00    -0.295 C  
HETATM   11  N   UNL     1     -10.327  14.072  68.281  1.00  0.00    -0.240 N  
HETATM   12  O   UNL     1     -11.247  15.254  66.497  1.00  0.00    -0.316 OA 
HETATM   13  H   UNL     1     -10.061  14.163  69.261  1.00  0.00     0.000 HD 
BRANCH  11  14
HETATM   14  C   UNL     1     -10.121  12.816  67.675  1.00  0.00    -0.220 A  
HETATM   15  C   UNL     1      -8.854  12.318  67.370  1.00  0.00    -0.185 A  
HETATM   16  C   UNL     1      -8.704  11.123  66.666  1.00  0.00    -0.166 A  
HETATM   17  C   UNL     1      -9.821  10.388  66.261  1.00  0.00    -0.272 A  
HETATM   18  C   UNL     1     -11.241  12.049  67.334  1.00  0.00    -0.368 A  
HETATM   19  C   UNL     1     -11.093  10.852  66.620  1.00  0.00    -0.155 A  
BRANCH  17  20
HETATM   20  C   UNL     1      -9.654   9.147  65.408  1.00  0.00    -0.166 C  
BRANCH  20  21
HETATM   21  C   UNL     1      -8.811   8.030  66.049  1.00  0.00    -0.162 C  
BRANCH  21  22
HETATM   22  N   UNL     1      -9.560   6.778  66.118  1.00  0.00    -0.391 NA 
HETATM   23  H   UNL     1      -8.975   6.019  66.468  1.00  0.00     0.000 HD 
BRANCH  22  24
HETATM   24  C   UNL     1     -10.791   6.905  66.907  1.00  0.00    -0.310 C  
BRANCH  24  25
HETATM   25  C   UNL     1     -10.581   6.598  68.412  1.00  0.00    -0.242 C  
HETATM   26  O   UNL     1     -11.856   6.474  69.062  1.00  0.00    -0.523 OA 
HETATM   27  H   UNL     1     -11.727   6.286  69.984  1.00  0.00     0.000 HD 
BRANCH  25  28
HETATM   28  C   UNL     1      -9.708   7.581  69.171  1.00  0.00    -0.166 A  
HETATM   29  C   UNL     1     -10.223   8.825  69.565  1.00  0.00    -0.208 A  
HETATM   30  C   UNL     1      -9.406   9.766  70.199  1.00  0.00    -0.261 A  
HETATM   31  C   UNL     1      -8.067   9.474  70.450  1.00  0.00    -0.209 A  
HETATM   32  C   UNL     1      -7.547   8.235  70.087  1.00  0.00    -0.075 A  
HETATM   33  C   UNL     1      -8.362   7.296  69.451  1.00  0.00    -0.133 A  
ENDBRANCH  25  28
ENDBRANCH  24  25
ENDBRANCH  22  24
ENDBRANCH  21  22
ENDBRANCH  20  21
ENDBRANCH  17  20
ENDBRANCH  11  14
ENDBRANCH   9  10
ENDBRANCH   6   9
TORSDOF 9
ENDMDL
MODEL      121
REMARK 921   NORMALIZED FREE ENERGY PREDICTED BY IDOCK:   -4.58 KCAL/MOL
REMARK 922        TOTAL FREE ENERGY PREDICTED BY IDOCK:   -9.44 KCAL/MOL
REMARK 923 INTER-LIGAND FREE ENERGY PREDICTED BY IDOCK:   -8.75 KCAL/MOL
REMARK 924 INTRA-LIGAND FREE ENERGY PREDICTED BY IDOCK:   -0.69 KCAL/MOL
REMARK 927      BINDING AFFINITY PREDICTED BY RF-SCORE:    0.00 PKD
ROOT
HETATM    1  N   UNL     1      -6.860  20.546  64.957  1.00  0.00    -0.476 NA 
HETATM    2  C   UNL     1      -7.524  20.157  66.057  1.00  0.00    -0.275 A  
HETATM    3  H1  UNL     1      -5.894  20.874  64.977  1.00  0.00     0.000 HD 
HETATM    4  H2  UNL     1      -7.344  20.514  64.060  1.00  0.00     0.000 HD 
HETATM    5  N   UNL     1      -8.764  19.737  66.031  1.00  0.00    -0.376 NA 
HETATM    6  C   UNL     1      -9.183  19.399  67.313  1.00  0.00    -0.314 A  
HETATM    7  S   UNL     1      -6.774  20.152  67.599  1.00  0.00    -0.262 SA 
HETATM    8  C   UNL     1      -8.223  19.560  68.294  1.00  0.00    -0.338 A  
ENDROOT
BRANCH   6   9
HETATM    9  C   UNL     1     -10.570  18.890  67.505  1.00  0.00    -0.524 C  
BRANCH   9  10
HETATM   10  C   UNL     1     -10.651  17.420  67.880  1.00  0.00    -0.383 C  
HETATM   11  N   UNL     1     -10.820  16.540  66.822  1.00  0.00    -0.151 N  
HETATM   12  O   UNL     1     -10.458  17.100  69.054  1.00  0.00    -0.322 OA 
HETATM   13  H   UNL     1     -10.954  16.947  65.897  1.00  0.00     0.000 HD 
BRANCH  11  14
HETATM   14  C   UNL     1     -10.823  15.133  66.910  1.00  0.00    -0.317 A  
HETATM   15  C   UNL     1     -11.951  14.397  67.271  1.00  0.00    -0.409 A  
HETATM   16  C   UNL     1     -11.877  13.016  67.458  1.00  0.00    -0.408 A  
HETATM   17  C   UNL     1     -10.672  12.335  67.273  1.00  0.00    -0.263 A  
HETATM   18  C   UNL     1      -9.630  14.447  66.655  1.00  0.00    -0.295 A  
HETATM   19  C   UNL     1      -9.551  13.061  66.849  1.00  0.00    -0.243 A  
BRANCH  17  20
HETATM   20  C   UNL     1     -10.573  10.854  67.577  1.00  0.00    -0.271 C  
BRANCH  20  21
HETATM   21  C   UNL     1     -11.436  10.378  68.759  1.00  0.00    -0.175 C  
BRANCH  21  22
HETATM   22  N   UNL     1     -10.654  10.310  69.990  1.00  0.00    -0.340 NA 
HETATM   23  H   UNL     1     -10.521  11.237  70.394  1.00  0.00     0.000 HD 
BRANCH  22  24
HETATM   24  C   UNL     1     -11.234   9.385  70.971  1.00  0.00    -0.342 C  
BRANCH  24  25
HETATM   25  C   UNL     1     -10.187   8.818  71.964  1.00  0.00    -0.331 C  
HETATM   26  O   UNL     1      -8.867   9.184  71.535  1.00  0.00    -0.330 OA 
HETATM   27  H   UNL     1      -8.225   8.836  72.144  1.00  0.00     0.000 HD 
BRANCH  25  28
HETATM   28  C   UNL     1     -10.255   7.322  72.213  1.00  0.00    -0.225 A  
HETATM   29  C   UNL     1      -9.918   6.421  71.192  1.00  0.00    -0.203 A  
HETATM   30  C   UNL     1     -10.048   5.042  71.387  1.00  0.00    -0.268 A  
HETATM   31  C   UNL     1     -10.510   4.548  72.605  1.00  0.00    -0.258 A  
HETATM   32  C   UNL     1     -10.825   5.428  73.636  1.00  0.00    -0.321 A  
HETATM   33  C   UNL     1     -10.698   6.805  73.441  1.00  0.00    -0.332 A  
ENDBRANCH  25  28
ENDBRANCH  24  25
ENDBRANCH  22  24
ENDBRANCH  21  22
ENDBRANCH  20  21
ENDBRANCH  17  20
ENDBRANCH  11  14
ENDBRANCH   9  10
ENDBRANCH   6   9
TORSDOF 9
ENDMDL
MODEL      122
REMARK 921   NORMALIZED FREE ENERGY PREDICTED BY IDOCK:   -4.57 KCAL/MOL
REMARK 922        TOTAL FREE ENERGY PREDICTED BY IDOCK:   -9.42 KCAL/MOL
REMARK 923 INTER-LIGAND FREE ENERGY PREDICTED BY IDOCK:   -7.48 KCAL/MOL
REMARK 924 INTRA-LIGAND FREE ENERGY PREDICTED BY IDOCK:   -1.94 KCAL/MOL
REMARK 927      BINDING AFFINITY PREDICTED BY RF-SCORE:    0.00 PKD
ROOT
HETATM    1  N   UNL     1     -13.080  15.165  70.302  1.00  0.00    -0.658 NA 
HETATM    2  C   UNL     1     -12.000  15.258  69.509  1.00  0.00    -0.330 A  
HETATM    3  H1  UNL     1     -13.208  15.739  71.136  1.00  0.00     0.000 HD 
HETATM    4  H2  UNL     1     -13.804  14.490  70.061  1.00  0.00     0.000 HD 
HETATM    5  N   UNL     1     -11.836  14.522  68.440  1.00  0.00    -0.328 NA 
HETATM    6  C   UNL     1     -10.633  14.841  67.818  1.00  0.00    -0.257 A  
HETATM    7  S   UNL     1     -10.751  16.389  69.828  1.00  0.00    -0.285 SA 
HETATM    8  C   UNL     1      -9.911  15.842  68.439  1.00  0.00    -0.222 A  
ENDROOT
BRANCH   6   9
HETATM    9  C   UNL     1     -10.254  14.117  66.572  1.00  0.00    -0.278 C  
BRANCH   9  10
HETATM   10  C   UNL     1      -9.727  12.711  66.801  1.00  0.00    -0.240 C  
HETATM   11  N   UNL     1     -10.690  11.718  66.893  1.00  0.00    -0.238 N  
HETATM   12  O   UNL     1      -8.509  12.527  66.781  1.00  0.00    -0.163 OA 
HETATM   13  H   UNL     1     -11.665  12.015  66.879  1.00  0.00     0.000 HD 
BRANCH  11  14
HETATM   14  C   UNL     1     -10.443  10.334  67.002  1.00  0.00    -0.244 A  
HETATM   15  C   UNL     1     -10.683   9.610  68.170  1.00  0.00    -0.266 A  
HETATM   16  C   UNL     1     -10.315   8.268  68.270  1.00  0.00    -0.242 A  
HETATM   17  C   UNL     1      -9.709   7.612  67.196  1.00  0.00    -0.239 A  
HETATM   18  C   UNL     1      -9.901   9.665  65.900  1.00  0.00    -0.358 A  
HETATM   19  C   UNL     1      -9.523   8.318  66.000  1.00  0.00    -0.189 A  
BRANCH  17  20
HETATM   20  C   UNL     1      -9.218   6.187  67.346  1.00  0.00    -0.112 C  
BRANCH  20  21
HETATM   21  C   UNL     1     -10.144   5.266  68.159  1.00  0.00    -0.151 C  
BRANCH  21  22
HETATM   22  N   UNL     1      -9.395   4.518  69.164  1.00  0.00    -0.135 NA 
HETATM   23  H   UNL     1      -8.742   3.867  68.728  1.00  0.00     0.000 HD 
BRANCH  22  24
HETATM   24  C   UNL     1      -8.707   5.396  70.118  1.00  0.00    -0.126 C  
BRANCH  24  25
HETATM   25  C   UNL     1      -9.476   5.563  71.454  1.00  0.00    -0.148 C  
HETATM   26  O   UNL     1     -10.134   4.332  71.790  1.00  0.00    -0.184 OA 
HETATM   27  H   UNL     1     -10.606   4.435  72.608  1.00  0.00     0.000 HD 
BRANCH  25  28
HETATM   28  C   UNL     1     -10.469   6.710  71.504  1.00  0.00    -0.242 A  
HETATM   29  C   UNL     1     -10.034   8.009  71.811  1.00  0.00    -0.245 A  
HETATM   30  C   UNL     1     -10.951   9.057  71.933  1.00  0.00    -0.423 A  
HETATM   31  C   UNL     1     -12.311   8.823  71.745  1.00  0.00    -0.412 A  
HETATM   32  C   UNL     1     -12.756   7.546  71.417  1.00  0.00    -0.382 A  
HETATM   33  C   UNL     1     -11.842   6.497  71.298  1.00  0.00    -0.385 A  
ENDBRANCH  25  28
ENDBRANCH  24  25
ENDBRANCH  22  24
ENDBRANCH  21  22
ENDBRANCH  20  21
ENDBRANCH  17  20
ENDBRANCH  11  14
ENDBRANCH   9  10
ENDBRANCH   6   9
TORSDOF 9
ENDMDL
MODEL      123
REMARK 921   NORMALIZED FREE ENERGY PREDICTED BY IDOCK:   -4.54 KCAL/MOL
REMARK 922        TOTAL FREE ENERGY PREDICTED BY IDOCK:   -9.38 KCAL/MOL
REMARK 923 INTER-LIGAND FREE ENERGY PREDICTED BY IDOCK:   -7.20 KCAL/MOL
REMARK 924 INTRA-LIGAND FREE ENERGY PREDICTED BY IDOCK:   -2.18 KCAL/MOL
REMARK 927      BINDING AFFINITY PREDICTED BY RF-SCORE:    0.00 PKD
ROOT
HETATM    1  N   UNL     1     -13.534  14.141  65.580  1.00  0.00    -0.600 NA 
HETATM    2  C   UNL     1     -12.329  13.549  65.601  1.00  0.00    -0.476 A  
HETATM    3  H1  UNL     1     -13.679  15.116  65.846  1.00  0.00     0.000 HD 
HETATM    4  H2  UNL     1     -14.341  13.592  65.286  1.00  0.00     0.000 HD 
HETATM    5  N   UNL     1     -12.143  12.299  65.260  1.00  0.00    -0.481 NA 
HETATM    6  C   UNL     1     -10.797  11.966  65.374  1.00  0.00    -0.294 A  
HETATM    7  S   UNL     1     -10.917  14.410  66.054  1.00  0.00    -0.323 SA 
HETATM    8  C   UNL     1      -9.981  12.999  65.793  1.00  0.00    -0.254 A  
ENDROOT
BRANCH   6   9
HETATM    9  C   UNL     1     -10.368  10.582  65.027  1.00  0.00    -0.310 C  
BRANCH   9  10
HETATM   10  C   UNL     1     -10.178   9.666  66.224  1.00  0.00    -0.216 C  
HETATM   11  N   UNL     1      -9.860   8.350  65.927  1.00  0.00    -0.457 N  
HETATM   12  O   UNL     1     -10.209  10.158  67.353  1.00  0.00    -0.193 OA 
HETATM   13  H   UNL     1      -9.856   8.085  64.942  1.00  0.00     0.000 HD 
BRANCH  11  14
HETATM   14  C   UNL     1      -9.540   7.345  66.862  1.00  0.00    -0.187 A  
HETATM   15  C   UNL     1      -8.260   7.179  67.390  1.00  0.00    -0.116 A  
HETATM   16  C   UNL     1      -7.963   6.100  68.223  1.00  0.00    -0.107 A  
HETATM   17  C   UNL     1      -8.947   5.166  68.561  1.00  0.00    -0.120 A  
HETATM   18  C   UNL     1     -10.546   6.454  67.252  1.00  0.00    -0.382 A  
HETATM   19  C   UNL     1     -10.249   5.365  68.083  1.00  0.00    -0.226 A  
BRANCH  17  20
HETATM   20  C   UNL     1      -8.593   3.942  69.379  1.00  0.00    -0.111 C  
BRANCH  20  21
HETATM   21  C   UNL     1      -9.656   3.525  70.411  1.00  0.00    -0.171 C  
BRANCH  21  22
HETATM   22  N   UNL     1      -9.126   3.589  71.770  1.00  0.00    -0.105 NA 
HETATM   23  H   UNL     1      -8.334   4.230  71.826  1.00  0.00     0.000 HD 
BRANCH  22  24
HETATM   24  C   UNL     1     -10.157   3.936  72.756  1.00  0.00    -0.161 C  
BRANCH  24  25
HETATM   25  C   UNL     1     -10.071   5.408  73.233  1.00  0.00    -0.178 C  
HETATM   26  O   UNL     1     -10.931   5.600  74.367  1.00  0.00    -0.376 OA 
HETATM   27  H   UNL     1     -10.878   6.503  74.659  1.00  0.00     0.000 HD 
BRANCH  25  28
HETATM   28  C   UNL     1     -10.363   6.461  72.179  1.00  0.00    -0.213 A  
HETATM   29  C   UNL     1      -9.310   7.128  71.535  1.00  0.00    -0.156 A  
HETATM   30  C   UNL     1      -9.569   8.150  70.617  1.00  0.00    -0.179 A  
HETATM   31  C   UNL     1     -10.882   8.515  70.328  1.00  0.00    -0.249 A  
HETATM   32  C   UNL     1     -11.938   7.848  70.940  1.00  0.00    -0.211 A  
HETATM   33  C   UNL     1     -11.681   6.828  71.859  1.00  0.00    -0.349 A  
ENDBRANCH  25  28
ENDBRANCH  24  25
ENDBRANCH  22  24
ENDBRANCH  21  22
ENDBRANCH  20  21
ENDBRANCH  17  20
ENDBRANCH  11  14
ENDBRANCH   9  10
ENDBRANCH   6   9
TORSDOF 9
ENDMDL
MODEL      124
REMARK 921   NORMALIZED FREE ENERGY PREDICTED BY IDOCK:   -4.54 KCAL/MOL
REMARK 922        TOTAL FREE ENERGY PREDICTED BY IDOCK:   -9.38 KCAL/MOL
REMARK 923 INTER-LIGAND FREE ENERGY PREDICTED BY IDOCK:   -7.24 KCAL/MOL
REMARK 924 INTRA-LIGAND FREE ENERGY PREDICTED BY IDOCK:   -2.14 KCAL/MOL
REMARK 927      BINDING AFFINITY PREDICTED BY RF-SCORE:    0.00 PKD
ROOT
HETATM    1  N   UNL     1     -11.727  16.199  70.909  1.00  0.00    -0.535 NA 
HETATM    2  C   UNL     1     -12.379  15.075  71.247  1.00  0.00    -0.323 A  
HETATM    3  H1  UNL     1     -11.972  17.117  71.281  1.00  0.00     0.000 HD 
HETATM    4  H2  UNL     1     -10.952  16.133  70.250  1.00  0.00     0.000 HD 
HETATM    5  N   UNL     1     -12.065  13.898  70.769  1.00  0.00    -0.342 NA 
HETATM    6  C   UNL     1     -12.906  12.925  71.300  1.00  0.00    -0.270 A  
HETATM    7  S   UNL     1     -13.674  15.096  72.371  1.00  0.00    -0.529 SA 
HETATM    8  C   UNL     1     -13.844  13.401  72.196  1.00  0.00    -0.511 A  
ENDROOT
BRANCH   6   9
HETATM    9  C   UNL     1     -12.714  11.507  70.888  1.00  0.00    -0.372 C  
BRANCH   9  10
HETATM   10  C   UNL     1     -11.838  11.325  69.660  1.00  0.00    -0.360 C  
HETATM   11  N   UNL     1     -10.471  11.389  69.884  1.00  0.00    -0.233 N  
HETATM   12  O   UNL     1     -12.375  11.030  68.591  1.00  0.00    -0.539 OA 
HETATM   13  H   UNL     1     -10.166  11.630  70.827  1.00  0.00     0.000 HD 
BRANCH  11  14
HETATM   14  C   UNL     1      -9.464  11.153  68.925  1.00  0.00    -0.124 A  
HETATM   15  C   UNL     1      -8.440  10.226  69.114  1.00  0.00    -0.164 A  
HETATM   16  C   UNL     1      -7.400  10.108  68.191  1.00  0.00    -0.082 A  
HETATM   17  C   UNL     1      -7.369  10.909  67.046  1.00  0.00    -0.118 A  
HETATM   18  C   UNL     1      -9.476  11.908  67.747  1.00  0.00    -0.184 A  
HETATM   19  C   UNL     1      -8.429  11.797  66.822  1.00  0.00    -0.177 A  
BRANCH  17  20
HETATM   20  C   UNL     1      -6.185  10.850  66.102  1.00  0.00    -0.130 C  
BRANCH  20  21
HETATM   21  C   UNL     1      -6.441  10.087  64.791  1.00  0.00    -0.127 C  
BRANCH  21  22
HETATM   22  N   UNL     1      -7.675  10.536  64.151  1.00  0.00    -0.345 NA 
HETATM   23  H   UNL     1      -7.486  10.947  63.237  1.00  0.00     0.000 HD 
BRANCH  22  24
HETATM   24  C   UNL     1      -8.676   9.468  64.054  1.00  0.00    -0.216 C  
BRANCH  24  25
HETATM   25  C   UNL     1      -8.211   8.139  64.702  1.00  0.00    -0.125 C  
HETATM   26  O   UNL     1      -8.288   7.077  63.738  1.00  0.00    -0.342 OA 
HETATM   27  H   UNL     1      -8.002   6.263  64.136  1.00  0.00     0.000 HD 
BRANCH  25  28
HETATM   28  C   UNL     1      -8.936   7.736  65.973  1.00  0.00    -0.185 A  
HETATM   29  C   UNL     1     -10.111   8.399  66.357  1.00  0.00    -0.242 A  
HETATM   30  C   UNL     1     -10.745   8.085  67.563  1.00  0.00    -0.238 A  
HETATM   31  C   UNL     1     -10.217   7.102  68.397  1.00  0.00    -0.194 A  
HETATM   32  C   UNL     1      -9.066   6.418  68.019  1.00  0.00    -0.113 A  
HETATM   33  C   UNL     1      -8.430   6.733  66.816  1.00  0.00    -0.117 A  
ENDBRANCH  25  28
ENDBRANCH  24  25
ENDBRANCH  22  24
ENDBRANCH  21  22
ENDBRANCH  20  21
ENDBRANCH  17  20
ENDBRANCH  11  14
ENDBRANCH   9  10
ENDBRANCH   6   9
TORSDOF 9
ENDMDL
MODEL      125
REMARK 921   NORMALIZED FREE ENERGY PREDICTED BY IDOCK:   -4.54 KCAL/MOL
REMARK 922        TOTAL FREE ENERGY PREDICTED BY IDOCK:   -9.37 KCAL/MOL
REMARK 923 INTER-LIGAND FREE ENERGY PREDICTED BY IDOCK:   -8.25 KCAL/MOL
REMARK 924 INTRA-LIGAND FREE ENERGY PREDICTED BY IDOCK:   -1.12 KCAL/MOL
REMARK 927      BINDING AFFINITY PREDICTED BY RF-SCORE:    0.00 PKD
ROOT
HETATM    1  N   UNL     1     -13.392  16.152  73.676  1.00  0.00    -0.889 NA 
HETATM    2  C   UNL     1     -13.219  15.422  72.562  1.00  0.00    -0.447 A  
HETATM    3  H1  UNL     1     -13.814  15.776  74.525  1.00  0.00     0.000 HD 
HETATM    4  H2  UNL     1     -13.089  17.125  73.673  1.00  0.00     0.000 HD 
HETATM    5  N   UNL     1     -12.677  15.905  71.472  1.00  0.00    -0.448 NA 
HETATM    6  C   UNL     1     -12.624  14.922  70.488  1.00  0.00    -0.360 A  
HETATM    7  S   UNL     1     -13.673  13.770  72.494  1.00  0.00    -0.487 SA 
HETATM    8  C   UNL     1     -13.122  13.693  70.874  1.00  0.00    -0.114 A  
ENDROOT
BRANCH   6   9
HETATM    9  C   UNL     1     -12.035  15.264  69.163  1.00  0.00    -0.308 C  
BRANCH   9  10
HETATM   10  C   UNL     1     -11.513  14.069  68.383  1.00  0.00    -0.306 C  
HETATM   11  N   UNL     1     -10.409  13.432  68.930  1.00  0.00    -0.411 N  
HETATM   12  O   UNL     1     -12.148  13.683  67.401  1.00  0.00    -0.380 OA 
HETATM   13  H   UNL     1      -9.992  13.856  69.759  1.00  0.00     0.000 HD 
BRANCH  11  14
HETATM   14  C   UNL     1      -9.812  12.250  68.446  1.00  0.00    -0.199 A  
HETATM   15  C   UNL     1      -8.868  12.243  67.420  1.00  0.00    -0.185 A  
HETATM   16  C   UNL     1      -8.391  11.042  66.893  1.00  0.00    -0.138 A  
HETATM   17  C   UNL     1      -8.838   9.816  67.393  1.00  0.00    -0.137 A  
HETATM   18  C   UNL     1     -10.211  11.028  68.998  1.00  0.00    -0.217 A  
HETATM   19  C   UNL     1      -9.739   9.820  68.466  1.00  0.00    -0.164 A  
BRANCH  17  20
HETATM   20  C   UNL     1      -8.396   8.519  66.749  1.00  0.00    -0.109 C  
BRANCH  20  21
HETATM   21  C   UNL     1      -9.388   7.931  65.730  1.00  0.00     0.096 C  
BRANCH  21  22
HETATM   22  N   UNL     1      -9.540   6.490  65.911  1.00  0.00    -0.388 NA 
HETATM   23  H   UNL     1      -8.636   6.041  66.063  1.00  0.00     0.000 HD 
BRANCH  22  24
HETATM   24  C   UNL     1     -10.482   6.158  66.986  1.00  0.00    -0.277 C  
BRANCH  24  25
HETATM   25  C   UNL     1      -9.807   5.451  68.189  1.00  0.00    -0.145 C  
HETATM   26  O   UNL     1      -9.770   4.034  67.958  1.00  0.00    -0.154 OA 
HETATM   27  H   UNL     1      -9.356   3.601  68.696  1.00  0.00     0.000 HD 
BRANCH  25  28
HETATM   28  C   UNL     1     -10.415   5.737  69.550  1.00  0.00    -0.364 A  
HETATM   29  C   UNL     1      -9.978   5.034  70.682  1.00  0.00    -0.300 A  
HETATM   30  C   UNL     1     -10.583   5.237  71.926  1.00  0.00    -0.274 A  
HETATM   31  C   UNL     1     -11.628   6.150  72.055  1.00  0.00    -0.364 A  
HETATM   32  C   UNL     1     -12.057   6.873  70.946  1.00  0.00    -0.424 A  
HETATM   33  C   UNL     1     -11.456   6.668  69.703  1.00  0.00    -0.358 A  
ENDBRANCH  25  28
ENDBRANCH  24  25
ENDBRANCH  22  24
ENDBRANCH  21  22
ENDBRANCH  20  21
ENDBRANCH  17  20
ENDBRANCH  11  14
ENDBRANCH   9  10
ENDBRANCH   6   9
TORSDOF 9
ENDMDL
MODEL      126
REMARK 921   NORMALIZED FREE ENERGY PREDICTED BY IDOCK:   -4.52 KCAL/MOL
REMARK 922        TOTAL FREE ENERGY PREDICTED BY IDOCK:   -9.35 KCAL/MOL
REMARK 923 INTER-LIGAND FREE ENERGY PREDICTED BY IDOCK:   -8.70 KCAL/MOL
REMARK 924 INTRA-LIGAND FREE ENERGY PREDICTED BY IDOCK:   -0.65 KCAL/MOL
REMARK 927      BINDING AFFINITY PREDICTED BY RF-SCORE:    0.00 PKD
ROOT
HETATM    1  N   UNL     1     -10.887   3.261  62.996  1.00  0.00    -0.199 NA 
HETATM    2  C   UNL     1     -10.035   3.452  64.016  1.00  0.00    -0.184 A  
HETATM    3  H1  UNL     1     -10.614   2.813  62.121  1.00  0.00     0.000 HD 
HETATM    4  H2  UNL     1     -11.850   3.578  63.101  1.00  0.00     0.000 HD 
HETATM    5  N   UNL     1     -10.385   4.027  65.139  1.00  0.00    -0.175 NA 
HETATM    6  C   UNL     1      -9.300   4.083  66.008  1.00  0.00    -0.168 A  
HETATM    7  S   UNL     1      -8.406   2.922  63.933  1.00  0.00    -0.086 SA 
HETATM    8  C   UNL     1      -8.137   3.522  65.514  1.00  0.00    -0.093 A  
ENDROOT
BRANCH   6   9
HETATM    9  C   UNL     1      -9.486   4.698  67.352  1.00  0.00    -0.177 C  
BRANCH   9  10
HETATM   10  C   UNL     1     -10.163   6.058  67.329  1.00  0.00    -0.195 C  
HETATM   11  N   UNL     1      -9.339   7.132  67.027  1.00  0.00    -0.144 N  
HETATM   12  O   UNL     1     -11.386   6.111  67.467  1.00  0.00    -0.193 OA 
HETATM   13  H   UNL     1      -8.343   6.938  66.924  1.00  0.00     0.000 HD 
BRANCH  11  14
HETATM   14  C   UNL     1      -9.753   8.468  66.850  1.00  0.00    -0.221 A  
HETATM   15  C   UNL     1     -10.458   9.179  67.821  1.00  0.00    -0.306 A  
HETATM   16  C   UNL     1     -10.948  10.459  67.558  1.00  0.00    -0.358 A  
HETATM   17  C   UNL     1     -10.732  11.064  66.317  1.00  0.00    -0.273 A  
HETATM   18  C   UNL     1      -9.473   9.096  65.632  1.00  0.00    -0.309 A  
HETATM   19  C   UNL     1      -9.971  10.378  65.362  1.00  0.00    -0.362 A  
BRANCH  17  20
HETATM   20  C   UNL     1     -11.355  12.408  66.002  1.00  0.00    -0.397 C  
BRANCH  20  21
HETATM   21  C   UNL     1     -10.730  13.602  66.745  1.00  0.00    -0.272 C  
BRANCH  21  22
HETATM   22  N   UNL     1      -9.383  13.882  66.256  1.00  0.00    -0.468 NA 
HETATM   23  H   UNL     1      -9.237  13.479  65.330  1.00  0.00     0.000 HD 
BRANCH  22  24
HETATM   24  C   UNL     1      -9.072  15.317  66.264  1.00  0.00    -0.302 C  
BRANCH  24  25
HETATM   25  C   UNL     1     -10.322  16.210  66.062  1.00  0.00    -0.358 C  
HETATM   26  O   UNL     1     -10.573  16.381  64.658  1.00  0.00    -0.726 OA 
HETATM   27  H   UNL     1     -11.339  16.929  64.534  1.00  0.00     0.000 HD 
BRANCH  25  28
HETATM   28  C   UNL     1     -10.285  17.563  66.749  1.00  0.00    -0.327 A  
HETATM   29  C   UNL     1     -10.405  18.741  65.996  1.00  0.00    -0.467 A  
HETATM   30  C   UNL     1     -10.298  19.993  66.610  1.00  0.00    -0.565 A  
HETATM   31  C   UNL     1     -10.075  20.083  67.982  1.00  0.00    -0.557 A  
HETATM   32  C   UNL     1      -9.978  18.924  68.746  1.00  0.00    -0.466 A  
HETATM   33  C   UNL     1     -10.082  17.673  68.134  1.00  0.00    -0.347 A  
ENDBRANCH  25  28
ENDBRANCH  24  25
ENDBRANCH  22  24
ENDBRANCH  21  22
ENDBRANCH  20  21
ENDBRANCH  17  20
ENDBRANCH  11  14
ENDBRANCH   9  10
ENDBRANCH   6   9
TORSDOF 9
ENDMDL
MODEL      127
REMARK 921   NORMALIZED FREE ENERGY PREDICTED BY IDOCK:   -4.52 KCAL/MOL
REMARK 922        TOTAL FREE ENERGY PREDICTED BY IDOCK:   -9.35 KCAL/MOL
REMARK 923 INTER-LIGAND FREE ENERGY PREDICTED BY IDOCK:   -9.05 KCAL/MOL
REMARK 924 INTRA-LIGAND FREE ENERGY PREDICTED BY IDOCK:   -0.29 KCAL/MOL
REMARK 927      BINDING AFFINITY PREDICTED BY RF-SCORE:    0.00 PKD
ROOT
HETATM    1  N   UNL     1     -10.418   3.737  74.194  1.00  0.00    -0.190 NA 
HETATM    2  C   UNL     1     -10.630   4.983  73.738  1.00  0.00    -0.279 A  
HETATM    3  H1  UNL     1      -9.759   3.525  74.943  1.00  0.00     0.000 HD 
HETATM    4  H2  UNL     1     -10.938   2.969  73.772  1.00  0.00     0.000 HD 
HETATM    5  N   UNL     1     -11.476   5.255  72.776  1.00  0.00    -0.282 NA 
HETATM    6  C   UNL     1     -11.488   6.623  72.522  1.00  0.00    -0.231 A  
HETATM    7  S   UNL     1      -9.818   6.333  74.414  1.00  0.00    -0.337 SA 
HETATM    8  C   UNL     1     -10.645   7.366  73.326  1.00  0.00    -0.392 A  
ENDROOT
BRANCH   6   9
HETATM    9  C   UNL     1     -12.392   7.148  71.460  1.00  0.00    -0.406 C  
BRANCH   9  10
HETATM   10  C   UNL     1     -11.854   8.365  70.726  1.00  0.00    -0.163 C  
HETATM   11  N   UNL     1     -12.712   9.452  70.661  1.00  0.00    -0.509 N  
HETATM   12  O   UNL     1     -10.684   8.352  70.341  1.00  0.00    -0.223 OA 
HETATM   13  H   UNL     1     -13.653   9.324  71.035  1.00  0.00     0.000 HD 
BRANCH  11  14
HETATM   14  C   UNL     1     -12.403  10.718  70.123  1.00  0.00    -0.325 A  
HETATM   15  C   UNL     1     -11.953  10.898  68.816  1.00  0.00    -0.230 A  
HETATM   16  C   UNL     1     -11.548  12.155  68.364  1.00  0.00    -0.381 A  
HETATM   17  C   UNL     1     -11.599  13.267  69.208  1.00  0.00    -0.370 A  
HETATM   18  C   UNL     1     -12.522  11.840  70.951  1.00  0.00    -0.416 A  
HETATM   19  C   UNL     1     -12.110  13.102  70.502  1.00  0.00    -0.385 A  
BRANCH  17  20
HETATM   20  C   UNL     1     -11.061  14.605  68.745  1.00  0.00    -0.274 C  
BRANCH  20  21
HETATM   21  C   UNL     1     -11.856  15.827  69.237  1.00  0.00    -0.346 C  
BRANCH  21  22
HETATM   22  N   UNL     1     -10.965  16.875  69.727  1.00  0.00    -0.371 NA 
HETATM   23  H   UNL     1     -10.236  16.488  70.326  1.00  0.00     0.000 HD 
BRANCH  22  24
HETATM   24  C   UNL     1     -10.386  17.671  68.638  1.00  0.00    -0.359 C  
BRANCH  24  25
HETATM   25  C   UNL     1      -9.492  18.832  69.143  1.00  0.00    -0.111 C  
HETATM   26  O   UNL     1     -10.318  19.917  69.594  1.00  0.00    -0.627 OA 
HETATM   27  H   UNL     1      -9.770  20.629  69.904  1.00  0.00     0.000 HD 
BRANCH  25  28
HETATM   28  C   UNL     1      -8.457  19.345  68.159  1.00  0.00    -0.367 A  
HETATM   29  C   UNL     1      -7.161  19.661  68.596  1.00  0.00    -0.371 A  
HETATM   30  C   UNL     1      -6.223  20.203  67.713  1.00  0.00    -0.261 A  
HETATM   31  C   UNL     1      -6.566  20.431  66.382  1.00  0.00    -0.272 A  
HETATM   32  C   UNL     1      -7.839  20.102  65.927  1.00  0.00    -0.218 A  
HETATM   33  C   UNL     1      -8.777  19.562  66.809  1.00  0.00    -0.358 A  
ENDBRANCH  25  28
ENDBRANCH  24  25
ENDBRANCH  22  24
ENDBRANCH  21  22
ENDBRANCH  20  21
ENDBRANCH  17  20
ENDBRANCH  11  14
ENDBRANCH   9  10
ENDBRANCH   6   9
TORSDOF 9
ENDMDL
MODEL      128
REMARK 921   NORMALIZED FREE ENERGY PREDICTED BY IDOCK:   -4.52 KCAL/MOL
REMARK 922        TOTAL FREE ENERGY PREDICTED BY IDOCK:   -9.34 KCAL/MOL
REMARK 923 INTER-LIGAND FREE ENERGY PREDICTED BY IDOCK:   -7.26 KCAL/MOL
REMARK 924 INTRA-LIGAND FREE ENERGY PREDICTED BY IDOCK:   -2.08 KCAL/MOL
REMARK 927      BINDING AFFINITY PREDICTED BY RF-SCORE:    0.00 PKD
ROOT
HETATM    1  N   UNL     1      -6.808   6.265  68.029  1.00  0.00    -0.068 NA 
HETATM    2  C   UNL     1      -7.803   5.692  68.727  1.00  0.00    -0.096 A  
HETATM    3  H1  UNL     1      -6.593   6.017  67.064  1.00  0.00     0.000 HD 
HETATM    4  H2  UNL     1      -6.244   6.981  68.485  1.00  0.00     0.000 HD 
HETATM    5  N   UNL     1      -8.080   6.011  69.966  1.00  0.00    -0.112 NA 
HETATM    6  C   UNL     1      -9.158   5.261  70.424  1.00  0.00    -0.139 A  
HETATM    7  S   UNL     1      -8.819   4.503  68.024  1.00  0.00    -0.112 SA 
HETATM    8  C   UNL     1      -9.689   4.388  69.495  1.00  0.00    -0.210 A  
ENDROOT
BRANCH   6   9
HETATM    9  C   UNL     1      -9.641   5.474  71.817  1.00  0.00    -0.183 C  
BRANCH   9  10
HETATM   10  C   UNL     1     -10.168   6.872  72.090  1.00  0.00    -0.193 C  
HETATM   11  N   UNL     1     -10.866   7.464  71.048  1.00  0.00    -0.236 N  
HETATM   12  O   UNL     1     -10.042   7.339  73.223  1.00  0.00    -0.230 OA 
HETATM   13  H   UNL     1     -10.902   6.953  70.166  1.00  0.00     0.000 HD 
BRANCH  11  14
HETATM   14  C   UNL     1     -11.531   8.706  71.098  1.00  0.00    -0.280 A  
HETATM   15  C   UNL     1     -11.037   9.856  70.482  1.00  0.00    -0.398 A  
HETATM   16  C   UNL     1     -11.667  11.089  70.655  1.00  0.00    -0.371 A  
HETATM   17  C   UNL     1     -12.819  11.197  71.439  1.00  0.00    -0.544 A  
HETATM   18  C   UNL     1     -12.722   8.795  71.826  1.00  0.00    -0.408 A  
HETATM   19  C   UNL     1     -13.354  10.033  72.007  1.00  0.00    -0.513 A  
BRANCH  17  20
HETATM   20  C   UNL     1     -13.438  12.553  71.707  1.00  0.00    -0.280 C  
BRANCH  20  21
HETATM   21  C   UNL     1     -12.430  13.703  71.873  1.00  0.00    -0.052 C  
BRANCH  21  22
HETATM   22  N   UNL     1     -12.466  14.606  70.726  1.00  0.00    -0.318 NA 
HETATM   23  H   UNL     1     -13.088  15.396  70.898  1.00  0.00     0.000 HD 
BRANCH  22  24
HETATM   24  C   UNL     1     -11.128  15.064  70.331  1.00  0.00    -0.229 C  
BRANCH  24  25
HETATM   25  C   UNL     1     -10.897  15.018  68.799  1.00  0.00    -0.249 C  
HETATM   26  O   UNL     1     -11.972  15.694  68.128  1.00  0.00    -0.413 OA 
HETATM   27  H   UNL     1     -11.831  15.666  67.189  1.00  0.00     0.000 HD 
BRANCH  25  28
HETATM   28  C   UNL     1     -10.704  13.636  68.201  1.00  0.00    -0.260 A  
HETATM   29  C   UNL     1      -9.453  13.004  68.274  1.00  0.00    -0.208 A  
HETATM   30  C   UNL     1      -9.245  11.764  67.662  1.00  0.00    -0.180 A  
HETATM   31  C   UNL     1     -10.285  11.139  66.976  1.00  0.00    -0.251 A  
HETATM   32  C   UNL     1     -11.537  11.741  66.916  1.00  0.00    -0.310 A  
HETATM   33  C   UNL     1     -11.745  12.981  67.524  1.00  0.00    -0.421 A  
ENDBRANCH  25  28
ENDBRANCH  24  25
ENDBRANCH  22  24
ENDBRANCH  21  22
ENDBRANCH  20  21
ENDBRANCH  17  20
ENDBRANCH  11  14
ENDBRANCH   9  10
ENDBRANCH   6   9
TORSDOF 9
ENDMDL
MODEL      129
REMARK 921   NORMALIZED FREE ENERGY PREDICTED BY IDOCK:   -4.51 KCAL/MOL
REMARK 922        TOTAL FREE ENERGY PREDICTED BY IDOCK:   -9.33 KCAL/MOL
REMARK 923 INTER-LIGAND FREE ENERGY PREDICTED BY IDOCK:   -6.58 KCAL/MOL
REMARK 924 INTRA-LIGAND FREE ENERGY PREDICTED BY IDOCK:   -2.75 KCAL/MOL
REMARK 927      BINDING AFFINITY PREDICTED BY RF-SCORE:    0.00 PKD
ROOT
HETATM    1  N   UNL     1     -12.499  15.379  69.721  1.00  0.00    -0.591 NA 
HETATM    2  C   UNL     1     -11.766  15.520  68.604  1.00  0.00    -0.348 A  
HETATM    3  H1  UNL     1     -12.507  16.071  70.470  1.00  0.00     0.000 HD 
HETATM    4  H2  UNL     1     -13.072  14.543  69.824  1.00  0.00     0.000 HD 
HETATM    5  N   UNL     1     -11.755  14.632  67.642  1.00  0.00    -0.363 NA 
HETATM    6  C   UNL     1     -10.912  15.048  66.616  1.00  0.00    -0.325 A  
HETATM    7  S   UNL     1     -10.798  16.911  68.338  1.00  0.00    -0.301 SA 
HETATM    8  C   UNL     1     -10.308  16.272  66.826  1.00  0.00    -0.296 A  
ENDROOT
BRANCH   6   9
HETATM    9  C   UNL     1     -10.760  14.178  65.416  1.00  0.00    -0.350 C  
BRANCH   9  10
HETATM   10  C   UNL     1     -10.113  12.833  65.695  1.00  0.00    -0.270 C  
HETATM   11  N   UNL     1      -8.984  12.866  66.500  1.00  0.00    -0.412 N  
HETATM   12  O   UNL     1     -10.675  11.813  65.294  1.00  0.00    -0.271 OA 
HETATM   13  H   UNL     1      -8.635  13.786  66.772  1.00  0.00     0.000 HD 
BRANCH  11  14
HETATM   14  C   UNL     1      -8.275  11.745  66.977  1.00  0.00    -0.172 A  
HETATM   15  C   UNL     1      -7.964  10.647  66.176  1.00  0.00    -0.151 A  
HETATM   16  C   UNL     1      -7.363   9.510  66.719  1.00  0.00    -0.090 A  
HETATM   17  C   UNL     1      -7.045   9.452  68.078  1.00  0.00    -0.081 A  
HETATM   18  C   UNL     1      -7.895  11.720  68.323  1.00  0.00    -0.137 A  
HETATM   19  C   UNL     1      -7.298  10.577  68.873  1.00  0.00    -0.098 A  
BRANCH  17  20
HETATM   20  C   UNL     1      -6.490   8.178  68.681  1.00  0.00    -0.053 C  
BRANCH  20  21
HETATM   21  C   UNL     1      -6.214   8.245  70.193  1.00  0.00    -0.031 C  
BRANCH  21  22
HETATM   22  N   UNL     1      -7.276   7.592  70.953  1.00  0.00    -0.061 NA 
HETATM   23  H   UNL     1      -7.822   8.273  71.481  1.00  0.00     0.000 HD 
BRANCH  22  24
HETATM   24  C   UNL     1      -8.141   6.762  70.106  1.00  0.00    -0.128 C  
BRANCH  24  25
HETATM   25  C   UNL     1      -9.651   7.020  70.343  1.00  0.00    -0.169 C  
HETATM   26  O   UNL     1     -10.413   5.898  69.871  1.00  0.00    -0.218 OA 
HETATM   27  H   UNL     1     -11.338   6.057  70.017  1.00  0.00     0.000 HD 
BRANCH  25  28
HETATM   28  C   UNL     1     -10.201   8.305  69.750  1.00  0.00    -0.204 A  
HETATM   29  C   UNL     1     -10.517   9.389  70.583  1.00  0.00    -0.354 A  
HETATM   30  C   UNL     1     -11.094  10.548  70.056  1.00  0.00    -0.376 A  
HETATM   31  C   UNL     1     -11.356  10.641  68.691  1.00  0.00    -0.345 A  
HETATM   32  C   UNL     1     -11.027   9.584  67.848  1.00  0.00    -0.172 A  
HETATM   33  C   UNL     1     -10.454   8.425  68.374  1.00  0.00    -0.208 A  
ENDBRANCH  25  28
ENDBRANCH  24  25
ENDBRANCH  22  24
ENDBRANCH  21  22
ENDBRANCH  20  21
ENDBRANCH  17  20
ENDBRANCH  11  14
ENDBRANCH   9  10
ENDBRANCH   6   9
TORSDOF 9
ENDMDL
MODEL      130
REMARK 921   NORMALIZED FREE ENERGY PREDICTED BY IDOCK:   -4.48 KCAL/MOL
REMARK 922        TOTAL FREE ENERGY PREDICTED BY IDOCK:   -9.28 KCAL/MOL
REMARK 923 INTER-LIGAND FREE ENERGY PREDICTED BY IDOCK:   -6.17 KCAL/MOL
REMARK 924 INTRA-LIGAND FREE ENERGY PREDICTED BY IDOCK:   -3.11 KCAL/MOL
REMARK 927      BINDING AFFINITY PREDICTED BY RF-SCORE:    0.00 PKD
ROOT
HETATM    1  N   UNL     1     -12.325  14.252  68.945  1.00  0.00    -0.570 NA 
HETATM    2  C   UNL     1     -11.378  14.410  68.005  1.00  0.00    -0.294 A  
HETATM    3  H1  UNL     1     -13.315  14.145  68.723  1.00  0.00     0.000 HD 
HETATM    4  H2  UNL     1     -12.042  14.237  69.924  1.00  0.00     0.000 HD 
HETATM    5  N   UNL     1     -10.108  14.547  68.290  1.00  0.00    -0.226 NA 
HETATM    6  C   UNL     1      -9.367  14.687  67.121  1.00  0.00    -0.223 A  
HETATM    7  S   UNL     1     -11.767  14.414  66.335  1.00  0.00    -0.373 SA 
HETATM    8  C   UNL     1     -10.111  14.635  65.958  1.00  0.00    -0.311 A  
ENDROOT
BRANCH   6   9
HETATM    9  C   UNL     1      -7.890  14.852  67.223  1.00  0.00    -0.235 C  
BRANCH   9  10
HETATM   10  C   UNL     1      -7.143  13.584  67.601  1.00  0.00    -0.168 C  
HETATM   11  N   UNL     1      -7.936  12.520  68.005  1.00  0.00    -0.142 N  
HETATM   12  O   UNL     1      -5.925  13.543  67.427  1.00  0.00    -0.341 OA 
HETATM   13  H   UNL     1      -8.937  12.694  68.092  1.00  0.00     0.000 HD 
BRANCH  11  14
HETATM   14  C   UNL     1      -7.483  11.220  68.307  1.00  0.00    -0.099 A  
HETATM   15  C   UNL     1      -7.140  10.289  67.327  1.00  0.00    -0.088 A  
HETATM   16  C   UNL     1      -6.808   8.977  67.668  1.00  0.00    -0.070 A  
HETATM   17  C   UNL     1      -6.798   8.568  69.005  1.00  0.00    -0.056 A  
HETATM   18  C   UNL     1      -7.406  10.836  69.650  1.00  0.00    -0.107 A  
HETATM   19  C   UNL     1      -7.081   9.517  69.996  1.00  0.00    -0.091 A  
BRANCH  17  20
HETATM   20  C   UNL     1      -6.540   7.119  69.361  1.00  0.00    -0.044 C  
BRANCH  20  21
HETATM   21  C   UNL     1      -7.788   6.323  69.778  1.00  0.00    -0.110 C  
BRANCH  21  22
HETATM   22  N   UNL     1      -8.409   5.673  68.627  1.00  0.00    -0.106 NA 
HETATM   23  H   UNL     1      -8.189   4.677  68.604  1.00  0.00     0.000 HD 
BRANCH  22  24
HETATM   24  C   UNL     1      -9.859   5.895  68.573  1.00  0.00    -0.135 C  
BRANCH  24  25
HETATM   25  C   UNL     1     -10.331   7.047  69.496  1.00  0.00    -0.213 C  
HETATM   26  O   UNL     1     -11.553   6.672  70.151  1.00  0.00    -0.411 OA 
HETATM   27  H   UNL     1     -11.842   7.378  70.717  1.00  0.00     0.000 HD 
BRANCH  25  28
HETATM   28  C   UNL     1     -10.496   8.401  68.830  1.00  0.00    -0.208 A  
HETATM   29  C   UNL     1     -10.892   9.516  69.585  1.00  0.00    -0.255 A  
HETATM   30  C   UNL     1     -11.119  10.750  68.968  1.00  0.00    -0.308 A  
HETATM   31  C   UNL     1     -10.947  10.887  67.592  1.00  0.00    -0.350 A  
HETATM   32  C   UNL     1     -10.532   9.797  66.833  1.00  0.00    -0.281 A  
HETATM   33  C   UNL     1     -10.308   8.563  67.448  1.00  0.00    -0.356 A  
ENDBRANCH  25  28
ENDBRANCH  24  25
ENDBRANCH  22  24
ENDBRANCH  21  22
ENDBRANCH  20  21
ENDBRANCH  17  20
ENDBRANCH  11  14
ENDBRANCH   9  10
ENDBRANCH   6   9
TORSDOF 9
ENDMDL
MODEL      131
REMARK 921   NORMALIZED FREE ENERGY PREDICTED BY IDOCK:   -4.46 KCAL/MOL
REMARK 922        TOTAL FREE ENERGY PREDICTED BY IDOCK:   -9.26 KCAL/MOL
REMARK 923 INTER-LIGAND FREE ENERGY PREDICTED BY IDOCK:   -8.34 KCAL/MOL
REMARK 924 INTRA-LIGAND FREE ENERGY PREDICTED BY IDOCK:   -0.92 KCAL/MOL
REMARK 927      BINDING AFFINITY PREDICTED BY RF-SCORE:    0.00 PKD
ROOT
HETATM    1  N   UNL     1      -7.026  19.231  67.505  1.00  0.00    -0.207 NA 
HETATM    2  C   UNL     1      -8.325  18.901  67.579  1.00  0.00    -0.273 A  
HETATM    3  H1  UNL     1      -6.661  19.902  66.828  1.00  0.00     0.000 HD 
HETATM    4  H2  UNL     1      -6.374  18.792  68.154  1.00  0.00     0.000 HD 
HETATM    5  N   UNL     1      -8.793  18.040  68.447  1.00  0.00    -0.288 NA 
HETATM    6  C   UNL     1     -10.169  17.902  68.291  1.00  0.00    -0.388 A  
HETATM    7  S   UNL     1      -9.491  19.616  66.544  1.00  0.00    -0.406 SA 
HETATM    8  C   UNL     1     -10.719  18.691  67.299  1.00  0.00    -0.394 A  
ENDROOT
BRANCH   6   9
HETATM    9  C   UNL     1     -10.903  16.968  69.190  1.00  0.00    -0.164 C  
BRANCH   9  10
HETATM   10  C   UNL     1     -11.006  15.546  68.666  1.00  0.00    -0.279 C  
HETATM   11  N   UNL     1     -10.397  15.313  67.442  1.00  0.00    -0.252 N  
HETATM   12  O   UNL     1     -11.514  14.687  69.388  1.00  0.00    -0.264 OA 
HETATM   13  H   UNL     1     -10.002  16.120  66.959  1.00  0.00     0.000 HD 
BRANCH  11  14
HETATM   14  C   UNL     1     -10.274  14.062  66.805  1.00  0.00    -0.264 A  
HETATM   15  C   UNL     1     -11.288  13.503  66.027  1.00  0.00    -0.327 A  
HETATM   16  C   UNL     1     -11.167  12.212  65.511  1.00  0.00    -0.381 A  
HETATM   17  C   UNL     1     -10.019  11.452  65.751  1.00  0.00    -0.271 A  
HETATM   18  C   UNL     1      -9.094  13.334  66.990  1.00  0.00    -0.232 A  
HETATM   19  C   UNL     1      -8.972  12.034  66.480  1.00  0.00    -0.193 A  
BRANCH  17  20
HETATM   20  C   UNL     1      -9.938  10.016  65.278  1.00  0.00    -0.368 C  
BRANCH  20  21
HETATM   21  C   UNL     1      -9.059   9.098  66.145  1.00  0.00    -0.187 C  
BRANCH  21  22
HETATM   22  N   UNL     1      -9.822   8.527  67.252  1.00  0.00    -0.181 NA 
HETATM   23  H   UNL     1     -10.815   8.474  67.025  1.00  0.00     0.000 HD 
BRANCH  22  24
HETATM   24  C   UNL     1      -9.305   7.220  67.673  1.00  0.00    -0.128 C  
BRANCH  24  25
HETATM   25  C   UNL     1     -10.426   6.207  68.021  1.00  0.00    -0.228 C  
HETATM   26  O   UNL     1     -11.638   6.577  67.346  1.00  0.00    -0.719 OA 
HETATM   27  H   UNL     1     -12.325   5.956  67.559  1.00  0.00     0.000 HD 
BRANCH  25  28
HETATM   28  C   UNL     1     -10.699   6.006  69.500  1.00  0.00    -0.405 A  
HETATM   29  C   UNL     1      -9.998   5.028  70.221  1.00  0.00    -0.325 A  
HETATM   30  C   UNL     1     -10.294   4.785  71.566  1.00  0.00    -0.203 A  
HETATM   31  C   UNL     1     -11.289   5.519  72.207  1.00  0.00    -0.257 A  
HETATM   32  C   UNL     1     -11.977   6.510  71.512  1.00  0.00    -0.383 A  
HETATM   33  C   UNL     1     -11.684   6.751  70.169  1.00  0.00    -0.370 A  
ENDBRANCH  25  28
ENDBRANCH  24  25
ENDBRANCH  22  24
ENDBRANCH  21  22
ENDBRANCH  20  21
ENDBRANCH  17  20
ENDBRANCH  11  14
ENDBRANCH   9  10
ENDBRANCH   6   9
TORSDOF 9
ENDMDL
MODEL      132
REMARK 921   NORMALIZED FREE ENERGY PREDICTED BY IDOCK:   -4.45 KCAL/MOL
REMARK 922        TOTAL FREE ENERGY PREDICTED BY IDOCK:   -9.24 KCAL/MOL
REMARK 923 INTER-LIGAND FREE ENERGY PREDICTED BY IDOCK:   -7.52 KCAL/MOL
REMARK 924 INTRA-LIGAND FREE ENERGY PREDICTED BY IDOCK:   -1.72 KCAL/MOL
REMARK 927      BINDING AFFINITY PREDICTED BY RF-SCORE:    0.00 PKD
ROOT
HETATM    1  N   UNL     1     -11.340  16.164  69.173  1.00  0.00    -0.331 NA 
HETATM    2  C   UNL     1     -10.929  15.985  67.907  1.00  0.00    -0.327 A  
HETATM    3  H1  UNL     1     -10.873  16.795  69.825  1.00  0.00     0.000 HD 
HETATM    4  H2  UNL     1     -12.156  15.647  69.497  1.00  0.00     0.000 HD 
HETATM    5  N   UNL     1     -11.529  15.176  67.071  1.00  0.00    -0.283 NA 
HETATM    6  C   UNL     1     -10.886  15.199  65.837  1.00  0.00    -0.339 A  
HETATM    7  S   UNL     1      -9.584  16.839  67.274  1.00  0.00    -0.238 SA 
HETATM    8  C   UNL     1      -9.804  16.055  65.767  1.00  0.00    -0.323 A  
ENDROOT
BRANCH   6   9
HETATM    9  C   UNL     1     -11.416  14.348  64.735  1.00  0.00    -0.402 C  
BRANCH   9  10
HETATM   10  C   UNL     1     -11.195  12.858  64.934  1.00  0.00    -0.300 C  
HETATM   11  N   UNL     1      -9.874  12.437  64.888  1.00  0.00    -0.460 N  
HETATM   12  O   UNL     1     -12.161  12.152  65.223  1.00  0.00    -0.484 OA 
HETATM   13  H   UNL     1      -9.172  13.137  64.650  1.00  0.00     0.000 HD 
BRANCH  11  14
HETATM   14  C   UNL     1      -9.414  11.129  65.142  1.00  0.00    -0.226 A  
HETATM   15  C   UNL     1      -9.171  10.646  66.428  1.00  0.00    -0.190 A  
HETATM   16  C   UNL     1      -8.606   9.385  66.626  1.00  0.00    -0.138 A  
HETATM   17  C   UNL     1      -8.283   8.570  65.538  1.00  0.00    -0.138 A  
HETATM   18  C   UNL     1      -9.158  10.290  64.052  1.00  0.00    -0.283 A  
HETATM   19  C   UNL     1      -8.584   9.026  64.247  1.00  0.00    -0.171 A  
BRANCH  17  20
HETATM   20  C   UNL     1      -7.576   7.248  65.755  1.00  0.00    -0.091 C  
BRANCH  20  21
HETATM   21  C   UNL     1      -8.295   6.025  65.161  1.00  0.00    -0.140 C  
BRANCH  21  22
HETATM   22  N   UNL     1      -9.626   5.862  65.740  1.00  0.00    -0.370 NA 
HETATM   23  H   UNL     1     -10.178   5.189  65.210  1.00  0.00     0.000 HD 
BRANCH  22  24
HETATM   24  C   UNL     1      -9.577   5.503  67.163  1.00  0.00    -0.134 C  
BRANCH  24  25
HETATM   25  C   UNL     1     -10.658   6.223  68.008  1.00  0.00    -0.262 C  
HETATM   26  O   UNL     1     -11.554   6.936  67.142  1.00  0.00    -0.653 OA 
HETATM   27  H   UNL     1     -12.217   7.377  67.660  1.00  0.00     0.000 HD 
BRANCH  25  28
HETATM   28  C   UNL     1     -10.139   7.152  69.091  1.00  0.00    -0.183 A  
HETATM   29  C   UNL     1      -9.169   6.703  70.001  1.00  0.00    -0.158 A  
HETATM   30  C   UNL     1      -8.739   7.526  71.047  1.00  0.00    -0.134 A  
HETATM   31  C   UNL     1      -9.268   8.806  71.192  1.00  0.00    -0.299 A  
HETATM   32  C   UNL     1     -10.212   9.274  70.284  1.00  0.00    -0.270 A  
HETATM   33  C   UNL     1     -10.645   8.453  69.241  1.00  0.00    -0.193 A  
ENDBRANCH  25  28
ENDBRANCH  24  25
ENDBRANCH  22  24
ENDBRANCH  21  22
ENDBRANCH  20  21
ENDBRANCH  17  20
ENDBRANCH  11  14
ENDBRANCH   9  10
ENDBRANCH   6   9
TORSDOF 9
ENDMDL
MODEL      133
REMARK 921   NORMALIZED FREE ENERGY PREDICTED BY IDOCK:   -4.43 KCAL/MOL
REMARK 922        TOTAL FREE ENERGY PREDICTED BY IDOCK:   -9.20 KCAL/MOL
REMARK 923 INTER-LIGAND FREE ENERGY PREDICTED BY IDOCK:   -7.88 KCAL/MOL
REMARK 924 INTRA-LIGAND FREE ENERGY PREDICTED BY IDOCK:   -1.32 KCAL/MOL
REMARK 927      BINDING AFFINITY PREDICTED BY RF-SCORE:    0.00 PKD
ROOT
HETATM    1  N   UNL     1      -9.412  11.881  64.484  1.00  0.00    -0.436 NA 
HETATM    2  C   UNL     1     -10.462  12.604  64.906  1.00  0.00    -0.309 A  
HETATM    3  H1  UNL     1      -9.377  11.436  63.567  1.00  0.00     0.000 HD 
HETATM    4  H2  UNL     1      -8.614  11.772  65.109  1.00  0.00     0.000 HD 
HETATM    5  N   UNL     1     -10.507  13.175  66.084  1.00  0.00    -0.276 NA 
HETATM    6  C   UNL     1     -11.709  13.857  66.240  1.00  0.00    -0.383 A  
HETATM    7  S   UNL     1     -11.831  12.862  63.907  1.00  0.00    -0.511 SA 
HETATM    8  C   UNL     1     -12.553  13.795  65.148  1.00  0.00    -0.433 A  
ENDROOT
BRANCH   6   9
HETATM    9  C   UNL     1     -11.961  14.585  67.515  1.00  0.00    -0.358 C  
BRANCH   9  10
HETATM   10  C   UNL     1     -11.757  13.748  68.766  1.00  0.00    -0.356 C  
HETATM   11  N   UNL     1     -12.020  12.393  68.629  1.00  0.00    -0.286 N  
HETATM   12  O   UNL     1     -11.278  14.286  69.765  1.00  0.00    -0.243 OA 
HETATM   13  H   UNL     1     -12.402  12.082  67.735  1.00  0.00     0.000 HD 
BRANCH  11  14
HETATM   14  C   UNL     1     -11.809  11.406  69.613  1.00  0.00    -0.362 A  
HETATM   15  C   UNL     1     -10.728  10.526  69.586  1.00  0.00    -0.302 A  
HETATM   16  C   UNL     1     -10.622   9.491  70.515  1.00  0.00    -0.358 A  
HETATM   17  C   UNL     1     -11.592   9.320  71.506  1.00  0.00    -0.452 A  
HETATM   18  C   UNL     1     -12.746  11.283  70.645  1.00  0.00    -0.314 A  
HETATM   19  C   UNL     1     -12.646  10.240  71.576  1.00  0.00    -0.544 A  
BRANCH  17  20
HETATM   20  C   UNL     1     -11.526   8.134  72.446  1.00  0.00    -0.462 C  
BRANCH  20  21
HETATM   21  C   UNL     1     -12.052   6.813  71.859  1.00  0.00    -0.334 C  
BRANCH  21  22
HETATM   22  N   UNL     1     -11.054   5.752  71.967  1.00  0.00    -0.265 NA 
HETATM   23  H   UNL     1     -11.423   4.952  72.481  1.00  0.00     0.000 HD 
BRANCH  22  24
HETATM   24  C   UNL     1     -10.527   5.344  70.660  1.00  0.00    -0.259 C  
BRANCH  24  25
HETATM   25  C   UNL     1      -9.254   6.127  70.248  1.00  0.00    -0.156 C  
HETATM   26  O   UNL     1      -9.038   5.989  68.834  1.00  0.00    -0.122 OA 
HETATM   27  H   UNL     1      -8.258   6.469  68.582  1.00  0.00     0.000 HD 
BRANCH  25  28
HETATM   28  C   UNL     1      -7.986   5.771  71.002  1.00  0.00    -0.115 A  
HETATM   29  C   UNL     1      -7.573   6.545  72.096  1.00  0.00    -0.097 A  
HETATM   30  C   UNL     1      -6.369   6.269  72.751  1.00  0.00    -0.059 A  
HETATM   31  C   UNL     1      -5.566   5.214  72.324  1.00  0.00    -0.016 A  
HETATM   32  C   UNL     1      -5.973   4.422  71.255  1.00  0.00    -0.017 A  
HETATM   33  C   UNL     1      -7.174   4.698  70.598  1.00  0.00    -0.048 A  
ENDBRANCH  25  28
ENDBRANCH  24  25
ENDBRANCH  22  24
ENDBRANCH  21  22
ENDBRANCH  20  21
ENDBRANCH  17  20
ENDBRANCH  11  14
ENDBRANCH   9  10
ENDBRANCH   6   9
TORSDOF 9
ENDMDL
MODEL      134
REMARK 921   NORMALIZED FREE ENERGY PREDICTED BY IDOCK:   -4.42 KCAL/MOL
REMARK 922        TOTAL FREE ENERGY PREDICTED BY IDOCK:   -9.19 KCAL/MOL
REMARK 923 INTER-LIGAND FREE ENERGY PREDICTED BY IDOCK:   -6.60 KCAL/MOL
REMARK 924 INTRA-LIGAND FREE ENERGY PREDICTED BY IDOCK:   -2.59 KCAL/MOL
REMARK 927      BINDING AFFINITY PREDICTED BY RF-SCORE:    0.00 PKD
ROOT
HETATM    1  N   UNL     1      -9.331  15.312  65.948  1.00  0.00    -0.409 NA 
HETATM    2  C   UNL     1     -10.102  14.300  65.518  1.00  0.00    -0.345 A  
HETATM    3  H1  UNL     1      -9.638  16.285  65.944  1.00  0.00     0.000 HD 
HETATM    4  H2  UNL     1      -8.397  15.098  66.295  1.00  0.00     0.000 HD 
HETATM    5  N   UNL     1      -9.708  13.051  65.524  1.00  0.00    -0.124 NA 
HETATM    6  C   UNL     1     -10.714  12.229  65.028  1.00  0.00    -0.298 A  
HETATM    7  S   UNL     1     -11.696  14.569  64.948  1.00  0.00    -0.419 SA 
HETATM    8  C   UNL     1     -11.873  12.889  64.667  1.00  0.00    -0.372 A  
ENDROOT
BRANCH   6   9
HETATM    9  C   UNL     1     -10.470  10.761  64.953  1.00  0.00    -0.324 C  
BRANCH   9  10
HETATM   10  C   UNL     1      -9.603  10.213  66.074  1.00  0.00    -0.210 C  
HETATM   11  N   UNL     1     -10.272   9.888  67.245  1.00  0.00    -0.208 N  
HETATM   12  O   UNL     1      -8.413   9.993  65.846  1.00  0.00    -0.127 OA 
HETATM   13  H   UNL     1     -11.266  10.113  67.289  1.00  0.00     0.000 HD 
BRANCH  11  14
HETATM   14  C   UNL     1      -9.703   9.274  68.379  1.00  0.00    -0.154 A  
HETATM   15  C   UNL     1      -9.288   9.990  69.501  1.00  0.00    -0.247 A  
HETATM   16  C   UNL     1      -8.624   9.355  70.552  1.00  0.00    -0.265 A  
HETATM   17  C   UNL     1      -8.372   7.981  70.510  1.00  0.00    -0.123 A  
HETATM   18  C   UNL     1      -9.516   7.887  68.363  1.00  0.00    -0.150 A  
HETATM   19  C   UNL     1      -8.843   7.248  69.413  1.00  0.00    -0.137 A  
BRANCH  17  20
HETATM   20  C   UNL     1      -7.561   7.318  71.603  1.00  0.00    -0.086 C  
BRANCH  20  21
HETATM   21  C   UNL     1      -7.627   8.016  72.973  1.00  0.00    -0.132 C  
BRANCH  21  22
HETATM   22  N   UNL     1      -7.750   7.044  74.056  1.00  0.00    -0.105 NA 
HETATM   23  H   UNL     1      -8.014   7.499  74.930  1.00  0.00     0.000 HD 
BRANCH  22  24
HETATM   24  C   UNL     1      -8.676   5.954  73.727  1.00  0.00    -0.124 C  
BRANCH  24  25
HETATM   25  C   UNL     1     -10.156   6.303  74.029  1.00  0.00    -0.289 C  
HETATM   26  O   UNL     1     -10.830   5.145  74.546  1.00  0.00    -0.382 OA 
HETATM   27  H   UNL     1     -11.737   5.359  74.731  1.00  0.00     0.000 HD 
BRANCH  25  28
HETATM   28  C   UNL     1     -10.946   6.887  72.872  1.00  0.00    -0.315 A  
HETATM   29  C   UNL     1     -11.314   8.241  72.879  1.00  0.00    -0.193 A  
HETATM   30  C   UNL     1     -12.104   8.771  71.855  1.00  0.00    -0.433 A  
HETATM   31  C   UNL     1     -12.532   7.956  70.809  1.00  0.00     0.057 A  
HETATM   32  C   UNL     1     -12.156   6.617  70.774  1.00  0.00    -0.364 A  
HETATM   33  C   UNL     1     -11.369   6.086  71.798  1.00  0.00    -0.324 A  
ENDBRANCH  25  28
ENDBRANCH  24  25
ENDBRANCH  22  24
ENDBRANCH  21  22
ENDBRANCH  20  21
ENDBRANCH  17  20
ENDBRANCH  11  14
ENDBRANCH   9  10
ENDBRANCH   6   9
TORSDOF 9
ENDMDL
MODEL      135
REMARK 921   NORMALIZED FREE ENERGY PREDICTED BY IDOCK:   -4.42 KCAL/MOL
REMARK 922        TOTAL FREE ENERGY PREDICTED BY IDOCK:   -9.19 KCAL/MOL
REMARK 923 INTER-LIGAND FREE ENERGY PREDICTED BY IDOCK:   -7.26 KCAL/MOL
REMARK 924 INTRA-LIGAND FREE ENERGY PREDICTED BY IDOCK:   -1.92 KCAL/MOL
REMARK 927      BINDING AFFINITY PREDICTED BY RF-SCORE:    0.00 PKD
ROOT
HETATM    1  N   UNL     1      -9.759  18.029  67.712  1.00  0.00    -0.283 NA 
HETATM    2  C   UNL     1     -10.170  16.766  67.913  1.00  0.00    -0.300 A  
HETATM    3  H1  UNL     1      -9.140  18.520  68.357  1.00  0.00     0.000 HD 
HETATM    4  H2  UNL     1     -10.080  18.518  66.878  1.00  0.00     0.000 HD 
HETATM    5  N   UNL     1     -10.965  16.135  67.085  1.00  0.00    -0.213 NA 
HETATM    6  C   UNL     1     -11.214  14.847  67.548  1.00  0.00    -0.328 A  
HETATM    7  S   UNL     1      -9.652  15.862  69.274  1.00  0.00    -0.264 SA 
HETATM    8  C   UNL     1     -10.575  14.526  68.730  1.00  0.00    -0.248 A  
ENDROOT
BRANCH   6   9
HETATM    9  C   UNL     1     -12.097  13.954  66.746  1.00  0.00    -0.476 C  
BRANCH   9  10
HETATM   10  C   UNL     1     -11.502  12.588  66.451  1.00  0.00    -0.365 C  
HETATM   11  N   UNL     1     -10.324  12.592  65.720  1.00  0.00    -0.274 N  
HETATM   12  O   UNL     1     -12.027  11.595  66.956  1.00  0.00    -0.593 OA 
HETATM   13  H   UNL     1      -9.995  13.494  65.375  1.00  0.00     0.000 HD 
BRANCH  11  14
HETATM   14  C   UNL     1      -9.538  11.463  65.411  1.00  0.00    -0.228 A  
HETATM   15  C   UNL     1      -9.833  10.599  64.357  1.00  0.00    -0.395 A  
HETATM   16  C   UNL     1      -9.095   9.431  64.160  1.00  0.00    -0.132 A  
HETATM   17  C   UNL     1      -8.033   9.106  65.008  1.00  0.00    -0.120 A  
HETATM   18  C   UNL     1      -8.433  11.179  66.221  1.00  0.00    -0.168 A  
HETATM   19  C   UNL     1      -7.695  10.003  66.030  1.00  0.00    -0.110 A  
BRANCH  17  20
HETATM   20  C   UNL     1      -7.305   7.787  64.853  1.00  0.00    -0.070 C  
BRANCH  20  21
HETATM   21  C   UNL     1      -7.053   7.028  66.168  1.00  0.00    -0.073 C  
BRANCH  21  22
HETATM   22  N   UNL     1      -7.464   5.631  66.058  1.00  0.00    -0.081 NA 
HETATM   23  H   UNL     1      -7.459   5.173  66.969  1.00  0.00     0.000 HD 
BRANCH  22  24
HETATM   24  C   UNL     1      -8.766   5.481  65.397  1.00  0.00    -0.148 C  
BRANCH  24  25
HETATM   25  C   UNL     1      -9.924   5.211  66.393  1.00  0.00    -0.213 C  
HETATM   26  O   UNL     1     -11.141   4.977  65.667  1.00  0.00    -0.778 OA 
HETATM   27  H   UNL     1     -11.850   4.812  66.277  1.00  0.00     0.000 HD 
BRANCH  25  28
HETATM   28  C   UNL     1     -10.149   6.278  67.449  1.00  0.00    -0.191 A  
HETATM   29  C   UNL     1     -10.522   7.577  67.073  1.00  0.00    -0.409 A  
HETATM   30  C   UNL     1     -10.659   8.585  68.032  1.00  0.00    -0.197 A  
HETATM   31  C   UNL     1     -10.431   8.306  69.378  1.00  0.00    -0.224 A  
HETATM   32  C   UNL     1     -10.084   7.016  69.770  1.00  0.00    -0.197 A  
HETATM   33  C   UNL     1      -9.944   6.010  68.812  1.00  0.00    -0.186 A  
ENDBRANCH  25  28
ENDBRANCH  24  25
ENDBRANCH  22  24
ENDBRANCH  21  22
ENDBRANCH  20  21
ENDBRANCH  17  20
ENDBRANCH  11  14
ENDBRANCH   9  10
ENDBRANCH   6   9
TORSDOF 9
ENDMDL
MODEL      136
REMARK 921   NORMALIZED FREE ENERGY PREDICTED BY IDOCK:   -4.42 KCAL/MOL
REMARK 922        TOTAL FREE ENERGY PREDICTED BY IDOCK:   -9.19 KCAL/MOL
REMARK 923 INTER-LIGAND FREE ENERGY PREDICTED BY IDOCK:   -8.34 KCAL/MOL
REMARK 924 INTRA-LIGAND FREE ENERGY PREDICTED BY IDOCK:   -0.85 KCAL/MOL
REMARK 927      BINDING AFFINITY PREDICTED BY RF-SCORE:    0.00 PKD
ROOT
HETATM    1  N   UNL     1     -10.179   4.743  65.316  1.00  0.00    -0.419 NA 
HETATM    2  C   UNL     1      -9.591   4.732  66.523  1.00  0.00    -0.175 A  
HETATM    3  H1  UNL     1      -9.665   4.900  64.449  1.00  0.00     0.000 HD 
HETATM    4  H2  UNL     1     -11.185   4.589  65.263  1.00  0.00     0.000 HD 
HETATM    5  N   UNL     1     -10.252   4.531  67.635  1.00  0.00    -0.013 NA 
HETATM    6  C   UNL     1      -9.384   4.569  68.722  1.00  0.00    -0.146 A  
HETATM    7  S   UNL     1      -7.900   4.952  66.696  1.00  0.00    -0.100 SA 
HETATM    8  C   UNL     1      -8.059   4.786  68.394  1.00  0.00    -0.084 A  
ENDROOT
BRANCH   6   9
HETATM    9  C   UNL     1      -9.935   4.357  70.089  1.00  0.00    -0.249 C  
BRANCH   9  10
HETATM   10  C   UNL     1     -10.238   5.639  70.847  1.00  0.00    -0.223 C  
HETATM   11  N   UNL     1     -11.224   6.442  70.296  1.00  0.00    -0.351 N  
HETATM   12  O   UNL     1      -9.685   5.828  71.931  1.00  0.00    -0.158 OA 
HETATM   13  H   UNL     1     -11.608   6.154  69.395  1.00  0.00     0.000 HD 
BRANCH  11  14
HETATM   14  C   UNL     1     -11.746   7.621  70.866  1.00  0.00    -0.271 A  
HETATM   15  C   UNL     1     -12.863   7.631  71.701  1.00  0.00    -0.378 A  
HETATM   16  C   UNL     1     -13.413   8.832  72.149  1.00  0.00    -0.469 A  
HETATM   17  C   UNL     1     -12.848  10.056  71.782  1.00  0.00    -0.546 A  
HETATM   18  C   UNL     1     -11.134   8.840  70.553  1.00  0.00    -0.278 A  
HETATM   19  C   UNL     1     -11.688  10.049  70.995  1.00  0.00    -0.479 A  
BRANCH  17  20
HETATM   20  C   UNL     1     -13.510  11.357  72.186  1.00  0.00    -0.203 C  
BRANCH  20  21
HETATM   21  C   UNL     1     -13.025  12.597  71.413  1.00  0.00    -0.258 C  
BRANCH  21  22
HETATM   22  N   UNL     1     -13.123  13.801  72.233  1.00  0.00    -0.400 NA 
HETATM   23  H   UNL     1     -13.183  13.568  73.224  1.00  0.00     0.000 HD 
BRANCH  22  24
HETATM   24  C   UNL     1     -12.026  14.743  71.977  1.00  0.00    -0.294 C  
BRANCH  24  25
HETATM   25  C   UNL     1     -12.241  15.592  70.698  1.00  0.00    -0.405 C  
HETATM   26  O   UNL     1     -13.631  15.581  70.338  1.00  0.00    -0.806 OA 
HETATM   27  H   UNL     1     -13.763  16.102  69.554  1.00  0.00     0.000 HD 
BRANCH  25  28
HETATM   28  C   UNL     1     -11.394  15.206  69.499  1.00  0.00    -0.301 A  
HETATM   29  C   UNL     1     -10.053  15.613  69.421  1.00  0.00    -0.269 A  
HETATM   30  C   UNL     1      -9.286  15.326  68.288  1.00  0.00    -0.194 A  
HETATM   31  C   UNL     1      -9.847  14.625  67.223  1.00  0.00    -0.231 A  
HETATM   32  C   UNL     1     -11.168  14.194  67.295  1.00  0.00    -0.330 A  
HETATM   33  C   UNL     1     -11.936  14.483  68.425  1.00  0.00    -0.309 A  
ENDBRANCH  25  28
ENDBRANCH  24  25
ENDBRANCH  22  24
ENDBRANCH  21  22
ENDBRANCH  20  21
ENDBRANCH  17  20
ENDBRANCH  11  14
ENDBRANCH   9  10
ENDBRANCH   6   9
TORSDOF 9
ENDMDL
MODEL      137
REMARK 921   NORMALIZED FREE ENERGY PREDICTED BY IDOCK:   -4.40 KCAL/MOL
REMARK 922        TOTAL FREE ENERGY PREDICTED BY IDOCK:   -9.17 KCAL/MOL
REMARK 923 INTER-LIGAND FREE ENERGY PREDICTED BY IDOCK:   -8.17 KCAL/MOL
REMARK 924 INTRA-LIGAND FREE ENERGY PREDICTED BY IDOCK:   -0.99 KCAL/MOL
REMARK 927      BINDING AFFINITY PREDICTED BY RF-SCORE:    0.00 PKD
ROOT
HETATM    1  N   UNL     1      -9.744  20.599  66.638  1.00  0.00    -0.646 NA 
HETATM    2  C   UNL     1      -9.616  19.439  67.303  1.00  0.00    -0.328 A  
HETATM    3  H1  UNL     1      -8.956  21.217  66.443  1.00  0.00     0.000 HD 
HETATM    4  H2  UNL     1     -10.670  20.874  66.314  1.00  0.00     0.000 HD 
HETATM    5  N   UNL     1     -10.628  18.646  67.554  1.00  0.00    -0.423 NA 
HETATM    6  C   UNL     1     -10.195  17.522  68.250  1.00  0.00    -0.365 A  
HETATM    7  S   UNL     1      -8.090  18.888  67.856  1.00  0.00    -0.279 SA 
HETATM    8  C   UNL     1      -8.836  17.487  68.499  1.00  0.00    -0.282 A  
ENDROOT
BRANCH   6   9
HETATM    9  C   UNL     1     -11.193  16.484  68.631  1.00  0.00    -0.297 C  
BRANCH   9  10
HETATM   10  C   UNL     1     -11.004  15.148  67.934  1.00  0.00    -0.302 C  
HETATM   11  N   UNL     1     -10.515  14.122  68.729  1.00  0.00    -0.248 N  
HETATM   12  O   UNL     1     -11.387  15.030  66.770  1.00  0.00    -0.341 OA 
HETATM   13  H   UNL     1     -10.249  14.362  69.684  1.00  0.00     0.000 HD 
BRANCH  11  14
HETATM   14  C   UNL     1     -10.351  12.778  68.336  1.00  0.00    -0.243 A  
HETATM   15  C   UNL     1      -9.190  12.301  67.728  1.00  0.00    -0.191 A  
HETATM   16  C   UNL     1      -9.117  10.991  67.251  1.00  0.00    -0.142 A  
HETATM   17  C   UNL     1     -10.202  10.122  67.385  1.00  0.00    -0.267 A  
HETATM   18  C   UNL     1     -11.415  11.892  68.536  1.00  0.00    -0.349 A  
HETATM   19  C   UNL     1     -11.347  10.578  68.052  1.00  0.00    -0.319 A  
BRANCH  17  20
HETATM   20  C   UNL     1     -10.154   8.737  66.774  1.00  0.00    -0.359 C  
BRANCH  20  21
HETATM   21  C   UNL     1      -9.003   7.848  67.275  1.00  0.00    -0.127 C  
BRANCH  21  22
HETATM   22  N   UNL     1      -8.974   7.794  68.734  1.00  0.00    -0.141 NA 
HETATM   23  H   UNL     1      -8.811   8.718  69.133  1.00  0.00     0.000 HD 
BRANCH  22  24
HETATM   24  C   UNL     1     -10.185   7.181  69.295  1.00  0.00    -0.190 C  
BRANCH  24  25
HETATM   25  C   UNL     1     -10.642   7.843  70.620  1.00  0.00    -0.219 C  
HETATM   26  O   UNL     1      -9.868   9.029  70.860  1.00  0.00    -0.218 OA 
HETATM   27  H   UNL     1     -10.148   9.434  71.673  1.00  0.00     0.000 HD 
BRANCH  25  28
HETATM   28  C   UNL     1     -10.614   6.950  71.848  1.00  0.00    -0.236 A  
HETATM   29  C   UNL     1     -10.383   7.501  73.117  1.00  0.00    -0.402 A  
HETATM   30  C   UNL     1     -10.282   6.679  74.243  1.00  0.00    -0.354 A  
HETATM   31  C   UNL     1     -10.417   5.298  74.116  1.00  0.00    -0.319 A  
HETATM   32  C   UNL     1     -10.671   4.739  72.868  1.00  0.00    -0.297 A  
HETATM   33  C   UNL     1     -10.769   5.559  71.742  1.00  0.00    -0.289 A  
ENDBRANCH  25  28
ENDBRANCH  24  25
ENDBRANCH  22  24
ENDBRANCH  21  22
ENDBRANCH  20  21
ENDBRANCH  17  20
ENDBRANCH  11  14
ENDBRANCH   9  10
ENDBRANCH   6   9
TORSDOF 9
ENDMDL
MODEL      138
REMARK 921   NORMALIZED FREE ENERGY PREDICTED BY IDOCK:   -4.40 KCAL/MOL
REMARK 922        TOTAL FREE ENERGY PREDICTED BY IDOCK:   -9.16 KCAL/MOL
REMARK 923 INTER-LIGAND FREE ENERGY PREDICTED BY IDOCK:   -8.44 KCAL/MOL
REMARK 924 INTRA-LIGAND FREE ENERGY PREDICTED BY IDOCK:   -0.72 KCAL/MOL
REMARK 927      BINDING AFFINITY PREDICTED BY RF-SCORE:    0.00 PKD
ROOT
HETATM    1  N   UNL     1      -8.782   7.556  74.377  1.00  0.00    -0.353 NA 
HETATM    2  C   UNL     1      -9.821   6.993  73.738  1.00  0.00    -0.303 A  
HETATM    3  H1  UNL     1      -8.093   7.016  74.901  1.00  0.00     0.000 HD 
HETATM    4  H2  UNL     1      -8.677   8.569  74.336  1.00  0.00     0.000 HD 
HETATM    5  N   UNL     1     -10.705   7.687  73.066  1.00  0.00    -0.369 NA 
HETATM    6  C   UNL     1     -11.657   6.839  72.511  1.00  0.00    -0.197 A  
HETATM    7  S   UNL     1     -10.053   5.294  73.732  1.00  0.00    -0.219 SA 
HETATM    8  C   UNL     1     -11.455   5.497  72.770  1.00  0.00    -0.280 A  
ENDROOT
BRANCH   6   9
HETATM    9  C   UNL     1     -12.757   7.429  71.697  1.00  0.00    -0.399 C  
BRANCH   9  10
HETATM   10  C   UNL     1     -12.473   8.830  71.183  1.00  0.00    -0.193 C  
HETATM   11  N   UNL     1     -11.505   8.921  70.194  1.00  0.00    -0.448 N  
HETATM   12  O   UNL     1     -13.174   9.759  71.585  1.00  0.00    -0.371 OA 
HETATM   13  H   UNL     1     -11.010   8.063  69.949  1.00  0.00     0.000 HD 
BRANCH  11  14
HETATM   14  C   UNL     1     -11.143  10.091  69.496  1.00  0.00    -0.238 A  
HETATM   15  C   UNL     1      -9.824  10.398  69.162  1.00  0.00    -0.237 A  
HETATM   16  C   UNL     1      -9.499  11.622  68.575  1.00  0.00    -0.175 A  
HETATM   17  C   UNL     1     -10.492  12.564  68.295  1.00  0.00    -0.243 A  
HETATM   18  C   UNL     1     -12.149  11.001  69.155  1.00  0.00    -0.333 A  
HETATM   19  C   UNL     1     -11.825  12.234  68.572  1.00  0.00    -0.359 A  
BRANCH  17  20
HETATM   20  C   UNL     1     -10.121  13.930  67.755  1.00  0.00    -0.241 C  
BRANCH  20  21
HETATM   21  C   UNL     1      -8.877  13.951  66.850  1.00  0.00    -0.193 C  
BRANCH  21  22
HETATM   22  N   UNL     1      -8.568  15.309  66.409  1.00  0.00    -0.434 NA 
HETATM   23  H   UNL     1      -9.339  15.946  66.610  1.00  0.00     0.000 HD 
BRANCH  22  24
HETATM   24  C   UNL     1      -7.309  15.808  66.976  1.00  0.00    -0.191 C  
BRANCH  24  25
HETATM   25  C   UNL     1      -7.521  16.855  68.099  1.00  0.00    -0.178 C  
HETATM   26  O   UNL     1      -7.919  16.192  69.309  1.00  0.00    -0.235 OA 
HETATM   27  H   UNL     1      -8.049  16.834  69.998  1.00  0.00     0.000 HD 
BRANCH  25  28
HETATM   28  C   UNL     1      -8.494  17.976  67.781  1.00  0.00    -0.247 A  
HETATM   29  C   UNL     1      -9.808  17.932  68.272  1.00  0.00    -0.348 A  
HETATM   30  C   UNL     1     -10.732  18.922  67.924  1.00  0.00    -0.362 A  
HETATM   31  C   UNL     1     -10.353  19.970  67.087  1.00  0.00    -0.554 A  
HETATM   32  C   UNL     1      -9.048  20.040  66.611  1.00  0.00    -0.463 A  
HETATM   33  C   UNL     1      -8.125  19.051  66.956  1.00  0.00    -0.279 A  
ENDBRANCH  25  28
ENDBRANCH  24  25
ENDBRANCH  22  24
ENDBRANCH  21  22
ENDBRANCH  20  21
ENDBRANCH  17  20
ENDBRANCH  11  14
ENDBRANCH   9  10
ENDBRANCH   6   9
TORSDOF 9
ENDMDL
MODEL      139
REMARK 921   NORMALIZED FREE ENERGY PREDICTED BY IDOCK:   -4.37 KCAL/MOL
REMARK 922        TOTAL FREE ENERGY PREDICTED BY IDOCK:   -9.12 KCAL/MOL
REMARK 923 INTER-LIGAND FREE ENERGY PREDICTED BY IDOCK:   -7.24 KCAL/MOL
REMARK 924 INTRA-LIGAND FREE ENERGY PREDICTED BY IDOCK:   -1.88 KCAL/MOL
REMARK 927      BINDING AFFINITY PREDICTED BY RF-SCORE:    0.00 PKD
ROOT
HETATM    1  N   UNL     1     -12.531  14.715  63.470  1.00  0.00    -1.016 NA 
HETATM    2  C   UNL     1     -11.914  13.948  64.383  1.00  0.00    -0.450 A  
HETATM    3  H1  UNL     1     -12.883  15.650  63.676  1.00  0.00     0.000 HD 
HETATM    4  H2  UNL     1     -12.653  14.346  62.527  1.00  0.00     0.000 HD 
HETATM    5  N   UNL     1     -11.463  12.747  64.119  1.00  0.00    -0.365 NA 
HETATM    6  C   UNL     1     -10.871  12.198  65.251  1.00  0.00    -0.293 A  
HETATM    7  S   UNL     1     -11.642  14.504  65.982  1.00  0.00    -0.335 SA 
HETATM    8  C   UNL     1     -10.876  13.020  66.361  1.00  0.00    -0.278 A  
ENDROOT
BRANCH   6   9
HETATM    9  C   UNL     1     -10.285  10.831  65.163  1.00  0.00    -0.365 C  
BRANCH   9  10
HETATM   10  C   UNL     1      -9.367  10.467  66.318  1.00  0.00    -0.170 C  
HETATM   11  N   UNL     1      -9.955   9.747  67.346  1.00  0.00    -0.180 N  
HETATM   12  O   UNL     1      -8.168  10.731  66.223  1.00  0.00    -0.150 OA 
HETATM   13  H   UNL     1     -10.961   9.588  67.286  1.00  0.00     0.000 HD 
BRANCH  11  14
HETATM   14  C   UNL     1      -9.288   9.213  68.468  1.00  0.00    -0.135 A  
HETATM   15  C   UNL     1      -8.483   8.077  68.403  1.00  0.00    -0.127 A  
HETATM   16  C   UNL     1      -7.937   7.517  69.559  1.00  0.00    -0.126 A  
HETATM   17  C   UNL     1      -8.174   8.092  70.810  1.00  0.00    -0.111 A  
HETATM   18  C   UNL     1      -9.471   9.834  69.709  1.00  0.00    -0.253 A  
HETATM   19  C   UNL     1      -8.930   9.270  70.873  1.00  0.00    -0.273 A  
BRANCH  17  20
HETATM   20  C   UNL     1      -7.665   7.422  72.070  1.00  0.00    -0.090 C  
BRANCH  20  21
HETATM   21  C   UNL     1      -7.048   6.029  71.857  1.00  0.00    -0.086 C  
BRANCH  21  22
HETATM   22  N   UNL     1      -7.763   5.012  72.624  1.00  0.00    -0.095 NA 
HETATM   23  H   UNL     1      -8.691   5.339  72.893  1.00  0.00     0.000 HD 
BRANCH  22  24
HETATM   24  C   UNL     1      -7.838   3.728  71.916  1.00  0.00    -0.063 C  
BRANCH  24  25
HETATM   25  C   UNL     1      -9.264   3.402  71.402  1.00  0.00    -0.123 C  
HETATM   26  O   UNL     1      -9.177   2.665  70.172  1.00  0.00    -0.109 OA 
HETATM   27  H   UNL     1     -10.051   2.464  69.858  1.00  0.00     0.000 HD 
BRANCH  25  28
HETATM   28  C   UNL     1     -10.191   4.590  71.228  1.00  0.00    -0.167 A  
HETATM   29  C   UNL     1     -10.378   5.161  69.960  1.00  0.00    -0.347 A  
HETATM   30  C   UNL     1     -11.172   6.301  69.801  1.00  0.00    -0.499 A  
HETATM   31  C   UNL     1     -11.793   6.880  70.905  1.00  0.00    -0.424 A  
HETATM   32  C   UNL     1     -11.637   6.313  72.166  1.00  0.00    -0.367 A  
HETATM   33  C   UNL     1     -10.842   5.176  72.326  1.00  0.00    -0.241 A  
ENDBRANCH  25  28
ENDBRANCH  24  25
ENDBRANCH  22  24
ENDBRANCH  21  22
ENDBRANCH  20  21
ENDBRANCH  17  20
ENDBRANCH  11  14
ENDBRANCH   9  10
ENDBRANCH   6   9
TORSDOF 9
ENDMDL
MODEL      140
REMARK 921   NORMALIZED FREE ENERGY PREDICTED BY IDOCK:   -4.35 KCAL/MOL
REMARK 922        TOTAL FREE ENERGY PREDICTED BY IDOCK:   -9.08 KCAL/MOL
REMARK 923 INTER-LIGAND FREE ENERGY PREDICTED BY IDOCK:   -7.55 KCAL/MOL
REMARK 924 INTRA-LIGAND FREE ENERGY PREDICTED BY IDOCK:   -1.53 KCAL/MOL
REMARK 927      BINDING AFFINITY PREDICTED BY RF-SCORE:    0.00 PKD
ROOT
HETATM    1  N   UNL     1      -9.921   4.924  71.549  1.00  0.00    -0.186 NA 
HETATM    2  C   UNL     1      -9.162   5.982  71.877  1.00  0.00    -0.150 A  
HETATM    3  H1  UNL     1     -10.507   4.430  72.223  1.00  0.00     0.000 HD 
HETATM    4  H2  UNL     1      -9.911   4.598  70.583  1.00  0.00     0.000 HD 
HETATM    5  N   UNL     1      -8.410   6.615  71.013  1.00  0.00    -0.124 NA 
HETATM    6  C   UNL     1      -7.746   7.667  71.635  1.00  0.00    -0.086 A  
HETATM    7  S   UNL     1      -9.145   6.610  73.472  1.00  0.00    -0.134 SA 
HETATM    8  C   UNL     1      -8.031   7.814  72.979  1.00  0.00    -0.126 A  
ENDROOT
BRANCH   6   9
HETATM    9  C   UNL     1      -6.837   8.523  70.823  1.00  0.00    -0.044 C  
BRANCH   9  10
HETATM   10  C   UNL     1      -7.531   9.668  70.105  1.00  0.00    -0.153 C  
HETATM   11  N   UNL     1      -8.483   9.297  69.167  1.00  0.00    -0.128 N  
HETATM   12  O   UNL     1      -7.293  10.821  70.466  1.00  0.00     0.043 OA 
HETATM   13  H   UNL     1      -8.585   8.300  68.978  1.00  0.00     0.000 HD 
BRANCH  11  14
HETATM   14  C   UNL     1      -9.323  10.174  68.451  1.00  0.00    -0.136 A  
HETATM   15  C   UNL     1     -10.659  10.389  68.788  1.00  0.00    -0.232 A  
HETATM   16  C   UNL     1     -11.485  11.175  67.983  1.00  0.00    -0.366 A  
HETATM   17  C   UNL     1     -10.986  11.778  66.825  1.00  0.00    -0.336 A  
HETATM   18  C   UNL     1      -8.801  10.832  67.332  1.00  0.00    -0.129 A  
HETATM   19  C   UNL     1      -9.629  11.617  66.517  1.00  0.00    -0.226 A  
BRANCH  17  20
HETATM   20  C   UNL     1     -11.911  12.544  65.901  1.00  0.00    -0.489 C  
BRANCH  20  21
HETATM   21  C   UNL     1     -12.345  13.926  66.420  1.00  0.00    -0.426 C  
BRANCH  21  22
HETATM   22  N   UNL     1     -11.219  14.648  67.004  1.00  0.00    -0.334 NA 
HETATM   23  H   UNL     1     -10.713  15.177  66.294  1.00  0.00     0.000 HD 
BRANCH  22  24
HETATM   24  C   UNL     1     -11.626  15.513  68.119  1.00  0.00    -0.304 C  
BRANCH  24  25
HETATM   25  C   UNL     1     -11.154  14.988  69.499  1.00  0.00    -0.277 C  
HETATM   26  O   UNL     1     -10.241  13.894  69.313  1.00  0.00    -0.431 OA 
HETATM   27  H   UNL     1      -9.952  13.573  70.159  1.00  0.00     0.000 HD 
BRANCH  25  28
HETATM   28  C   UNL     1     -12.254  14.585  70.463  1.00  0.00    -0.399 A  
HETATM   29  C   UNL     1     -13.313  15.464  70.734  1.00  0.00    -0.385 A  
HETATM   30  C   UNL     1     -14.292  15.133  71.676  1.00  0.00    -0.685 A  
HETATM   31  C   UNL     1     -14.226  13.917  72.355  1.00  0.00    -0.506 A  
HETATM   32  C   UNL     1     -13.195  13.024  72.081  1.00  0.00    -0.558 A  
HETATM   33  C   UNL     1     -12.216  13.355  71.142  1.00  0.00    -0.243 A  
ENDBRANCH  25  28
ENDBRANCH  24  25
ENDBRANCH  22  24
ENDBRANCH  21  22
ENDBRANCH  20  21
ENDBRANCH  17  20
ENDBRANCH  11  14
ENDBRANCH   9  10
ENDBRANCH   6   9
TORSDOF 9
ENDMDL
MODEL      141
REMARK 921   NORMALIZED FREE ENERGY PREDICTED BY IDOCK:   -4.33 KCAL/MOL
REMARK 922        TOTAL FREE ENERGY PREDICTED BY IDOCK:   -9.05 KCAL/MOL
REMARK 923 INTER-LIGAND FREE ENERGY PREDICTED BY IDOCK:   -8.27 KCAL/MOL
REMARK 924 INTRA-LIGAND FREE ENERGY PREDICTED BY IDOCK:   -0.79 KCAL/MOL
REMARK 927      BINDING AFFINITY PREDICTED BY RF-SCORE:    0.00 PKD
ROOT
HETATM    1  N   UNL     1      -9.828   3.416  65.459  1.00  0.00    -0.388 NA 
HETATM    2  C   UNL     1      -9.472   3.615  66.739  1.00  0.00    -0.179 A  
HETATM    3  H1  UNL     1      -9.495   2.626  64.906  1.00  0.00     0.000 HD 
HETATM    4  H2  UNL     1     -10.459   4.085  65.019  1.00  0.00     0.000 HD 
HETATM    5  N   UNL     1      -9.899   4.629  67.448  1.00  0.00    -0.176 NA 
HETATM    6  C   UNL     1      -9.371   4.571  68.733  1.00  0.00    -0.146 A  
HETATM    7  S   UNL     1      -8.440   2.520  67.560  1.00  0.00    -0.102 SA 
HETATM    8  C   UNL     1      -8.554   3.483  68.972  1.00  0.00    -0.082 A  
ENDROOT
BRANCH   6   9
HETATM    9  C   UNL     1      -9.738   5.636  69.709  1.00  0.00    -0.220 C  
BRANCH   9  10
HETATM   10  C   UNL     1     -10.537   6.783  69.113  1.00  0.00    -0.232 C  
HETATM   11  N   UNL     1      -9.791   7.773  68.493  1.00  0.00    -0.167 N  
HETATM   12  O   UNL     1     -11.766   6.711  69.120  1.00  0.00    -0.136 OA 
HETATM   13  H   UNL     1      -8.776   7.696  68.554  1.00  0.00     0.000 HD 
BRANCH  11  14
HETATM   14  C   UNL     1     -10.308   8.878  67.786  1.00  0.00    -0.242 A  
HETATM   15  C   UNL     1     -10.052   9.101  66.433  1.00  0.00    -0.345 A  
HETATM   16  C   UNL     1     -10.488  10.267  65.804  1.00  0.00    -0.159 A  
HETATM   17  C   UNL     1     -11.206  11.234  66.512  1.00  0.00    -0.222 A  
HETATM   18  C   UNL     1     -11.086   9.809  68.482  1.00  0.00    -0.138 A  
HETATM   19  C   UNL     1     -11.520  10.985  67.854  1.00  0.00    -0.358 A  
BRANCH  17  20
HETATM   20  C   UNL     1     -11.586  12.543  65.851  1.00  0.00    -0.454 C  
BRANCH  20  21
HETATM   21  C   UNL     1     -10.486  13.169  64.976  1.00  0.00    -0.342 C  
BRANCH  21  22
HETATM   22  N   UNL     1      -9.571  13.979  65.776  1.00  0.00    -0.515 NA 
HETATM   23  H   UNL     1      -8.602  13.824  65.497  1.00  0.00     0.000 HD 
BRANCH  22  24
HETATM   24  C   UNL     1      -9.910  15.406  65.741  1.00  0.00    -0.364 C  
BRANCH  24  25
HETATM   25  C   UNL     1     -10.182  16.001  67.147  1.00  0.00    -0.278 C  
HETATM   26  O   UNL     1     -11.365  15.407  67.703  1.00  0.00    -0.331 OA 
HETATM   27  H   UNL     1     -11.531  15.771  68.564  1.00  0.00     0.000 HD 
BRANCH  25  28
HETATM   28  C   UNL     1     -10.282  17.514  67.215  1.00  0.00    -0.335 A  
HETATM   29  C   UNL     1     -10.422  18.267  66.040  1.00  0.00    -0.380 A  
HETATM   30  C   UNL     1     -10.441  19.664  66.086  1.00  0.00    -0.624 A  
HETATM   31  C   UNL     1     -10.326  20.325  67.307  1.00  0.00    -0.420 A  
HETATM   32  C   UNL     1     -10.210  19.593  68.484  1.00  0.00    -0.529 A  
HETATM   33  C   UNL     1     -10.188  18.197  68.439  1.00  0.00    -0.401 A  
ENDBRANCH  25  28
ENDBRANCH  24  25
ENDBRANCH  22  24
ENDBRANCH  21  22
ENDBRANCH  20  21
ENDBRANCH  17  20
ENDBRANCH  11  14
ENDBRANCH   9  10
ENDBRANCH   6   9
TORSDOF 9
ENDMDL
MODEL      142
REMARK 921   NORMALIZED FREE ENERGY PREDICTED BY IDOCK:   -4.32 KCAL/MOL
REMARK 922        TOTAL FREE ENERGY PREDICTED BY IDOCK:   -9.04 KCAL/MOL
REMARK 923 INTER-LIGAND FREE ENERGY PREDICTED BY IDOCK:   -7.87 KCAL/MOL
REMARK 924 INTRA-LIGAND FREE ENERGY PREDICTED BY IDOCK:   -1.17 KCAL/MOL
REMARK 927      BINDING AFFINITY PREDICTED BY RF-SCORE:    0.00 PKD
ROOT
HETATM    1  N   UNL     1     -11.954   6.313  72.261  1.00  0.00    -0.468 NA 
HETATM    2  C   UNL     1     -11.250   6.081  71.141  1.00  0.00    -0.261 A  
HETATM    3  H1  UNL     1     -11.676   5.959  73.176  1.00  0.00     0.000 HD 
HETATM    4  H2  UNL     1     -12.806   6.869  72.193  1.00  0.00     0.000 HD 
HETATM    5  N   UNL     1     -11.608   6.535  69.967  1.00  0.00    -0.417 NA 
HETATM    6  C   UNL     1     -10.688   6.142  69.000  1.00  0.00    -0.312 A  
HETATM    7  S   UNL     1      -9.790   5.181  71.173  1.00  0.00    -0.196 SA 
HETATM    8  C   UNL     1      -9.628   5.397  69.482  1.00  0.00    -0.149 A  
ENDROOT
BRANCH   6   9
HETATM    9  C   UNL     1     -10.907   6.561  67.587  1.00  0.00    -0.419 C  
BRANCH   9  10
HETATM   10  C   UNL     1     -10.660   8.038  67.328  1.00  0.00    -0.290 C  
HETATM   11  N   UNL     1     -11.081   8.901  68.328  1.00  0.00    -0.446 N  
HETATM   12  O   UNL     1     -10.022   8.361  66.325  1.00  0.00    -0.245 OA 
HETATM   13  H   UNL     1     -11.587   8.490  69.112  1.00  0.00     0.000 HD 
BRANCH  11  14
HETATM   14  C   UNL     1     -10.872  10.295  68.360  1.00  0.00    -0.245 A  
HETATM   15  C   UNL     1     -11.888  11.219  68.120  1.00  0.00    -0.276 A  
HETATM   16  C   UNL     1     -11.612  12.585  68.046  1.00  0.00    -0.395 A  
HETATM   17  C   UNL     1     -10.310  13.060  68.226  1.00  0.00    -0.256 A  
HETATM   18  C   UNL     1      -9.580  10.769  68.610  1.00  0.00    -0.187 A  
HETATM   19  C   UNL     1      -9.298  12.140  68.530  1.00  0.00    -0.108 A  
BRANCH  17  20
HETATM   20  C   UNL     1      -9.999  14.531  68.042  1.00  0.00    -0.222 C  
BRANCH  20  21
HETATM   21  C   UNL     1     -10.914  15.267  67.048  1.00  0.00    -0.324 C  
BRANCH  21  22
HETATM   22  N   UNL     1     -10.180  15.664  65.850  1.00  0.00    -0.325 NA 
HETATM   23  H   UNL     1     -10.333  15.004  65.088  1.00  0.00     0.000 HD 
BRANCH  22  24
HETATM   24  C   UNL     1     -10.493  17.036  65.431  1.00  0.00    -0.112 C  
BRANCH  24  25
HETATM   25  C   UNL     1     -10.337  18.071  66.575  1.00  0.00    -0.373 C  
HETATM   26  O   UNL     1     -10.936  19.316  66.185  1.00  0.00    -0.294 OA 
HETATM   27  H   UNL     1     -10.840  19.950  66.886  1.00  0.00     0.000 HD 
BRANCH  25  28
HETATM   28  C   UNL     1      -8.918  18.309  67.060  1.00  0.00    -0.274 A  
HETATM   29  C   UNL     1      -8.623  18.262  68.430  1.00  0.00    -0.315 A  
HETATM   30  C   UNL     1      -7.336  18.553  68.893  1.00  0.00    -0.289 A  
HETATM   31  C   UNL     1      -6.328  18.888  67.991  1.00  0.00    -0.220 A  
HETATM   32  C   UNL     1      -6.599  18.916  66.627  1.00  0.00    -0.208 A  
HETATM   33  C   UNL     1      -7.884  18.628  66.164  1.00  0.00    -0.246 A  
ENDBRANCH  25  28
ENDBRANCH  24  25
ENDBRANCH  22  24
ENDBRANCH  21  22
ENDBRANCH  20  21
ENDBRANCH  17  20
ENDBRANCH  11  14
ENDBRANCH   9  10
ENDBRANCH   6   9
TORSDOF 9
ENDMDL
MODEL      143
REMARK 921   NORMALIZED FREE ENERGY PREDICTED BY IDOCK:   -4.31 KCAL/MOL
REMARK 922        TOTAL FREE ENERGY PREDICTED BY IDOCK:   -9.02 KCAL/MOL
REMARK 923 INTER-LIGAND FREE ENERGY PREDICTED BY IDOCK:   -7.24 KCAL/MOL
REMARK 924 INTRA-LIGAND FREE ENERGY PREDICTED BY IDOCK:   -1.78 KCAL/MOL
REMARK 927      BINDING AFFINITY PREDICTED BY RF-SCORE:    0.00 PKD
ROOT
HETATM    1  N   UNL     1      -6.266  19.961  65.148  1.00  0.00    -0.239 NA 
HETATM    2  C   UNL     1      -7.138  19.772  66.151  1.00  0.00    -0.269 A  
HETATM    3  H1  UNL     1      -5.295  20.234  65.300  1.00  0.00     0.000 HD 
HETATM    4  H2  UNL     1      -6.589  19.826  64.190  1.00  0.00     0.000 HD 
HETATM    5  N   UNL     1      -8.384  19.422  65.956  1.00  0.00    -0.443 NA 
HETATM    6  C   UNL     1      -9.044  19.297  67.174  1.00  0.00    -0.299 A  
HETATM    7  S   UNL     1      -6.668  19.949  67.791  1.00  0.00    -0.253 SA 
HETATM    8  C   UNL     1      -8.258  19.545  68.283  1.00  0.00    -0.338 A  
ENDROOT
BRANCH   6   9
HETATM    9  C   UNL     1     -10.479  18.898  67.176  1.00  0.00    -0.509 C  
BRANCH   9  10
HETATM   10  C   UNL     1     -10.721  17.432  67.489  1.00  0.00    -0.278 C  
HETATM   11  N   UNL     1     -10.697  16.574  66.400  1.00  0.00    -0.210 N  
HETATM   12  O   UNL     1     -10.813  17.088  68.669  1.00  0.00    -0.338 OA 
HETATM   13  H   UNL     1     -10.598  16.999  65.478  1.00  0.00     0.000 HD 
BRANCH  11  14
HETATM   14  C   UNL     1     -10.795  15.169  66.451  1.00  0.00    -0.326 A  
HETATM   15  C   UNL     1     -11.999  14.500  66.665  1.00  0.00    -0.358 A  
HETATM   16  C   UNL     1     -12.031  13.114  66.824  1.00  0.00    -0.434 A  
HETATM   17  C   UNL     1     -10.855  12.361  66.758  1.00  0.00    -0.283 A  
HETATM   18  C   UNL     1      -9.624  14.415  66.314  1.00  0.00    -0.321 A  
HETATM   19  C   UNL     1      -9.652  13.023  66.481  1.00  0.00    -0.260 A  
BRANCH  17  20
HETATM   20  C   UNL     1     -10.882  10.872  67.034  1.00  0.00    -0.323 C  
BRANCH  20  21
HETATM   21  C   UNL     1     -11.357  10.485  68.446  1.00  0.00    -0.262 C  
BRANCH  21  22
HETATM   22  N   UNL     1     -11.088   9.077  68.725  1.00  0.00    -0.442 NA 
HETATM   23  H   UNL     1     -11.028   8.535  67.863  1.00  0.00     0.000 HD 
BRANCH  22  24
HETATM   24  C   UNL     1      -9.889   8.889  69.551  1.00  0.00    -0.180 C  
BRANCH  24  25
HETATM   25  C   UNL     1      -8.646   8.460  68.730  1.00  0.00    -0.135 C  
HETATM   26  O   UNL     1      -7.837   7.566  69.509  1.00  0.00    -0.114 OA 
HETATM   27  H   UNL     1      -7.076   7.303  69.005  1.00  0.00     0.000 HD 
BRANCH  25  28
HETATM   28  C   UNL     1      -7.792   9.591  68.187  1.00  0.00    -0.083 A  
HETATM   29  C   UNL     1      -7.499  10.703  68.990  1.00  0.00    -0.117 A  
HETATM   30  C   UNL     1      -6.775  11.783  68.475  1.00  0.00    -0.070 A  
HETATM   31  C   UNL     1      -6.330  11.761  67.155  1.00  0.00    -0.145 A  
HETATM   32  C   UNL     1      -6.592  10.655  66.353  1.00  0.00    -0.120 A  
HETATM   33  C   UNL     1      -7.317   9.577  66.865  1.00  0.00    -0.087 A  
ENDBRANCH  25  28
ENDBRANCH  24  25
ENDBRANCH  22  24
ENDBRANCH  21  22
ENDBRANCH  20  21
ENDBRANCH  17  20
ENDBRANCH  11  14
ENDBRANCH   9  10
ENDBRANCH   6   9
TORSDOF 9
ENDMDL
MODEL      144
REMARK 921   NORMALIZED FREE ENERGY PREDICTED BY IDOCK:   -4.29 KCAL/MOL
REMARK 922        TOTAL FREE ENERGY PREDICTED BY IDOCK:   -8.99 KCAL/MOL
REMARK 923 INTER-LIGAND FREE ENERGY PREDICTED BY IDOCK:   -7.79 KCAL/MOL
REMARK 924 INTRA-LIGAND FREE ENERGY PREDICTED BY IDOCK:   -1.20 KCAL/MOL
REMARK 927      BINDING AFFINITY PREDICTED BY RF-SCORE:    0.00 PKD
ROOT
HETATM    1  N   UNL     1      -9.578   3.141  67.407  1.00  0.00    -0.352 NA 
HETATM    2  C   UNL     1      -9.271   4.446  67.493  1.00  0.00    -0.143 A  
HETATM    3  H1  UNL     1      -9.537   2.508  68.206  1.00  0.00     0.000 HD 
HETATM    4  H2  UNL     1      -9.866   2.767  66.504  1.00  0.00     0.000 HD 
HETATM    5  N   UNL     1      -9.324   5.259  66.468  1.00  0.00    -0.137 NA 
HETATM    6  C   UNL     1      -8.958   6.544  66.856  1.00  0.00    -0.126 A  
HETATM    7  S   UNL     1      -8.808   5.160  68.981  1.00  0.00    -0.093 SA 
HETATM    8  C   UNL     1      -8.646   6.674  68.196  1.00  0.00    -0.115 A  
ENDROOT
BRANCH   6   9
HETATM    9  C   UNL     1      -8.956   7.629  65.836  1.00  0.00    -0.144 C  
BRANCH   9  10
HETATM   10  C   UNL     1      -9.558   8.939  66.315  1.00  0.00    -0.260 C  
HETATM   11  N   UNL     1      -8.871  10.085  65.944  1.00  0.00    -0.140 N  
HETATM   12  O   UNL     1     -10.646   8.912  66.892  1.00  0.00    -0.263 OA 
HETATM   13  H   UNL     1      -7.986   9.957  65.454  1.00  0.00     0.000 HD 
BRANCH  11  14
HETATM   14  C   UNL     1      -9.286  11.412  66.182  1.00  0.00    -0.210 A  
HETATM   15  C   UNL     1     -10.300  12.032  65.453  1.00  0.00    -0.301 A  
HETATM   16  C   UNL     1     -10.597  13.382  65.645  1.00  0.00    -0.286 A  
HETATM   17  C   UNL     1      -9.894  14.141  66.584  1.00  0.00    -0.289 A  
HETATM   18  C   UNL     1      -8.626  12.148  67.172  1.00  0.00    -0.185 A  
HETATM   19  C   UNL     1      -8.918  13.506  67.362  1.00  0.00    -0.219 A  
BRANCH  17  20
HETATM   20  C   UNL     1     -10.151  15.628  66.714  1.00  0.00    -0.277 C  
BRANCH  20  21
HETATM   21  C   UNL     1      -9.924  16.203  68.123  1.00  0.00    -0.230 C  
BRANCH  21  22
HETATM   22  N   UNL     1     -11.192  16.514  68.776  1.00  0.00    -0.315 NA 
HETATM   23  H   UNL     1     -11.701  17.237  68.267  1.00  0.00     0.000 HD 
BRANCH  22  24
HETATM   24  C   UNL     1     -12.025  15.323  68.978  1.00  0.00    -0.276 C  
BRANCH  24  25
HETATM   25  C   UNL     1     -11.950  14.767  70.423  1.00  0.00    -0.309 C  
HETATM   26  O   UNL     1     -10.688  15.117  71.011  1.00  0.00    -0.532 OA 
HETATM   27  H   UNL     1     -10.642  14.776  71.897  1.00  0.00     0.000 HD 
BRANCH  25  28
HETATM   28  C   UNL     1     -12.193  13.276  70.570  1.00  0.00    -0.416 A  
HETATM   29  C   UNL     1     -12.985  12.789  71.621  1.00  0.00    -0.402 A  
HETATM   30  C   UNL     1     -13.153  11.414  71.808  1.00  0.00    -0.523 A  
HETATM   31  C   UNL     1     -12.539  10.509  70.945  1.00  0.00    -0.493 A  
HETATM   32  C   UNL     1     -11.770  10.976  69.884  1.00  0.00    -0.424 A  
HETATM   33  C   UNL     1     -11.598  12.350  69.697  1.00  0.00    -0.330 A  
ENDBRANCH  25  28
ENDBRANCH  24  25
ENDBRANCH  22  24
ENDBRANCH  21  22
ENDBRANCH  20  21
ENDBRANCH  17  20
ENDBRANCH  11  14
ENDBRANCH   9  10
ENDBRANCH   6   9
TORSDOF 9
ENDMDL
MODEL      145
REMARK 921   NORMALIZED FREE ENERGY PREDICTED BY IDOCK:   -4.28 KCAL/MOL
REMARK 922        TOTAL FREE ENERGY PREDICTED BY IDOCK:   -8.97 KCAL/MOL
REMARK 923 INTER-LIGAND FREE ENERGY PREDICTED BY IDOCK:   -6.69 KCAL/MOL
REMARK 924 INTRA-LIGAND FREE ENERGY PREDICTED BY IDOCK:   -2.29 KCAL/MOL
REMARK 927      BINDING AFFINITY PREDICTED BY RF-SCORE:    0.00 PKD
ROOT
HETATM    1  N   UNL     1     -10.038   8.476  65.928  1.00  0.00    -0.358 NA 
HETATM    2  C   UNL     1      -9.210   7.891  66.809  1.00  0.00    -0.166 A  
HETATM    3  H1  UNL     1     -10.663   7.948  65.318  1.00  0.00     0.000 HD 
HETATM    4  H2  UNL     1     -10.041   9.493  65.864  1.00  0.00     0.000 HD 
HETATM    5  N   UNL     1      -8.408   8.568  67.591  1.00  0.00    -0.128 NA 
HETATM    6  C   UNL     1      -7.678   7.700  68.397  1.00  0.00    -0.119 A  
HETATM    7  S   UNL     1      -9.165   6.188  67.000  1.00  0.00    -0.126 SA 
HETATM    8  C   UNL     1      -7.965   6.362  68.210  1.00  0.00    -0.106 A  
ENDROOT
BRANCH   6   9
HETATM    9  C   UNL     1      -6.704   8.271  69.369  1.00  0.00    -0.042 C  
BRANCH   9  10
HETATM   10  C   UNL     1      -6.931   9.737  69.695  1.00  0.00    -0.078 C  
HETATM   11  N   UNL     1      -6.645  10.630  68.673  1.00  0.00    -0.055 N  
HETATM   12  O   UNL     1      -7.444  10.029  70.776  1.00  0.00    -0.298 OA 
HETATM   13  H   UNL     1      -6.235  10.244  67.822  1.00  0.00     0.000 HD 
BRANCH  11  14
HETATM   14  C   UNL     1      -6.869  12.021  68.703  1.00  0.00    -0.091 A  
HETATM   15  C   UNL     1      -6.106  12.896  69.476  1.00  0.00    -0.117 A  
HETATM   16  C   UNL     1      -6.437  14.249  69.565  1.00  0.00    -0.132 A  
HETATM   17  C   UNL     1      -7.534  14.762  68.869  1.00  0.00    -0.137 A  
HETATM   18  C   UNL     1      -7.926  12.542  67.948  1.00  0.00    -0.157 A  
HETATM   19  C   UNL     1      -8.265  13.899  68.041  1.00  0.00    -0.161 A  
BRANCH  17  20
HETATM   20  C   UNL     1      -7.950  16.207  69.051  1.00  0.00    -0.236 C  
BRANCH  20  21
HETATM   21  C   UNL     1      -9.206  16.623  68.265  1.00  0.00    -0.217 C  
BRANCH  21  22
HETATM   22  N   UNL     1     -10.221  17.186  69.151  1.00  0.00    -0.307 NA 
HETATM   23  H   UNL     1     -10.895  17.746  68.630  1.00  0.00     0.000 HD 
BRANCH  22  24
HETATM   24  C   UNL     1     -10.896  16.158  69.954  1.00  0.00    -0.355 C  
BRANCH  24  25
HETATM   25  C   UNL     1     -12.112  15.526  69.231  1.00  0.00    -0.259 C  
HETATM   26  O   UNL     1     -13.205  15.389  70.153  1.00  0.00    -0.659 OA 
HETATM   27  H   UNL     1     -13.950  15.001  69.710  1.00  0.00     0.000 HD 
BRANCH  25  28
HETATM   28  C   UNL     1     -11.852  14.201  68.537  1.00  0.00    -0.390 A  
HETATM   29  C   UNL     1     -11.879  14.120  67.136  1.00  0.00    -0.454 A  
HETATM   30  C   UNL     1     -11.715  12.891  66.490  1.00  0.00    -0.453 A  
HETATM   31  C   UNL     1     -11.516  11.730  67.235  1.00  0.00    -0.373 A  
HETATM   32  C   UNL     1     -11.463  11.798  68.623  1.00  0.00    -0.346 A  
HETATM   33  C   UNL     1     -11.630  13.024  69.270  1.00  0.00    -0.367 A  
ENDBRANCH  25  28
ENDBRANCH  24  25
ENDBRANCH  22  24
ENDBRANCH  21  22
ENDBRANCH  20  21
ENDBRANCH  17  20
ENDBRANCH  11  14
ENDBRANCH   9  10
ENDBRANCH   6   9
TORSDOF 9
ENDMDL
MODEL      146
REMARK 921   NORMALIZED FREE ENERGY PREDICTED BY IDOCK:   -4.27 KCAL/MOL
REMARK 922        TOTAL FREE ENERGY PREDICTED BY IDOCK:   -8.96 KCAL/MOL
REMARK 923 INTER-LIGAND FREE ENERGY PREDICTED BY IDOCK:   -8.37 KCAL/MOL
REMARK 924 INTRA-LIGAND FREE ENERGY PREDICTED BY IDOCK:   -0.59 KCAL/MOL
REMARK 927      BINDING AFFINITY PREDICTED BY RF-SCORE:    0.00 PKD
ROOT
HETATM    1  N   UNL     1      -6.820  19.980  64.757  1.00  0.00    -0.317 NA 
HETATM    2  C   UNL     1      -7.445  19.689  65.910  1.00  0.00    -0.316 A  
HETATM    3  H1  UNL     1      -5.831  20.227  64.708  1.00  0.00     0.000 HD 
HETATM    4  H2  UNL     1      -7.357  19.953  63.891  1.00  0.00     0.000 HD 
HETATM    5  N   UNL     1      -8.713  19.372  65.972  1.00  0.00    -0.437 NA 
HETATM    6  C   UNL     1      -9.080  19.119  67.290  1.00  0.00    -0.295 A  
HETATM    7  S   UNL     1      -6.606  19.682  67.405  1.00  0.00    -0.201 SA 
HETATM    8  C   UNL     1      -8.053  19.239  68.207  1.00  0.00    -0.332 A  
ENDROOT
BRANCH   6   9
HETATM    9  C   UNL     1     -10.489  18.734  67.582  1.00  0.00    -0.495 C  
BRANCH   9  10
HETATM   10  C   UNL     1     -10.658  17.309  68.081  1.00  0.00    -0.386 C  
HETATM   11  N   UNL     1     -10.694  16.331  67.099  1.00  0.00    -0.288 N  
HETATM   12  O   UNL     1     -10.642  17.104  69.295  1.00  0.00    -0.326 OA 
HETATM   13  H   UNL     1     -10.685  16.646  66.129  1.00  0.00     0.000 HD 
BRANCH  11  14
HETATM   14  C   UNL     1     -10.742  14.939  67.320  1.00  0.00    -0.294 A  
HETATM   15  C   UNL     1     -11.802  14.311  67.974  1.00  0.00    -0.379 A  
HETATM   16  C   UNL     1     -11.753  12.949  68.273  1.00  0.00    -0.390 A  
HETATM   17  C   UNL     1     -10.646  12.178  67.910  1.00  0.00    -0.230 A  
HETATM   18  C   UNL     1      -9.663  14.159  66.892  1.00  0.00    -0.272 A  
HETATM   19  C   UNL     1      -9.607  12.792  67.197  1.00  0.00    -0.219 A  
BRANCH  17  20
HETATM   20  C   UNL     1     -10.553  10.725  68.328  1.00  0.00    -0.233 C  
BRANCH  20  21
HETATM   21  C   UNL     1     -10.518   9.718  67.166  1.00  0.00    -0.250 C  
BRANCH  21  22
HETATM   22  N   UNL     1     -10.813   8.365  67.630  1.00  0.00    -0.503 NA 
HETATM   23  H   UNL     1     -11.467   7.895  67.003  1.00  0.00     0.000 HD 
BRANCH  22  24
HETATM   24  C   UNL     1      -9.599   7.564  67.827  1.00  0.00    -0.142 C  
BRANCH  24  25
HETATM   25  C   UNL     1      -9.693   6.153  67.190  1.00  0.00    -0.135 C  
HETATM   26  O   UNL     1     -10.907   6.046  66.430  1.00  0.00    -0.559 OA 
HETATM   27  H   UNL     1     -10.964   5.181  66.040  1.00  0.00     0.000 HD 
BRANCH  25  28
HETATM   28  C   UNL     1      -9.581   4.986  68.154  1.00  0.00    -0.182 A  
HETATM   29  C   UNL     1      -9.297   3.698  67.674  1.00  0.00    -0.246 A  
HETATM   30  C   UNL     1      -9.265   2.604  68.543  1.00  0.00    -0.243 A  
HETATM   31  C   UNL     1      -9.511   2.783  69.903  1.00  0.00    -0.161 A  
HETATM   32  C   UNL     1      -9.771   4.057  70.398  1.00  0.00    -0.263 A  
HETATM   33  C   UNL     1      -9.806   5.150  69.530  1.00  0.00    -0.278 A  
ENDBRANCH  25  28
ENDBRANCH  24  25
ENDBRANCH  22  24
ENDBRANCH  21  22
ENDBRANCH  20  21
ENDBRANCH  17  20
ENDBRANCH  11  14
ENDBRANCH   9  10
ENDBRANCH   6   9
TORSDOF 9
ENDMDL
MODEL      147
REMARK 921   NORMALIZED FREE ENERGY PREDICTED BY IDOCK:   -4.25 KCAL/MOL
REMARK 922        TOTAL FREE ENERGY PREDICTED BY IDOCK:   -8.93 KCAL/MOL
REMARK 923 INTER-LIGAND FREE ENERGY PREDICTED BY IDOCK:   -7.32 KCAL/MOL
REMARK 924 INTRA-LIGAND FREE ENERGY PREDICTED BY IDOCK:   -1.62 KCAL/MOL
REMARK 927      BINDING AFFINITY PREDICTED BY RF-SCORE:    0.00 PKD
ROOT
HETATM    1  N   UNL     1     -11.680  16.368  63.705  1.00  0.00    -1.498 NA 
HETATM    2  C   UNL     1     -11.375  15.440  64.627  1.00  0.00    -0.355 A  
HETATM    3  H1  UNL     1     -11.276  17.306  63.706  1.00  0.00     0.000 HD 
HETATM    4  H2  UNL     1     -12.344  16.126  62.971  1.00  0.00     0.000 HD 
HETATM    5  N   UNL     1     -11.893  14.238  64.625  1.00  0.00    -0.424 NA 
HETATM    6  C   UNL     1     -11.390  13.498  65.691  1.00  0.00    -0.298 A  
HETATM    7  S   UNL     1     -10.244  15.757  65.876  1.00  0.00    -0.380 SA 
HETATM    8  C   UNL     1     -10.474  14.170  66.477  1.00  0.00    -0.280 A  
ENDROOT
BRANCH   6   9
HETATM    9  C   UNL     1     -11.850  12.092  65.869  1.00  0.00    -0.342 C  
BRANCH   9  10
HETATM   10  C   UNL     1     -10.750  11.053  65.736  1.00  0.00    -0.148 C  
HETATM   11  N   UNL     1     -10.369  10.430  66.915  1.00  0.00    -0.231 N  
HETATM   12  O   UNL     1     -10.352  10.756  64.609  1.00  0.00    -0.335 OA 
HETATM   13  H   UNL     1     -10.794  10.770  67.778  1.00  0.00     0.000 HD 
BRANCH  11  14
HETATM   14  C   UNL     1      -9.447   9.369  67.029  1.00  0.00    -0.155 A  
HETATM   15  C   UNL     1      -9.742   8.063  66.641  1.00  0.00    -0.313 A  
HETATM   16  C   UNL     1      -8.841   7.023  66.879  1.00  0.00    -0.127 A  
HETATM   17  C   UNL     1      -7.615   7.271  67.501  1.00  0.00    -0.109 A  
HETATM   18  C   UNL     1      -8.192   9.635  67.589  1.00  0.00    -0.114 A  
HETATM   19  C   UNL     1      -7.289   8.592  67.836  1.00  0.00    -0.093 A  
BRANCH  17  20
HETATM   20  C   UNL     1      -6.688   6.125  67.851  1.00  0.00    -0.064 C  
BRANCH  20  21
HETATM   21  C   UNL     1      -7.381   4.900  68.474  1.00  0.00    -0.066 C  
BRANCH  21  22
HETATM   22  N   UNL     1      -7.913   5.212  69.798  1.00  0.00    -0.077 NA 
HETATM   23  H   UNL     1      -8.222   6.182  69.851  1.00  0.00     0.000 HD 
BRANCH  22  24
HETATM   24  C   UNL     1      -8.986   4.293  70.200  1.00  0.00    -0.087 C  
BRANCH  24  25
HETATM   25  C   UNL     1     -10.402   4.899  70.021  1.00  0.00    -0.172 C  
HETATM   26  O   UNL     1     -10.737   4.942  68.626  1.00  0.00     0.119 OA 
HETATM   27  H   UNL     1     -11.605   5.313  68.517  1.00  0.00     0.000 HD 
BRANCH  25  28
HETATM   28  C   UNL     1     -10.620   6.264  70.648  1.00  0.00    -0.301 A  
HETATM   29  C   UNL     1     -11.008   7.353  69.852  1.00  0.00    -0.239 A  
HETATM   30  C   UNL     1     -11.139   8.629  70.406  1.00  0.00    -0.250 A  
HETATM   31  C   UNL     1     -10.890   8.833  71.762  1.00  0.00    -0.416 A  
HETATM   32  C   UNL     1     -10.528   7.759  72.569  1.00  0.00    -0.343 A  
HETATM   33  C   UNL     1     -10.394   6.484  72.016  1.00  0.00    -0.221 A  
ENDBRANCH  25  28
ENDBRANCH  24  25
ENDBRANCH  22  24
ENDBRANCH  21  22
ENDBRANCH  20  21
ENDBRANCH  17  20
ENDBRANCH  11  14
ENDBRANCH   9  10
ENDBRANCH   6   9
TORSDOF 9
ENDMDL
MODEL      148
REMARK 921   NORMALIZED FREE ENERGY PREDICTED BY IDOCK:   -4.25 KCAL/MOL
REMARK 922        TOTAL FREE ENERGY PREDICTED BY IDOCK:   -8.92 KCAL/MOL
REMARK 923 INTER-LIGAND FREE ENERGY PREDICTED BY IDOCK:   -7.13 KCAL/MOL
REMARK 924 INTRA-LIGAND FREE ENERGY PREDICTED BY IDOCK:   -1.79 KCAL/MOL
REMARK 927      BINDING AFFINITY PREDICTED BY RF-SCORE:    0.00 PKD
ROOT
HETATM    1  N   UNL     1     -10.224   6.995  69.564  1.00  0.00    -0.193 NA 
HETATM    2  C   UNL     1      -9.235   6.602  68.745  1.00  0.00    -0.129 A  
HETATM    3  H1  UNL     1     -10.468   6.496  70.420  1.00  0.00     0.000 HD 
HETATM    4  H2  UNL     1     -10.755   7.830  69.320  1.00  0.00     0.000 HD 
HETATM    5  N   UNL     1      -8.923   7.242  67.647  1.00  0.00    -0.126 NA 
HETATM    6  C   UNL     1      -7.861   6.609  67.009  1.00  0.00    -0.108 A  
HETATM    7  S   UNL     1      -8.274   5.227  69.099  1.00  0.00    -0.092 SA 
HETATM    8  C   UNL     1      -7.379   5.492  67.663  1.00  0.00    -0.076 A  
ENDROOT
BRANCH   6   9
HETATM    9  C   UNL     1      -7.343   7.184  65.736  1.00  0.00    -0.075 C  
BRANCH   9  10
HETATM   10  C   UNL     1      -7.777   8.615  65.472  1.00  0.00    -0.092 C  
HETATM   11  N   UNL     1      -9.124   8.791  65.190  1.00  0.00    -0.419 N  
HETATM   12  O   UNL     1      -6.955   9.519  65.628  1.00  0.00    -0.087 OA 
HETATM   13  H   UNL     1      -9.693   7.949  65.105  1.00  0.00     0.000 HD 
BRANCH  11  14
HETATM   14  C   UNL     1      -9.777  10.027  65.011  1.00  0.00    -0.317 A  
HETATM   15  C   UNL     1     -10.471  10.674  66.034  1.00  0.00    -0.250 A  
HETATM   16  C   UNL     1     -11.199  11.837  65.782  1.00  0.00    -0.337 A  
HETATM   17  C   UNL     1     -11.239  12.390  64.500  1.00  0.00    -0.371 A  
HETATM   18  C   UNL     1      -9.755  10.615  63.742  1.00  0.00    -0.382 A  
HETATM   19  C   UNL     1     -10.492  11.779  63.484  1.00  0.00    -0.500 A  
BRANCH  17  20
HETATM   20  C   UNL     1     -12.114  13.592  64.210  1.00  0.00    -0.480 C  
BRANCH  20  21
HETATM   21  C   UNL     1     -11.894  14.793  65.146  1.00  0.00    -0.313 C  
BRANCH  21  22
HETATM   22  N   UNL     1     -10.991  15.772  64.547  1.00  0.00    -0.820 NA 
HETATM   23  H   UNL     1     -11.511  16.507  64.069  1.00  0.00     0.000 HD 
BRANCH  22  24
HETATM   24  C   UNL     1     -10.050  16.336  65.522  1.00  0.00    -0.245 C  
BRANCH  24  25
HETATM   25  C   UNL     1     -10.320  15.859  66.972  1.00  0.00    -0.297 C  
HETATM   26  O   UNL     1     -10.775  16.965  67.768  1.00  0.00    -0.339 OA 
HETATM   27  H   UNL     1     -10.941  16.672  68.657  1.00  0.00     0.000 HD 
BRANCH  25  28
HETATM   28  C   UNL     1      -9.161  15.166  67.665  1.00  0.00    -0.181 A  
HETATM   29  C   UNL     1      -8.619  15.703  68.843  1.00  0.00    -0.211 A  
HETATM   30  C   UNL     1      -7.505  15.113  69.448  1.00  0.00    -0.204 A  
HETATM   31  C   UNL     1      -6.923  13.978  68.887  1.00  0.00    -0.110 A  
HETATM   32  C   UNL     1      -7.464  13.420  67.733  1.00  0.00    -0.160 A  
HETATM   33  C   UNL     1      -8.574  14.010  67.126  1.00  0.00    -0.220 A  
ENDBRANCH  25  28
ENDBRANCH  24  25
ENDBRANCH  22  24
ENDBRANCH  21  22
ENDBRANCH  20  21
ENDBRANCH  17  20
ENDBRANCH  11  14
ENDBRANCH   9  10
ENDBRANCH   6   9
TORSDOF 9
ENDMDL
MODEL      149
REMARK 921   NORMALIZED FREE ENERGY PREDICTED BY IDOCK:   -4.24 KCAL/MOL
REMARK 922        TOTAL FREE ENERGY PREDICTED BY IDOCK:   -8.92 KCAL/MOL
REMARK 923 INTER-LIGAND FREE ENERGY PREDICTED BY IDOCK:   -8.34 KCAL/MOL
REMARK 924 INTRA-LIGAND FREE ENERGY PREDICTED BY IDOCK:   -0.58 KCAL/MOL
REMARK 927      BINDING AFFINITY PREDICTED BY RF-SCORE:    0.00 PKD
ROOT
HETATM    1  N   UNL     1      -9.335   7.719  73.805  1.00  0.00    -0.330 NA 
HETATM    2  C   UNL     1     -10.509   7.611  73.160  1.00  0.00    -0.374 A  
HETATM    3  H1  UNL     1      -8.777   6.911  74.081  1.00  0.00     0.000 HD 
HETATM    4  H2  UNL     1      -8.987   8.650  74.028  1.00  0.00     0.000 HD 
HETATM    5  N   UNL     1     -11.225   8.647  72.806  1.00  0.00    -0.030 NA 
HETATM    6  C   UNL     1     -12.381   8.231  72.154  1.00  0.00    -0.360 A  
HETATM    7  S   UNL     1     -11.151   6.083  72.721  1.00  0.00    -0.259 SA 
HETATM    8  C   UNL     1     -12.504   6.862  72.016  1.00  0.00    -0.248 A  
ENDROOT
BRANCH   6   9
HETATM    9  C   UNL     1     -13.338   9.260  71.661  1.00  0.00    -0.461 C  
BRANCH   9  10
HETATM   10  C   UNL     1     -12.683  10.444  70.970  1.00  0.00    -0.394 C  
HETATM   11  N   UNL     1     -11.931  10.141  69.845  1.00  0.00    -0.462 N  
HETATM   12  O   UNL     1     -12.941  11.579  71.374  1.00  0.00    -0.412 OA 
HETATM   13  H   UNL     1     -11.813   9.153  69.619  1.00  0.00     0.000 HD 
BRANCH  11  14
HETATM   14  C   UNL     1     -11.315  11.074  68.986  1.00  0.00    -0.277 A  
HETATM   15  C   UNL     1     -10.028  10.902  68.477  1.00  0.00    -0.188 A  
HETATM   16  C   UNL     1      -9.415  11.905  67.725  1.00  0.00    -0.184 A  
HETATM   17  C   UNL     1     -10.083  13.101  67.452  1.00  0.00    -0.229 A  
HETATM   18  C   UNL     1     -12.015  12.239  68.657  1.00  0.00    -0.276 A  
HETATM   19  C   UNL     1     -11.399  13.252  67.908  1.00  0.00    -0.317 A  
BRANCH  17  20
HETATM   20  C   UNL     1      -9.375  14.225  66.725  1.00  0.00    -0.290 C  
BRANCH  20  21
HETATM   21  C   UNL     1      -8.021  14.636  67.331  1.00  0.00    -0.201 C  
BRANCH  21  22
HETATM   22  N   UNL     1      -7.664  16.000  66.951  1.00  0.00    -0.232 NA 
HETATM   23  H   UNL     1      -7.865  16.172  65.966  1.00  0.00     0.000 HD 
BRANCH  22  24
HETATM   24  C   UNL     1      -8.309  17.005  67.805  1.00  0.00    -0.196 C  
BRANCH  24  25
HETATM   25  C   UNL     1      -8.805  18.244  67.017  1.00  0.00    -0.266 C  
HETATM   26  O   UNL     1      -9.372  17.825  65.766  1.00  0.00    -0.512 OA 
HETATM   27  H   UNL     1      -9.677  18.585  65.283  1.00  0.00     0.000 HD 
BRANCH  25  28
HETATM   28  C   UNL     1      -7.773  19.331  66.778  1.00  0.00    -0.267 A  
HETATM   29  C   UNL     1      -7.039  19.359  65.583  1.00  0.00    -0.292 A  
HETATM   30  C   UNL     1      -6.036  20.312  65.385  1.00  0.00    -0.243 A  
HETATM   31  C   UNL     1      -5.757  21.252  66.375  1.00  0.00    -0.326 A  
HETATM   32  C   UNL     1      -6.493  21.252  67.556  1.00  0.00    -0.391 A  
HETATM   33  C   UNL     1      -7.493  20.299  67.756  1.00  0.00    -0.319 A  
ENDBRANCH  25  28
ENDBRANCH  24  25
ENDBRANCH  22  24
ENDBRANCH  21  22
ENDBRANCH  20  21
ENDBRANCH  17  20
ENDBRANCH  11  14
ENDBRANCH   9  10
ENDBRANCH   6   9
TORSDOF 9
ENDMDL
MODEL      150
REMARK 921   NORMALIZED FREE ENERGY PREDICTED BY IDOCK:   -4.24 KCAL/MOL
REMARK 922        TOTAL FREE ENERGY PREDICTED BY IDOCK:   -8.91 KCAL/MOL
REMARK 923 INTER-LIGAND FREE ENERGY PREDICTED BY IDOCK:   -8.03 KCAL/MOL
REMARK 924 INTRA-LIGAND FREE ENERGY PREDICTED BY IDOCK:   -0.89 KCAL/MOL
REMARK 927      BINDING AFFINITY PREDICTED BY RF-SCORE:    0.00 PKD
ROOT
HETATM    1  N   UNL     1      -9.700  20.745  66.787  1.00  0.00    -0.641 NA 
HETATM    2  C   UNL     1      -9.639  19.553  67.402  1.00  0.00    -0.334 A  
HETATM    3  H1  UNL     1      -8.892  21.360  66.684  1.00  0.00     0.000 HD 
HETATM    4  H2  UNL     1     -10.595  21.051  66.407  1.00  0.00     0.000 HD 
HETATM    5  N   UNL     1     -10.676  18.765  67.534  1.00  0.00    -0.440 NA 
HETATM    6  C   UNL     1     -10.312  17.602  68.205  1.00  0.00    -0.384 A  
HETATM    7  S   UNL     1      -8.166  18.952  68.043  1.00  0.00    -0.303 SA 
HETATM    8  C   UNL     1      -8.977  17.533  68.556  1.00  0.00    -0.279 A  
ENDROOT
BRANCH   6   9
HETATM    9  C   UNL     1     -11.349  16.563  68.456  1.00  0.00    -0.231 C  
BRANCH   9  10
HETATM   10  C   UNL     1     -11.063  15.222  67.803  1.00  0.00    -0.318 C  
HETATM   11  N   UNL     1     -10.625  14.220  68.657  1.00  0.00    -0.245 N  
HETATM   12  O   UNL     1     -11.333  15.077  66.610  1.00  0.00    -0.344 OA 
HETATM   13  H   UNL     1     -10.456  14.481  69.629  1.00  0.00     0.000 HD 
BRANCH  11  14
HETATM   14  C   UNL     1     -10.393  12.875  68.304  1.00  0.00    -0.244 A  
HETATM   15  C   UNL     1      -9.197  12.435  67.736  1.00  0.00    -0.193 A  
HETATM   16  C   UNL     1      -9.054  11.119  67.296  1.00  0.00    -0.152 A  
HETATM   17  C   UNL     1     -10.103  10.205  67.427  1.00  0.00    -0.251 A  
HETATM   18  C   UNL     1     -11.421  11.948  68.502  1.00  0.00    -0.349 A  
HETATM   19  C   UNL     1     -11.284  10.627  68.054  1.00  0.00    -0.373 A  
BRANCH  17  20
HETATM   20  C   UNL     1      -9.979   8.809  66.854  1.00  0.00    -0.327 C  
BRANCH  20  21
HETATM   21  C   UNL     1      -8.965   7.902  67.573  1.00  0.00    -0.127 C  
BRANCH  21  22
HETATM   22  N   UNL     1      -9.437   6.521  67.627  1.00  0.00    -0.124 NA 
HETATM   23  H   UNL     1      -8.950   5.994  68.353  1.00  0.00     0.000 HD 
BRANCH  22  24
HETATM   24  C   UNL     1     -10.892   6.433  67.797  1.00  0.00    -0.334 C  
BRANCH  24  25
HETATM   25  C   UNL     1     -11.321   6.230  69.272  1.00  0.00    -0.341 C  
HETATM   26  O   UNL     1     -11.744   7.485  69.830  1.00  0.00    -0.471 OA 
HETATM   27  H   UNL     1     -12.006   7.360  70.734  1.00  0.00     0.000 HD 
BRANCH  25  28
HETATM   28  C   UNL     1     -10.287   5.585  70.177  1.00  0.00    -0.354 A  
HETATM   29  C   UNL     1      -9.872   4.265  69.947  1.00  0.00    -0.267 A  
HETATM   30  C   UNL     1      -8.977   3.637  70.818  1.00  0.00    -0.157 A  
HETATM   31  C   UNL     1      -8.481   4.322  71.925  1.00  0.00    -0.112 A  
HETATM   32  C   UNL     1      -8.864   5.640  72.154  1.00  0.00    -0.137 A  
HETATM   33  C   UNL     1      -9.761   6.267  71.287  1.00  0.00    -0.193 A  
ENDBRANCH  25  28
ENDBRANCH  24  25
ENDBRANCH  22  24
ENDBRANCH  21  22
ENDBRANCH  20  21
ENDBRANCH  17  20
ENDBRANCH  11  14
ENDBRANCH   9  10
ENDBRANCH   6   9
TORSDOF 9
ENDMDL
MODEL      151
REMARK 921   NORMALIZED FREE ENERGY PREDICTED BY IDOCK:   -4.24 KCAL/MOL
REMARK 922        TOTAL FREE ENERGY PREDICTED BY IDOCK:   -8.91 KCAL/MOL
REMARK 923 INTER-LIGAND FREE ENERGY PREDICTED BY IDOCK:   -8.01 KCAL/MOL
REMARK 924 INTRA-LIGAND FREE ENERGY PREDICTED BY IDOCK:   -0.90 KCAL/MOL
REMARK 927      BINDING AFFINITY PREDICTED BY RF-SCORE:    0.00 PKD
ROOT
HETATM    1  N   UNL     1      -8.309   7.154  74.560  1.00  0.00    -0.173 NA 
HETATM    2  C   UNL     1      -9.308   6.429  74.030  1.00  0.00    -0.163 A  
HETATM    3  H1  UNL     1      -7.569   6.746  75.131  1.00  0.00     0.000 HD 
HETATM    4  H2  UNL     1      -8.291   8.158  74.385  1.00  0.00     0.000 HD 
HETATM    5  N   UNL     1     -10.258   6.952  73.298  1.00  0.00    -0.228 NA 
HETATM    6  C   UNL     1     -11.145   5.963  72.886  1.00  0.00    -0.269 A  
HETATM    7  S   UNL     1      -9.395   4.731  74.253  1.00  0.00    -0.121 SA 
HETATM    8  C   UNL     1     -10.826   4.688  73.313  1.00  0.00    -0.272 A  
ENDROOT
BRANCH   6   9
HETATM    9  C   UNL     1     -12.304   6.348  72.033  1.00  0.00    -0.268 C  
BRANCH   9  10
HETATM   10  C   UNL     1     -12.105   7.635  71.250  1.00  0.00    -0.314 C  
HETATM   11  N   UNL     1     -10.989   7.670  70.428  1.00  0.00    -0.246 N  
HETATM   12  O   UNL     1     -12.979   8.501  71.306  1.00  0.00    -0.268 OA 
HETATM   13  H   UNL     1     -10.355   6.872  70.472  1.00  0.00     0.000 HD 
BRANCH  11  14
HETATM   14  C   UNL     1     -10.651   8.707  69.535  1.00  0.00    -0.213 A  
HETATM   15  C   UNL     1     -10.296   9.988  69.960  1.00  0.00    -0.323 A  
HETATM   16  C   UNL     1     -10.083  11.015  69.040  1.00  0.00    -0.197 A  
HETATM   17  C   UNL     1     -10.206  10.780  67.668  1.00  0.00    -0.221 A  
HETATM   18  C   UNL     1     -10.707   8.449  68.162  1.00  0.00    -0.094 A  
HETATM   19  C   UNL     1     -10.500   9.480  67.235  1.00  0.00    -0.328 A  
BRANCH  17  20
HETATM   20  C   UNL     1     -10.075  11.922  66.681  1.00  0.00    -0.225 C  
BRANCH  20  21
HETATM   21  C   UNL     1      -8.878  12.856  66.927  1.00  0.00    -0.187 C  
BRANCH  21  22
HETATM   22  N   UNL     1      -9.127  14.188  66.382  1.00  0.00    -0.473 NA 
HETATM   23  H   UNL     1     -10.002  14.213  65.858  1.00  0.00     0.000 HD 
BRANCH  22  24
HETATM   24  C   UNL     1      -9.100  15.230  67.416  1.00  0.00    -0.192 C  
BRANCH  24  25
HETATM   25  C   UNL     1     -10.363  16.128  67.407  1.00  0.00    -0.294 C  
HETATM   26  O   UNL     1     -11.193  15.783  66.286  1.00  0.00    -0.150 OA 
HETATM   27  H   UNL     1     -11.968  16.333  66.281  1.00  0.00     0.000 HD 
BRANCH  25  28
HETATM   28  C   UNL     1     -10.110  17.624  67.421  1.00  0.00    -0.331 A  
HETATM   29  C   UNL     1      -9.933  18.299  68.639  1.00  0.00    -0.410 A  
HETATM   30  C   UNL     1      -9.773  19.688  68.667  1.00  0.00    -0.486 A  
HETATM   31  C   UNL     1      -9.783  20.418  67.481  1.00  0.00    -0.571 A  
HETATM   32  C   UNL     1      -9.934  19.761  66.263  1.00  0.00    -0.581 A  
HETATM   33  C   UNL     1     -10.096  18.374  66.234  1.00  0.00    -0.409 A  
ENDBRANCH  25  28
ENDBRANCH  24  25
ENDBRANCH  22  24
ENDBRANCH  21  22
ENDBRANCH  20  21
ENDBRANCH  17  20
ENDBRANCH  11  14
ENDBRANCH   9  10
ENDBRANCH   6   9
TORSDOF 9
ENDMDL
MODEL      152
REMARK 921   NORMALIZED FREE ENERGY PREDICTED BY IDOCK:   -4.23 KCAL/MOL
REMARK 922        TOTAL FREE ENERGY PREDICTED BY IDOCK:   -8.90 KCAL/MOL
REMARK 923 INTER-LIGAND FREE ENERGY PREDICTED BY IDOCK:   -7.40 KCAL/MOL
REMARK 924 INTRA-LIGAND FREE ENERGY PREDICTED BY IDOCK:   -1.49 KCAL/MOL
REMARK 927      BINDING AFFINITY PREDICTED BY RF-SCORE:    0.00 PKD
ROOT
HETATM    1  N   UNL     1     -13.379  10.839  72.155  1.00  0.00    -0.579 NA 
HETATM    2  C   UNL     1     -12.496   9.958  71.657  1.00  0.00    -0.415 A  
HETATM    3  H1  UNL     1     -14.022  10.612  72.915  1.00  0.00     0.000 HD 
HETATM    4  H2  UNL     1     -13.410  11.776  71.756  1.00  0.00     0.000 HD 
HETATM    5  N   UNL     1     -11.672  10.248  70.683  1.00  0.00    -0.321 NA 
HETATM    6  C   UNL     1     -10.877   9.147  70.383  1.00  0.00    -0.242 A  
HETATM    7  S   UNL     1     -12.360   8.371  72.293  1.00  0.00    -0.355 SA 
HETATM    8  C   UNL     1     -11.114   8.034  71.167  1.00  0.00    -0.252 A  
ENDROOT
BRANCH   6   9
HETATM    9  C   UNL     1      -9.861   9.268  69.300  1.00  0.00    -0.172 C  
BRANCH   9  10
HETATM   10  C   UNL     1     -10.350   9.999  68.062  1.00  0.00    -0.198 C  
HETATM   11  N   UNL     1     -10.394  11.382  68.161  1.00  0.00    -0.182 N  
HETATM   12  O   UNL     1     -10.568   9.348  67.040  1.00  0.00    -0.251 OA 
HETATM   13  H   UNL     1     -10.173  11.789  69.069  1.00  0.00     0.000 HD 
BRANCH  11  14
HETATM   14  C   UNL     1     -10.715  12.276  67.119  1.00  0.00    -0.233 A  
HETATM   15  C   UNL     1      -9.910  12.451  65.994  1.00  0.00    -0.268 A  
HETATM   16  C   UNL     1     -10.207  13.429  65.044  1.00  0.00    -0.325 A  
HETATM   17  C   UNL     1     -11.329  14.249  65.192  1.00  0.00    -0.345 A  
HETATM   18  C   UNL     1     -11.877  13.045  67.236  1.00  0.00    -0.419 A  
HETATM   19  C   UNL     1     -12.175  14.034  66.288  1.00  0.00    -0.493 A  
BRANCH  17  20
HETATM   20  C   UNL     1     -11.588  15.377  64.215  1.00  0.00    -0.196 C  
BRANCH  20  21
HETATM   21  C   UNL     1     -11.272  16.784  64.752  1.00  0.00     0.040 C  
BRANCH  21  22
HETATM   22  N   UNL     1     -10.187  16.745  65.728  1.00  0.00    -0.530 NA 
HETATM   23  H   UNL     1      -9.364  17.240  65.384  1.00  0.00     0.000 HD 
BRANCH  22  24
HETATM   24  C   UNL     1     -10.598  17.252  67.043  1.00  0.00    -0.231 C  
BRANCH  24  25
HETATM   25  C   UNL     1      -9.400  17.621  67.954  1.00  0.00    -0.268 C  
HETATM   26  O   UNL     1      -8.613  18.646  67.327  1.00  0.00    -0.261 OA 
HETATM   27  H   UNL     1      -7.878  18.872  67.885  1.00  0.00     0.000 HD 
BRANCH  25  28
HETATM   28  C   UNL     1      -8.507  16.466  68.370  1.00  0.00    -0.204 A  
HETATM   29  C   UNL     1      -8.996  15.151  68.348  1.00  0.00    -0.183 A  
HETATM   30  C   UNL     1      -8.207  14.090  68.800  1.00  0.00    -0.049 A  
HETATM   31  C   UNL     1      -6.918  14.328  69.273  1.00  0.00    -0.116 A  
HETATM   32  C   UNL     1      -6.410  15.623  69.279  1.00  0.00    -0.136 A  
HETATM   33  C   UNL     1      -7.198  16.684  68.831  1.00  0.00    -0.219 A  
ENDBRANCH  25  28
ENDBRANCH  24  25
ENDBRANCH  22  24
ENDBRANCH  21  22
ENDBRANCH  20  21
ENDBRANCH  17  20
ENDBRANCH  11  14
ENDBRANCH   9  10
ENDBRANCH   6   9
TORSDOF 9
ENDMDL
MODEL      153
REMARK 921   NORMALIZED FREE ENERGY PREDICTED BY IDOCK:   -4.23 KCAL/MOL
REMARK 922        TOTAL FREE ENERGY PREDICTED BY IDOCK:   -8.90 KCAL/MOL
REMARK 923 INTER-LIGAND FREE ENERGY PREDICTED BY IDOCK:   -7.92 KCAL/MOL
REMARK 924 INTRA-LIGAND FREE ENERGY PREDICTED BY IDOCK:   -0.97 KCAL/MOL
REMARK 927      BINDING AFFINITY PREDICTED BY RF-SCORE:    0.00 PKD
ROOT
HETATM    1  N   UNL     1     -10.747   3.993  64.034  1.00  0.00    -0.462 NA 
HETATM    2  C   UNL     1     -10.324   4.140  65.300  1.00  0.00    -0.168 A  
HETATM    3  H1  UNL     1     -10.427   3.239  63.426  1.00  0.00     0.000 HD 
HETATM    4  H2  UNL     1     -11.419   4.664  63.664  1.00  0.00     0.000 HD 
HETATM    5  N   UNL     1     -10.736   5.106  66.081  1.00  0.00    -0.265 NA 
HETATM    6  C   UNL     1     -10.134   5.002  67.331  1.00  0.00    -0.168 A  
HETATM    7  S   UNL     1      -9.219   3.036  66.008  1.00  0.00    -0.074 SA 
HETATM    8  C   UNL     1      -9.277   3.927  67.470  1.00  0.00    -0.172 A  
ENDROOT
BRANCH   6   9
HETATM    9  C   UNL     1     -10.471   6.008  68.377  1.00  0.00    -0.290 C  
BRANCH   9  10
HETATM   10  C   UNL     1      -9.993   7.416  68.068  1.00  0.00    -0.164 C  
HETATM   11  N   UNL     1     -10.779   8.135  67.181  1.00  0.00    -0.463 N  
HETATM   12  O   UNL     1      -9.027   7.860  68.690  1.00  0.00    -0.135 OA 
HETATM   13  H   UNL     1     -11.561   7.642  66.750  1.00  0.00     0.000 HD 
BRANCH  11  14
HETATM   14  C   UNL     1     -10.596   9.486  66.821  1.00  0.00    -0.137 A  
HETATM   15  C   UNL     1     -11.060  10.548  67.597  1.00  0.00    -0.375 A  
HETATM   16  C   UNL     1     -10.959  11.864  67.144  1.00  0.00    -0.319 A  
HETATM   17  C   UNL     1     -10.377  12.150  65.907  1.00  0.00    -0.286 A  
HETATM   18  C   UNL     1      -9.949   9.771  65.613  1.00  0.00    -0.352 A  
HETATM   19  C   UNL     1      -9.853  11.092  65.153  1.00  0.00    -0.319 A  
BRANCH  17  20
HETATM   20  C   UNL     1     -10.364  13.569  65.376  1.00  0.00    -0.329 C  
BRANCH  20  21
HETATM   21  C   UNL     1     -11.244  14.560  66.157  1.00  0.00    -0.339 C  
BRANCH  21  22
HETATM   22  N   UNL     1     -10.547  15.824  66.378  1.00  0.00    -0.309 NA 
HETATM   23  H   UNL     1     -11.203  16.604  66.413  1.00  0.00     0.000 HD 
BRANCH  22  24
HETATM   24  C   UNL     1      -9.696  15.793  67.574  1.00  0.00    -0.226 C  
BRANCH  24  25
HETATM   25  C   UNL     1      -9.874  17.040  68.477  1.00  0.00    -0.290 C  
HETATM   26  O   UNL     1     -11.272  17.321  68.644  1.00  0.00    -0.182 OA 
HETATM   27  H   UNL     1     -11.380  18.086  69.198  1.00  0.00     0.000 HD 
BRANCH  25  28
HETATM   28  C   UNL     1      -9.144  18.292  68.026  1.00  0.00    -0.300 A  
HETATM   29  C   UNL     1      -7.785  18.466  68.328  1.00  0.00    -0.308 A  
HETATM   30  C   UNL     1      -7.124  19.647  67.981  1.00  0.00    -0.307 A  
HETATM   31  C   UNL     1      -7.810  20.666  67.323  1.00  0.00    -0.341 A  
HETATM   32  C   UNL     1      -9.151  20.500  66.995  1.00  0.00    -0.416 A  
HETATM   33  C   UNL     1      -9.814  19.321  67.344  1.00  0.00    -0.425 A  
ENDBRANCH  25  28
ENDBRANCH  24  25
ENDBRANCH  22  24
ENDBRANCH  21  22
ENDBRANCH  20  21
ENDBRANCH  17  20
ENDBRANCH  11  14
ENDBRANCH   9  10
ENDBRANCH   6   9
TORSDOF 9
ENDMDL
MODEL      154
REMARK 921   NORMALIZED FREE ENERGY PREDICTED BY IDOCK:   -4.22 KCAL/MOL
REMARK 922        TOTAL FREE ENERGY PREDICTED BY IDOCK:   -8.89 KCAL/MOL
REMARK 923 INTER-LIGAND FREE ENERGY PREDICTED BY IDOCK:   -6.31 KCAL/MOL
REMARK 924 INTRA-LIGAND FREE ENERGY PREDICTED BY IDOCK:   -2.58 KCAL/MOL
REMARK 927      BINDING AFFINITY PREDICTED BY RF-SCORE:    0.00 PKD
ROOT
HETATM    1  N   UNL     1      -8.167  17.266  66.851  1.00  0.00    -0.214 NA 
HETATM    2  C   UNL     1      -9.242  16.485  66.658  1.00  0.00    -0.250 A  
HETATM    3  H1  UNL     1      -7.985  17.753  67.728  1.00  0.00     0.000 HD 
HETATM    4  H2  UNL     1      -7.502  17.376  66.086  1.00  0.00     0.000 HD 
HETATM    5  N   UNL     1      -9.476  15.859  65.533  1.00  0.00    -0.373 NA 
HETATM    6  C   UNL     1     -10.654  15.125  65.628  1.00  0.00    -0.356 A  
HETATM    7  S   UNL     1     -10.392  16.222  67.903  1.00  0.00    -0.294 SA 
HETATM    8  C   UNL     1     -11.286  15.205  66.854  1.00  0.00    -0.292 A  
ENDROOT
BRANCH   6   9
HETATM    9  C   UNL     1     -11.102  14.330  64.450  1.00  0.00    -0.235 C  
BRANCH   9  10
HETATM   10  C   UNL     1     -10.652  12.880  64.466  1.00  0.00    -0.382 C  
HETATM   11  N   UNL     1      -9.907  12.496  65.571  1.00  0.00    -0.379 N  
HETATM   12  O   UNL     1     -11.055  12.127  63.578  1.00  0.00    -0.415 OA 
HETATM   13  H   UNL     1      -9.656  13.226  66.238  1.00  0.00     0.000 HD 
BRANCH  11  14
HETATM   14  C   UNL     1      -9.465  11.188  65.857  1.00  0.00    -0.215 A  
HETATM   15  C   UNL     1      -8.117  10.833  65.893  1.00  0.00    -0.148 A  
HETATM   16  C   UNL     1      -7.730   9.504  66.065  1.00  0.00    -0.100 A  
HETATM   17  C   UNL     1      -8.686   8.496  66.218  1.00  0.00    -0.164 A  
HETATM   18  C   UNL     1     -10.425  10.195  66.080  1.00  0.00    -0.165 A  
HETATM   19  C   UNL     1     -10.039   8.857  66.245  1.00  0.00    -0.284 A  
BRANCH  17  20
HETATM   20  C   UNL     1      -8.262   7.044  66.300  1.00  0.00    -0.120 C  
BRANCH  20  21
HETATM   21  C   UNL     1      -9.420   6.039  66.433  1.00  0.00    -0.150 C  
BRANCH  21  22
HETATM   22  N   UNL     1      -9.305   5.262  67.664  1.00  0.00    -0.115 NA 
HETATM   23  H   UNL     1      -8.404   5.420  68.116  1.00  0.00     0.000 HD 
BRANCH  22  24
HETATM   24  C   UNL     1     -10.414   5.514  68.591  1.00  0.00    -0.169 C  
BRANCH  24  25
HETATM   25  C   UNL     1      -9.961   6.188  69.911  1.00  0.00    -0.172 C  
HETATM   26  O   UNL     1     -10.902   5.890  70.955  1.00  0.00    -0.265 OA 
HETATM   27  H   UNL     1     -10.624   6.303  71.764  1.00  0.00     0.000 HD 
BRANCH  25  28
HETATM   28  C   UNL     1      -9.726   7.686  69.841  1.00  0.00    -0.175 A  
HETATM   29  C   UNL     1     -10.813   8.570  69.780  1.00  0.00    -0.177 A  
HETATM   30  C   UNL     1     -10.607   9.946  69.640  1.00  0.00    -0.273 A  
HETATM   31  C   UNL     1      -9.312  10.455  69.565  1.00  0.00    -0.150 A  
HETATM   32  C   UNL     1      -8.222   9.594  69.647  1.00  0.00    -0.148 A  
HETATM   33  C   UNL     1      -8.428   8.219  69.784  1.00  0.00    -0.128 A  
ENDBRANCH  25  28
ENDBRANCH  24  25
ENDBRANCH  22  24
ENDBRANCH  21  22
ENDBRANCH  20  21
ENDBRANCH  17  20
ENDBRANCH  11  14
ENDBRANCH   9  10
ENDBRANCH   6   9
TORSDOF 9
ENDMDL
MODEL      155
REMARK 921   NORMALIZED FREE ENERGY PREDICTED BY IDOCK:   -4.21 KCAL/MOL
REMARK 922        TOTAL FREE ENERGY PREDICTED BY IDOCK:   -8.87 KCAL/MOL
REMARK 923 INTER-LIGAND FREE ENERGY PREDICTED BY IDOCK:   -7.11 KCAL/MOL
REMARK 924 INTRA-LIGAND FREE ENERGY PREDICTED BY IDOCK:   -1.76 KCAL/MOL
REMARK 927      BINDING AFFINITY PREDICTED BY RF-SCORE:    0.00 PKD
ROOT
HETATM    1  N   UNL     1      -8.248   6.545  74.493  1.00  0.00    -0.127 NA 
HETATM    2  C   UNL     1      -9.291   6.078  73.786  1.00  0.00    -0.129 A  
HETATM    3  H1  UNL     1      -7.631   5.941  75.036  1.00  0.00     0.000 HD 
HETATM    4  H2  UNL     1      -8.066   7.547  74.486  1.00  0.00     0.000 HD 
HETATM    5  N   UNL     1     -10.083   6.853  73.089  1.00  0.00    -0.194 NA 
HETATM    6  C   UNL     1     -11.066   6.094  72.462  1.00  0.00    -0.274 A  
HETATM    7  S   UNL     1      -9.649   4.403  73.719  1.00  0.00    -0.124 SA 
HETATM    8  C   UNL     1     -10.979   4.735  72.693  1.00  0.00    -0.146 A  
ENDROOT
BRANCH   6   9
HETATM    9  C   UNL     1     -12.073   6.786  71.610  1.00  0.00    -0.404 C  
BRANCH   9  10
HETATM   10  C   UNL     1     -11.569   8.061  70.954  1.00  0.00    -0.269 C  
HETATM   11  N   UNL     1     -10.527   7.899  70.052  1.00  0.00    -0.226 N  
HETATM   12  O   UNL     1     -12.169   9.114  71.172  1.00  0.00    -0.296 OA 
HETATM   13  H   UNL     1     -10.134   6.962  69.961  1.00  0.00     0.000 HD 
BRANCH  11  14
HETATM   14  C   UNL     1      -9.963   8.912  69.251  1.00  0.00    -0.192 A  
HETATM   15  C   UNL     1      -9.204   9.959  69.773  1.00  0.00    -0.252 A  
HETATM   16  C   UNL     1      -8.763  11.001  68.958  1.00  0.00    -0.072 A  
HETATM   17  C   UNL     1      -9.060  11.014  67.592  1.00  0.00    -0.145 A  
HETATM   18  C   UNL     1     -10.204   8.882  67.873  1.00  0.00    -0.274 A  
HETATM   19  C   UNL     1      -9.769   9.932  67.052  1.00  0.00    -0.230 A  
BRANCH  17  20
HETATM   20  C   UNL     1      -8.669  12.198  66.733  1.00  0.00    -0.183 C  
BRANCH  20  21
HETATM   21  C   UNL     1      -7.877  13.295  67.466  1.00  0.00    -0.171 C  
BRANCH  21  22
HETATM   22  N   UNL     1      -8.038  14.590  66.811  1.00  0.00    -0.361 NA 
HETATM   23  H   UNL     1      -8.426  14.482  65.874  1.00  0.00     0.000 HD 
BRANCH  22  24
HETATM   24  C   UNL     1      -8.838  15.526  67.610  1.00  0.00    -0.179 C  
BRANCH  24  25
HETATM   25  C   UNL     1     -10.078  16.066  66.852  1.00  0.00    -0.265 C  
HETATM   26  O   UNL     1     -10.824  16.943  67.710  1.00  0.00    -0.345 OA 
HETATM   27  H   UNL     1     -11.584  17.274  67.244  1.00  0.00     0.000 HD 
BRANCH  25  28
HETATM   28  C   UNL     1     -10.999  15.015  66.259  1.00  0.00    -0.338 A  
HETATM   29  C   UNL     1     -11.725  14.157  67.099  1.00  0.00    -0.430 A  
HETATM   30  C   UNL     1     -12.518  13.139  66.563  1.00  0.00    -0.082 A  
HETATM   31  C   UNL     1     -12.600  12.968  65.183  1.00  0.00    -0.530 A  
HETATM   32  C   UNL     1     -11.904  13.825  64.336  1.00  0.00    -0.458 A  
HETATM   33  C   UNL     1     -11.109  14.841  64.870  1.00  0.00    -0.416 A  
ENDBRANCH  25  28
ENDBRANCH  24  25
ENDBRANCH  22  24
ENDBRANCH  21  22
ENDBRANCH  20  21
ENDBRANCH  17  20
ENDBRANCH  11  14
ENDBRANCH   9  10
ENDBRANCH   6   9
TORSDOF 9
ENDMDL
MODEL      156
REMARK 921   NORMALIZED FREE ENERGY PREDICTED BY IDOCK:   -4.20 KCAL/MOL
REMARK 922        TOTAL FREE ENERGY PREDICTED BY IDOCK:   -8.86 KCAL/MOL
REMARK 923 INTER-LIGAND FREE ENERGY PREDICTED BY IDOCK:   -7.16 KCAL/MOL
REMARK 924 INTRA-LIGAND FREE ENERGY PREDICTED BY IDOCK:   -1.70 KCAL/MOL
REMARK 927      BINDING AFFINITY PREDICTED BY RF-SCORE:    0.00 PKD
ROOT
HETATM    1  N   UNL     1     -10.359  17.946  69.181  1.00  0.00    -0.412 NA 
HETATM    2  C   UNL     1     -10.852  16.706  69.030  1.00  0.00    -0.314 A  
HETATM    3  H1  UNL     1     -10.125  18.344  70.092  1.00  0.00     0.000 HD 
HETATM    4  H2  UNL     1     -10.211  18.516  68.350  1.00  0.00     0.000 HD 
HETATM    5  N   UNL     1     -11.152  16.196  67.862  1.00  0.00    -0.325 NA 
HETATM    6  C   UNL     1     -11.635  14.901  68.015  1.00  0.00    -0.341 A  
HETATM    7  S   UNL     1     -11.101  15.672  70.375  1.00  0.00    -0.376 SA 
HETATM    8  C   UNL     1     -11.673  14.450  69.320  1.00  0.00    -0.317 A  
ENDROOT
BRANCH   6   9
HETATM    9  C   UNL     1     -12.031  14.134  66.800  1.00  0.00    -0.475 C  
BRANCH   9  10
HETATM   10  C   UNL     1     -10.944  13.226  66.251  1.00  0.00    -0.284 C  
HETATM   11  N   UNL     1     -11.389  12.132  65.523  1.00  0.00    -0.339 N  
HETATM   12  O   UNL     1      -9.768  13.565  66.386  1.00  0.00    -0.281 OA 
HETATM   13  H   UNL     1     -12.397  11.981  65.482  1.00  0.00     0.000 HD 
BRANCH  11  14
HETATM   14  C   UNL     1     -10.574  11.210  64.835  1.00  0.00    -0.289 A  
HETATM   15  C   UNL     1      -9.961  10.124  65.461  1.00  0.00    -0.363 A  
HETATM   16  C   UNL     1      -9.071   9.305  64.766  1.00  0.00    -0.201 A  
HETATM   17  C   UNL     1      -8.782   9.546  63.420  1.00  0.00    -0.235 A  
HETATM   18  C   UNL     1     -10.343  11.414  63.471  1.00  0.00    -0.476 A  
HETATM   19  C   UNL     1      -9.443  10.597  62.772  1.00  0.00    -0.355 A  
BRANCH  17  20
HETATM   20  C   UNL     1      -7.737   8.718  62.701  1.00  0.00    -0.121 C  
BRANCH  20  21
HETATM   21  C   UNL     1      -7.115   7.589  63.541  1.00  0.00    -0.070 C  
BRANCH  21  22
HETATM   22  N   UNL     1      -7.510   6.277  63.037  1.00  0.00    -0.063 NA 
HETATM   23  H   UNL     1      -6.707   5.770  62.664  1.00  0.00     0.000 HD 
BRANCH  22  24
HETATM   24  C   UNL     1      -8.218   5.479  64.045  1.00  0.00    -0.117 C  
BRANCH  24  25
HETATM   25  C   UNL     1      -7.690   5.712  65.484  1.00  0.00    -0.089 C  
HETATM   26  O   UNL     1      -7.090   4.505  65.980  1.00  0.00    -0.068 OA 
HETATM   27  H   UNL     1      -6.767   4.648  66.862  1.00  0.00     0.000 HD 
BRANCH  25  28
HETATM   28  C   UNL     1      -8.707   6.233  66.484  1.00  0.00    -0.131 A  
HETATM   29  C   UNL     1     -10.059   5.879  66.365  1.00  0.00    -0.163 A  
HETATM   30  C   UNL     1     -11.014   6.413  67.236  1.00  0.00    -0.474 A  
HETATM   31  C   UNL     1     -10.628   7.300  68.239  1.00  0.00    -0.217 A  
HETATM   32  C   UNL     1      -9.288   7.642  68.384  1.00  0.00    -0.146 A  
HETATM   33  C   UNL     1      -8.334   7.113  67.513  1.00  0.00    -0.116 A  
ENDBRANCH  25  28
ENDBRANCH  24  25
ENDBRANCH  22  24
ENDBRANCH  21  22
ENDBRANCH  20  21
ENDBRANCH  17  20
ENDBRANCH  11  14
ENDBRANCH   9  10
ENDBRANCH   6   9
TORSDOF 9
ENDMDL
MODEL      157
REMARK 921   NORMALIZED FREE ENERGY PREDICTED BY IDOCK:   -4.20 KCAL/MOL
REMARK 922        TOTAL FREE ENERGY PREDICTED BY IDOCK:   -8.85 KCAL/MOL
REMARK 923 INTER-LIGAND FREE ENERGY PREDICTED BY IDOCK:   -7.69 KCAL/MOL
REMARK 924 INTRA-LIGAND FREE ENERGY PREDICTED BY IDOCK:   -1.16 KCAL/MOL
REMARK 927      BINDING AFFINITY PREDICTED BY RF-SCORE:    0.00 PKD
ROOT
HETATM    1  N   UNL     1      -7.579  16.155  68.870  1.00  0.00    -0.188 NA 
HETATM    2  C   UNL     1      -8.242  15.224  68.165  1.00  0.00    -0.141 A  
HETATM    3  H1  UNL     1      -7.964  17.079  69.069  1.00  0.00     0.000 HD 
HETATM    4  H2  UNL     1      -6.650  15.929  69.222  1.00  0.00     0.000 HD 
HETATM    5  N   UNL     1      -7.749  14.039  67.909  1.00  0.00    -0.141 NA 
HETATM    6  C   UNL     1      -8.659  13.291  67.168  1.00  0.00    -0.193 A  
HETATM    7  S   UNL     1      -9.822  15.514  67.563  1.00  0.00    -0.221 SA 
HETATM    8  C   UNL     1      -9.847  13.939  66.890  1.00  0.00    -0.268 A  
ENDROOT
BRANCH   6   9
HETATM    9  C   UNL     1      -8.293  11.902  66.773  1.00  0.00    -0.153 C  
BRANCH   9  10
HETATM   10  C   UNL     1      -8.594  10.852  67.829  1.00  0.00    -0.128 C  
HETATM   11  N   UNL     1      -9.044   9.631  67.348  1.00  0.00    -0.131 N  
HETATM   12  O   UNL     1      -8.324  11.103  69.004  1.00  0.00    -0.134 OA 
HETATM   13  H   UNL     1      -9.211   9.561  66.345  1.00  0.00     0.000 HD 
BRANCH  11  14
HETATM   14  C   UNL     1      -9.290   8.478  68.122  1.00  0.00    -0.137 A  
HETATM   15  C   UNL     1     -10.420   7.679  67.952  1.00  0.00    -0.270 A  
HETATM   16  C   UNL     1     -10.682   6.615  68.816  1.00  0.00    -0.302 A  
HETATM   17  C   UNL     1      -9.808   6.317  69.866  1.00  0.00    -0.198 A  
HETATM   18  C   UNL     1      -8.377   8.142  69.126  1.00  0.00    -0.131 A  
HETATM   19  C   UNL     1      -8.640   7.079  70.001  1.00  0.00    -0.141 A  
BRANCH  17  20
HETATM   20  C   UNL     1     -10.150   5.228  70.862  1.00  0.00    -0.295 C  
BRANCH  20  21
HETATM   21  C   UNL     1     -11.355   5.536  71.768  1.00  0.00    -0.034 C  
BRANCH  21  22
HETATM   22  N   UNL     1     -11.373   6.941  72.163  1.00  0.00    -0.256 NA 
HETATM   23  H   UNL     1     -10.540   7.428  71.831  1.00  0.00     0.000 HD 
BRANCH  22  24
HETATM   24  C   UNL     1     -12.596   7.629  71.730  1.00  0.00    -0.331 C  
BRANCH  24  25
HETATM   25  C   UNL     1     -12.811   8.990  72.440  1.00  0.00    -0.385 C  
HETATM   26  O   UNL     1     -14.116   9.023  73.038  1.00  0.00    -1.086 OA 
HETATM   27  H   UNL     1     -14.247   9.857  73.473  1.00  0.00     0.000 HD 
BRANCH  25  28
HETATM   28  C   UNL     1     -12.606  10.223  71.579  1.00  0.00    -0.544 A  
HETATM   29  C   UNL     1     -11.865  10.140  70.390  1.00  0.00    -0.373 A  
HETATM   30  C   UNL     1     -11.608  11.284  69.629  1.00  0.00    -0.401 A  
HETATM   31  C   UNL     1     -12.093  12.523  70.043  1.00  0.00    -0.337 A  
HETATM   32  C   UNL     1     -12.849  12.619  71.207  1.00  0.00    -0.344 A  
HETATM   33  C   UNL     1     -13.104  11.477  71.969  1.00  0.00    -0.430 A  
ENDBRANCH  25  28
ENDBRANCH  24  25
ENDBRANCH  22  24
ENDBRANCH  21  22
ENDBRANCH  20  21
ENDBRANCH  17  20
ENDBRANCH  11  14
ENDBRANCH   9  10
ENDBRANCH   6   9
TORSDOF 9
ENDMDL
MODEL      158
REMARK 921   NORMALIZED FREE ENERGY PREDICTED BY IDOCK:   -4.16 KCAL/MOL
REMARK 922        TOTAL FREE ENERGY PREDICTED BY IDOCK:   -8.80 KCAL/MOL
REMARK 923 INTER-LIGAND FREE ENERGY PREDICTED BY IDOCK:   -7.63 KCAL/MOL
REMARK 924 INTRA-LIGAND FREE ENERGY PREDICTED BY IDOCK:   -1.17 KCAL/MOL
REMARK 927      BINDING AFFINITY PREDICTED BY RF-SCORE:    0.00 PKD
ROOT
HETATM    1  N   UNL     1      -7.060   6.899  67.142  1.00  0.00    -0.077 NA 
HETATM    2  C   UNL     1      -8.309   7.370  67.288  1.00  0.00    -0.119 A  
HETATM    3  H1  UNL     1      -6.799   6.233  66.414  1.00  0.00     0.000 HD 
HETATM    4  H2  UNL     1      -6.340   7.221  67.787  1.00  0.00     0.000 HD 
HETATM    5  N   UNL     1      -8.644   8.225  68.222  1.00  0.00    -0.132 NA 
HETATM    6  C   UNL     1      -9.997   8.534  68.126  1.00  0.00    -0.181 A  
HETATM    7  S   UNL     1      -9.572   6.901  66.227  1.00  0.00     0.047 SA 
HETATM    8  C   UNL     1     -10.660   7.904  67.090  1.00  0.00    -0.313 A  
ENDROOT
BRANCH   6   9
HETATM    9  C   UNL     1     -10.583   9.499  69.097  1.00  0.00    -0.237 C  
BRANCH   9  10
HETATM   10  C   UNL     1     -10.850  10.880  68.524  1.00  0.00    -0.220 C  
HETATM   11  N   UNL     1      -9.964  11.873  68.916  1.00  0.00    -0.409 N  
HETATM   12  O   UNL     1     -11.742  11.009  67.685  1.00  0.00    -0.576 OA 
HETATM   13  H   UNL     1      -9.262  11.620  69.611  1.00  0.00     0.000 HD 
BRANCH  11  14
HETATM   14  C   UNL     1      -9.947  13.201  68.442  1.00  0.00    -0.223 A  
HETATM   15  C   UNL     1     -10.698  14.223  69.022  1.00  0.00    -0.259 A  
HETATM   16  C   UNL     1     -10.740  15.495  68.449  1.00  0.00    -0.263 A  
HETATM   17  C   UNL     1     -10.018  15.778  67.286  1.00  0.00    -0.238 A  
HETATM   18  C   UNL     1      -9.168  13.496  67.319  1.00  0.00    -0.233 A  
HETATM   19  C   UNL     1      -9.214  14.771  66.736  1.00  0.00    -0.282 A  
BRANCH  17  20
HETATM   20  C   UNL     1     -10.150  17.127  66.612  1.00  0.00    -0.306 C  
BRANCH  20  21
HETATM   21  C   UNL     1     -10.785  18.226  67.482  1.00  0.00    -0.355 C  
BRANCH  21  22
HETATM   22  N   UNL     1     -10.335  19.553  67.069  1.00  0.00    -0.420 NA 
HETATM   23  H   UNL     1     -10.313  20.197  67.860  1.00  0.00     0.000 HD 
BRANCH  22  24
HETATM   24  C   UNL     1      -9.038  19.515  66.382  1.00  0.00    -0.370 C  
BRANCH  24  25
HETATM   25  C   UNL     1      -7.961  20.393  67.070  1.00  0.00    -0.312 C  
HETATM   26  O   UNL     1      -7.114  20.987  66.074  1.00  0.00    -0.502 OA 
HETATM   27  H   UNL     1      -6.454  21.525  66.495  1.00  0.00     0.000 HD 
BRANCH  25  28
HETATM   28  C   UNL     1      -7.115  19.698  68.120  1.00  0.00    -0.327 A  
HETATM   29  C   UNL     1      -7.153  18.301  68.248  1.00  0.00    -0.254 A  
HETATM   30  C   UNL     1      -6.435  17.658  69.261  1.00  0.00    -0.240 A  
HETATM   31  C   UNL     1      -5.665  18.401  70.153  1.00  0.00    -0.226 A  
HETATM   32  C   UNL     1      -5.597  19.785  70.025  1.00  0.00    -0.286 A  
HETATM   33  C   UNL     1      -6.317  20.429  69.016  1.00  0.00    -0.317 A  
ENDBRANCH  25  28
ENDBRANCH  24  25
ENDBRANCH  22  24
ENDBRANCH  21  22
ENDBRANCH  20  21
ENDBRANCH  17  20
ENDBRANCH  11  14
ENDBRANCH   9  10
ENDBRANCH   6   9
TORSDOF 9
ENDMDL
MODEL      159
REMARK 921   NORMALIZED FREE ENERGY PREDICTED BY IDOCK:   -4.16 KCAL/MOL
REMARK 922        TOTAL FREE ENERGY PREDICTED BY IDOCK:   -8.80 KCAL/MOL
REMARK 923 INTER-LIGAND FREE ENERGY PREDICTED BY IDOCK:   -7.91 KCAL/MOL
REMARK 924 INTRA-LIGAND FREE ENERGY PREDICTED BY IDOCK:   -0.88 KCAL/MOL
REMARK 927      BINDING AFFINITY PREDICTED BY RF-SCORE:    0.00 PKD
ROOT
HETATM    1  N   UNL     1     -11.177   2.729  73.659  1.00  0.00    -0.223 NA 
HETATM    2  C   UNL     1     -10.070   3.486  73.581  1.00  0.00    -0.128 A  
HETATM    3  H1  UNL     1     -11.275   1.837  73.173  1.00  0.00     0.000 HD 
HETATM    4  H2  UNL     1     -11.955   3.062  74.227  1.00  0.00     0.000 HD 
HETATM    5  N   UNL     1      -9.945   4.630  74.204  1.00  0.00    -0.160 NA 
HETATM    6  C   UNL     1      -8.695   5.183  73.943  1.00  0.00    -0.118 A  
HETATM    7  S   UNL     1      -8.706   2.985  72.671  1.00  0.00    -0.084 SA 
HETATM    8  C   UNL     1      -7.885   4.418  73.126  1.00  0.00    -0.091 A  
ENDROOT
BRANCH   6   9
HETATM    9  C   UNL     1      -8.344   6.491  74.564  1.00  0.00    -0.151 C  
BRANCH   9  10
HETATM   10  C   UNL     1      -8.638   7.698  73.689  1.00  0.00    -0.213 C  
HETATM   11  N   UNL     1      -9.614   7.513  72.721  1.00  0.00    -0.162 N  
HETATM   12  O   UNL     1      -8.088   8.767  73.954  1.00  0.00    -0.375 OA 
HETATM   13  H   UNL     1      -9.996   6.573  72.622  1.00  0.00     0.000 HD 
BRANCH  11  14
HETATM   14  C   UNL     1     -10.126   8.507  71.863  1.00  0.00    -0.297 A  
HETATM   15  C   UNL     1     -11.421   9.014  71.976  1.00  0.00    -0.408 A  
HETATM   16  C   UNL     1     -11.924   9.912  71.034  1.00  0.00    -0.456 A  
HETATM   17  C   UNL     1     -11.136  10.335  69.960  1.00  0.00    -0.373 A  
HETATM   18  C   UNL     1      -9.310   8.981  70.831  1.00  0.00    -0.326 A  
HETATM   19  C   UNL     1      -9.815   9.877  69.878  1.00  0.00    -0.285 A  
BRANCH  17  20
HETATM   20  C   UNL     1     -11.722  11.227  68.885  1.00  0.00    -0.409 C  
BRANCH  20  21
HETATM   21  C   UNL     1     -11.204  10.951  67.463  1.00  0.00    -0.293 C  
BRANCH  21  22
HETATM   22  N   UNL     1     -10.863  12.193  66.774  1.00  0.00    -0.238 NA 
HETATM   23  H   UNL     1     -10.023  12.081  66.207  1.00  0.00     0.000 HD 
BRANCH  22  24
HETATM   24  C   UNL     1     -11.978  12.712  65.972  1.00  0.00    -0.417 C  
BRANCH  24  25
HETATM   25  C   UNL     1     -11.664  14.078  65.309  1.00  0.00    -0.346 C  
HETATM   26  O   UNL     1     -11.071  13.864  64.019  1.00  0.00    -0.576 OA 
HETATM   27  H   UNL     1     -10.879  14.702  63.613  1.00  0.00     0.000 HD 
BRANCH  25  28
HETATM   28  C   UNL     1     -10.802  15.025  66.124  1.00  0.00    -0.329 A  
HETATM   29  C   UNL     1     -11.245  15.486  67.373  1.00  0.00    -0.248 A  
HETATM   30  C   UNL     1     -10.492  16.416  68.097  1.00  0.00    -0.302 A  
HETATM   31  C   UNL     1      -9.286  16.890  67.586  1.00  0.00    -0.228 A  
HETATM   32  C   UNL     1      -8.821  16.424  66.360  1.00  0.00    -0.346 A  
HETATM   33  C   UNL     1      -9.573  15.498  65.634  1.00  0.00    -0.328 A  
ENDBRANCH  25  28
ENDBRANCH  24  25
ENDBRANCH  22  24
ENDBRANCH  21  22
ENDBRANCH  20  21
ENDBRANCH  17  20
ENDBRANCH  11  14
ENDBRANCH   9  10
ENDBRANCH   6   9
TORSDOF 9
ENDMDL
MODEL      160
REMARK 921   NORMALIZED FREE ENERGY PREDICTED BY IDOCK:   -4.15 KCAL/MOL
REMARK 922        TOTAL FREE ENERGY PREDICTED BY IDOCK:   -8.78 KCAL/MOL
REMARK 923 INTER-LIGAND FREE ENERGY PREDICTED BY IDOCK:   -7.74 KCAL/MOL
REMARK 924 INTRA-LIGAND FREE ENERGY PREDICTED BY IDOCK:   -1.04 KCAL/MOL
REMARK 927      BINDING AFFINITY PREDICTED BY RF-SCORE:    0.00 PKD
ROOT
HETATM    1  N   UNL     1      -5.731  18.981  67.936  1.00  0.00    -0.193 NA 
HETATM    2  C   UNL     1      -7.072  18.945  68.002  1.00  0.00    -0.238 A  
HETATM    3  H1  UNL     1      -5.219  19.712  67.442  1.00  0.00     0.000 HD 
HETATM    4  H2  UNL     1      -5.201  18.244  68.400  1.00  0.00     0.000 HD 
HETATM    5  N   UNL     1      -7.729  18.007  68.635  1.00  0.00    -0.300 NA 
HETATM    6  C   UNL     1      -9.099  18.232  68.538  1.00  0.00    -0.311 A  
HETATM    7  S   UNL     1      -8.037  20.162  67.275  1.00  0.00    -0.338 SA 
HETATM    8  C   UNL     1      -9.448  19.367  67.832  1.00  0.00    -0.330 A  
ENDROOT
BRANCH   6   9
HETATM    9  C   UNL     1     -10.032  17.277  69.199  1.00  0.00    -0.211 C  
BRANCH   9  10
HETATM   10  C   UNL     1     -10.264  15.991  68.424  1.00  0.00    -0.236 C  
HETATM   11  N   UNL     1     -10.982  16.123  67.244  1.00  0.00    -0.237 N  
HETATM   12  O   UNL     1      -9.723  14.958  68.820  1.00  0.00    -0.213 OA 
HETATM   13  H   UNL     1     -11.361  17.047  67.033  1.00  0.00     0.000 HD 
BRANCH  11  14
HETATM   14  C   UNL     1     -11.236  15.098  66.311  1.00  0.00    -0.273 A  
HETATM   15  C   UNL     1     -12.385  14.308  66.346  1.00  0.00    -0.378 A  
HETATM   16  C   UNL     1     -12.539  13.229  65.474  1.00  0.00    -0.505 A  
HETATM   17  C   UNL     1     -11.550  12.923  64.535  1.00  0.00    -0.400 A  
HETATM   18  C   UNL     1     -10.275  14.840  65.327  1.00  0.00    -0.415 A  
HETATM   19  C   UNL     1     -10.424  13.753  64.455  1.00  0.00    -0.378 A  
BRANCH  17  20
HETATM   20  C   UNL     1     -11.676  11.691  63.663  1.00  0.00    -0.406 C  
BRANCH  20  21
HETATM   21  C   UNL     1     -10.390  10.856  63.534  1.00  0.00    -0.277 C  
BRANCH  21  22
HETATM   22  N   UNL     1     -10.317   9.835  64.576  1.00  0.00    -0.073 NA 
HETATM   23  H   UNL     1     -10.199   8.906  64.173  1.00  0.00     0.000 HD 
BRANCH  22  24
HETATM   24  C   UNL     1      -9.271  10.119  65.566  1.00  0.00    -0.191 C  
BRANCH  24  25
HETATM   25  C   UNL     1      -8.868   8.875  66.398  1.00  0.00    -0.152 C  
HETATM   26  O   UNL     1      -9.092   7.685  65.626  1.00  0.00    -0.374 OA 
HETATM   27  H   UNL     1      -8.845   6.922  66.137  1.00  0.00     0.000 HD 
BRANCH  25  28
HETATM   28  C   UNL     1      -9.535   8.745  67.755  1.00  0.00    -0.164 A  
HETATM   29  C   UNL     1      -9.611   9.851  68.614  1.00  0.00    -0.159 A  
HETATM   30  C   UNL     1     -10.157   9.723  69.895  1.00  0.00    -0.288 A  
HETATM   31  C   UNL     1     -10.637   8.490  70.331  1.00  0.00    -0.242 A  
HETATM   32  C   UNL     1     -10.590   7.388  69.482  1.00  0.00    -0.244 A  
HETATM   33  C   UNL     1     -10.043   7.515  68.204  1.00  0.00    -0.215 A  
ENDBRANCH  25  28
ENDBRANCH  24  25
ENDBRANCH  22  24
ENDBRANCH  21  22
ENDBRANCH  20  21
ENDBRANCH  17  20
ENDBRANCH  11  14
ENDBRANCH   9  10
ENDBRANCH   6   9
TORSDOF 9
ENDMDL
MODEL      161
REMARK 921   NORMALIZED FREE ENERGY PREDICTED BY IDOCK:   -4.14 KCAL/MOL
REMARK 922        TOTAL FREE ENERGY PREDICTED BY IDOCK:   -8.76 KCAL/MOL
REMARK 923 INTER-LIGAND FREE ENERGY PREDICTED BY IDOCK:   -7.87 KCAL/MOL
REMARK 924 INTRA-LIGAND FREE ENERGY PREDICTED BY IDOCK:   -0.89 KCAL/MOL
REMARK 927      BINDING AFFINITY PREDICTED BY RF-SCORE:    0.00 PKD
ROOT
HETATM    1  N   UNL     1      -8.639   5.743  67.145  1.00  0.00    -0.110 NA 
HETATM    2  C   UNL     1      -9.135   5.468  68.363  1.00  0.00    -0.111 A  
HETATM    3  H1  UNL     1      -8.377   5.019  66.476  1.00  0.00     0.000 HD 
HETATM    4  H2  UNL     1      -8.519   6.719  66.878  1.00  0.00     0.000 HD 
HETATM    5  N   UNL     1      -9.471   6.397  69.222  1.00  0.00    -0.136 NA 
HETATM    6  C   UNL     1      -9.956   5.817  70.390  1.00  0.00    -0.198 A  
HETATM    7  S   UNL     1      -9.396   3.854  68.879  1.00  0.00    -0.161 SA 
HETATM    8  C   UNL     1      -9.989   4.436  70.377  1.00  0.00    -0.183 A  
ENDROOT
BRANCH   6   9
HETATM    9  C   UNL     1     -10.401   6.704  71.501  1.00  0.00    -0.233 C  
BRANCH   9  10
HETATM   10  C   UNL     1     -10.340   8.187  71.181  1.00  0.00    -0.198 C  
HETATM   11  N   UNL     1     -11.164   8.612  70.149  1.00  0.00    -0.404 N  
HETATM   12  O   UNL     1      -9.666   8.920  71.906  1.00  0.00    -0.307 OA 
HETATM   13  H   UNL     1     -11.679   7.892  69.641  1.00  0.00     0.000 HD 
BRANCH  11  14
HETATM   14  C   UNL     1     -11.354   9.947  69.739  1.00  0.00    -0.193 A  
HETATM   15  C   UNL     1     -10.853  10.451  68.539  1.00  0.00    -0.278 A  
HETATM   16  C   UNL     1     -10.965  11.807  68.228  1.00  0.00    -0.274 A  
HETATM   17  C   UNL     1     -11.597  12.690  69.107  1.00  0.00    -0.374 A  
HETATM   18  C   UNL     1     -12.049  10.812  70.590  1.00  0.00    -0.467 A  
HETATM   19  C   UNL     1     -12.158  12.176  70.284  1.00  0.00    -0.385 A  
BRANCH  17  20
HETATM   20  C   UNL     1     -11.624  14.176  68.813  1.00  0.00    -0.362 C  
BRANCH  20  21
HETATM   21  C   UNL     1     -11.639  14.539  67.318  1.00  0.00    -0.385 C  
BRANCH  21  22
HETATM   22  N   UNL     1     -10.837  15.731  67.057  1.00  0.00    -0.305 NA 
HETATM   23  H   UNL     1     -11.384  16.580  67.198  1.00  0.00     0.000 HD 
BRANCH  22  24
HETATM   24  C   UNL     1      -9.602  15.760  67.849  1.00  0.00    -0.214 C  
BRANCH  24  25
HETATM   25  C   UNL     1      -9.461  17.043  68.708  1.00  0.00    -0.263 C  
HETATM   26  O   UNL     1     -10.761  17.502  69.108  1.00  0.00    -0.369 OA 
HETATM   27  H   UNL     1     -10.675  18.288  69.635  1.00  0.00     0.000 HD 
BRANCH  25  28
HETATM   28  C   UNL     1      -8.685  18.181  68.071  1.00  0.00    -0.276 A  
HETATM   29  C   UNL     1      -7.726  18.885  68.815  1.00  0.00    -0.366 A  
HETATM   30  C   UNL     1      -7.059  19.982  68.262  1.00  0.00    -0.323 A  
HETATM   31  C   UNL     1      -7.337  20.385  66.957  1.00  0.00    -0.348 A  
HETATM   32  C   UNL     1      -8.268  19.683  66.198  1.00  0.00    -0.355 A  
HETATM   33  C   UNL     1      -8.937  18.589  66.751  1.00  0.00    -0.293 A  
ENDBRANCH  25  28
ENDBRANCH  24  25
ENDBRANCH  22  24
ENDBRANCH  21  22
ENDBRANCH  20  21
ENDBRANCH  17  20
ENDBRANCH  11  14
ENDBRANCH   9  10
ENDBRANCH   6   9
TORSDOF 9
ENDMDL
MODEL      162
REMARK 921   NORMALIZED FREE ENERGY PREDICTED BY IDOCK:   -4.14 KCAL/MOL
REMARK 922        TOTAL FREE ENERGY PREDICTED BY IDOCK:   -8.76 KCAL/MOL
REMARK 923 INTER-LIGAND FREE ENERGY PREDICTED BY IDOCK:   -7.53 KCAL/MOL
REMARK 924 INTRA-LIGAND FREE ENERGY PREDICTED BY IDOCK:   -1.24 KCAL/MOL
REMARK 927      BINDING AFFINITY PREDICTED BY RF-SCORE:    0.00 PKD
ROOT
HETATM    1  N   UNL     1     -12.755  11.511  62.854  1.00  0.00    -0.839 NA 
HETATM    2  C   UNL     1     -12.369  12.443  63.741  1.00  0.00    -0.528 A  
HETATM    3  H1  UNL     1     -12.772  10.513  63.069  1.00  0.00     0.000 HD 
HETATM    4  H2  UNL     1     -13.044  11.813  61.925  1.00  0.00     0.000 HD 
HETATM    5  N   UNL     1     -12.347  13.722  63.465  1.00  0.00    -0.760 NA 
HETATM    6  C   UNL     1     -11.911  14.443  64.572  1.00  0.00    -0.449 A  
HETATM    7  S   UNL     1     -11.897  12.021  65.335  1.00  0.00    -0.073 SA 
HETATM    8  C   UNL     1     -11.623  13.675  65.684  1.00  0.00    -0.328 A  
ENDROOT
BRANCH   6   9
HETATM    9  C   UNL     1     -11.818  15.927  64.472  1.00  0.00    -0.084 C  
BRANCH   9  10
HETATM   10  C   UNL     1     -10.606  16.526  65.165  1.00  0.00    -0.215 C  
HETATM   11  N   UNL     1     -10.851  17.662  65.922  1.00  0.00    -0.114 N  
HETATM   12  O   UNL     1      -9.534  15.924  65.105  1.00  0.00    -0.216 OA 
HETATM   13  H   UNL     1     -11.795  18.046  65.891  1.00  0.00     0.000 HD 
BRANCH  11  14
HETATM   14  C   UNL     1      -9.912  18.334  66.732  1.00  0.00    -0.352 A  
HETATM   15  C   UNL     1      -8.726  18.872  66.233  1.00  0.00    -0.260 A  
HETATM   16  C   UNL     1      -7.773  19.425  67.089  1.00  0.00    -0.272 A  
HETATM   17  C   UNL     1      -7.992  19.466  68.469  1.00  0.00    -0.395 A  
HETATM   18  C   UNL     1     -10.168  18.435  68.104  1.00  0.00    -0.410 A  
HETATM   19  C   UNL     1      -9.209  18.983  68.968  1.00  0.00    -0.262 A  
BRANCH  17  20
HETATM   20  C   UNL     1      -6.911  19.972  69.401  1.00  0.00    -0.274 C  
BRANCH  20  21
HETATM   21  C   UNL     1      -5.801  18.954  69.717  1.00  0.00    -0.250 C  
BRANCH  21  22
HETATM   22  N   UNL     1      -6.337  17.598  69.803  1.00  0.00    -0.188 NA 
HETATM   23  H   UNL     1      -7.135  17.478  69.179  1.00  0.00     0.000 HD 
BRANCH  22  24
HETATM   24  C   UNL     1      -5.313  16.575  69.557  1.00  0.00    -0.143 C  
BRANCH  24  25
HETATM   25  C   UNL     1      -5.532  15.804  68.230  1.00  0.00    -0.112 C  
HETATM   26  O   UNL     1      -5.600  16.733  67.137  1.00  0.00    -0.137 OA 
HETATM   27  H   UNL     1      -5.735  16.261  66.324  1.00  0.00     0.000 HD 
BRANCH  25  28
HETATM   28  C   UNL     1      -6.733  14.877  68.196  1.00  0.00    -0.136 A  
HETATM   29  C   UNL     1      -8.029  15.403  68.076  1.00  0.00    -0.134 A  
HETATM   30  C   UNL     1      -9.145  14.562  68.118  1.00  0.00    -0.191 A  
HETATM   31  C   UNL     1      -8.981  13.188  68.274  1.00  0.00    -0.175 A  
HETATM   32  C   UNL     1      -7.702  12.648  68.370  1.00  0.00    -0.133 A  
HETATM   33  C   UNL     1      -6.586  13.487  68.331  1.00  0.00    -0.095 A  
ENDBRANCH  25  28
ENDBRANCH  24  25
ENDBRANCH  22  24
ENDBRANCH  21  22
ENDBRANCH  20  21
ENDBRANCH  17  20
ENDBRANCH  11  14
ENDBRANCH   9  10
ENDBRANCH   6   9
TORSDOF 9
ENDMDL
MODEL      163
REMARK 921   NORMALIZED FREE ENERGY PREDICTED BY IDOCK:   -4.14 KCAL/MOL
REMARK 922        TOTAL FREE ENERGY PREDICTED BY IDOCK:   -8.76 KCAL/MOL
REMARK 923 INTER-LIGAND FREE ENERGY PREDICTED BY IDOCK:   -7.35 KCAL/MOL
REMARK 924 INTRA-LIGAND FREE ENERGY PREDICTED BY IDOCK:   -1.41 KCAL/MOL
REMARK 927      BINDING AFFINITY PREDICTED BY RF-SCORE:    0.00 PKD
ROOT
HETATM    1  N   UNL     1     -11.879  14.649  65.431  1.00  0.00    -0.334 NA 
HETATM    2  C   UNL     1     -11.611  14.539  66.743  1.00  0.00    -0.376 A  
HETATM    3  H1  UNL     1     -11.426  15.335  64.828  1.00  0.00     0.000 HD 
HETATM    4  H2  UNL     1     -12.566  14.018  65.020  1.00  0.00     0.000 HD 
HETATM    5  N   UNL     1     -12.193  13.659  67.518  1.00  0.00    -0.300 NA 
HETATM    6  C   UNL     1     -11.715  13.776  68.819  1.00  0.00    -0.356 A  
HETATM    7  S   UNL     1     -10.447  15.541  67.506  1.00  0.00    -0.288 SA 
HETATM    8  C   UNL     1     -10.754  14.752  68.994  1.00  0.00    -0.250 A  
ENDROOT
BRANCH   6   9
HETATM    9  C   UNL     1     -12.247  12.857  69.864  1.00  0.00    -0.258 C  
BRANCH   9  10
HETATM   10  C   UNL     1     -11.563  11.502  69.913  1.00  0.00    -0.308 C  
HETATM   11  N   UNL     1     -11.940  10.678  70.963  1.00  0.00    -0.350 N  
HETATM   12  O   UNL     1     -10.819  11.182  68.985  1.00  0.00    -0.206 OA 
HETATM   13  H   UNL     1     -12.578  11.071  71.655  1.00  0.00     0.000 HD 
BRANCH  11  14
HETATM   14  C   UNL     1     -11.521   9.346  71.161  1.00  0.00    -0.352 A  
HETATM   15  C   UNL     1     -10.251   9.012  71.631  1.00  0.00    -0.418 A  
HETATM   16  C   UNL     1      -9.840   7.680  71.701  1.00  0.00    -0.193 A  
HETATM   17  C   UNL     1     -10.698   6.647  71.314  1.00  0.00    -0.269 A  
HETATM   18  C   UNL     1     -12.408   8.314  70.838  1.00  0.00    -0.046 A  
HETATM   19  C   UNL     1     -11.996   6.976  70.900  1.00  0.00    -0.409 A  
BRANCH  17  20
HETATM   20  C   UNL     1     -10.211   5.214  71.293  1.00  0.00    -0.292 C  
BRANCH  20  21
HETATM   21  C   UNL     1      -8.782   5.023  70.755  1.00  0.00    -0.127 C  
BRANCH  21  22
HETATM   22  N   UNL     1      -8.705   5.348  69.333  1.00  0.00    -0.105 NA 
HETATM   23  H   UNL     1      -7.756   5.609  69.066  1.00  0.00     0.000 HD 
BRANCH  22  24
HETATM   24  C   UNL     1      -9.216   4.266  68.483  1.00  0.00    -0.140 C  
BRANCH  24  25
HETATM   25  C   UNL     1     -10.163   4.768  67.364  1.00  0.00    -0.078 C  
HETATM   26  O   UNL     1     -10.161   3.833  66.274  1.00  0.00    -0.395 OA 
HETATM   27  H   UNL     1     -10.742   4.141  65.588  1.00  0.00     0.000 HD 
BRANCH  25  28
HETATM   28  C   UNL     1      -9.889   6.167  66.845  1.00  0.00    -0.194 A  
HETATM   29  C   UNL     1      -8.806   6.403  65.985  1.00  0.00    -0.160 A  
HETATM   30  C   UNL     1      -8.501   7.700  65.561  1.00  0.00    -0.132 A  
HETATM   31  C   UNL     1      -9.277   8.776  65.987  1.00  0.00    -0.282 A  
HETATM   32  C   UNL     1     -10.369   8.556  66.821  1.00  0.00    -0.346 A  
HETATM   33  C   UNL     1     -10.673   7.261  67.247  1.00  0.00    -0.391 A  
ENDBRANCH  25  28
ENDBRANCH  24  25
ENDBRANCH  22  24
ENDBRANCH  21  22
ENDBRANCH  20  21
ENDBRANCH  17  20
ENDBRANCH  11  14
ENDBRANCH   9  10
ENDBRANCH   6   9
TORSDOF 9
ENDMDL
MODEL      164
REMARK 921   NORMALIZED FREE ENERGY PREDICTED BY IDOCK:   -4.13 KCAL/MOL
REMARK 922        TOTAL FREE ENERGY PREDICTED BY IDOCK:   -8.74 KCAL/MOL
REMARK 923 INTER-LIGAND FREE ENERGY PREDICTED BY IDOCK:   -8.14 KCAL/MOL
REMARK 924 INTRA-LIGAND FREE ENERGY PREDICTED BY IDOCK:   -0.60 KCAL/MOL
REMARK 927      BINDING AFFINITY PREDICTED BY RF-SCORE:    0.00 PKD
ROOT
HETATM    1  N   UNL     1     -12.986  15.894  74.395  1.00  0.00    -0.880 NA 
HETATM    2  C   UNL     1     -12.856  15.776  73.063  1.00  0.00    -0.502 A  
HETATM    3  H1  UNL     1     -13.802  15.554  74.905  1.00  0.00     0.000 HD 
HETATM    4  H2  UNL     1     -12.237  16.344  74.919  1.00  0.00     0.000 HD 
HETATM    5  N   UNL     1     -11.809  16.212  72.408  1.00  0.00    -0.526 NA 
HETATM    6  C   UNL     1     -11.950  15.947  71.050  1.00  0.00    -0.412 A  
HETATM    7  S   UNL     1     -14.056  15.005  72.111  1.00  0.00    -0.556 SA 
HETATM    8  C   UNL     1     -13.116  15.290  70.708  1.00  0.00    -0.414 A  
ENDROOT
BRANCH   6   9
HETATM    9  C   UNL     1     -10.860  16.360  70.122  1.00  0.00    -0.265 C  
BRANCH   9  10
HETATM   10  C   UNL     1     -10.725  15.485  68.887  1.00  0.00    -0.242 C  
HETATM   11  N   UNL     1     -10.530  14.133  69.129  1.00  0.00    -0.394 N  
HETATM   12  O   UNL     1     -10.900  15.996  67.780  1.00  0.00    -0.318 OA 
HETATM   13  H   UNL     1     -10.416  13.848  70.101  1.00  0.00     0.000 HD 
BRANCH  11  14
HETATM   14  C   UNL     1     -10.477  13.118  68.152  1.00  0.00    -0.248 A  
HETATM   15  C   UNL     1     -11.610  12.632  67.500  1.00  0.00    -0.418 A  
HETATM   16  C   UNL     1     -11.525  11.548  66.626  1.00  0.00    -0.205 A  
HETATM   17  C   UNL     1     -10.297  10.930  66.373  1.00  0.00    -0.306 A  
HETATM   18  C   UNL     1      -9.235  12.550  67.849  1.00  0.00    -0.200 A  
HETATM   19  C   UNL     1      -9.147  11.455  66.978  1.00  0.00    -0.169 A  
BRANCH  17  20
HETATM   20  C   UNL     1     -10.227   9.690  65.506  1.00  0.00    -0.016 C  
BRANCH  20  21
HETATM   21  C   UNL     1      -9.940   8.384  66.268  1.00  0.00    -0.146 C  
BRANCH  21  22
HETATM   22  N   UNL     1     -10.837   8.231  67.409  1.00  0.00    -0.497 NA 
HETATM   23  H   UNL     1     -11.651   8.840  67.322  1.00  0.00     0.000 HD 
BRANCH  22  24
HETATM   24  C   UNL     1     -11.241   6.835  67.620  1.00  0.00    -0.138 C  
BRANCH  24  25
HETATM   25  C   UNL     1     -10.415   6.123  68.722  1.00  0.00    -0.243 C  
HETATM   26  O   UNL     1      -9.525   7.065  69.343  1.00  0.00    -0.147 OA 
HETATM   27  H   UNL     1      -9.019   6.628  70.018  1.00  0.00     0.000 HD 
BRANCH  25  28
HETATM   28  C   UNL     1      -9.640   4.896  68.277  1.00  0.00    -0.196 A  
HETATM   29  C   UNL     1      -9.294   4.730  66.927  1.00  0.00    -0.141 A  
HETATM   30  C   UNL     1      -8.646   3.569  66.495  1.00  0.00    -0.116 A  
HETATM   31  C   UNL     1      -8.331   2.564  67.407  1.00  0.00    -0.094 A  
HETATM   32  C   UNL     1      -8.645   2.724  68.753  1.00  0.00    -0.112 A  
HETATM   33  C   UNL     1      -9.295   3.882  69.185  1.00  0.00    -0.240 A  
ENDBRANCH  25  28
ENDBRANCH  24  25
ENDBRANCH  22  24
ENDBRANCH  21  22
ENDBRANCH  20  21
ENDBRANCH  17  20
ENDBRANCH  11  14
ENDBRANCH   9  10
ENDBRANCH   6   9
TORSDOF 9
ENDMDL
MODEL      165
REMARK 921   NORMALIZED FREE ENERGY PREDICTED BY IDOCK:   -4.12 KCAL/MOL
REMARK 922        TOTAL FREE ENERGY PREDICTED BY IDOCK:   -8.73 KCAL/MOL
REMARK 923 INTER-LIGAND FREE ENERGY PREDICTED BY IDOCK:   -6.01 KCAL/MOL
REMARK 924 INTRA-LIGAND FREE ENERGY PREDICTED BY IDOCK:   -2.72 KCAL/MOL
REMARK 927      BINDING AFFINITY PREDICTED BY RF-SCORE:    0.00 PKD
ROOT
HETATM    1  N   UNL     1      -9.641   9.658  64.956  1.00  0.00    -0.405 NA 
HETATM    2  C   UNL     1      -9.572   9.354  66.263  1.00  0.00    -0.234 A  
HETATM    3  H1  UNL     1     -10.259   9.173  64.305  1.00  0.00     0.000 HD 
HETATM    4  H2  UNL     1      -9.050  10.408  64.599  1.00  0.00     0.000 HD 
HETATM    5  N   UNL     1      -8.780   9.977  67.098  1.00  0.00    -0.128 NA 
HETATM    6  C   UNL     1      -8.927   9.453  68.378  1.00  0.00    -0.128 A  
HETATM    7  S   UNL     1     -10.555   8.128  66.949  1.00  0.00    -0.094 SA 
HETATM    8  C   UNL     1      -9.857   8.436  68.482  1.00  0.00    -0.173 A  
ENDROOT
BRANCH   6   9
HETATM    9  C   UNL     1      -8.115  10.028  69.487  1.00  0.00    -0.166 C  
BRANCH   9  10
HETATM   10  C   UNL     1      -7.440  11.346  69.150  1.00  0.00    -0.057 C  
HETATM   11  N   UNL     1      -8.294  12.399  68.857  1.00  0.00    -0.344 N  
HETATM   12  O   UNL     1      -6.216  11.428  69.262  1.00  0.00    -0.057 OA 
HETATM   13  H   UNL     1      -9.291  12.188  68.813  1.00  0.00     0.000 HD 
BRANCH  11  14
HETATM   14  C   UNL     1      -7.909  13.733  68.614  1.00  0.00    -0.108 A  
HETATM   15  C   UNL     1      -7.008  14.092  67.613  1.00  0.00    -0.200 A  
HETATM   16  C   UNL     1      -6.567  15.410  67.484  1.00  0.00    -0.191 A  
HETATM   17  C   UNL     1      -7.030  16.405  68.349  1.00  0.00    -0.144 A  
HETATM   18  C   UNL     1      -8.430  14.737  69.438  1.00  0.00     0.016 A  
HETATM   19  C   UNL     1      -7.984  16.060  69.316  1.00  0.00    -0.217 A  
BRANCH  17  20
HETATM   20  C   UNL     1      -6.470  17.810  68.270  1.00  0.00    -0.191 C  
BRANCH  20  21
HETATM   21  C   UNL     1      -6.915  18.616  67.038  1.00  0.00    -0.199 C  
BRANCH  21  22
HETATM   22  N   UNL     1      -8.371  18.700  66.959  1.00  0.00    -0.263 NA 
HETATM   23  H   UNL     1      -8.674  19.653  66.758  1.00  0.00     0.000 HD 
BRANCH  22  24
HETATM   24  C   UNL     1      -8.935  17.751  65.992  1.00  0.00     0.009 C  
BRANCH  24  25
HETATM   25  C   UNL     1     -10.360  17.273  66.371  1.00  0.00    -0.316 C  
HETATM   26  O   UNL     1     -10.774  17.907  67.591  1.00  0.00    -0.399 OA 
HETATM   27  H   UNL     1     -11.648  17.614  67.823  1.00  0.00     0.000 HD 
BRANCH  25  28
HETATM   28  C   UNL     1     -10.546  15.771  66.480  1.00  0.00    -0.306 A  
HETATM   29  C   UNL     1      -9.951  14.915  65.540  1.00  0.00    -0.392 A  
HETATM   30  C   UNL     1     -10.176  13.536  65.588  1.00  0.00    -0.306 A  
HETATM   31  C   UNL     1     -10.994  12.995  66.579  1.00  0.00    -0.307 A  
HETATM   32  C   UNL     1     -11.572  13.827  67.532  1.00  0.00    -0.387 A  
HETATM   33  C   UNL     1     -11.349  15.205  67.483  1.00  0.00    -0.325 A  
ENDBRANCH  25  28
ENDBRANCH  24  25
ENDBRANCH  22  24
ENDBRANCH  21  22
ENDBRANCH  20  21
ENDBRANCH  17  20
ENDBRANCH  11  14
ENDBRANCH   9  10
ENDBRANCH   6   9
TORSDOF 9
ENDMDL
MODEL      166
REMARK 921   NORMALIZED FREE ENERGY PREDICTED BY IDOCK:   -4.12 KCAL/MOL
REMARK 922        TOTAL FREE ENERGY PREDICTED BY IDOCK:   -8.73 KCAL/MOL
REMARK 923 INTER-LIGAND FREE ENERGY PREDICTED BY IDOCK:   -7.70 KCAL/MOL
REMARK 924 INTRA-LIGAND FREE ENERGY PREDICTED BY IDOCK:   -1.03 KCAL/MOL
REMARK 927      BINDING AFFINITY PREDICTED BY RF-SCORE:    0.00 PKD
ROOT
HETATM    1  N   UNL     1     -10.825   5.819  72.536  1.00  0.00    -0.235 NA 
HETATM    2  C   UNL     1     -10.091   4.987  71.780  1.00  0.00    -0.200 A  
HETATM    3  H1  UNL     1     -10.627   5.994  73.522  1.00  0.00     0.000 HD 
HETATM    4  H2  UNL     1     -11.615   6.298  72.107  1.00  0.00     0.000 HD 
HETATM    5  N   UNL     1     -10.345   4.763  70.515  1.00  0.00    -0.182 NA 
HETATM    6  C   UNL     1      -9.420   3.865  69.992  1.00  0.00    -0.192 A  
HETATM    7  S   UNL     1      -8.727   4.166  72.417  1.00  0.00    -0.108 SA 
HETATM    8  C   UNL     1      -8.461   3.437  70.890  1.00  0.00    -0.066 A  
ENDROOT
BRANCH   6   9
HETATM    9  C   UNL     1      -9.528   3.476  68.558  1.00  0.00    -0.207 C  
BRANCH   9  10
HETATM   10  C   UNL     1      -9.757   4.641  67.610  1.00  0.00    -0.161 C  
HETATM   11  N   UNL     1      -9.265   5.866  68.035  1.00  0.00    -0.113 N  
HETATM   12  O   UNL     1     -10.253   4.413  66.505  1.00  0.00    -0.232 OA 
HETATM   13  H   UNL     1      -8.864   5.904  68.972  1.00  0.00     0.000 HD 
BRANCH  11  14
HETATM   14  C   UNL     1      -9.268   7.062  67.289  1.00  0.00    -0.129 A  
HETATM   15  C   UNL     1     -10.372   7.912  67.223  1.00  0.00    -0.377 A  
HETATM   16  C   UNL     1     -10.370   9.025  66.381  1.00  0.00    -0.219 A  
HETATM   17  C   UNL     1      -9.256   9.321  65.592  1.00  0.00    -0.291 A  
HETATM   18  C   UNL     1      -8.124   7.392  66.555  1.00  0.00    -0.117 A  
HETATM   19  C   UNL     1      -8.122   8.505  65.702  1.00  0.00    -0.119 A  
BRANCH  17  20
HETATM   20  C   UNL     1      -9.299  10.468  64.604  1.00  0.00    -0.294 C  
BRANCH  20  21
HETATM   21  C   UNL     1     -10.521  11.393  64.740  1.00  0.00    -0.308 C  
BRANCH  21  22
HETATM   22  N   UNL     1     -10.409  12.245  65.921  1.00  0.00    -0.246 NA 
HETATM   23  H   UNL     1     -10.039  13.164  65.678  1.00  0.00     0.000 HD 
BRANCH  22  24
HETATM   24  C   UNL     1     -11.678  12.361  66.650  1.00  0.00    -0.372 C  
BRANCH  24  25
HETATM   25  C   UNL     1     -11.536  12.072  68.166  1.00  0.00    -0.340 C  
HETATM   26  O   UNL     1     -12.316  10.917  68.513  1.00  0.00    -0.807 OA 
HETATM   27  H   UNL     1     -12.229  10.740  69.442  1.00  0.00     0.000 HD 
BRANCH  25  28
HETATM   28  C   UNL     1     -11.879  13.225  69.093  1.00  0.00    -0.378 A  
HETATM   29  C   UNL     1     -11.747  14.550  68.651  1.00  0.00    -0.364 A  
HETATM   30  C   UNL     1     -11.988  15.618  69.520  1.00  0.00    -0.363 A  
HETATM   31  C   UNL     1     -12.370  15.375  70.838  1.00  0.00    -0.452 A  
HETATM   32  C   UNL     1     -12.529  14.067  71.285  1.00  0.00    -0.448 A  
HETATM   33  C   UNL     1     -12.285  13.000  70.418  1.00  0.00    -0.386 A  
ENDBRANCH  25  28
ENDBRANCH  24  25
ENDBRANCH  22  24
ENDBRANCH  21  22
ENDBRANCH  20  21
ENDBRANCH  17  20
ENDBRANCH  11  14
ENDBRANCH   9  10
ENDBRANCH   6   9
TORSDOF 9
ENDMDL
MODEL      167
REMARK 921   NORMALIZED FREE ENERGY PREDICTED BY IDOCK:   -4.11 KCAL/MOL
REMARK 922        TOTAL FREE ENERGY PREDICTED BY IDOCK:   -8.72 KCAL/MOL
REMARK 923 INTER-LIGAND FREE ENERGY PREDICTED BY IDOCK:   -6.74 KCAL/MOL
REMARK 924 INTRA-LIGAND FREE ENERGY PREDICTED BY IDOCK:   -1.97 KCAL/MOL
REMARK 927      BINDING AFFINITY PREDICTED BY RF-SCORE:    0.00 PKD
ROOT
HETATM    1  N   UNL     1     -10.926  15.851  65.766  1.00  0.00    -0.234 NA 
HETATM    2  C   UNL     1     -11.324  14.678  65.245  1.00  0.00    -0.354 A  
HETATM    3  H1  UNL     1     -11.556  16.477  66.268  1.00  0.00     0.000 HD 
HETATM    4  H2  UNL     1      -9.952  16.127  65.655  1.00  0.00     0.000 HD 
HETATM    5  N   UNL     1     -10.516  13.875  64.601  1.00  0.00    -0.433 NA 
HETATM    6  C   UNL     1     -11.203  12.739  64.182  1.00  0.00    -0.387 A  
HETATM    7  S   UNL     1     -12.938  14.125  65.414  1.00  0.00    -0.065 SA 
HETATM    8  C   UNL     1     -12.536  12.707  64.543  1.00  0.00    -0.448 A  
ENDROOT
BRANCH   6   9
HETATM    9  C   UNL     1     -10.461  11.688  63.431  1.00  0.00    -0.482 C  
BRANCH   9  10
HETATM   10  C   UNL     1      -9.711  10.702  64.309  1.00  0.00    -0.314 C  
HETATM   11  N   UNL     1      -9.746  10.965  65.671  1.00  0.00    -0.219 N  
HETATM   12  O   UNL     1      -9.224   9.699  63.787  1.00  0.00    -0.248 OA 
HETATM   13  H   UNL     1     -10.199  11.830  65.964  1.00  0.00     0.000 HD 
BRANCH  11  14
HETATM   14  C   UNL     1      -9.213  10.144  66.685  1.00  0.00    -0.155 A  
HETATM   15  C   UNL     1      -7.912  10.284  67.169  1.00  0.00    -0.114 A  
HETATM   16  C   UNL     1      -7.388   9.376  68.090  1.00  0.00    -0.078 A  
HETATM   17  C   UNL     1      -8.161   8.312  68.561  1.00  0.00    -0.131 A  
HETATM   18  C   UNL     1     -10.014   9.123  67.206  1.00  0.00    -0.270 A  
HETATM   19  C   UNL     1      -9.489   8.205  68.126  1.00  0.00    -0.150 A  
BRANCH  17  20
HETATM   20  C   UNL     1      -7.554   7.272  69.480  1.00  0.00    -0.100 C  
BRANCH  20  21
HETATM   21  C   UNL     1      -6.360   7.765  70.316  1.00  0.00    -0.037 C  
BRANCH  21  22
HETATM   22  N   UNL     1      -6.776   8.133  71.666  1.00  0.00    -0.055 NA 
HETATM   23  H   UNL     1      -6.927   9.138  71.744  1.00  0.00     0.000 HD 
BRANCH  22  24
HETATM   24  C   UNL     1      -7.958   7.384  72.111  1.00  0.00    -0.093 C  
BRANCH  24  25
HETATM   25  C   UNL     1      -8.956   8.251  72.921  1.00  0.00    -0.254 C  
HETATM   26  O   UNL     1      -9.183   7.652  74.206  1.00  0.00    -0.419 OA 
HETATM   27  H   UNL     1      -9.795   8.184  74.703  1.00  0.00     0.000 HD 
BRANCH  25  28
HETATM   28  C   UNL     1     -10.284   8.537  72.242  1.00  0.00    -0.395 A  
HETATM   29  C   UNL     1     -11.369   7.665  72.415  1.00  0.00    -0.381 A  
HETATM   30  C   UNL     1     -12.572   7.880  71.736  1.00  0.00    -0.353 A  
HETATM   31  C   UNL     1     -12.707   8.972  70.881  1.00  0.00    -0.028 A  
HETATM   32  C   UNL     1     -11.649   9.860  70.717  1.00  0.00    -0.430 A  
HETATM   33  C   UNL     1     -10.446   9.644  71.393  1.00  0.00    -0.117 A  
ENDBRANCH  25  28
ENDBRANCH  24  25
ENDBRANCH  22  24
ENDBRANCH  21  22
ENDBRANCH  20  21
ENDBRANCH  17  20
ENDBRANCH  11  14
ENDBRANCH   9  10
ENDBRANCH   6   9
TORSDOF 9
ENDMDL
MODEL      168
REMARK 921   NORMALIZED FREE ENERGY PREDICTED BY IDOCK:   -4.10 KCAL/MOL
REMARK 922        TOTAL FREE ENERGY PREDICTED BY IDOCK:   -8.71 KCAL/MOL
REMARK 923 INTER-LIGAND FREE ENERGY PREDICTED BY IDOCK:   -7.69 KCAL/MOL
REMARK 924 INTRA-LIGAND FREE ENERGY PREDICTED BY IDOCK:   -1.02 KCAL/MOL
REMARK 927      BINDING AFFINITY PREDICTED BY RF-SCORE:    0.00 PKD
ROOT
HETATM    1  N   UNL     1     -10.769   5.222  71.622  1.00  0.00    -0.196 NA 
HETATM    2  C   UNL     1     -10.292   6.477  71.583  1.00  0.00    -0.207 A  
HETATM    3  H1  UNL     1     -11.527   4.934  72.241  1.00  0.00     0.000 HD 
HETATM    4  H2  UNL     1     -10.355   4.525  71.004  1.00  0.00     0.000 HD 
HETATM    5  N   UNL     1      -9.320   6.845  70.789  1.00  0.00    -0.161 NA 
HETATM    6  C   UNL     1      -9.043   8.197  70.964  1.00  0.00    -0.152 A  
HETATM    7  S   UNL     1     -10.953   7.715  72.567  1.00  0.00    -0.354 SA 
HETATM    8  C   UNL     1      -9.842   8.832  71.895  1.00  0.00    -0.324 A  
ENDROOT
BRANCH   6   9
HETATM    9  C   UNL     1      -7.966   8.822  70.146  1.00  0.00    -0.107 C  
BRANCH   9  10
HETATM   10  C   UNL     1      -8.447   9.919  69.211  1.00  0.00    -0.158 C  
HETATM   11  N   UNL     1      -9.506   9.579  68.383  1.00  0.00    -0.137 N  
HETATM   12  O   UNL     1      -7.955  11.043  69.318  1.00  0.00    -0.121 OA 
HETATM   13  H   UNL     1      -9.823   8.609  68.410  1.00  0.00     0.000 HD 
BRANCH  11  14
HETATM   14  C   UNL     1     -10.185  10.451  67.508  1.00  0.00    -0.210 A  
HETATM   15  C   UNL     1     -11.115  11.393  67.947  1.00  0.00    -0.320 A  
HETATM   16  C   UNL     1     -11.848  12.155  67.035  1.00  0.00    -0.288 A  
HETATM   17  C   UNL     1     -11.656  12.001  65.660  1.00  0.00    -0.356 A  
HETATM   18  C   UNL     1      -9.938  10.342  66.136  1.00  0.00    -0.300 A  
HETATM   19  C   UNL     1     -10.678  11.100  65.217  1.00  0.00    -0.271 A  
BRANCH  17  20
HETATM   20  C   UNL     1     -12.526  12.754  64.676  1.00  0.00    -0.525 C  
BRANCH  20  21
HETATM   21  C   UNL     1     -12.357  14.283  64.701  1.00  0.00    -0.415 C  
BRANCH  21  22
HETATM   22  N   UNL     1     -10.967  14.665  64.463  1.00  0.00    -0.621 NA 
HETATM   23  H   UNL     1     -10.754  14.673  63.465  1.00  0.00     0.000 HD 
BRANCH  22  24
HETATM   24  C   UNL     1     -10.624  15.948  65.088  1.00  0.00    -0.397 C  
BRANCH  24  25
HETATM   25  C   UNL     1      -9.955  15.787  66.477  1.00  0.00    -0.269 C  
HETATM   26  O   UNL     1     -10.782  16.390  67.484  1.00  0.00    -0.325 OA 
HETATM   27  H   UNL     1     -10.372  16.291  68.336  1.00  0.00     0.000 HD 
BRANCH  25  28
HETATM   28  C   UNL     1      -8.536  16.313  66.591  1.00  0.00    -0.306 A  
HETATM   29  C   UNL     1      -7.551  15.554  67.241  1.00  0.00    -0.252 A  
HETATM   30  C   UNL     1      -6.260  16.061  67.416  1.00  0.00    -0.191 A  
HETATM   31  C   UNL     1      -5.936  17.329  66.938  1.00  0.00    -0.214 A  
HETATM   32  C   UNL     1      -6.894  18.084  66.270  1.00  0.00    -0.291 A  
HETATM   33  C   UNL     1      -8.185  17.580  66.097  1.00  0.00    -0.222 A  
ENDBRANCH  25  28
ENDBRANCH  24  25
ENDBRANCH  22  24
ENDBRANCH  21  22
ENDBRANCH  20  21
ENDBRANCH  17  20
ENDBRANCH  11  14
ENDBRANCH   9  10
ENDBRANCH   6   9
TORSDOF 9
ENDMDL
MODEL      169
REMARK 921   NORMALIZED FREE ENERGY PREDICTED BY IDOCK:   -4.10 KCAL/MOL
REMARK 922        TOTAL FREE ENERGY PREDICTED BY IDOCK:   -8.71 KCAL/MOL
REMARK 923 INTER-LIGAND FREE ENERGY PREDICTED BY IDOCK:   -6.81 KCAL/MOL
REMARK 924 INTRA-LIGAND FREE ENERGY PREDICTED BY IDOCK:   -1.90 KCAL/MOL
REMARK 927      BINDING AFFINITY PREDICTED BY RF-SCORE:    0.00 PKD
ROOT
HETATM    1  N   UNL     1     -11.380   4.227  65.144  1.00  0.00    -0.997 NA 
HETATM    2  C   UNL     1     -10.083   4.045  64.845  1.00  0.00    -0.205 A  
HETATM    3  H1  UNL     1     -12.054   3.463  65.179  1.00  0.00     0.000 HD 
HETATM    4  H2  UNL     1     -11.704   5.172  65.346  1.00  0.00     0.000 HD 
HETATM    5  N   UNL     1      -9.218   5.026  64.801  1.00  0.00    -0.061 NA 
HETATM    6  C   UNL     1      -7.957   4.539  64.471  1.00  0.00    -0.092 A  
HETATM    7  S   UNL     1      -9.450   2.485  64.523  1.00  0.00    -0.104 SA 
HETATM    8  C   UNL     1      -7.898   3.171  64.286  1.00  0.00    -0.081 A  
ENDROOT
BRANCH   6   9
HETATM    9  C   UNL     1      -6.820   5.496  64.372  1.00  0.00    -0.047 C  
BRANCH   9  10
HETATM   10  C   UNL     1      -7.220   6.957  64.489  1.00  0.00    -0.073 C  
HETATM   11  N   UNL     1      -7.715   7.346  65.725  1.00  0.00    -0.096 N  
HETATM   12  O   UNL     1      -6.984   7.711  63.544  1.00  0.00    -0.057 OA 
HETATM   13  H   UNL     1      -7.845   6.614  66.423  1.00  0.00     0.000 HD 
BRANCH  11  14
HETATM   14  C   UNL     1      -8.056   8.660  66.103  1.00  0.00    -0.108 A  
HETATM   15  C   UNL     1      -7.105   9.655  66.330  1.00  0.00    -0.093 A  
HETATM   16  C   UNL     1      -7.480  10.908  66.815  1.00  0.00    -0.134 A  
HETATM   17  C   UNL     1      -8.822  11.201  67.073  1.00  0.00    -0.149 A  
HETATM   18  C   UNL     1      -9.407   8.970  66.292  1.00  0.00    -0.284 A  
HETATM   19  C   UNL     1      -9.786  10.226  66.787  1.00  0.00    -0.246 A  
BRANCH  17  20
HETATM   20  C   UNL     1      -9.211  12.525  67.697  1.00  0.00    -0.190 C  
BRANCH  20  21
HETATM   21  C   UNL     1      -8.067  13.549  67.807  1.00  0.00    -0.177 C  
BRANCH  21  22
HETATM   22  N   UNL     1      -8.305  14.701  66.940  1.00  0.00    -0.364 NA 
HETATM   23  H   UNL     1      -7.758  14.634  66.082  1.00  0.00     0.000 HD 
BRANCH  22  24
HETATM   24  C   UNL     1      -9.729  14.895  66.646  1.00  0.00    -0.261 C  
BRANCH  24  25
HETATM   25  C   UNL     1     -10.023  15.033  65.130  1.00  0.00    -0.234 C  
HETATM   26  O   UNL     1     -10.692  16.279  64.878  1.00  0.00    -0.646 OA 
HETATM   27  H   UNL     1     -10.871  16.363  63.949  1.00  0.00     0.000 HD 
BRANCH  25  28
HETATM   28  C   UNL     1     -10.802  13.892  64.502  1.00  0.00    -0.381 A  
HETATM   29  C   UNL     1     -12.195  13.981  64.361  1.00  0.00    -0.457 A  
HETATM   30  C   UNL     1     -12.930  12.906  63.852  1.00  0.00     0.086 A  
HETATM   31  C   UNL     1     -12.282  11.732  63.473  1.00  0.00    -0.489 A  
HETATM   32  C   UNL     1     -10.898  11.637  63.584  1.00  0.00    -0.503 A  
HETATM   33  C   UNL     1     -10.163  12.709  64.095  1.00  0.00    -0.366 A  
ENDBRANCH  25  28
ENDBRANCH  24  25
ENDBRANCH  22  24
ENDBRANCH  21  22
ENDBRANCH  20  21
ENDBRANCH  17  20
ENDBRANCH  11  14
ENDBRANCH   9  10
ENDBRANCH   6   9
TORSDOF 9
ENDMDL
MODEL      170
REMARK 921   NORMALIZED FREE ENERGY PREDICTED BY IDOCK:   -4.10 KCAL/MOL
REMARK 922        TOTAL FREE ENERGY PREDICTED BY IDOCK:   -8.71 KCAL/MOL
REMARK 923 INTER-LIGAND FREE ENERGY PREDICTED BY IDOCK:   -6.81 KCAL/MOL
REMARK 924 INTRA-LIGAND FREE ENERGY PREDICTED BY IDOCK:   -1.90 KCAL/MOL
REMARK 927      BINDING AFFINITY PREDICTED BY RF-SCORE:    0.00 PKD
ROOT
HETATM    1  N   UNL     1     -13.239   8.769  72.983  1.00  0.00    -0.854 NA 
HETATM    2  C   UNL     1     -12.282   8.239  72.203  1.00  0.00    -0.364 A  
HETATM    3  H1  UNL     1     -13.488   8.386  73.895  1.00  0.00     0.000 HD 
HETATM    4  H2  UNL     1     -13.740   9.591  72.648  1.00  0.00     0.000 HD 
HETATM    5  N   UNL     1     -11.963   8.731  71.033  1.00  0.00    -0.280 NA 
HETATM    6  C   UNL     1     -10.940   7.982  70.461  1.00  0.00    -0.247 A  
HETATM    7  S   UNL     1     -11.372   6.875  72.705  1.00  0.00    -0.149 SA 
HETATM    8  C   UNL     1     -10.492   6.930  71.237  1.00  0.00    -0.208 A  
ENDROOT
BRANCH   6   9
HETATM    9  C   UNL     1     -10.422   8.378  69.121  1.00  0.00    -0.218 C  
BRANCH   9  10
HETATM   10  C   UNL     1      -9.392   9.495  69.154  1.00  0.00    -0.163 C  
HETATM   11  N   UNL     1      -9.260  10.223  67.981  1.00  0.00    -0.134 N  
HETATM   12  O   UNL     1      -8.832   9.749  70.221  1.00  0.00    -0.225 OA 
HETATM   13  H   UNL     1      -9.799   9.906  67.175  1.00  0.00     0.000 HD 
BRANCH  11  14
HETATM   14  C   UNL     1      -8.448  11.361  67.802  1.00  0.00    -0.128 A  
HETATM   15  C   UNL     1      -7.140  11.292  67.324  1.00  0.00    -0.114 A  
HETATM   16  C   UNL     1      -6.334  12.430  67.272  1.00  0.00    -0.142 A  
HETATM   17  C   UNL     1      -6.826  13.671  67.685  1.00  0.00    -0.185 A  
HETATM   18  C   UNL     1      -8.968  12.612  68.151  1.00  0.00    -0.199 A  
HETATM   19  C   UNL     1      -8.159  13.756  68.107  1.00  0.00    -0.155 A  
BRANCH  17  20
HETATM   20  C   UNL     1      -5.916  14.881  67.725  1.00  0.00    -0.131 C  
BRANCH  20  21
HETATM   21  C   UNL     1      -6.379  16.009  68.663  1.00  0.00    -0.116 C  
BRANCH  21  22
HETATM   22  N   UNL     1      -6.421  17.292  67.967  1.00  0.00    -0.151 NA 
HETATM   23  H   UNL     1      -5.514  17.759  68.001  1.00  0.00     0.000 HD 
BRANCH  22  24
HETATM   24  C   UNL     1      -6.897  17.163  66.585  1.00  0.00    -0.243 C  
BRANCH  24  25
HETATM   25  C   UNL     1      -8.328  17.723  66.381  1.00  0.00    -0.248 C  
HETATM   26  O   UNL     1      -8.462  18.973  67.076  1.00  0.00    -0.273 OA 
HETATM   27  H   UNL     1      -9.339  19.315  66.951  1.00  0.00     0.000 HD 
BRANCH  25  28
HETATM   28  C   UNL     1      -9.463  16.792  66.769  1.00  0.00    -0.261 A  
HETATM   29  C   UNL     1      -9.941  15.842  65.854  1.00  0.00    -0.380 A  
HETATM   30  C   UNL     1     -11.033  15.030  66.175  1.00  0.00    -0.334 A  
HETATM   31  C   UNL     1     -11.657  15.154  67.414  1.00  0.00    -0.251 A  
HETATM   32  C   UNL     1     -11.180  16.075  68.342  1.00  0.00    -0.364 A  
HETATM   33  C   UNL     1     -10.091  16.888  68.021  1.00  0.00    -0.293 A  
ENDBRANCH  25  28
ENDBRANCH  24  25
ENDBRANCH  22  24
ENDBRANCH  21  22
ENDBRANCH  20  21
ENDBRANCH  17  20
ENDBRANCH  11  14
ENDBRANCH   9  10
ENDBRANCH   6   9
TORSDOF 9
ENDMDL
MODEL      171
REMARK 921   NORMALIZED FREE ENERGY PREDICTED BY IDOCK:   -4.10 KCAL/MOL
REMARK 922        TOTAL FREE ENERGY PREDICTED BY IDOCK:   -8.70 KCAL/MOL
REMARK 923 INTER-LIGAND FREE ENERGY PREDICTED BY IDOCK:   -6.04 KCAL/MOL
REMARK 924 INTRA-LIGAND FREE ENERGY PREDICTED BY IDOCK:   -2.66 KCAL/MOL
REMARK 927      BINDING AFFINITY PREDICTED BY RF-SCORE:    0.00 PKD
ROOT
HETATM    1  N   UNL     1      -7.917   4.037  72.561  1.00  0.00    -0.081 NA 
HETATM    2  C   UNL     1      -9.124   4.584  72.777  1.00  0.00    -0.121 A  
HETATM    3  H1  UNL     1      -7.756   3.029  72.562  1.00  0.00     0.000 HD 
HETATM    4  H2  UNL     1      -7.125   4.655  72.389  1.00  0.00     0.000 HD 
HETATM    5  N   UNL     1      -9.331   5.877  72.777  1.00  0.00    -0.146 NA 
HETATM    6  C   UNL     1     -10.673   6.147  73.022  1.00  0.00    -0.252 A  
HETATM    7  S   UNL     1     -10.512   3.613  73.044  1.00  0.00    -0.160 SA 
HETATM    8  C   UNL     1     -11.465   5.028  73.190  1.00  0.00    -0.282 A  
ENDROOT
BRANCH   6   9
HETATM    9  C   UNL     1     -11.124   7.567  73.059  1.00  0.00    -0.413 C  
BRANCH   9  10
HETATM   10  C   UNL     1     -11.561   8.120  71.713  1.00  0.00    -0.291 C  
HETATM   11  N   UNL     1     -10.642   8.939  71.075  1.00  0.00    -0.227 N  
HETATM   12  O   UNL     1     -12.626   7.731  71.233  1.00  0.00    -0.311 OA 
HETATM   13  H   UNL     1      -9.790   9.168  71.588  1.00  0.00     0.000 HD 
BRANCH  11  14
HETATM   14  C   UNL     1     -10.778   9.485  69.783  1.00  0.00    -0.239 A  
HETATM   15  C   UNL     1     -10.406   8.800  68.626  1.00  0.00    -0.230 A  
HETATM   16  C   UNL     1     -10.450   9.423  67.378  1.00  0.00    -0.343 A  
HETATM   17  C   UNL     1     -10.881  10.746  67.256  1.00  0.00    -0.344 A  
HETATM   18  C   UNL     1     -11.277  10.786  69.658  1.00  0.00    -0.355 A  
HETATM   19  C   UNL     1     -11.315  11.417  68.407  1.00  0.00    -0.346 A  
BRANCH  17  20
HETATM   20  C   UNL     1     -10.828  11.449  65.916  1.00  0.00    -0.292 C  
BRANCH  20  21
HETATM   21  C   UNL     1     -10.196  10.627  64.779  1.00  0.00    -0.331 C  
BRANCH  21  22
HETATM   22  N   UNL     1      -8.862  11.120  64.449  1.00  0.00    -0.380 NA 
HETATM   23  H   UNL     1      -8.591  11.888  65.063  1.00  0.00     0.000 HD 
BRANCH  22  24
HETATM   24  C   UNL     1      -7.853  10.054  64.458  1.00  0.00    -0.145 C  
BRANCH  24  25
HETATM   25  C   UNL     1      -6.633  10.380  65.358  1.00  0.00    -0.109 C  
HETATM   26  O   UNL     1      -5.579   9.439  65.103  1.00  0.00    -0.051 OA 
HETATM   27  H   UNL     1      -4.832   9.640  65.654  1.00  0.00     0.000 HD 
BRANCH  25  28
HETATM   28  C   UNL     1      -6.912  10.453  66.848  1.00  0.00    -0.093 A  
HETATM   29  C   UNL     1      -7.286  11.670  67.438  1.00  0.00    -0.128 A  
HETATM   30  C   UNL     1      -7.473  11.763  68.821  1.00  0.00    -0.109 A  
HETATM   31  C   UNL     1      -7.295  10.642  69.628  1.00  0.00    -0.133 A  
HETATM   32  C   UNL     1      -6.947   9.423  69.056  1.00  0.00    -0.059 A  
HETATM   33  C   UNL     1      -6.758   9.329  67.675  1.00  0.00    -0.068 A  
ENDBRANCH  25  28
ENDBRANCH  24  25
ENDBRANCH  22  24
ENDBRANCH  21  22
ENDBRANCH  20  21
ENDBRANCH  17  20
ENDBRANCH  11  14
ENDBRANCH   9  10
ENDBRANCH   6   9
TORSDOF 9
ENDMDL
MODEL      172
REMARK 921   NORMALIZED FREE ENERGY PREDICTED BY IDOCK:   -4.09 KCAL/MOL
REMARK 922        TOTAL FREE ENERGY PREDICTED BY IDOCK:   -8.69 KCAL/MOL
REMARK 923 INTER-LIGAND FREE ENERGY PREDICTED BY IDOCK:   -8.34 KCAL/MOL
REMARK 924 INTRA-LIGAND FREE ENERGY PREDICTED BY IDOCK:   -0.34 KCAL/MOL
REMARK 927      BINDING AFFINITY PREDICTED BY RF-SCORE:    0.00 PKD
ROOT
HETATM    1  N   UNL     1     -11.010   7.141  73.723  1.00  0.00    -0.526 NA 
HETATM    2  C   UNL     1     -10.433   6.509  72.688  1.00  0.00    -0.211 A  
HETATM    3  H1  UNL     1     -10.987   6.780  74.677  1.00  0.00     0.000 HD 
HETATM    4  H2  UNL     1     -11.492   8.022  73.548  1.00  0.00     0.000 HD 
HETATM    5  N   UNL     1     -10.463   6.973  71.464  1.00  0.00    -0.204 NA 
HETATM    6  C   UNL     1      -9.782   6.112  70.609  1.00  0.00    -0.174 A  
HETATM    7  S   UNL     1      -9.576   5.039  72.902  1.00  0.00    -0.144 SA 
HETATM    8  C   UNL     1      -9.230   5.005  71.225  1.00  0.00    -0.145 A  
ENDROOT
BRANCH   6   9
HETATM    9  C   UNL     1      -9.692   6.460  69.163  1.00  0.00    -0.148 C  
BRANCH   9  10
HETATM   10  C   UNL     1      -9.910   7.932  68.858  1.00  0.00    -0.173 C  
HETATM   11  N   UNL     1     -10.941   8.542  69.556  1.00  0.00    -0.419 N  
HETATM   12  O   UNL     1      -9.112   8.504  68.114  1.00  0.00    -0.138 OA 
HETATM   13  H   UNL     1     -11.515   7.945  70.151  1.00  0.00     0.000 HD 
BRANCH  11  14
HETATM   14  C   UNL     1     -11.268   9.913  69.517  1.00  0.00    -0.177 A  
HETATM   15  C   UNL     1     -10.754  10.789  68.561  1.00  0.00    -0.245 A  
HETATM   16  C   UNL     1     -11.013  12.158  68.631  1.00  0.00    -0.284 A  
HETATM   17  C   UNL     1     -11.806  12.683  69.655  1.00  0.00    -0.379 A  
HETATM   18  C   UNL     1     -12.120  10.422  70.503  1.00  0.00    -0.423 A  
HETATM   19  C   UNL     1     -12.376  11.798  70.580  1.00  0.00    -0.421 A  
BRANCH  17  20
HETATM   20  C   UNL     1     -11.998  14.180  69.785  1.00  0.00    -0.396 C  
BRANCH  20  21
HETATM   21  C   UNL     1     -10.697  15.002  69.775  1.00  0.00    -0.244 C  
BRANCH  21  22
HETATM   22  N   UNL     1     -10.454  15.589  68.460  1.00  0.00    -0.233 NA 
HETATM   23  H   UNL     1     -10.483  16.608  68.501  1.00  0.00     0.000 HD 
BRANCH  22  24
HETATM   24  C   UNL     1      -9.199  15.120  67.860  1.00  0.00    -0.184 C  
BRANCH  24  25
HETATM   25  C   UNL     1      -9.210  15.170  66.311  1.00  0.00    -0.301 C  
HETATM   26  O   UNL     1      -9.240  16.538  65.872  1.00  0.00    -0.451 OA 
HETATM   27  H   UNL     1      -9.246  16.568  64.923  1.00  0.00     0.000 HD 
BRANCH  25  28
HETATM   28  C   UNL     1     -10.319  14.386  65.633  1.00  0.00    -0.360 A  
HETATM   29  C   UNL     1     -10.293  12.983  65.632  1.00  0.00    -0.294 A  
HETATM   30  C   UNL     1     -11.269  12.253  64.947  1.00  0.00    -0.365 A  
HETATM   31  C   UNL     1     -12.285  12.915  64.260  1.00  0.00    -0.481 A  
HETATM   32  C   UNL     1     -12.338  14.305  64.272  1.00  0.00    -0.407 A  
HETATM   33  C   UNL     1     -11.362  15.036  64.953  1.00  0.00    -0.419 A  
ENDBRANCH  25  28
ENDBRANCH  24  25
ENDBRANCH  22  24
ENDBRANCH  21  22
ENDBRANCH  20  21
ENDBRANCH  17  20
ENDBRANCH  11  14
ENDBRANCH   9  10
ENDBRANCH   6   9
TORSDOF 9
ENDMDL
MODEL      173
REMARK 921   NORMALIZED FREE ENERGY PREDICTED BY IDOCK:   -4.08 KCAL/MOL
REMARK 922        TOTAL FREE ENERGY PREDICTED BY IDOCK:   -8.67 KCAL/MOL
REMARK 923 INTER-LIGAND FREE ENERGY PREDICTED BY IDOCK:   -7.67 KCAL/MOL
REMARK 924 INTRA-LIGAND FREE ENERGY PREDICTED BY IDOCK:   -1.00 KCAL/MOL
REMARK 927      BINDING AFFINITY PREDICTED BY RF-SCORE:    0.00 PKD
ROOT
HETATM    1  N   UNL     1     -11.308   4.249  64.980  1.00  0.00    -1.043 NA 
HETATM    2  C   UNL     1     -10.169   4.712  65.520  1.00  0.00    -0.195 A  
HETATM    3  H1  UNL     1     -11.924   3.593  65.461  1.00  0.00     0.000 HD 
HETATM    4  H2  UNL     1     -11.569   4.566  64.047  1.00  0.00     0.000 HD 
HETATM    5  N   UNL     1      -9.378   5.553  64.903  1.00  0.00     0.216 NA 
HETATM    6  C   UNL     1      -8.283   5.857  65.704  1.00  0.00    -0.134 A  
HETATM    7  S   UNL     1      -9.673   4.251  67.095  1.00  0.00    -0.168 SA 
HETATM    8  C   UNL     1      -8.282   5.237  66.939  1.00  0.00    -0.108 A  
ENDROOT
BRANCH   6   9
HETATM    9  C   UNL     1      -7.257   6.807  65.188  1.00  0.00    -0.074 C  
BRANCH   9  10
HETATM   10  C   UNL     1      -7.737   8.244  65.071  1.00  0.00    -0.105 C  
HETATM   11  N   UNL     1      -9.074   8.456  65.375  1.00  0.00    -0.405 N  
HETATM   12  O   UNL     1      -6.911   9.124  64.828  1.00  0.00    -0.083 OA 
HETATM   13  H   UNL     1      -9.641   7.631  65.573  1.00  0.00     0.000 HD 
BRANCH  11  14
HETATM   14  C   UNL     1      -9.720   9.707  65.435  1.00  0.00    -0.295 A  
HETATM   15  C   UNL     1     -10.168  10.273  66.629  1.00  0.00    -0.294 A  
HETATM   16  C   UNL     1     -10.905  11.458  66.628  1.00  0.00    -0.339 A  
HETATM   17  C   UNL     1     -11.199  12.114  65.430  1.00  0.00    -0.381 A  
HETATM   18  C   UNL     1      -9.951  10.396  64.240  1.00  0.00    -0.368 A  
HETATM   19  C   UNL     1     -10.697  11.582  64.235  1.00  0.00    -0.416 A  
BRANCH  17  20
HETATM   20  C   UNL     1     -12.086  13.342  65.426  1.00  0.00    -0.464 C  
BRANCH  20  21
HETATM   21  C   UNL     1     -12.201  14.061  66.782  1.00  0.00    -0.404 C  
BRANCH  21  22
HETATM   22  N   UNL     1     -11.114  15.018  66.966  1.00  0.00    -0.330 NA 
HETATM   23  H   UNL     1     -11.055  15.663  66.178  1.00  0.00     0.000 HD 
BRANCH  22  24
HETATM   24  C   UNL     1     -11.217  15.744  68.238  1.00  0.00    -0.356 C  
BRANCH  24  25
HETATM   25  C   UNL     1     -10.513  17.125  68.207  1.00  0.00    -0.373 C  
HETATM   26  O   UNL     1     -10.898  17.837  67.021  1.00  0.00    -0.240 OA 
HETATM   27  H   UNL     1     -10.466  18.684  67.002  1.00  0.00     0.000 HD 
BRANCH  25  28
HETATM   28  C   UNL     1      -9.000  17.098  68.326  1.00  0.00    -0.248 A  
HETATM   29  C   UNL     1      -8.366  16.070  69.039  1.00  0.00    -0.243 A  
HETATM   30  C   UNL     1      -6.979  16.076  69.218  1.00  0.00    -0.205 A  
HETATM   31  C   UNL     1      -6.210  17.106  68.681  1.00  0.00    -0.159 A  
HETATM   32  C   UNL     1      -6.821  18.120  67.950  1.00  0.00    -0.211 A  
HETATM   33  C   UNL     1      -8.206  18.116  67.774  1.00  0.00    -0.245 A  
ENDBRANCH  25  28
ENDBRANCH  24  25
ENDBRANCH  22  24
ENDBRANCH  21  22
ENDBRANCH  20  21
ENDBRANCH  17  20
ENDBRANCH  11  14
ENDBRANCH   9  10
ENDBRANCH   6   9
TORSDOF 9
ENDMDL
MODEL      174
REMARK 921   NORMALIZED FREE ENERGY PREDICTED BY IDOCK:   -4.06 KCAL/MOL
REMARK 922        TOTAL FREE ENERGY PREDICTED BY IDOCK:   -8.65 KCAL/MOL
REMARK 923 INTER-LIGAND FREE ENERGY PREDICTED BY IDOCK:   -6.61 KCAL/MOL
REMARK 924 INTRA-LIGAND FREE ENERGY PREDICTED BY IDOCK:   -2.04 KCAL/MOL
REMARK 927      BINDING AFFINITY PREDICTED BY RF-SCORE:    0.00 PKD
ROOT
HETATM    1  N   UNL     1     -11.318   4.681  65.295  1.00  0.00    -1.078 NA 
HETATM    2  C   UNL     1     -10.074   4.689  65.802  1.00  0.00    -0.244 A  
HETATM    3  H1  UNL     1     -11.863   3.827  65.174  1.00  0.00     0.000 HD 
HETATM    4  H2  UNL     1     -11.736   5.568  65.017  1.00  0.00     0.000 HD 
HETATM    5  N   UNL     1      -9.375   5.785  65.956  1.00  0.00    -0.148 NA 
HETATM    6  C   UNL     1      -8.132   5.487  66.505  1.00  0.00    -0.105 A  
HETATM    7  S   UNL     1      -9.310   3.244  66.321  1.00  0.00    -0.075 SA 
HETATM    8  C   UNL     1      -7.926   4.147  66.772  1.00  0.00    -0.097 A  
ENDROOT
BRANCH   6   9
HETATM    9  C   UNL     1      -7.177   6.600  66.768  1.00  0.00    -0.077 C  
BRANCH   9  10
HETATM   10  C   UNL     1      -7.773   7.767  67.536  1.00  0.00    -0.117 C  
HETATM   11  N   UNL     1      -8.640   8.577  66.818  1.00  0.00    -0.112 N  
HETATM   12  O   UNL     1      -7.544   7.857  68.743  1.00  0.00    -0.096 OA 
HETATM   13  H   UNL     1      -8.746   8.376  65.824  1.00  0.00     0.000 HD 
BRANCH  11  14
HETATM   14  C   UNL     1      -9.387   9.654  67.338  1.00  0.00    -0.134 A  
HETATM   15  C   UNL     1     -10.635   9.490  67.940  1.00  0.00    -0.299 A  
HETATM   16  C   UNL     1     -11.390  10.595  68.335  1.00  0.00    -0.348 A  
HETATM   17  C   UNL     1     -10.907  11.893  68.149  1.00  0.00    -0.259 A  
HETATM   18  C   UNL     1      -8.868  10.947  67.213  1.00  0.00    -0.134 A  
HETATM   19  C   UNL     1      -9.628  12.059  67.602  1.00  0.00    -0.188 A  
BRANCH  17  20
HETATM   20  C   UNL     1     -11.775  13.089  68.484  1.00  0.00    -0.377 C  
BRANCH  20  21
HETATM   21  C   UNL     1     -12.160  13.213  69.968  1.00  0.00    -0.305 C  
BRANCH  21  22
HETATM   22  N   UNL     1     -11.488  14.348  70.595  1.00  0.00    -0.497 NA 
HETATM   23  H   UNL     1     -10.484  14.185  70.671  1.00  0.00     0.000 HD 
BRANCH  22  24
HETATM   24  C   UNL     1     -11.768  15.614  69.906  1.00  0.00    -0.362 C  
BRANCH  24  25
HETATM   25  C   UNL     1     -10.496  16.464  69.657  1.00  0.00    -0.278 C  
HETATM   26  O   UNL     1     -10.867  17.746  69.128  1.00  0.00    -0.269 OA 
HETATM   27  H   UNL     1     -10.087  18.267  68.976  1.00  0.00     0.000 HD 
BRANCH  25  28
HETATM   28  C   UNL     1      -9.439  15.827  68.773  1.00  0.00    -0.219 A  
HETATM   29  C   UNL     1      -8.301  15.237  69.345  1.00  0.00    -0.232 A  
HETATM   30  C   UNL     1      -7.287  14.714  68.537  1.00  0.00    -0.117 A  
HETATM   31  C   UNL     1      -7.400  14.768  67.150  1.00  0.00    -0.020 A  
HETATM   32  C   UNL     1      -8.533  15.328  66.567  1.00  0.00    -0.202 A  
HETATM   33  C   UNL     1      -9.545  15.853  67.373  1.00  0.00    -0.221 A  
ENDBRANCH  25  28
ENDBRANCH  24  25
ENDBRANCH  22  24
ENDBRANCH  21  22
ENDBRANCH  20  21
ENDBRANCH  17  20
ENDBRANCH  11  14
ENDBRANCH   9  10
ENDBRANCH   6   9
TORSDOF 9
ENDMDL
MODEL      175
REMARK 921   NORMALIZED FREE ENERGY PREDICTED BY IDOCK:   -4.06 KCAL/MOL
REMARK 922        TOTAL FREE ENERGY PREDICTED BY IDOCK:   -8.64 KCAL/MOL
REMARK 923 INTER-LIGAND FREE ENERGY PREDICTED BY IDOCK:   -7.23 KCAL/MOL
REMARK 924 INTRA-LIGAND FREE ENERGY PREDICTED BY IDOCK:   -1.42 KCAL/MOL
REMARK 927      BINDING AFFINITY PREDICTED BY RF-SCORE:    0.00 PKD
ROOT
HETATM    1  N   UNL     1      -6.359  18.439  66.551  1.00  0.00    -0.176 NA 
HETATM    2  C   UNL     1      -7.604  18.491  67.050  1.00  0.00    -0.223 A  
HETATM    3  H1  UNL     1      -5.656  19.156  66.734  1.00  0.00     0.000 HD 
HETATM    4  H2  UNL     1      -6.104  17.648  65.961  1.00  0.00     0.000 HD 
HETATM    5  N   UNL     1      -8.506  17.572  66.814  1.00  0.00    -0.239 NA 
HETATM    6  C   UNL     1      -9.695  17.888  67.464  1.00  0.00    -0.278 A  
HETATM    7  S   UNL     1      -8.105  19.772  68.075  1.00  0.00    -0.281 SA 
HETATM    8  C   UNL     1      -9.655  19.055  68.202  1.00  0.00    -0.341 A  
ENDROOT
BRANCH   6   9
HETATM    9  C   UNL     1     -10.855  16.963  67.329  1.00  0.00    -0.131 C  
BRANCH   9  10
HETATM   10  C   UNL     1     -10.884  15.843  68.354  1.00  0.00    -0.316 C  
HETATM   11  N   UNL     1     -11.861  14.877  68.160  1.00  0.00    -0.488 N  
HETATM   12  O   UNL     1      -9.997  15.800  69.207  1.00  0.00    -0.226 OA 
HETATM   13  H   UNL     1     -12.524  15.035  67.401  1.00  0.00     0.000 HD 
BRANCH  11  14
HETATM   14  C   UNL     1     -12.020  13.698  68.915  1.00  0.00    -0.356 A  
HETATM   15  C   UNL     1     -12.338  13.704  70.273  1.00  0.00    -0.392 A  
HETATM   16  C   UNL     1     -12.372  12.518  71.007  1.00  0.00    -0.307 A  
HETATM   17  C   UNL     1     -12.101  11.292  70.394  1.00  0.00    -0.474 A  
HETATM   18  C   UNL     1     -11.817  12.468  68.281  1.00  0.00    -0.361 A  
HETATM   19  C   UNL     1     -11.842  11.275  69.017  1.00  0.00    -0.421 A  
BRANCH  17  20
HETATM   20  C   UNL     1     -12.036  10.021  71.216  1.00  0.00    -0.487 C  
BRANCH  20  21
HETATM   21  C   UNL     1     -10.786   9.157  70.975  1.00  0.00    -0.291 C  
BRANCH  21  22
HETATM   22  N   UNL     1      -9.601   9.987  70.779  1.00  0.00    -0.238 NA 
HETATM   23  H   UNL     1      -9.459  10.618  71.568  1.00  0.00     0.000 HD 
BRANCH  22  24
HETATM   24  C   UNL     1      -8.396   9.189  70.518  1.00  0.00    -0.194 C  
BRANCH  24  25
HETATM   25  C   UNL     1      -7.214  10.034  69.978  1.00  0.00    -0.156 C  
HETATM   26  O   UNL     1      -6.480  10.597  71.077  1.00  0.00    -0.339 OA 
HETATM   27  H   UNL     1      -5.756  11.115  70.745  1.00  0.00     0.000 HD 
BRANCH  25  28
HETATM   28  C   UNL     1      -7.580  11.125  68.988  1.00  0.00    -0.119 A  
HETATM   29  C   UNL     1      -7.315  12.469  69.288  1.00  0.00     0.220 A  
HETATM   30  C   UNL     1      -7.715  13.486  68.416  1.00  0.00    -0.135 A  
HETATM   31  C   UNL     1      -8.379  13.172  67.232  1.00  0.00    -0.182 A  
HETATM   32  C   UNL     1      -8.628  11.842  66.909  1.00  0.00    -0.185 A  
HETATM   33  C   UNL     1      -8.232  10.826  67.780  1.00  0.00    -0.112 A  
ENDBRANCH  25  28
ENDBRANCH  24  25
ENDBRANCH  22  24
ENDBRANCH  21  22
ENDBRANCH  20  21
ENDBRANCH  17  20
ENDBRANCH  11  14
ENDBRANCH   9  10
ENDBRANCH   6   9
TORSDOF 9
ENDMDL
MODEL      176
REMARK 921   NORMALIZED FREE ENERGY PREDICTED BY IDOCK:   -4.06 KCAL/MOL
REMARK 922        TOTAL FREE ENERGY PREDICTED BY IDOCK:   -8.64 KCAL/MOL
REMARK 923 INTER-LIGAND FREE ENERGY PREDICTED BY IDOCK:   -7.93 KCAL/MOL
REMARK 924 INTRA-LIGAND FREE ENERGY PREDICTED BY IDOCK:   -0.71 KCAL/MOL
REMARK 927      BINDING AFFINITY PREDICTED BY RF-SCORE:    0.00 PKD
ROOT
HETATM    1  N   UNL     1      -9.867   2.537  71.547  1.00  0.00    -0.157 NA 
HETATM    2  C   UNL     1      -9.528   3.836  71.544  1.00  0.00    -0.151 A  
HETATM    3  H1  UNL     1      -9.372   1.832  70.999  1.00  0.00     0.000 HD 
HETATM    4  H2  UNL     1     -10.654   2.240  72.122  1.00  0.00     0.000 HD 
HETATM    5  N   UNL     1     -10.163   4.740  72.247  1.00  0.00    -0.187 NA 
HETATM    6  C   UNL     1      -9.588   5.991  72.050  1.00  0.00    -0.152 A  
HETATM    7  S   UNL     1      -8.198   4.412  70.627  1.00  0.00    -0.072 SA 
HETATM    8  C   UNL     1      -8.501   5.998  71.197  1.00  0.00    -0.125 A  
ENDROOT
BRANCH   6   9
HETATM    9  C   UNL     1     -10.160   7.165  72.767  1.00  0.00    -0.230 C  
BRANCH   9  10
HETATM   10  C   UNL     1     -10.133   8.459  71.971  1.00  0.00    -0.294 C  
HETATM   11  N   UNL     1     -11.321   8.803  71.345  1.00  0.00    -0.272 N  
HETATM   12  O   UNL     1      -9.120   9.159  72.018  1.00  0.00    -0.337 OA 
HETATM   13  H   UNL     1     -12.086   8.131  71.401  1.00  0.00     0.000 HD 
BRANCH  11  14
HETATM   14  C   UNL     1     -11.568   9.997  70.638  1.00  0.00    -0.340 A  
HETATM   15  C   UNL     1     -11.244  10.163  69.292  1.00  0.00    -0.247 A  
HETATM   16  C   UNL     1     -11.400  11.400  68.664  1.00  0.00    -0.327 A  
HETATM   17  C   UNL     1     -11.898  12.500  69.368  1.00  0.00    -0.368 A  
HETATM   18  C   UNL     1     -12.132  11.075  71.329  1.00  0.00    -0.280 A  
HETATM   19  C   UNL     1     -12.283  12.321  70.703  1.00  0.00    -0.378 A  
BRANCH  17  20
HETATM   20  C   UNL     1     -11.966  13.863  68.711  1.00  0.00    -0.393 C  
BRANCH  20  21
HETATM   21  C   UNL     1     -11.058  14.034  67.481  1.00  0.00    -0.298 C  
BRANCH  21  22
HETATM   22  N   UNL     1      -9.879  14.833  67.801  1.00  0.00    -0.214 NA 
HETATM   23  H   UNL     1      -9.330  14.398  68.543  1.00  0.00     0.000 HD 
BRANCH  22  24
HETATM   24  C   UNL     1      -9.050  15.107  66.621  1.00  0.00    -0.280 C  
BRANCH  24  25
HETATM   25  C   UNL     1      -8.185  16.385  66.769  1.00  0.00    -0.251 C  
HETATM   26  O   UNL     1      -7.095  16.129  67.668  1.00  0.00    -0.124 OA 
HETATM   27  H   UNL     1      -6.565  16.913  67.759  1.00  0.00     0.000 HD 
BRANCH  25  28
HETATM   28  C   UNL     1      -8.927  17.638  67.199  1.00  0.00    -0.249 A  
HETATM   29  C   UNL     1      -9.889  18.213  66.356  1.00  0.00    -0.353 A  
HETATM   30  C   UNL     1     -10.524  19.408  66.710  1.00  0.00    -0.569 A  
HETATM   31  C   UNL     1     -10.209  20.037  67.913  1.00  0.00    -0.545 A  
HETATM   32  C   UNL     1      -9.275  19.467  68.771  1.00  0.00    -0.422 A  
HETATM   33  C   UNL     1      -8.638  18.275  68.417  1.00  0.00    -0.315 A  
ENDBRANCH  25  28
ENDBRANCH  24  25
ENDBRANCH  22  24
ENDBRANCH  21  22
ENDBRANCH  20  21
ENDBRANCH  17  20
ENDBRANCH  11  14
ENDBRANCH   9  10
ENDBRANCH   6   9
TORSDOF 9
ENDMDL
MODEL      177
REMARK 921   NORMALIZED FREE ENERGY PREDICTED BY IDOCK:   -4.04 KCAL/MOL
REMARK 922        TOTAL FREE ENERGY PREDICTED BY IDOCK:   -8.61 KCAL/MOL
REMARK 923 INTER-LIGAND FREE ENERGY PREDICTED BY IDOCK:   -7.64 KCAL/MOL
REMARK 924 INTRA-LIGAND FREE ENERGY PREDICTED BY IDOCK:   -0.98 KCAL/MOL
REMARK 927      BINDING AFFINITY PREDICTED BY RF-SCORE:    0.00 PKD
ROOT
HETATM    1  N   UNL     1      -9.913   4.119  64.028  1.00  0.00    -0.309 NA 
HETATM    2  C   UNL     1      -8.931   4.973  64.359  1.00  0.00    -0.032 A  
HETATM    3  H1  UNL     1     -10.336   3.473  64.695  1.00  0.00     0.000 HD 
HETATM    4  H2  UNL     1     -10.250   4.114  63.066  1.00  0.00     0.000 HD 
HETATM    5  N   UNL     1      -8.388   5.801  63.502  1.00  0.00    -0.069 NA 
HETATM    6  C   UNL     1      -7.407   6.563  64.128  1.00  0.00    -0.077 A  
HETATM    7  S   UNL     1      -8.328   5.066  65.961  1.00  0.00    -0.116 SA 
HETATM    8  C   UNL     1      -7.241   6.296  65.474  1.00  0.00    -0.070 A  
ENDROOT
BRANCH   6   9
HETATM    9  C   UNL     1      -6.665   7.576  63.327  1.00  0.00    -0.058 C  
BRANCH   9  10
HETATM   10  C   UNL     1      -7.252   8.976  63.390  1.00  0.00    -0.092 C  
HETATM   11  N   UNL     1      -8.573   9.054  63.806  1.00  0.00    -0.347 N  
HETATM   12  O   UNL     1      -6.511   9.937  63.180  1.00  0.00    -0.111 OA 
HETATM   13  H   UNL     1      -9.063   8.172  63.959  1.00  0.00     0.000 HD 
BRANCH  11  14
HETATM   14  C   UNL     1      -9.298  10.240  64.038  1.00  0.00    -0.289 A  
HETATM   15  C   UNL     1      -9.881  10.985  63.013  1.00  0.00    -0.370 A  
HETATM   16  C   UNL     1     -10.489  12.213  63.277  1.00  0.00    -0.360 A  
HETATM   17  C   UNL     1     -10.542  12.718  64.578  1.00  0.00    -0.383 A  
HETATM   18  C   UNL     1      -9.409  10.707  65.352  1.00  0.00    -0.250 A  
HETATM   19  C   UNL     1     -10.014  11.943  65.619  1.00  0.00    -0.269 A  
BRANCH  17  20
HETATM   20  C   UNL     1     -11.111  14.097  64.843  1.00  0.00    -0.389 C  
BRANCH  20  21
HETATM   21  C   UNL     1     -12.444  14.111  65.611  1.00  0.00    -0.469 C  
BRANCH  21  22
HETATM   22  N   UNL     1     -12.225  14.286  67.044  1.00  0.00    -0.575 NA 
HETATM   23  H   UNL     1     -12.832  15.014  67.422  1.00  0.00     0.000 HD 
BRANCH  22  24
HETATM   24  C   UNL     1     -12.375  13.031  67.791  1.00  0.00     0.184 C  
BRANCH  24  25
HETATM   25  C   UNL     1     -12.021  13.172  69.293  1.00  0.00    -0.292 C  
HETATM   26  O   UNL     1     -10.770  13.864  69.431  1.00  0.00    -0.419 OA 
HETATM   27  H   UNL     1     -10.552  13.950  70.352  1.00  0.00     0.000 HD 
BRANCH  25  28
HETATM   28  C   UNL     1     -11.988  11.880  70.088  1.00  0.00    -0.413 A  
HETATM   29  C   UNL     1     -11.124  10.840  69.711  1.00  0.00    -0.346 A  
HETATM   30  C   UNL     1     -11.139   9.619  70.391  1.00  0.00    -0.346 A  
HETATM   31  C   UNL     1     -12.013   9.424  71.459  1.00  0.00    -0.456 A  
HETATM   32  C   UNL     1     -12.859  10.453  71.860  1.00  0.00    -0.519 A  
HETATM   33  C   UNL     1     -12.847  11.672  71.180  1.00  0.00    -0.392 A  
ENDBRANCH  25  28
ENDBRANCH  24  25
ENDBRANCH  22  24
ENDBRANCH  21  22
ENDBRANCH  20  21
ENDBRANCH  17  20
ENDBRANCH  11  14
ENDBRANCH   9  10
ENDBRANCH   6   9
TORSDOF 9
ENDMDL
MODEL      178
REMARK 921   NORMALIZED FREE ENERGY PREDICTED BY IDOCK:   -4.03 KCAL/MOL
REMARK 922        TOTAL FREE ENERGY PREDICTED BY IDOCK:   -8.60 KCAL/MOL
REMARK 923 INTER-LIGAND FREE ENERGY PREDICTED BY IDOCK:   -6.96 KCAL/MOL
REMARK 924 INTRA-LIGAND FREE ENERGY PREDICTED BY IDOCK:   -1.64 KCAL/MOL
REMARK 927      BINDING AFFINITY PREDICTED BY RF-SCORE:    0.00 PKD
ROOT
HETATM    1  N   UNL     1      -8.867  13.829  66.526  1.00  0.00    -0.453 NA 
HETATM    2  C   UNL     1      -9.819  13.598  67.445  1.00  0.00    -0.234 A  
HETATM    3  H1  UNL     1      -8.433  14.743  66.394  1.00  0.00     0.000 HD 
HETATM    4  H2  UNL     1      -8.564  13.057  65.934  1.00  0.00     0.000 HD 
HETATM    5  N   UNL     1     -10.376  12.425  67.614  1.00  0.00    -0.214 NA 
HETATM    6  C   UNL     1     -11.319  12.486  68.634  1.00  0.00    -0.288 A  
HETATM    7  S   UNL     1     -10.363  14.835  68.501  1.00  0.00    -0.243 SA 
HETATM    8  C   UNL     1     -11.442  13.725  69.233  1.00  0.00    -0.293 A  
ENDROOT
BRANCH   6   9
HETATM    9  C   UNL     1     -12.069  11.249  68.993  1.00  0.00    -0.325 C  
BRANCH   9  10
HETATM   10  C   UNL     1     -11.309  10.297  69.900  1.00  0.00    -0.290 C  
HETATM   11  N   UNL     1     -12.075   9.328  70.529  1.00  0.00    -0.478 N  
HETATM   12  O   UNL     1     -10.080  10.370  69.934  1.00  0.00    -0.209 OA 
HETATM   13  H   UNL     1     -13.086   9.379  70.399  1.00  0.00     0.000 HD 
BRANCH  11  14
HETATM   14  C   UNL     1     -11.585   8.278  71.333  1.00  0.00    -0.280 A  
HETATM   15  C   UNL     1     -10.697   8.482  72.389  1.00  0.00    -0.376 A  
HETATM   16  C   UNL     1     -10.149   7.403  73.083  1.00  0.00    -0.342 A  
HETATM   17  C   UNL     1     -10.487   6.090  72.744  1.00  0.00    -0.243 A  
HETATM   18  C   UNL     1     -11.982   6.970  71.035  1.00  0.00    -0.406 A  
HETATM   19  C   UNL     1     -11.427   5.884  71.725  1.00  0.00    -0.262 A  
BRANCH  17  20
HETATM   20  C   UNL     1      -9.810   4.923  73.430  1.00  0.00    -0.166 C  
BRANCH  20  21
HETATM   21  C   UNL     1      -8.486   4.474  72.787  1.00  0.00    -0.113 C  
BRANCH  21  22
HETATM   22  N   UNL     1      -7.942   5.513  71.918  1.00  0.00    -0.112 NA 
HETATM   23  H   UNL     1      -7.223   6.055  72.397  1.00  0.00     0.000 HD 
BRANCH  22  24
HETATM   24  C   UNL     1      -7.441   4.974  70.648  1.00  0.00    -0.069 C  
BRANCH  24  25
HETATM   25  C   UNL     1      -8.571   4.482  69.708  1.00  0.00    -0.069 C  
HETATM   26  O   UNL     1      -8.093   3.390  68.907  1.00  0.00    -0.060 OA 
HETATM   27  H   UNL     1      -8.786   3.088  68.332  1.00  0.00     0.000 HD 
BRANCH  25  28
HETATM   28  C   UNL     1      -9.197   5.540  68.818  1.00  0.00    -0.142 A  
HETATM   29  C   UNL     1      -8.666   6.838  68.783  1.00  0.00    -0.125 A  
HETATM   30  C   UNL     1      -9.280   7.839  68.024  1.00  0.00    -0.140 A  
HETATM   31  C   UNL     1     -10.427   7.554  67.286  1.00  0.00    -0.391 A  
HETATM   32  C   UNL     1     -10.952   6.265  67.291  1.00  0.00    -0.455 A  
HETATM   33  C   UNL     1     -10.342   5.266  68.051  1.00  0.00    -0.183 A  
ENDBRANCH  25  28
ENDBRANCH  24  25
ENDBRANCH  22  24
ENDBRANCH  21  22
ENDBRANCH  20  21
ENDBRANCH  17  20
ENDBRANCH  11  14
ENDBRANCH   9  10
ENDBRANCH   6   9
TORSDOF 9
ENDMDL
MODEL      179
REMARK 921   NORMALIZED FREE ENERGY PREDICTED BY IDOCK:   -4.03 KCAL/MOL
REMARK 922        TOTAL FREE ENERGY PREDICTED BY IDOCK:   -8.60 KCAL/MOL
REMARK 923 INTER-LIGAND FREE ENERGY PREDICTED BY IDOCK:   -5.45 KCAL/MOL
REMARK 924 INTRA-LIGAND FREE ENERGY PREDICTED BY IDOCK:   -3.15 KCAL/MOL
REMARK 927      BINDING AFFINITY PREDICTED BY RF-SCORE:    0.00 PKD
ROOT
HETATM    1  N   UNL     1     -12.855  11.226  70.792  1.00  0.00    -0.240 NA 
HETATM    2  C   UNL     1     -12.474  10.068  71.356  1.00  0.00    -0.411 A  
HETATM    3  H1  UNL     1     -13.832  11.494  70.680  1.00  0.00     0.000 HD 
HETATM    4  H2  UNL     1     -12.134  11.866  70.462  1.00  0.00     0.000 HD 
HETATM    5  N   UNL     1     -11.220   9.724  71.500  1.00  0.00    -0.319 NA 
HETATM    6  C   UNL     1     -11.132   8.480  72.117  1.00  0.00    -0.366 A  
HETATM    7  S   UNL     1     -13.623   8.949  71.965  1.00  0.00    -0.469 SA 
HETATM    8  C   UNL     1     -12.348   7.912  72.444  1.00  0.00    -0.208 A  
ENDROOT
BRANCH   6   9
HETATM    9  C   UNL     1      -9.784   7.903  72.381  1.00  0.00    -0.275 C  
BRANCH   9  10
HETATM   10  C   UNL     1      -9.093   7.338  71.152  1.00  0.00    -0.152 C  
HETATM   11  N   UNL     1      -9.272   8.057  69.980  1.00  0.00    -0.155 N  
HETATM   12  O   UNL     1      -8.348   6.366  71.289  1.00  0.00    -0.121 OA 
HETATM   13  H   UNL     1      -9.909   8.853  70.017  1.00  0.00     0.000 HD 
BRANCH  11  14
HETATM   14  C   UNL     1      -8.654   7.788  68.742  1.00  0.00    -0.129 A  
HETATM   15  C   UNL     1      -7.419   8.324  68.378  1.00  0.00    -0.096 A  
HETATM   16  C   UNL     1      -6.900   8.125  67.098  1.00  0.00    -0.070 A  
HETATM   17  C   UNL     1      -7.600   7.370  66.154  1.00  0.00    -0.088 A  
HETATM   18  C   UNL     1      -9.326   6.973  67.825  1.00  0.00    -0.127 A  
HETATM   19  C   UNL     1      -8.811   6.777  66.536  1.00  0.00    -0.150 A  
BRANCH  17  20
HETATM   20  C   UNL     1      -7.082   7.244  64.736  1.00  0.00    -0.064 C  
BRANCH  20  21
HETATM   21  C   UNL     1      -8.142   7.446  63.640  1.00  0.00    -0.012 C  
BRANCH  21  22
HETATM   22  N   UNL     1      -7.999   8.751  63.001  1.00  0.00    -0.153 NA 
HETATM   23  H   UNL     1      -7.974   8.663  61.985  1.00  0.00     0.000 HD 
BRANCH  22  24
HETATM   24  C   UNL     1      -9.037   9.699  63.424  1.00  0.00    -0.178 C  
BRANCH  24  25
HETATM   25  C   UNL     1      -8.492  10.830  64.334  1.00  0.00     0.007 C  
HETATM   26  O   UNL     1      -7.071  10.686  64.485  1.00  0.00    -0.351 OA 
HETATM   27  H   UNL     1      -6.738  11.380  65.043  1.00  0.00     0.000 HD 
BRANCH  25  28
HETATM   28  C   UNL     1      -9.147  10.952  65.698  1.00  0.00    -0.223 A  
HETATM   29  C   UNL     1      -8.507  11.657  66.728  1.00  0.00    -0.177 A  
HETATM   30  C   UNL     1      -9.066  11.714  68.008  1.00  0.00    -0.177 A  
HETATM   31  C   UNL     1     -10.274  11.071  68.273  1.00  0.00    -0.192 A  
HETATM   32  C   UNL     1     -10.934  10.388  67.256  1.00  0.00    -0.306 A  
HETATM   33  C   UNL     1     -10.374  10.329  65.978  1.00  0.00    -0.248 A  
ENDBRANCH  25  28
ENDBRANCH  24  25
ENDBRANCH  22  24
ENDBRANCH  21  22
ENDBRANCH  20  21
ENDBRANCH  17  20
ENDBRANCH  11  14
ENDBRANCH   9  10
ENDBRANCH   6   9
TORSDOF 9
ENDMDL
MODEL      180
REMARK 921   NORMALIZED FREE ENERGY PREDICTED BY IDOCK:   -4.02 KCAL/MOL
REMARK 922        TOTAL FREE ENERGY PREDICTED BY IDOCK:   -8.58 KCAL/MOL
REMARK 923 INTER-LIGAND FREE ENERGY PREDICTED BY IDOCK:   -7.61 KCAL/MOL
REMARK 924 INTRA-LIGAND FREE ENERGY PREDICTED BY IDOCK:   -0.98 KCAL/MOL
REMARK 927      BINDING AFFINITY PREDICTED BY RF-SCORE:    0.00 PKD
ROOT
HETATM    1  N   UNL     1     -11.789  16.120  70.398  1.00  0.00    -0.433 NA 
HETATM    2  C   UNL     1     -11.570  15.735  69.130  1.00  0.00    -0.392 A  
HETATM    3  H1  UNL     1     -11.385  16.967  70.799  1.00  0.00     0.000 HD 
HETATM    4  H2  UNL     1     -12.386  15.540  70.986  1.00  0.00     0.000 HD 
HETATM    5  N   UNL     1     -12.088  14.649  68.615  1.00  0.00    -0.251 NA 
HETATM    6  C   UNL     1     -11.693  14.511  67.289  1.00  0.00    -0.406 A  
HETATM    7  S   UNL     1     -10.604  16.670  68.066  1.00  0.00    -0.345 SA 
HETATM    8  C   UNL     1     -10.881  15.527  66.821  1.00  0.00    -0.291 A  
ENDROOT
BRANCH   6   9
HETATM    9  C   UNL     1     -12.180  13.337  66.512  1.00  0.00    -0.389 C  
BRANCH   9  10
HETATM   10  C   UNL     1     -11.594  12.007  66.956  1.00  0.00    -0.317 C  
HETATM   11  N   UNL     1     -10.448  11.604  66.288  1.00  0.00    -0.238 N  
HETATM   12  O   UNL     1     -12.094  11.437  67.927  1.00  0.00    -0.646 OA 
HETATM   13  H   UNL     1     -10.137  12.184  65.509  1.00  0.00     0.000 HD 
BRANCH  11  14
HETATM   14  C   UNL     1      -9.673  10.465  66.589  1.00  0.00    -0.190 A  
HETATM   15  C   UNL     1     -10.159   9.163  66.469  1.00  0.00    -0.357 A  
HETATM   16  C   UNL     1      -9.396   8.072  66.887  1.00  0.00    -0.209 A  
HETATM   17  C   UNL     1      -8.120   8.258  67.425  1.00  0.00    -0.121 A  
HETATM   18  C   UNL     1      -8.369  10.652  67.060  1.00  0.00    -0.126 A  
HETATM   19  C   UNL     1      -7.604   9.559  67.489  1.00  0.00    -0.095 A  
BRANCH  17  20
HETATM   20  C   UNL     1      -7.340   7.080  67.973  1.00  0.00    -0.097 C  
BRANCH  20  21
HETATM   21  C   UNL     1      -7.357   6.951  69.506  1.00  0.00    -0.091 C  
BRANCH  21  22
HETATM   22  N   UNL     1      -7.460   5.554  69.917  1.00  0.00    -0.068 NA 
HETATM   23  H   UNL     1      -8.081   5.451  70.719  1.00  0.00     0.000 HD 
BRANCH  22  24
HETATM   24  C   UNL     1      -7.870   4.675  68.815  1.00  0.00    -0.075 C  
BRANCH  24  25
HETATM   25  C   UNL     1      -9.382   4.334  68.840  1.00  0.00    -0.158 C  
HETATM   26  O   UNL     1      -9.951   4.562  67.542  1.00  0.00    -0.163 OA 
HETATM   27  H   UNL     1     -10.878   4.353  67.558  1.00  0.00     0.000 HD 
BRANCH  25  28
HETATM   28  C   UNL     1     -10.202   5.050  69.898  1.00  0.00    -0.340 A  
HETATM   29  C   UNL     1     -11.051   6.107  69.537  1.00  0.00    -0.490 A  
HETATM   30  C   UNL     1     -11.754   6.821  70.512  1.00  0.00    -0.430 A  
HETATM   31  C   UNL     1     -11.622   6.483  71.858  1.00  0.00    -0.357 A  
HETATM   32  C   UNL     1     -10.803   5.422  72.229  1.00  0.00    -0.286 A  
HETATM   33  C   UNL     1     -10.098   4.710  71.256  1.00  0.00    -0.245 A  
ENDBRANCH  25  28
ENDBRANCH  24  25
ENDBRANCH  22  24
ENDBRANCH  21  22
ENDBRANCH  20  21
ENDBRANCH  17  20
ENDBRANCH  11  14
ENDBRANCH   9  10
ENDBRANCH   6   9
TORSDOF 9
ENDMDL
MODEL      181
REMARK 921   NORMALIZED FREE ENERGY PREDICTED BY IDOCK:   -4.02 KCAL/MOL
REMARK 922        TOTAL FREE ENERGY PREDICTED BY IDOCK:   -8.58 KCAL/MOL
REMARK 923 INTER-LIGAND FREE ENERGY PREDICTED BY IDOCK:   -6.04 KCAL/MOL
REMARK 924 INTRA-LIGAND FREE ENERGY PREDICTED BY IDOCK:   -2.55 KCAL/MOL
REMARK 927      BINDING AFFINITY PREDICTED BY RF-SCORE:    0.00 PKD
ROOT
HETATM    1  N   UNL     1     -12.587  15.512  71.110  1.00  0.00    -0.417 NA 
HETATM    2  C   UNL     1     -12.031  15.274  69.911  1.00  0.00    -0.343 A  
HETATM    3  H1  UNL     1     -12.422  16.369  71.638  1.00  0.00     0.000 HD 
HETATM    4  H2  UNL     1     -13.202  14.805  71.511  1.00  0.00     0.000 HD 
HETATM    5  N   UNL     1     -12.243  14.174  69.233  1.00  0.00    -0.317 NA 
HETATM    6  C   UNL     1     -11.543  14.209  68.032  1.00  0.00    -0.334 A  
HETATM    7  S   UNL     1     -11.010  16.425  69.153  1.00  0.00    -0.310 SA 
HETATM    8  C   UNL     1     -10.818  15.366  67.821  1.00  0.00    -0.302 A  
ENDROOT
BRANCH   6   9
HETATM    9  C   UNL     1     -11.652  13.050  67.103  1.00  0.00    -0.411 C  
BRANCH   9  10
HETATM   10  C   UNL     1     -11.206  11.726  67.700  1.00  0.00    -0.281 C  
HETATM   11  N   UNL     1     -10.101  11.787  68.535  1.00  0.00    -0.210 N  
HETATM   12  O   UNL     1     -11.898  10.726  67.500  1.00  0.00    -0.451 OA 
HETATM   13  H   UNL     1      -9.632  12.689  68.619  1.00  0.00     0.000 HD 
BRANCH  11  14
HETATM   14  C   UNL     1      -9.566  10.715  69.278  1.00  0.00    -0.144 A  
HETATM   15  C   UNL     1      -8.217  10.363  69.239  1.00  0.00    -0.163 A  
HETATM   16  C   UNL     1      -7.754   9.225  69.900  1.00  0.00    -0.101 A  
HETATM   17  C   UNL     1      -8.630   8.417  70.630  1.00  0.00    -0.150 A  
HETATM   18  C   UNL     1     -10.435   9.951  70.064  1.00  0.00    -0.331 A  
HETATM   19  C   UNL     1      -9.974   8.802  70.723  1.00  0.00    -0.263 A  
BRANCH  17  20
HETATM   20  C   UNL     1      -8.141   7.128  71.257  1.00  0.00    -0.107 C  
BRANCH  20  21
HETATM   21  C   UNL     1      -9.248   6.116  71.602  1.00  0.00    -0.145 C  
BRANCH  21  22
HETATM   22  N   UNL     1      -9.085   4.877  70.847  1.00  0.00    -0.137 NA 
HETATM   23  H   UNL     1      -9.965   4.587  70.422  1.00  0.00     0.000 HD 
BRANCH  22  24
HETATM   24  C   UNL     1      -8.018   4.971  69.842  1.00  0.00    -0.074 C  
BRANCH  24  25
HETATM   25  C   UNL     1      -8.553   4.971  68.387  1.00  0.00    -0.097 C  
HETATM   26  O   UNL     1      -7.927   3.915  67.642  1.00  0.00    -0.088 OA 
HETATM   27  H   UNL     1      -8.255   3.915  66.750  1.00  0.00     0.000 HD 
BRANCH  25  28
HETATM   28  C   UNL     1      -8.420   6.283  67.635  1.00  0.00    -0.116 A  
HETATM   29  C   UNL     1      -9.566   6.982  67.228  1.00  0.00    -0.175 A  
HETATM   30  C   UNL     1      -9.455   8.152  66.471  1.00  0.00    -0.286 A  
HETATM   31  C   UNL     1      -8.199   8.641  66.117  1.00  0.00    -0.121 A  
HETATM   32  C   UNL     1      -7.052   7.971  66.534  1.00  0.00    -0.075 A  
HETATM   33  C   UNL     1      -7.162   6.801  67.287  1.00  0.00    -0.085 A  
ENDBRANCH  25  28
ENDBRANCH  24  25
ENDBRANCH  22  24
ENDBRANCH  21  22
ENDBRANCH  20  21
ENDBRANCH  17  20
ENDBRANCH  11  14
ENDBRANCH   9  10
ENDBRANCH   6   9
TORSDOF 9
ENDMDL
MODEL      182
REMARK 921   NORMALIZED FREE ENERGY PREDICTED BY IDOCK:   -4.00 KCAL/MOL
REMARK 922        TOTAL FREE ENERGY PREDICTED BY IDOCK:   -8.55 KCAL/MOL
REMARK 923 INTER-LIGAND FREE ENERGY PREDICTED BY IDOCK:   -7.74 KCAL/MOL
REMARK 924 INTRA-LIGAND FREE ENERGY PREDICTED BY IDOCK:   -0.81 KCAL/MOL
REMARK 927      BINDING AFFINITY PREDICTED BY RF-SCORE:    0.00 PKD
ROOT
HETATM    1  N   UNL     1     -10.380   4.293  64.479  1.00  0.00    -0.421 NA 
HETATM    2  C   UNL     1      -9.687   4.453  65.618  1.00  0.00    -0.207 A  
HETATM    3  H1  UNL     1      -9.945   4.014  63.599  1.00  0.00     0.000 HD 
HETATM    4  H2  UNL     1     -11.386   4.457  64.493  1.00  0.00     0.000 HD 
HETATM    5  N   UNL     1     -10.245   4.810  66.747  1.00  0.00    -0.228 NA 
HETATM    6  C   UNL     1      -9.286   4.890  67.751  1.00  0.00    -0.131 A  
HETATM    7  S   UNL     1      -7.998   4.167  65.686  1.00  0.00    -0.098 SA 
HETATM    8  C   UNL     1      -8.004   4.569  67.350  1.00  0.00    -0.100 A  
ENDROOT
BRANCH   6   9
HETATM    9  C   UNL     1      -9.715   5.278  69.124  1.00  0.00    -0.231 C  
BRANCH   9  10
HETATM   10  C   UNL     1     -10.485   6.586  69.193  1.00  0.00    -0.221 C  
HETATM   11  N   UNL     1      -9.877   7.673  68.583  1.00  0.00    -0.166 N  
HETATM   12  O   UNL     1     -11.618   6.578  69.676  1.00  0.00    -0.376 OA 
HETATM   13  H   UNL     1      -8.938   7.530  68.211  1.00  0.00     0.000 HD 
BRANCH  11  14
HETATM   14  C   UNL     1     -10.438   8.957  68.431  1.00  0.00    -0.187 A  
HETATM   15  C   UNL     1     -10.648   9.551  67.187  1.00  0.00    -0.295 A  
HETATM   16  C   UNL     1     -11.098  10.868  67.087  1.00  0.00    -0.308 A  
HETATM   17  C   UNL     1     -11.363  11.620  68.235  1.00  0.00    -0.348 A  
HETATM   18  C   UNL     1     -10.769   9.680  69.582  1.00  0.00    -0.260 A  
HETATM   19  C   UNL     1     -11.213  11.006  69.486  1.00  0.00    -0.343 A  
BRANCH  17  20
HETATM   20  C   UNL     1     -11.750  13.080  68.122  1.00  0.00    -0.391 C  
BRANCH  20  21
HETATM   21  C   UNL     1     -11.893  13.602  66.682  1.00  0.00    -0.409 C  
BRANCH  21  22
HETATM   22  N   UNL     1     -10.751  14.431  66.305  1.00  0.00    -0.301 NA 
HETATM   23  H   UNL     1     -10.800  14.699  65.322  1.00  0.00     0.000 HD 
BRANCH  22  24
HETATM   24  C   UNL     1     -10.606  15.609  67.168  1.00  0.00    -0.308 C  
BRANCH  24  25
HETATM   25  C   UNL     1     -10.231  16.893  66.385  1.00  0.00    -0.321 C  
HETATM   26  O   UNL     1     -10.387  16.662  64.976  1.00  0.00    -0.623 OA 
HETATM   27  H   UNL     1     -10.158  17.450  64.496  1.00  0.00     0.000 HD 
BRANCH  25  28
HETATM   28  C   UNL     1      -8.851  17.459  66.666  1.00  0.00    -0.278 A  
HETATM   29  C   UNL     1      -7.767  16.597  66.893  1.00  0.00    -0.263 A  
HETATM   30  C   UNL     1      -6.509  17.107  67.226  1.00  0.00    -0.188 A  
HETATM   31  C   UNL     1      -6.317  18.484  67.330  1.00  0.00    -0.197 A  
HETATM   32  C   UNL     1      -7.376  19.352  67.085  1.00  0.00    -0.234 A  
HETATM   33  C   UNL     1      -8.634  18.843  66.755  1.00  0.00    -0.305 A  
ENDBRANCH  25  28
ENDBRANCH  24  25
ENDBRANCH  22  24
ENDBRANCH  21  22
ENDBRANCH  20  21
ENDBRANCH  17  20
ENDBRANCH  11  14
ENDBRANCH   9  10
ENDBRANCH   6   9
TORSDOF 9
ENDMDL
MODEL      183
REMARK 921   NORMALIZED FREE ENERGY PREDICTED BY IDOCK:   -3.99 KCAL/MOL
REMARK 922        TOTAL FREE ENERGY PREDICTED BY IDOCK:   -8.54 KCAL/MOL
REMARK 923 INTER-LIGAND FREE ENERGY PREDICTED BY IDOCK:   -7.45 KCAL/MOL
REMARK 924 INTRA-LIGAND FREE ENERGY PREDICTED BY IDOCK:   -1.09 KCAL/MOL
REMARK 927      BINDING AFFINITY PREDICTED BY RF-SCORE:    0.00 PKD
ROOT
HETATM    1  N   UNL     1      -7.136  18.530  68.618  1.00  0.00    -0.272 NA 
HETATM    2  C   UNL     1      -8.360  18.403  68.078  1.00  0.00    -0.272 A  
HETATM    3  H1  UNL     1      -6.931  19.172  69.383  1.00  0.00     0.000 HD 
HETATM    4  H2  UNL     1      -6.379  17.959  68.246  1.00  0.00     0.000 HD 
HETATM    5  N   UNL     1      -8.623  17.579  67.096  1.00  0.00    -0.220 NA 
HETATM    6  C   UNL     1      -9.968  17.660  66.750  1.00  0.00    -0.320 A  
HETATM    7  S   UNL     1      -9.695  19.304  68.666  1.00  0.00    -0.446 SA 
HETATM    8  C   UNL     1     -10.705  18.550  67.507  1.00  0.00    -0.377 A  
ENDROOT
BRANCH   6   9
HETATM    9  C   UNL     1     -10.480  16.794  65.651  1.00  0.00    -0.284 C  
BRANCH   9  10
HETATM   10  C   UNL     1     -10.649  15.333  66.032  1.00  0.00    -0.319 C  
HETATM   11  N   UNL     1     -10.217  14.992  67.304  1.00  0.00    -0.240 N  
HETATM   12  O   UNL     1     -11.241  14.585  65.253  1.00  0.00    -0.322 OA 
HETATM   13  H   UNL     1      -9.754  15.720  67.848  1.00  0.00     0.000 HD 
BRANCH  11  14
HETATM   14  C   UNL     1     -10.360  13.729  67.915  1.00  0.00    -0.244 A  
HETATM   15  C   UNL     1      -9.460  12.683  67.714  1.00  0.00    -0.198 A  
HETATM   16  C   UNL     1      -9.704  11.416  68.245  1.00  0.00    -0.202 A  
HETATM   17  C   UNL     1     -10.850  11.169  69.006  1.00  0.00    -0.276 A  
HETATM   18  C   UNL     1     -11.473  13.507  68.733  1.00  0.00    -0.349 A  
HETATM   19  C   UNL     1     -11.724  12.234  69.263  1.00  0.00    -0.388 A  
BRANCH  17  20
HETATM   20  C   UNL     1     -11.161   9.769  69.491  1.00  0.00    -0.226 C  
BRANCH  20  21
HETATM   21  C   UNL     1     -12.129   9.698  70.685  1.00  0.00    -0.194 C  
BRANCH  21  22
HETATM   22  N   UNL     1     -12.515   8.319  70.971  1.00  0.00    -0.493 NA 
HETATM   23  H   UNL     1     -13.343   8.051  70.439  1.00  0.00     0.000 HD 
BRANCH  22  24
HETATM   24  C   UNL     1     -11.415   7.373  70.750  1.00  0.00    -0.288 C  
BRANCH  24  25
HETATM   25  C   UNL     1     -11.061   6.547  72.013  1.00  0.00    -0.258 C  
HETATM   26  O   UNL     1     -11.730   7.102  73.156  1.00  0.00    -0.531 OA 
HETATM   27  H   UNL     1     -11.513   6.596  73.930  1.00  0.00     0.000 HD 
BRANCH  25  28
HETATM   28  C   UNL     1      -9.580   6.392  72.306  1.00  0.00    -0.155 A  
HETATM   29  C   UNL     1      -8.893   7.385  73.021  1.00  0.00    -0.184 A  
HETATM   30  C   UNL     1      -7.514   7.287  73.232  1.00  0.00    -0.084 A  
HETATM   31  C   UNL     1      -6.807   6.194  72.737  1.00  0.00    -0.074 A  
HETATM   32  C   UNL     1      -7.477   5.189  72.047  1.00  0.00    -0.092 A  
HETATM   33  C   UNL     1      -8.853   5.287  71.833  1.00  0.00    -0.142 A  
ENDBRANCH  25  28
ENDBRANCH  24  25
ENDBRANCH  22  24
ENDBRANCH  21  22
ENDBRANCH  20  21
ENDBRANCH  17  20
ENDBRANCH  11  14
ENDBRANCH   9  10
ENDBRANCH   6   9
TORSDOF 9
ENDMDL
MODEL      184
REMARK 921   NORMALIZED FREE ENERGY PREDICTED BY IDOCK:   -3.97 KCAL/MOL
REMARK 922        TOTAL FREE ENERGY PREDICTED BY IDOCK:   -8.50 KCAL/MOL
REMARK 923 INTER-LIGAND FREE ENERGY PREDICTED BY IDOCK:   -5.87 KCAL/MOL
REMARK 924 INTRA-LIGAND FREE ENERGY PREDICTED BY IDOCK:   -2.63 KCAL/MOL
REMARK 927      BINDING AFFINITY PREDICTED BY RF-SCORE:    0.00 PKD
ROOT
HETATM    1  N   UNL     1      -6.829   6.485  62.751  1.00  0.00    -0.038 NA 
HETATM    2  C   UNL     1      -6.973   7.751  63.176  1.00  0.00    -0.076 A  
HETATM    3  H1  UNL     1      -5.919   6.042  62.627  1.00  0.00     0.000 HD 
HETATM    4  H2  UNL     1      -7.666   5.943  62.543  1.00  0.00     0.000 HD 
HETATM    5  N   UNL     1      -8.141   8.320  63.335  1.00  0.00    -0.155 NA 
HETATM    6  C   UNL     1      -7.981   9.625  63.788  1.00  0.00    -0.143 A  
HETATM    7  S   UNL     1      -5.617   8.720  63.577  1.00  0.00    -0.068 SA 
HETATM    8  C   UNL     1      -6.668  10.012  63.979  1.00  0.00    -0.128 A  
ENDROOT
BRANCH   6   9
HETATM    9  C   UNL     1      -9.194  10.453  64.041  1.00  0.00    -0.300 C  
BRANCH   9  10
HETATM   10  C   UNL     1      -9.980  10.050  65.276  1.00  0.00    -0.298 C  
HETATM   11  N   UNL     1      -9.749   8.764  65.741  1.00  0.00    -0.461 N  
HETATM   12  O   UNL     1     -10.672  10.900  65.838  1.00  0.00    -0.215 OA 
HETATM   13  H   UNL     1      -9.137   8.171  65.180  1.00  0.00     0.000 HD 
BRANCH  11  14
HETATM   14  C   UNL     1     -10.281   8.203  66.920  1.00  0.00    -0.316 A  
HETATM   15  C   UNL     1     -10.463   8.933  68.094  1.00  0.00    -0.254 A  
HETATM   16  C   UNL     1     -10.884   8.309  69.269  1.00  0.00    -0.063 A  
HETATM   17  C   UNL     1     -11.146   6.937  69.293  1.00  0.00    -0.229 A  
HETATM   18  C   UNL     1     -10.609   6.843  66.920  1.00  0.00    -0.372 A  
HETATM   19  C   UNL     1     -11.025   6.211  68.101  1.00  0.00    -0.398 A  
BRANCH  17  20
HETATM   20  C   UNL     1     -11.501   6.248  70.594  1.00  0.00    -0.397 C  
BRANCH  20  21
HETATM   21  C   UNL     1     -11.915   7.194  71.736  1.00  0.00    -0.313 C  
BRANCH  21  22
HETATM   22  N   UNL     1     -10.991   7.097  72.862  1.00  0.00    -0.316 NA 
HETATM   23  H   UNL     1     -10.488   6.210  72.851  1.00  0.00     0.000 HD 
BRANCH  22  24
HETATM   24  C   UNL     1     -10.060   8.231  72.921  1.00  0.00    -0.215 C  
BRANCH  24  25
HETATM   25  C   UNL     1      -8.573   7.801  72.842  1.00  0.00    -0.158 C  
HETATM   26  O   UNL     1      -7.789   8.603  73.739  1.00  0.00    -0.407 OA 
HETATM   27  H   UNL     1      -6.878   8.338  73.690  1.00  0.00     0.000 HD 
BRANCH  25  28
HETATM   28  C   UNL     1      -7.953   7.819  71.457  1.00  0.00    -0.097 A  
HETATM   29  C   UNL     1      -7.599   9.037  70.857  1.00  0.00    -0.141 A  
HETATM   30  C   UNL     1      -7.096   9.070  69.553  1.00  0.00    -0.059 A  
HETATM   31  C   UNL     1      -6.936   7.887  68.835  1.00  0.00    -0.066 A  
HETATM   32  C   UNL     1      -7.260   6.668  69.424  1.00  0.00    -0.090 A  
HETATM   33  C   UNL     1      -7.765   6.635  70.725  1.00  0.00    -0.097 A  
ENDBRANCH  25  28
ENDBRANCH  24  25
ENDBRANCH  22  24
ENDBRANCH  21  22
ENDBRANCH  20  21
ENDBRANCH  17  20
ENDBRANCH  11  14
ENDBRANCH   9  10
ENDBRANCH   6   9
TORSDOF 9
ENDMDL
MODEL      185
REMARK 921   NORMALIZED FREE ENERGY PREDICTED BY IDOCK:   -3.96 KCAL/MOL
REMARK 922        TOTAL FREE ENERGY PREDICTED BY IDOCK:   -8.49 KCAL/MOL
REMARK 923 INTER-LIGAND FREE ENERGY PREDICTED BY IDOCK:   -7.58 KCAL/MOL
REMARK 924 INTRA-LIGAND FREE ENERGY PREDICTED BY IDOCK:   -0.91 KCAL/MOL
REMARK 927      BINDING AFFINITY PREDICTED BY RF-SCORE:    0.00 PKD
ROOT
HETATM    1  N   UNL     1      -8.663  11.754  65.622  1.00  0.00    -0.397 NA 
HETATM    2  C   UNL     1      -9.743  12.095  64.900  1.00  0.00    -0.072 A  
HETATM    3  H1  UNL     1      -8.145  10.889  65.472  1.00  0.00     0.000 HD 
HETATM    4  H2  UNL     1      -8.347  12.390  66.353  1.00  0.00     0.000 HD 
HETATM    5  N   UNL     1     -10.408  13.206  65.093  1.00  0.00    -0.309 NA 
HETATM    6  C   UNL     1     -11.470  13.290  64.199  1.00  0.00    -0.396 A  
HETATM    7  S   UNL     1     -10.323  11.097  63.631  1.00  0.00    -0.383 SA 
HETATM    8  C   UNL     1     -11.573  12.226  63.324  1.00  0.00    -0.351 A  
ENDROOT
BRANCH   6   9
HETATM    9  C   UNL     1     -12.356  14.487  64.247  1.00  0.00    -0.396 C  
BRANCH   9  10
HETATM   10  C   UNL     1     -11.658  15.766  64.679  1.00  0.00    -0.218 C  
HETATM   11  N   UNL     1     -11.225  15.795  65.996  1.00  0.00    -0.078 N  
HETATM   12  O   UNL     1     -11.428  16.628  63.831  1.00  0.00    -1.186 OA 
HETATM   13  H   UNL     1     -11.475  15.001  66.585  1.00  0.00     0.000 HD 
BRANCH  11  14
HETATM   14  C   UNL     1     -10.470  16.824  66.595  1.00  0.00    -0.258 A  
HETATM   15  C   UNL     1      -9.359  17.405  65.983  1.00  0.00    -0.101 A  
HETATM   16  C   UNL     1      -8.573  18.338  66.661  1.00  0.00    -0.287 A  
HETATM   17  C   UNL     1      -8.889  18.723  67.967  1.00  0.00    -0.327 A  
HETATM   18  C   UNL     1     -10.832  17.257  67.875  1.00  0.00    -0.283 A  
HETATM   19  C   UNL     1     -10.040  18.189  68.562  1.00  0.00    -0.413 A  
BRANCH  17  20
HETATM   20  C   UNL     1      -7.975  19.655  68.733  1.00  0.00    -0.314 C  
BRANCH  20  21
HETATM   21  C   UNL     1      -6.722  18.989  69.328  1.00  0.00    -0.296 C  
BRANCH  21  22
HETATM   22  N   UNL     1      -6.704  17.555  69.049  1.00  0.00    -0.238 NA 
HETATM   23  H   UNL     1      -7.138  17.350  68.149  1.00  0.00     0.000 HD 
BRANCH  22  24
HETATM   24  C   UNL     1      -5.353  16.987  69.127  1.00  0.00    -0.138 C  
BRANCH  24  25
HETATM   25  C   UNL     1      -5.149  15.775  68.182  1.00  0.00    -0.114 C  
HETATM   26  O   UNL     1      -5.903  15.970  66.976  1.00  0.00    -0.341 OA 
HETATM   27  H   UNL     1      -5.778  15.227  66.397  1.00  0.00     0.000 HD 
BRANCH  25  28
HETATM   28  C   UNL     1      -5.466  14.414  68.776  1.00  0.00    -0.088 A  
HETATM   29  C   UNL     1      -6.138  13.449  68.011  1.00  0.00    -0.129 A  
HETATM   30  C   UNL     1      -6.500  12.221  68.571  1.00  0.00    -0.064 A  
HETATM   31  C   UNL     1      -6.190  11.940  69.901  1.00  0.00    -0.139 A  
HETATM   32  C   UNL     1      -5.504  12.877  70.666  1.00  0.00    -0.171 A  
HETATM   33  C   UNL     1      -5.144  14.106  70.107  1.00  0.00    -0.090 A  
ENDBRANCH  25  28
ENDBRANCH  24  25
ENDBRANCH  22  24
ENDBRANCH  21  22
ENDBRANCH  20  21
ENDBRANCH  17  20
ENDBRANCH  11  14
ENDBRANCH   9  10
ENDBRANCH   6   9
TORSDOF 9
ENDMDL
MODEL      186
REMARK 921   NORMALIZED FREE ENERGY PREDICTED BY IDOCK:   -3.96 KCAL/MOL
REMARK 922        TOTAL FREE ENERGY PREDICTED BY IDOCK:   -8.49 KCAL/MOL
REMARK 923 INTER-LIGAND FREE ENERGY PREDICTED BY IDOCK:   -6.27 KCAL/MOL
REMARK 924 INTRA-LIGAND FREE ENERGY PREDICTED BY IDOCK:   -2.22 KCAL/MOL
REMARK 927      BINDING AFFINITY PREDICTED BY RF-SCORE:    0.00 PKD
ROOT
HETATM    1  N   UNL     1      -9.838  20.588  66.626  1.00  0.00    -0.619 NA 
HETATM    2  C   UNL     1      -9.602  19.394  67.193  1.00  0.00    -0.327 A  
HETATM    3  H1  UNL     1      -9.095  21.193  66.275  1.00  0.00     0.000 HD 
HETATM    4  H2  UNL     1     -10.803  20.905  66.542  1.00  0.00     0.000 HD 
HETATM    5  N   UNL     1     -10.555  18.618  67.644  1.00  0.00    -0.419 NA 
HETATM    6  C   UNL     1     -10.013  17.450  68.171  1.00  0.00    -0.308 A  
HETATM    7  S   UNL     1      -8.010  18.775  67.345  1.00  0.00    -0.240 SA 
HETATM    8  C   UNL     1      -8.637  17.365  68.089  1.00  0.00    -0.248 A  
ENDROOT
BRANCH   6   9
HETATM    9  C   UNL     1     -10.933  16.423  68.735  1.00  0.00    -0.344 C  
BRANCH   9  10
HETATM   10  C   UNL     1     -10.870  15.075  68.037  1.00  0.00    -0.270 C  
HETATM   11  N   UNL     1     -10.354  14.033  68.792  1.00  0.00    -0.279 N  
HETATM   12  O   UNL     1     -11.367  14.968  66.915  1.00  0.00    -0.341 OA 
HETATM   13  H   UNL     1      -9.989  14.266  69.715  1.00  0.00     0.000 HD 
BRANCH  11  14
HETATM   14  C   UNL     1     -10.288  12.680  68.399  1.00  0.00    -0.235 A  
HETATM   15  C   UNL     1      -9.444  12.225  67.386  1.00  0.00    -0.181 A  
HETATM   16  C   UNL     1      -9.496  10.900  66.952  1.00  0.00    -0.198 A  
HETATM   17  C   UNL     1     -10.388   9.993  67.532  1.00  0.00    -0.282 A  
HETATM   18  C   UNL     1     -11.132  11.762  69.031  1.00  0.00    -0.301 A  
HETATM   19  C   UNL     1     -11.193  10.432  68.592  1.00  0.00    -0.305 A  
BRANCH  17  20
HETATM   20  C   UNL     1     -10.513   8.586  66.986  1.00  0.00    -0.362 C  
BRANCH  20  21
HETATM   21  C   UNL     1      -9.404   8.172  66.003  1.00  0.00    -0.117 C  
BRANCH  21  22
HETATM   22  N   UNL     1      -8.602   7.077  66.542  1.00  0.00    -0.124 NA 
HETATM   23  H   UNL     1      -7.615   7.196  66.312  1.00  0.00     0.000 HD 
BRANCH  22  24
HETATM   24  C   UNL     1      -8.791   6.905  67.988  1.00  0.00    -0.123 C  
BRANCH  24  25
HETATM   25  C   UNL     1      -7.500   7.169  68.805  1.00  0.00    -0.102 C  
HETATM   26  O   UNL     1      -7.681   6.715  70.155  1.00  0.00    -0.097 OA 
HETATM   27  H   UNL     1      -6.890   6.878  70.655  1.00  0.00     0.000 HD 
BRANCH  25  28
HETATM   28  C   UNL     1      -7.000   8.602  68.804  1.00  0.00    -0.063 A  
HETATM   29  C   UNL     1      -7.360   9.477  69.840  1.00  0.00    -0.103 A  
HETATM   30  C   UNL     1      -6.966  10.818  69.810  1.00  0.00    -0.141 A  
HETATM   31  C   UNL     1      -6.204  11.300  68.748  1.00  0.00    -0.045 A  
HETATM   32  C   UNL     1      -5.819  10.440  67.724  1.00  0.00    -0.044 A  
HETATM   33  C   UNL     1      -6.214   9.101  67.752  1.00  0.00    -0.051 A  
ENDBRANCH  25  28
ENDBRANCH  24  25
ENDBRANCH  22  24
ENDBRANCH  21  22
ENDBRANCH  20  21
ENDBRANCH  17  20
ENDBRANCH  11  14
ENDBRANCH   9  10
ENDBRANCH   6   9
TORSDOF 9
ENDMDL
MODEL      187
REMARK 921   NORMALIZED FREE ENERGY PREDICTED BY IDOCK:   -3.94 KCAL/MOL
REMARK 922        TOTAL FREE ENERGY PREDICTED BY IDOCK:   -8.46 KCAL/MOL
REMARK 923 INTER-LIGAND FREE ENERGY PREDICTED BY IDOCK:   -7.58 KCAL/MOL
REMARK 924 INTRA-LIGAND FREE ENERGY PREDICTED BY IDOCK:   -0.88 KCAL/MOL
REMARK 927      BINDING AFFINITY PREDICTED BY RF-SCORE:    0.00 PKD
ROOT
HETATM    1  N   UNL     1      -9.772   2.642  65.521  1.00  0.00    -0.357 NA 
HETATM    2  C   UNL     1      -9.080   3.763  65.780  1.00  0.00    -0.149 A  
HETATM    3  H1  UNL     1      -9.883   1.889  66.201  1.00  0.00     0.000 HD 
HETATM    4  H2  UNL     1     -10.207   2.538  64.605  1.00  0.00     0.000 HD 
HETATM    5  N   UNL     1      -8.938   4.730  64.908  1.00  0.00    -0.153 NA 
HETATM    6  C   UNL     1      -8.180   5.760  65.454  1.00  0.00    -0.138 A  
HETATM    7  S   UNL     1      -8.345   4.030  67.306  1.00  0.00    -0.100 SA 
HETATM    8  C   UNL     1      -7.773   5.548  66.758  1.00  0.00    -0.100 A  
ENDROOT
BRANCH   6   9
HETATM    9  C   UNL     1      -7.903   6.966  64.624  1.00  0.00    -0.116 C  
BRANCH   9  10
HETATM   10  C   UNL     1      -8.212   8.284  65.313  1.00  0.00    -0.148 C  
HETATM   11  N   UNL     1      -9.558   8.596  65.434  1.00  0.00    -0.395 N  
HETATM   12  O   UNL     1      -7.283   8.925  65.804  1.00  0.00    -0.083 OA 
HETATM   13  H   UNL     1     -10.223   7.963  64.988  1.00  0.00     0.000 HD 
BRANCH  11  14
HETATM   14  C   UNL     1     -10.091   9.707  66.119  1.00  0.00    -0.258 A  
HETATM   15  C   UNL     1     -10.540   9.642  67.438  1.00  0.00    -0.333 A  
HETATM   16  C   UNL     1     -11.167  10.735  68.037  1.00  0.00    -0.372 A  
HETATM   17  C   UNL     1     -11.348  11.928  67.332  1.00  0.00    -0.389 A  
HETATM   18  C   UNL     1     -10.206  10.920  65.431  1.00  0.00    -0.339 A  
HETATM   19  C   UNL     1     -10.842  12.018  66.028  1.00  0.00    -0.329 A  
BRANCH  17  20
HETATM   20  C   UNL     1     -12.120  13.074  67.951  1.00  0.00    -0.234 C  
BRANCH  20  21
HETATM   21  C   UNL     1     -11.590  14.476  67.600  1.00  0.00    -0.378 C  
BRANCH  21  22
HETATM   22  N   UNL     1     -12.062  15.473  68.556  1.00  0.00    -0.535 NA 
HETATM   23  H   UNL     1     -12.813  15.099  69.137  1.00  0.00     0.000 HD 
BRANCH  22  24
HETATM   24  C   UNL     1     -10.976  16.016  69.381  1.00  0.00    -0.321 C  
BRANCH  24  25
HETATM   25  C   UNL     1      -9.580  15.862  68.724  1.00  0.00    -0.219 C  
HETATM   26  O   UNL     1      -8.653  15.324  69.680  1.00  0.00    -0.364 OA 
HETATM   27  H   UNL     1      -7.798  15.230  69.278  1.00  0.00     0.000 HD 
BRANCH  25  28
HETATM   28  C   UNL     1      -9.004  17.118  68.096  1.00  0.00    -0.240 A  
HETATM   29  C   UNL     1      -9.348  18.382  68.599  1.00  0.00    -0.339 A  
HETATM   30  C   UNL     1      -8.882  19.546  67.981  1.00  0.00    -0.368 A  
HETATM   31  C   UNL     1      -8.062  19.461  66.857  1.00  0.00    -0.298 A  
HETATM   32  C   UNL     1      -7.692  18.215  66.360  1.00  0.00    -0.295 A  
HETATM   33  C   UNL     1      -8.160  17.052  66.975  1.00  0.00    -0.234 A  
ENDBRANCH  25  28
ENDBRANCH  24  25
ENDBRANCH  22  24
ENDBRANCH  21  22
ENDBRANCH  20  21
ENDBRANCH  17  20
ENDBRANCH  11  14
ENDBRANCH   9  10
ENDBRANCH   6   9
TORSDOF 9
ENDMDL
MODEL      188
REMARK 921   NORMALIZED FREE ENERGY PREDICTED BY IDOCK:   -3.93 KCAL/MOL
REMARK 922        TOTAL FREE ENERGY PREDICTED BY IDOCK:   -8.45 KCAL/MOL
REMARK 923 INTER-LIGAND FREE ENERGY PREDICTED BY IDOCK:   -5.60 KCAL/MOL
REMARK 924 INTRA-LIGAND FREE ENERGY PREDICTED BY IDOCK:   -2.85 KCAL/MOL
REMARK 927      BINDING AFFINITY PREDICTED BY RF-SCORE:    0.00 PKD
ROOT
HETATM    1  N   UNL     1     -10.353   4.811  72.293  1.00  0.00    -0.200 NA 
HETATM    2  C   UNL     1      -9.737   4.091  71.341  1.00  0.00    -0.183 A  
HETATM    3  H1  UNL     1     -10.155   4.701  73.288  1.00  0.00     0.000 HD 
HETATM    4  H2  UNL     1     -11.051   5.497  72.010  1.00  0.00     0.000 HD 
HETATM    5  N   UNL     1      -9.992   4.232  70.065  1.00  0.00    -0.200 NA 
HETATM    6  C   UNL     1      -9.202   3.362  69.320  1.00  0.00    -0.152 A  
HETATM    7  S   UNL     1      -8.529   2.938  71.732  1.00  0.00    -0.065 SA 
HETATM    8  C   UNL     1      -8.341   2.582  70.068  1.00  0.00    -0.041 A  
ENDROOT
BRANCH   6   9
HETATM    9  C   UNL     1      -9.333   3.365  67.836  1.00  0.00    -0.242 C  
BRANCH   9  10
HETATM   10  C   UNL     1      -9.737   4.706  67.246  1.00  0.00    -0.185 C  
HETATM   11  N   UNL     1      -9.165   5.819  67.843  1.00  0.00    -0.109 N  
HETATM   12  O   UNL     1     -10.439   4.718  66.235  1.00  0.00    -0.288 OA 
HETATM   13  H   UNL     1      -8.590   5.658  68.670  1.00  0.00     0.000 HD 
BRANCH  11  14
HETATM   14  C   UNL     1      -9.307   7.154  67.411  1.00  0.00    -0.127 A  
HETATM   15  C   UNL     1     -10.547   7.748  67.180  1.00  0.00    -0.401 A  
HETATM   16  C   UNL     1     -10.638   9.033  66.642  1.00  0.00    -0.158 A  
HETATM   17  C   UNL     1      -9.485   9.760  66.335  1.00  0.00    -0.237 A  
HETATM   18  C   UNL     1      -8.150   7.903  67.171  1.00  0.00    -0.117 A  
HETATM   19  C   UNL     1      -8.237   9.190  66.624  1.00  0.00    -0.115 A  
BRANCH  17  20
HETATM   20  C   UNL     1      -9.588  11.110  65.655  1.00  0.00    -0.259 C  
BRANCH  20  21
HETATM   21  C   UNL     1     -10.971  11.779  65.753  1.00  0.00    -0.301 C  
BRANCH  21  22
HETATM   22  N   UNL     1     -11.003  12.771  66.824  1.00  0.00    -0.264 NA 
HETATM   23  H   UNL     1     -11.381  13.658  66.492  1.00  0.00     0.000 HD 
BRANCH  22  24
HETATM   24  C   UNL     1     -11.731  12.295  68.006  1.00  0.00    -0.356 C  
BRANCH  24  25
HETATM   25  C   UNL     1     -10.824  12.134  69.253  1.00  0.00    -0.051 C  
HETATM   26  O   UNL     1      -9.543  12.732  69.000  1.00  0.00    -0.389 OA 
HETATM   27  H   UNL     1      -8.988  12.634  69.765  1.00  0.00     0.000 HD 
BRANCH  25  28
HETATM   28  C   UNL     1     -10.641  10.714  69.758  1.00  0.00    -0.233 A  
HETATM   29  C   UNL     1     -11.760   9.918  70.047  1.00  0.00    -0.186 A  
HETATM   30  C   UNL     1     -11.602   8.636  70.582  1.00  0.00    -0.225 A  
HETATM   31  C   UNL     1     -10.327   8.132  70.829  1.00  0.00    -0.217 A  
HETATM   32  C   UNL     1      -9.207   8.901  70.526  1.00  0.00    -0.239 A  
HETATM   33  C   UNL     1      -9.363  10.182  69.994  1.00  0.00    -0.062 A  
ENDBRANCH  25  28
ENDBRANCH  24  25
ENDBRANCH  22  24
ENDBRANCH  21  22
ENDBRANCH  20  21
ENDBRANCH  17  20
ENDBRANCH  11  14
ENDBRANCH   9  10
ENDBRANCH   6   9
TORSDOF 9
ENDMDL
MODEL      189
REMARK 921   NORMALIZED FREE ENERGY PREDICTED BY IDOCK:   -3.91 KCAL/MOL
REMARK 922        TOTAL FREE ENERGY PREDICTED BY IDOCK:   -8.41 KCAL/MOL
REMARK 923 INTER-LIGAND FREE ENERGY PREDICTED BY IDOCK:   -6.85 KCAL/MOL
REMARK 924 INTRA-LIGAND FREE ENERGY PREDICTED BY IDOCK:   -1.57 KCAL/MOL
REMARK 927      BINDING AFFINITY PREDICTED BY RF-SCORE:    0.00 PKD
ROOT
HETATM    1  N   UNL     1     -13.020  12.151  64.016  1.00  0.00    -0.695 NA 
HETATM    2  C   UNL     1     -12.483  13.118  64.779  1.00  0.00    -0.402 A  
HETATM    3  H1  UNL     1     -13.069  12.211  62.999  1.00  0.00     0.000 HD 
HETATM    4  H2  UNL     1     -13.395  11.321  64.473  1.00  0.00     0.000 HD 
HETATM    5  N   UNL     1     -12.420  13.042  66.085  1.00  0.00    -0.447 NA 
HETATM    6  C   UNL     1     -11.812  14.180  66.602  1.00  0.00    -0.424 A  
HETATM    7  S   UNL     1     -11.804  14.531  64.087  1.00  0.00    -0.174 SA 
HETATM    8  C   UNL     1     -11.408  15.100  65.653  1.00  0.00    -0.255 A  
ENDROOT
BRANCH   6   9
HETATM    9  C   UNL     1     -11.635  14.293  68.077  1.00  0.00    -0.364 C  
BRANCH   9  10
HETATM   10  C   UNL     1     -11.156  13.018  68.749  1.00  0.00    -0.270 C  
HETATM   11  N   UNL     1     -12.131  12.286  69.410  1.00  0.00    -0.226 N  
HETATM   12  O   UNL     1      -9.988  12.665  68.580  1.00  0.00    -0.219 OA 
HETATM   13  H   UNL     1     -13.064  12.695  69.460  1.00  0.00     0.000 HD 
BRANCH  11  14
HETATM   14  C   UNL     1     -11.950  11.028  70.019  1.00  0.00    -0.351 A  
HETATM   15  C   UNL     1     -12.392  10.739  71.310  1.00  0.00    -0.470 A  
HETATM   16  C   UNL     1     -12.088   9.518  71.915  1.00  0.00    -0.409 A  
HETATM   17  C   UNL     1     -11.346   8.550  71.234  1.00  0.00    -0.325 A  
HETATM   18  C   UNL     1     -11.267  10.036  69.307  1.00  0.00    -0.213 A  
HETATM   19  C   UNL     1     -10.954   8.812  69.915  1.00  0.00    -0.184 A  
BRANCH  17  20
HETATM   20  C   UNL     1     -10.932   7.271  71.933  1.00  0.00    -0.260 C  
BRANCH  20  21
HETATM   21  C   UNL     1      -9.790   6.500  71.247  1.00  0.00    -0.181 C  
BRANCH  21  22
HETATM   22  N   UNL     1      -8.615   6.419  72.110  1.00  0.00    -0.125 NA 
HETATM   23  H   UNL     1      -8.540   5.500  72.546  1.00  0.00     0.000 HD 
BRANCH  22  24
HETATM   24  C   UNL     1      -7.377   6.771  71.403  1.00  0.00    -0.082 C  
BRANCH  24  25
HETATM   25  C   UNL     1      -7.597   7.046  69.893  1.00  0.00    -0.102 C  
HETATM   26  O   UNL     1      -6.708   6.225  69.118  1.00  0.00    -0.052 OA 
HETATM   27  H   UNL     1      -6.843   6.394  68.193  1.00  0.00     0.000 HD 
BRANCH  25  28
HETATM   28  C   UNL     1      -7.471   8.495  69.461  1.00  0.00    -0.080 A  
HETATM   29  C   UNL     1      -7.825   8.877  68.158  1.00  0.00    -0.101 A  
HETATM   30  C   UNL     1      -7.644  10.194  67.727  1.00  0.00    -0.090 A  
HETATM   31  C   UNL     1      -7.112  11.147  68.594  1.00  0.00    -0.090 A  
HETATM   32  C   UNL     1      -6.778  10.790  69.896  1.00  0.00    -0.156 A  
HETATM   33  C   UNL     1      -6.957   9.474  70.327  1.00  0.00    -0.099 A  
ENDBRANCH  25  28
ENDBRANCH  24  25
ENDBRANCH  22  24
ENDBRANCH  21  22
ENDBRANCH  20  21
ENDBRANCH  17  20
ENDBRANCH  11  14
ENDBRANCH   9  10
ENDBRANCH   6   9
TORSDOF 9
ENDMDL
MODEL      190
REMARK 921   NORMALIZED FREE ENERGY PREDICTED BY IDOCK:   -3.88 KCAL/MOL
REMARK 922        TOTAL FREE ENERGY PREDICTED BY IDOCK:   -8.36 KCAL/MOL
REMARK 923 INTER-LIGAND FREE ENERGY PREDICTED BY IDOCK:   -6.95 KCAL/MOL
REMARK 924 INTRA-LIGAND FREE ENERGY PREDICTED BY IDOCK:   -1.41 KCAL/MOL
REMARK 927      BINDING AFFINITY PREDICTED BY RF-SCORE:    0.00 PKD
ROOT
HETATM    1  N   UNL     1     -13.700  16.040  73.402  1.00  0.00    -0.807 NA 
HETATM    2  C   UNL     1     -13.291  15.258  72.389  1.00  0.00    -0.435 A  
HETATM    3  H1  UNL     1     -14.209  15.681  74.210  1.00  0.00     0.000 HD 
HETATM    4  H2  UNL     1     -13.492  17.037  73.361  1.00  0.00     0.000 HD 
HETATM    5  N   UNL     1     -12.638  15.718  71.353  1.00  0.00    -0.453 NA 
HETATM    6  C   UNL     1     -12.343  14.681  70.473  1.00  0.00    -0.337 A  
HETATM    7  S   UNL     1     -13.573  13.566  72.395  1.00  0.00    -0.583 SA 
HETATM    8  C   UNL     1     -12.777  13.435  70.885  1.00  0.00    -0.272 A  
ENDROOT
BRANCH   6   9
HETATM    9  C   UNL     1     -11.594  14.990  69.223  1.00  0.00    -0.338 C  
BRANCH   9  10
HETATM   10  C   UNL     1     -11.305  13.781  68.351  1.00  0.00    -0.293 C  
HETATM   11  N   UNL     1     -10.397  12.871  68.869  1.00  0.00    -0.429 N  
HETATM   12  O   UNL     1     -11.958  13.630  67.317  1.00  0.00    -0.376 OA 
HETATM   13  H   UNL     1      -9.940  13.120  69.747  1.00  0.00     0.000 HD 
BRANCH  11  14
HETATM   14  C   UNL     1     -10.047  11.632  68.294  1.00  0.00    -0.202 A  
HETATM   15  C   UNL     1      -8.953  11.472  67.444  1.00  0.00    -0.156 A  
HETATM   16  C   UNL     1      -8.713  10.254  66.806  1.00  0.00    -0.132 A  
HETATM   17  C   UNL     1      -9.557   9.160  67.016  1.00  0.00    -0.223 A  
HETATM   18  C   UNL     1     -10.855  10.522  68.563  1.00  0.00    -0.275 A  
HETATM   19  C   UNL     1     -10.621   9.299  67.918  1.00  0.00    -0.288 A  
BRANCH  17  20
HETATM   20  C   UNL     1      -9.352   7.875  66.242  1.00  0.00    -0.225 C  
BRANCH  20  21
HETATM   21  C   UNL     1     -10.265   6.711  66.667  1.00  0.00    -0.138 C  
BRANCH  21  22
HETATM   22  N   UNL     1      -9.582   5.819  67.600  1.00  0.00    -0.112 NA 
HETATM   23  H   UNL     1      -8.569   5.900  67.512  1.00  0.00     0.000 HD 
BRANCH  22  24
HETATM   24  C   UNL     1     -10.011   6.026  68.988  1.00  0.00    -0.158 C  
BRANCH  24  25
HETATM   25  C   UNL     1      -8.875   5.793  70.016  1.00  0.00    -0.135 C  
HETATM   26  O   UNL     1      -9.369   5.010  71.114  1.00  0.00    -0.140 OA 
HETATM   27  H   UNL     1      -8.672   4.867  71.744  1.00  0.00     0.000 HD 
BRANCH  25  28
HETATM   28  C   UNL     1      -8.191   7.043  70.539  1.00  0.00    -0.123 A  
HETATM   29  C   UNL     1      -7.570   7.933  69.650  1.00  0.00    -0.098 A  
HETATM   30  C   UNL     1      -6.874   9.048  70.127  1.00  0.00    -0.045 A  
HETATM   31  C   UNL     1      -6.796   9.290  71.497  1.00  0.00     0.054 A  
HETATM   32  C   UNL     1      -7.426   8.430  72.391  1.00  0.00    -0.129 A  
HETATM   33  C   UNL     1      -8.119   7.314  71.915  1.00  0.00    -0.100 A  
ENDBRANCH  25  28
ENDBRANCH  24  25
ENDBRANCH  22  24
ENDBRANCH  21  22
ENDBRANCH  20  21
ENDBRANCH  17  20
ENDBRANCH  11  14
ENDBRANCH   9  10
ENDBRANCH   6   9
TORSDOF 9
ENDMDL
MODEL      191
REMARK 921   NORMALIZED FREE ENERGY PREDICTED BY IDOCK:   -3.87 KCAL/MOL
REMARK 922        TOTAL FREE ENERGY PREDICTED BY IDOCK:   -8.34 KCAL/MOL
REMARK 923 INTER-LIGAND FREE ENERGY PREDICTED BY IDOCK:   -6.83 KCAL/MOL
REMARK 924 INTRA-LIGAND FREE ENERGY PREDICTED BY IDOCK:   -1.52 KCAL/MOL
REMARK 927      BINDING AFFINITY PREDICTED BY RF-SCORE:    0.00 PKD
ROOT
HETATM    1  N   UNL     1      -6.709   4.424  72.527  1.00  0.00    -0.044 NA 
HETATM    2  C   UNL     1      -7.975   4.801  72.285  1.00  0.00    -0.106 A  
HETATM    3  H1  UNL     1      -6.307   3.561  72.160  1.00  0.00     0.000 HD 
HETATM    4  H2  UNL     1      -6.124   5.026  73.105  1.00  0.00     0.000 HD 
HETATM    5  N   UNL     1      -8.491   5.907  72.757  1.00  0.00    -0.122 NA 
HETATM    6  C   UNL     1      -9.812   6.036  72.339  1.00  0.00    -0.162 A  
HETATM    7  S   UNL     1      -9.016   3.861  71.298  1.00  0.00    -0.114 SA 
HETATM    8  C   UNL     1     -10.264   5.010  71.532  1.00  0.00    -0.204 A  
ENDROOT
BRANCH   6   9
HETATM    9  C   UNL     1     -10.586   7.236  72.764  1.00  0.00    -0.322 C  
BRANCH   9  10
HETATM   10  C   UNL     1     -11.280   7.968  71.628  1.00  0.00    -0.255 C  
HETATM   11  N   UNL     1     -10.493   8.865  70.923  1.00  0.00    -0.218 N  
HETATM   12  O   UNL     1     -12.435   7.650  71.340  1.00  0.00    -0.321 OA 
HETATM   13  H   UNL     1      -9.545   9.020  71.267  1.00  0.00     0.000 HD 
BRANCH  11  14
HETATM   14  C   UNL     1     -10.883   9.582  69.773  1.00  0.00    -0.243 A  
HETATM   15  C   UNL     1     -10.579   9.163  68.478  1.00  0.00    -0.209 A  
HETATM   16  C   UNL     1     -10.883   9.963  67.376  1.00  0.00    -0.293 A  
HETATM   17  C   UNL     1     -11.513  11.199  67.544  1.00  0.00    -0.296 A  
HETATM   18  C   UNL     1     -11.576  10.786  69.942  1.00  0.00    -0.410 A  
HETATM   19  C   UNL     1     -11.876  11.595  68.838  1.00  0.00    -0.392 A  
BRANCH  17  20
HETATM   20  C   UNL     1     -11.747  12.107  66.354  1.00  0.00    -0.394 C  
BRANCH  20  21
HETATM   21  C   UNL     1     -10.601  12.136  65.328  1.00  0.00    -0.281 C  
BRANCH  21  22
HETATM   22  N   UNL     1      -9.895  13.414  65.360  1.00  0.00    -0.509 NA 
HETATM   23  H   UNL     1     -10.491  14.172  65.027  1.00  0.00     0.000 HD 
BRANCH  22  24
HETATM   24  C   UNL     1      -9.347  13.717  66.688  1.00  0.00    -0.264 C  
BRANCH  24  25
HETATM   25  C   UNL     1      -9.711  15.140  67.185  1.00  0.00    -0.228 C  
HETATM   26  O   UNL     1      -8.512  15.908  67.371  1.00  0.00    -0.162 OA 
HETATM   27  H   UNL     1      -8.735  16.780  67.675  1.00  0.00     0.000 HD 
BRANCH  25  28
HETATM   28  C   UNL     1     -10.565  15.204  68.437  1.00  0.00    -0.238 A  
HETATM   29  C   UNL     1     -11.964  15.133  68.344  1.00  0.00    -0.216 A  
HETATM   30  C   UNL     1     -12.762  15.264  69.484  1.00  0.00     0.107 A  
HETATM   31  C   UNL     1     -12.174  15.463  70.731  1.00  0.00    -0.430 A  
HETATM   32  C   UNL     1     -10.788  15.512  70.844  1.00  0.00    -0.248 A  
HETATM   33  C   UNL     1      -9.989  15.383  69.706  1.00  0.00    -0.251 A  
ENDBRANCH  25  28
ENDBRANCH  24  25
ENDBRANCH  22  24
ENDBRANCH  21  22
ENDBRANCH  20  21
ENDBRANCH  17  20
ENDBRANCH  11  14
ENDBRANCH   9  10
ENDBRANCH   6   9
TORSDOF 9
ENDMDL
MODEL      192
REMARK 921   NORMALIZED FREE ENERGY PREDICTED BY IDOCK:   -3.86 KCAL/MOL
REMARK 922        TOTAL FREE ENERGY PREDICTED BY IDOCK:   -8.33 KCAL/MOL
REMARK 923 INTER-LIGAND FREE ENERGY PREDICTED BY IDOCK:   -7.33 KCAL/MOL
REMARK 924 INTRA-LIGAND FREE ENERGY PREDICTED BY IDOCK:   -1.00 KCAL/MOL
REMARK 927      BINDING AFFINITY PREDICTED BY RF-SCORE:    0.00 PKD
ROOT
HETATM    1  N   UNL     1     -11.191   3.099  73.527  1.00  0.00    -0.219 NA 
HETATM    2  C   UNL     1     -10.096   3.226  72.760  1.00  0.00    -0.158 A  
HETATM    3  H1  UNL     1     -11.785   2.269  73.514  1.00  0.00     0.000 HD 
HETATM    4  H2  UNL     1     -11.440   3.866  74.150  1.00  0.00     0.000 HD 
HETATM    5  N   UNL     1      -9.335   4.291  72.776  1.00  0.00    -0.119 NA 
HETATM    6  C   UNL     1      -8.277   4.137  71.885  1.00  0.00    -0.092 A  
HETATM    7  S   UNL     1      -9.591   1.970  71.707  1.00  0.00    -0.138 SA 
HETATM    8  C   UNL     1      -8.258   2.928  71.217  1.00  0.00    -0.062 A  
ENDROOT
BRANCH   6   9
HETATM    9  C   UNL     1      -7.283   5.239  71.753  1.00  0.00    -0.080 C  
BRANCH   9  10
HETATM   10  C   UNL     1      -7.885   6.633  71.799  1.00  0.00    -0.102 C  
HETATM   11  N   UNL     1      -9.151   6.758  71.247  1.00  0.00    -0.150 N  
HETATM   12  O   UNL     1      -7.278   7.518  72.404  1.00  0.00    -0.069 OA 
HETATM   13  H   UNL     1      -9.540   5.934  70.789  1.00  0.00     0.000 HD 
BRANCH  11  14
HETATM   14  C   UNL     1      -9.948   7.920  71.261  1.00  0.00    -0.176 A  
HETATM   15  C   UNL     1     -11.017   8.096  72.140  1.00  0.00    -0.372 A  
HETATM   16  C   UNL     1     -11.850   9.211  72.041  1.00  0.00    -0.407 A  
HETATM   17  C   UNL     1     -11.624  10.186  71.066  1.00  0.00    -0.462 A  
HETATM   18  C   UNL     1      -9.675   8.927  70.329  1.00  0.00    -0.212 A  
HETATM   19  C   UNL     1     -10.514  10.044  70.222  1.00  0.00    -0.331 A  
BRANCH  17  20
HETATM   20  C   UNL     1     -12.592  11.339  70.896  1.00  0.00    -0.467 C  
BRANCH  20  21
HETATM   21  C   UNL     1     -12.219  12.339  69.788  1.00  0.00    -0.134 C  
BRANCH  21  22
HETATM   22  N   UNL     1     -11.586  13.532  70.344  1.00  0.00    -0.521 NA 
HETATM   23  H   UNL     1     -10.601  13.364  70.548  1.00  0.00     0.000 HD 
BRANCH  22  24
HETATM   24  C   UNL     1     -11.755  14.708  69.482  1.00  0.00    -0.324 C  
BRANCH  24  25
HETATM   25  C   UNL     1     -10.695  14.792  68.354  1.00  0.00    -0.243 C  
HETATM   26  O   UNL     1     -10.575  16.150  67.904  1.00  0.00    -0.290 OA 
HETATM   27  H   UNL     1      -9.925  16.201  67.213  1.00  0.00     0.000 HD 
BRANCH  25  28
HETATM   28  C   UNL     1     -10.920  13.872  67.167  1.00  0.00    -0.298 A  
HETATM   29  C   UNL     1      -9.892  13.026  66.725  1.00  0.00    -0.243 A  
HETATM   30  C   UNL     1     -10.064  12.230  65.589  1.00  0.00    -0.275 A  
HETATM   31  C   UNL     1     -11.266  12.266  64.884  1.00  0.00    -0.365 A  
HETATM   32  C   UNL     1     -12.303  13.082  65.324  1.00  0.00    -0.537 A  
HETATM   33  C   UNL     1     -12.132  13.880  66.457  1.00  0.00    -0.484 A  
ENDBRANCH  25  28
ENDBRANCH  24  25
ENDBRANCH  22  24
ENDBRANCH  21  22
ENDBRANCH  20  21
ENDBRANCH  17  20
ENDBRANCH  11  14
ENDBRANCH   9  10
ENDBRANCH   6   9
TORSDOF 9
ENDMDL
MODEL      193
REMARK 921   NORMALIZED FREE ENERGY PREDICTED BY IDOCK:   -3.85 KCAL/MOL
REMARK 922        TOTAL FREE ENERGY PREDICTED BY IDOCK:   -8.32 KCAL/MOL
REMARK 923 INTER-LIGAND FREE ENERGY PREDICTED BY IDOCK:   -7.89 KCAL/MOL
REMARK 924 INTRA-LIGAND FREE ENERGY PREDICTED BY IDOCK:   -0.43 KCAL/MOL
REMARK 927      BINDING AFFINITY PREDICTED BY RF-SCORE:    0.00 PKD
ROOT
HETATM    1  N   UNL     1      -6.527   5.450  74.198  1.00  0.00    -0.068 NA 
HETATM    2  C   UNL     1      -7.526   5.491  73.302  1.00  0.00    -0.096 A  
HETATM    3  H1  UNL     1      -6.685   5.388  75.204  1.00  0.00     0.000 HD 
HETATM    4  H2  UNL     1      -5.567   5.482  73.858  1.00  0.00     0.000 HD 
HETATM    5  N   UNL     1      -7.324   5.570  72.011  1.00  0.00    -0.090 NA 
HETATM    6  C   UNL     1      -8.539   5.590  71.335  1.00  0.00    -0.131 A  
HETATM    7  S   UNL     1      -9.168   5.411  73.789  1.00  0.00    -0.125 SA 
HETATM    8  C   UNL     1      -9.653   5.508  72.149  1.00  0.00    -0.150 A  
ENDROOT
BRANCH   6   9
HETATM    9  C   UNL     1      -8.533   5.672  69.848  1.00  0.00    -0.121 C  
BRANCH   9  10
HETATM   10  C   UNL     1      -8.442   7.086  69.300  1.00  0.00    -0.133 C  
HETATM   11  N   UNL     1      -9.374   7.413  68.326  1.00  0.00    -0.140 N  
HETATM   12  O   UNL     1      -7.642   7.868  69.814  1.00  0.00    -0.086 OA 
HETATM   13  H   UNL     1      -9.988   6.665  68.003  1.00  0.00     0.000 HD 
BRANCH  11  14
HETATM   14  C   UNL     1      -9.551   8.685  67.744  1.00  0.00    -0.148 A  
HETATM   15  C   UNL     1      -9.733   9.845  68.496  1.00  0.00    -0.163 A  
HETATM   16  C   UNL     1     -10.020  11.062  67.878  1.00  0.00    -0.192 A  
HETATM   17  C   UNL     1     -10.119  11.150  66.487  1.00  0.00    -0.265 A  
HETATM   18  C   UNL     1      -9.579   8.780  66.349  1.00  0.00    -0.316 A  
HETATM   19  C   UNL     1      -9.875  10.000  65.725  1.00  0.00    -0.345 A  
BRANCH  17  20
HETATM   20  C   UNL     1     -10.533  12.450  65.829  1.00  0.00    -0.288 C  
BRANCH  20  21
HETATM   21  C   UNL     1     -11.955  12.925  66.172  1.00  0.00    -0.429 C  
BRANCH  21  22
HETATM   22  N   UNL     1     -11.925  14.116  67.017  1.00  0.00    -0.428 NA 
HETATM   23  H   UNL     1     -12.673  14.763  66.766  1.00  0.00     0.000 HD 
BRANCH  22  24
HETATM   24  C   UNL     1     -11.965  13.789  68.447  1.00  0.00    -0.360 C  
BRANCH  24  25
HETATM   25  C   UNL     1     -11.358  14.900  69.341  1.00  0.00    -0.290 C  
HETATM   26  O   UNL     1      -9.976  14.608  69.603  1.00  0.00    -0.423 OA 
HETATM   27  H   UNL     1      -9.604  15.290  70.151  1.00  0.00     0.000 HD 
BRANCH  25  28
HETATM   28  C   UNL     1     -12.086  15.171  70.645  1.00  0.00    -0.378 A  
HETATM   29  C   UNL     1     -13.385  14.681  70.843  1.00  0.00    -0.350 A  
HETATM   30  C   UNL     1     -14.092  14.986  72.010  1.00  0.00    -0.633 A  
HETATM   31  C   UNL     1     -13.507  15.780  72.995  1.00  0.00    -0.672 A  
HETATM   32  C   UNL     1     -12.210  16.253  72.824  1.00  0.00    -0.592 A  
HETATM   33  C   UNL     1     -11.505  15.951  71.658  1.00  0.00    -0.473 A  
ENDBRANCH  25  28
ENDBRANCH  24  25
ENDBRANCH  22  24
ENDBRANCH  21  22
ENDBRANCH  20  21
ENDBRANCH  17  20
ENDBRANCH  11  14
ENDBRANCH   9  10
ENDBRANCH   6   9
TORSDOF 9
ENDMDL
MODEL      194
REMARK 921   NORMALIZED FREE ENERGY PREDICTED BY IDOCK:   -3.84 KCAL/MOL
REMARK 922        TOTAL FREE ENERGY PREDICTED BY IDOCK:   -8.30 KCAL/MOL
REMARK 923 INTER-LIGAND FREE ENERGY PREDICTED BY IDOCK:   -6.96 KCAL/MOL
REMARK 924 INTRA-LIGAND FREE ENERGY PREDICTED BY IDOCK:   -1.35 KCAL/MOL
REMARK 927      BINDING AFFINITY PREDICTED BY RF-SCORE:    0.00 PKD
ROOT
HETATM    1  N   UNL     1      -9.904   9.942  62.368  1.00  0.00    -0.651 NA 
HETATM    2  C   UNL     1      -8.772   9.930  63.090  1.00  0.00    -0.222 A  
HETATM    3  H1  UNL     1      -9.912   9.949  61.348  1.00  0.00     0.000 HD 
HETATM    4  H2  UNL     1     -10.796   9.943  62.862  1.00  0.00     0.000 HD 
HETATM    5  N   UNL     1      -8.762   9.920  64.399  1.00  0.00    -0.185 NA 
HETATM    6  C   UNL     1      -7.452   9.905  64.868  1.00  0.00    -0.135 A  
HETATM    7  S   UNL     1      -7.231   9.897  62.338  1.00  0.00    -0.122 SA 
HETATM    8  C   UNL     1      -6.486   9.887  63.880  1.00  0.00    -0.126 A  
ENDROOT
BRANCH   6   9
HETATM    9  C   UNL     1      -7.216   9.886  66.339  1.00  0.00    -0.100 C  
BRANCH   9  10
HETATM   10  C   UNL     1      -8.057  10.881  67.120  1.00  0.00    -0.127 C  
HETATM   11  N   UNL     1      -8.216  12.126  66.530  1.00  0.00    -0.395 N  
HETATM   12  O   UNL     1      -8.621  10.498  68.146  1.00  0.00    -0.118 OA 
HETATM   13  H   UNL     1      -7.698  12.300  65.669  1.00  0.00     0.000 HD 
BRANCH  11  14
HETATM   14  C   UNL     1      -9.029  13.172  67.013  1.00  0.00    -0.228 A  
HETATM   15  C   UNL     1     -10.315  13.417  66.532  1.00  0.00    -0.284 A  
HETATM   16  C   UNL     1     -11.038  14.533  66.955  1.00  0.00    -0.324 A  
HETATM   17  C   UNL     1     -10.494  15.425  67.883  1.00  0.00    -0.256 A  
HETATM   18  C   UNL     1      -8.507  14.023  67.993  1.00  0.00    -0.171 A  
HETATM   19  C   UNL     1      -9.228  15.149  68.415  1.00  0.00    -0.189 A  
BRANCH  17  20
HETATM   20  C   UNL     1     -11.240  16.688  68.259  1.00  0.00    -0.220 C  
BRANCH  20  21
HETATM   21  C   UNL     1     -10.700  17.976  67.613  1.00  0.00    -0.344 C  
BRANCH  21  22
HETATM   22  N   UNL     1     -10.628  19.064  68.583  1.00  0.00    -0.368 NA 
HETATM   23  H   UNL     1     -10.668  18.708  69.539  1.00  0.00     0.000 HD 
BRANCH  22  24
HETATM   24  C   UNL     1      -9.449  19.915  68.385  1.00  0.00    -0.272 C  
BRANCH  24  25
HETATM   25  C   UNL     1      -8.112  19.144  68.536  1.00  0.00    -0.359 C  
HETATM   26  O   UNL     1      -7.394  19.641  69.677  1.00  0.00    -0.252 OA 
HETATM   27  H   UNL     1      -6.575  19.168  69.770  1.00  0.00     0.000 HD 
BRANCH  25  28
HETATM   28  C   UNL     1      -7.208  19.144  67.317  1.00  0.00    -0.231 A  
HETATM   29  C   UNL     1      -7.157  20.265  66.475  1.00  0.00    -0.297 A  
HETATM   30  C   UNL     1      -6.385  20.246  65.310  1.00  0.00    -0.304 A  
HETATM   31  C   UNL     1      -5.650  19.111  64.975  1.00  0.00    -0.247 A  
HETATM   32  C   UNL     1      -5.672  17.999  65.812  1.00  0.00    -0.233 A  
HETATM   33  C   UNL     1      -6.445  18.016  66.974  1.00  0.00    -0.198 A  
ENDBRANCH  25  28
ENDBRANCH  24  25
ENDBRANCH  22  24
ENDBRANCH  21  22
ENDBRANCH  20  21
ENDBRANCH  17  20
ENDBRANCH  11  14
ENDBRANCH   9  10
ENDBRANCH   6   9
TORSDOF 9
ENDMDL
MODEL      195
REMARK 921   NORMALIZED FREE ENERGY PREDICTED BY IDOCK:   -3.82 KCAL/MOL
REMARK 922        TOTAL FREE ENERGY PREDICTED BY IDOCK:   -8.28 KCAL/MOL
REMARK 923 INTER-LIGAND FREE ENERGY PREDICTED BY IDOCK:   -5.96 KCAL/MOL
REMARK 924 INTRA-LIGAND FREE ENERGY PREDICTED BY IDOCK:   -2.31 KCAL/MOL
REMARK 927      BINDING AFFINITY PREDICTED BY RF-SCORE:    0.00 PKD
ROOT
HETATM    1  N   UNL     1     -10.946  12.314  68.446  1.00  0.00    -0.222 NA 
HETATM    2  C   UNL     1     -10.008  11.767  67.655  1.00  0.00    -0.194 A  
HETATM    3  H1  UNL     1     -10.800  13.183  68.961  1.00  0.00     0.000 HD 
HETATM    4  H2  UNL     1     -11.844  11.840  68.536  1.00  0.00     0.000 HD 
HETATM    5  N   UNL     1     -10.195  10.653  66.995  1.00  0.00    -0.211 NA 
HETATM    6  C   UNL     1      -9.058  10.334  66.260  1.00  0.00    -0.154 A  
HETATM    7  S   UNL     1      -8.483  12.516  67.425  1.00  0.00    -0.190 SA 
HETATM    8  C   UNL     1      -8.025  11.245  66.374  1.00  0.00    -0.125 A  
ENDROOT
BRANCH   6   9
HETATM    9  C   UNL     1      -9.063   9.099  65.427  1.00  0.00    -0.271 C  
BRANCH   9  10
HETATM   10  C   UNL     1      -8.990   7.807  66.224  1.00  0.00    -0.174 C  
HETATM   11  N   UNL     1      -9.189   7.934  67.591  1.00  0.00    -0.136 N  
HETATM   12  O   UNL     1      -8.872   6.744  65.614  1.00  0.00    -0.125 OA 
HETATM   13  H   UNL     1      -9.288   8.880  67.959  1.00  0.00     0.000 HD 
BRANCH  11  14
HETATM   14  C   UNL     1      -9.268   6.874  68.517  1.00  0.00    -0.129 A  
HETATM   15  C   UNL     1      -8.141   6.264  69.069  1.00  0.00    -0.110 A  
HETATM   16  C   UNL     1      -8.264   5.144  69.891  1.00  0.00    -0.086 A  
HETATM   17  C   UNL     1      -9.521   4.614  70.193  1.00  0.00    -0.246 A  
HETATM   18  C   UNL     1     -10.532   6.391  68.871  1.00  0.00    -0.264 A  
HETATM   19  C   UNL     1     -10.658   5.261  69.691  1.00  0.00    -0.261 A  
BRANCH  17  20
HETATM   20  C   UNL     1      -9.641   3.338  71.000  1.00  0.00    -0.234 C  
BRANCH  20  21
HETATM   21  C   UNL     1      -9.989   3.541  72.485  1.00  0.00    -0.162 C  
BRANCH  21  22
HETATM   22  N   UNL     1      -9.461   4.809  72.981  1.00  0.00    -0.129 NA 
HETATM   23  H   UNL     1      -9.287   5.460  72.215  1.00  0.00     0.000 HD 
BRANCH  22  24
HETATM   24  C   UNL     1     -10.325   5.413  74.003  1.00  0.00    -0.272 C  
BRANCH  24  25
HETATM   25  C   UNL     1     -11.274   6.498  73.432  1.00  0.00     0.101 C  
HETATM   26  O   UNL     1     -12.351   5.870  72.718  1.00  0.00    -0.537 OA 
HETATM   27  H   UNL     1     -12.933   6.535  72.369  1.00  0.00     0.000 HD 
BRANCH  25  28
HETATM   28  C   UNL     1     -10.621   7.553  72.558  1.00  0.00    -0.321 A  
HETATM   29  C   UNL     1     -11.411   8.429  71.798  1.00  0.00    -0.366 A  
HETATM   30  C   UNL     1     -10.819   9.355  70.934  1.00  0.00    -0.392 A  
HETATM   31  C   UNL     1      -9.431   9.421  70.824  1.00  0.00    -0.307 A  
HETATM   32  C   UNL     1      -8.634   8.576  71.589  1.00  0.00    -0.247 A  
HETATM   33  C   UNL     1      -9.224   7.649  72.450  1.00  0.00    -0.201 A  
ENDBRANCH  25  28
ENDBRANCH  24  25
ENDBRANCH  22  24
ENDBRANCH  21  22
ENDBRANCH  20  21
ENDBRANCH  17  20
ENDBRANCH  11  14
ENDBRANCH   9  10
ENDBRANCH   6   9
TORSDOF 9
ENDMDL
MODEL      196
REMARK 921   NORMALIZED FREE ENERGY PREDICTED BY IDOCK:   -3.82 KCAL/MOL
REMARK 922        TOTAL FREE ENERGY PREDICTED BY IDOCK:   -8.27 KCAL/MOL
REMARK 923 INTER-LIGAND FREE ENERGY PREDICTED BY IDOCK:   -6.50 KCAL/MOL
REMARK 924 INTRA-LIGAND FREE ENERGY PREDICTED BY IDOCK:   -1.77 KCAL/MOL
REMARK 927      BINDING AFFINITY PREDICTED BY RF-SCORE:    0.00 PKD
ROOT
HETATM    1  N   UNL     1      -9.065   8.875  62.959  1.00  0.00    -0.417 NA 
HETATM    2  C   UNL     1      -7.899   9.363  63.414  1.00  0.00    -0.132 A  
HETATM    3  H1  UNL     1      -9.273   8.772  61.966  1.00  0.00     0.000 HD 
HETATM    4  H2  UNL     1      -9.773   8.597  63.637  1.00  0.00     0.000 HD 
HETATM    5  N   UNL     1      -7.631   9.496  64.689  1.00  0.00    -0.108 NA 
HETATM    6  C   UNL     1      -6.353  10.019  64.858  1.00  0.00    -0.118 A  
HETATM    7  S   UNL     1      -6.643   9.827  62.342  1.00  0.00    -0.105 SA 
HETATM    8  C   UNL     1      -5.668  10.258  63.682  1.00  0.00    -0.144 A  
ENDROOT
BRANCH   6   9
HETATM    9  C   UNL     1      -5.847  10.245  66.241  1.00  0.00    -0.070 C  
BRANCH   9  10
HETATM   10  C   UNL     1      -6.869  10.844  67.191  1.00  0.00    -0.093 C  
HETATM   11  N   UNL     1      -7.757  11.747  66.625  1.00  0.00    -0.337 N  
HETATM   12  O   UNL     1      -6.917  10.423  68.348  1.00  0.00    -0.067 OA 
HETATM   13  H   UNL     1      -7.607  11.994  65.647  1.00  0.00     0.000 HD 
BRANCH  11  14
HETATM   14  C   UNL     1      -8.850  12.353  67.279  1.00  0.00    -0.192 A  
HETATM   15  C   UNL     1      -8.773  13.610  67.878  1.00  0.00    -0.184 A  
HETATM   16  C   UNL     1      -9.843  14.120  68.614  1.00  0.00    -0.206 A  
HETATM   17  C   UNL     1     -11.025  13.388  68.755  1.00  0.00    -0.290 A  
HETATM   18  C   UNL     1     -10.054  11.646  67.358  1.00  0.00    -0.218 A  
HETATM   19  C   UNL     1     -11.129  12.152  68.103  1.00  0.00    -0.295 A  
BRANCH  17  20
HETATM   20  C   UNL     1     -12.142  13.900  69.640  1.00  0.00    -0.404 C  
BRANCH  20  21
HETATM   21  C   UNL     1     -12.147  13.332  71.070  1.00  0.00    -0.062 C  
BRANCH  21  22
HETATM   22  N   UNL     1     -13.432  12.715  71.389  1.00  0.00     0.002 NA 
HETATM   23  H   UNL     1     -14.038  12.684  70.569  1.00  0.00     0.000 HD 
BRANCH  22  24
HETATM   24  C   UNL     1     -13.280  11.383  71.985  1.00  0.00    -0.327 C  
BRANCH  24  25
HETATM   25  C   UNL     1     -12.658  10.349  71.012  1.00  0.00    -0.393 C  
HETATM   26  O   UNL     1     -13.656   9.393  70.621  1.00  0.00    -0.556 OA 
HETATM   27  H   UNL     1     -13.275   8.759  70.024  1.00  0.00     0.000 HD 
BRANCH  25  28
HETATM   28  C   UNL     1     -11.421   9.628  71.515  1.00  0.00    -0.439 A  
HETATM   29  C   UNL     1     -10.179   9.839  70.897  1.00  0.00    -0.195 A  
HETATM   30  C   UNL     1      -9.049   9.125  71.305  1.00  0.00    -0.232 A  
HETATM   31  C   UNL     1      -9.144   8.197  72.340  1.00  0.00    -0.281 A  
HETATM   32  C   UNL     1     -10.363   7.993  72.979  1.00  0.00    -0.351 A  
HETATM   33  C   UNL     1     -11.493   8.704  72.570  1.00  0.00    -0.287 A  
ENDBRANCH  25  28
ENDBRANCH  24  25
ENDBRANCH  22  24
ENDBRANCH  21  22
ENDBRANCH  20  21
ENDBRANCH  17  20
ENDBRANCH  11  14
ENDBRANCH   9  10
ENDBRANCH   6   9
TORSDOF 9
ENDMDL
MODEL      197
REMARK 921   NORMALIZED FREE ENERGY PREDICTED BY IDOCK:   -3.80 KCAL/MOL
REMARK 922        TOTAL FREE ENERGY PREDICTED BY IDOCK:   -8.24 KCAL/MOL
REMARK 923 INTER-LIGAND FREE ENERGY PREDICTED BY IDOCK:   -5.67 KCAL/MOL
REMARK 924 INTRA-LIGAND FREE ENERGY PREDICTED BY IDOCK:   -2.58 KCAL/MOL
REMARK 927      BINDING AFFINITY PREDICTED BY RF-SCORE:    0.00 PKD
ROOT
HETATM    1  N   UNL     1     -12.632  15.561  69.824  1.00  0.00    -0.596 NA 
HETATM    2  C   UNL     1     -11.710  15.749  68.866  1.00  0.00    -0.394 A  
HETATM    3  H1  UNL     1     -12.737  16.186  70.624  1.00  0.00     0.000 HD 
HETATM    4  H2  UNL     1     -13.255  14.759  69.749  1.00  0.00     0.000 HD 
HETATM    5  N   UNL     1     -11.575  14.947  67.840  1.00  0.00    -0.339 NA 
HETATM    6  C   UNL     1     -10.547  15.392  67.016  1.00  0.00    -0.309 A  
HETATM    7  S   UNL     1     -10.643  17.091  68.902  1.00  0.00    -0.298 SA 
HETATM    8  C   UNL     1      -9.929  16.553  67.441  1.00  0.00    -0.267 A  
ENDROOT
BRANCH   6   9
HETATM    9  C   UNL     1     -10.231  14.620  65.781  1.00  0.00    -0.360 C  
BRANCH   9  10
HETATM   10  C   UNL     1      -9.569  13.277  66.036  1.00  0.00    -0.160 C  
HETATM   11  N   UNL     1      -8.632  13.254  67.058  1.00  0.00    -0.335 N  
HETATM   12  O   UNL     1      -9.971  12.294  65.412  1.00  0.00    -0.262 OA 
HETATM   13  H   UNL     1      -8.406  14.145  67.500  1.00  0.00     0.000 HD 
BRANCH  11  14
HETATM   14  C   UNL     1      -7.964  12.111  67.542  1.00  0.00    -0.163 A  
HETATM   15  C   UNL     1      -6.897  11.515  66.871  1.00  0.00    -0.138 A  
HETATM   16  C   UNL     1      -6.341  10.319  67.327  1.00  0.00    -0.066 A  
HETATM   17  C   UNL     1      -6.834   9.696  68.477  1.00  0.00    -0.057 A  
HETATM   18  C   UNL     1      -8.415  11.530  68.732  1.00  0.00    -0.057 A  
HETATM   19  C   UNL     1      -7.865  10.325  69.189  1.00  0.00    -0.127 A  
BRANCH  17  20
HETATM   20  C   UNL     1      -6.298   8.347  68.908  1.00  0.00    -0.045 C  
BRANCH  20  21
HETATM   21  C   UNL     1      -6.924   7.783  70.195  1.00  0.00    -0.050 C  
BRANCH  21  22
HETATM   22  N   UNL     1      -7.711   6.584  69.918  1.00  0.00    -0.106 NA 
HETATM   23  H   UNL     1      -8.710   6.791  69.923  1.00  0.00     0.000 HD 
BRANCH  22  24
HETATM   24  C   UNL     1      -7.312   5.930  68.666  1.00  0.00    -0.085 C  
BRANCH  24  25
HETATM   25  C   UNL     1      -8.480   5.789  67.656  1.00  0.00    -0.103 C  
HETATM   26  O   UNL     1      -8.135   4.824  66.650  1.00  0.00    -0.106 OA 
HETATM   27  H   UNL     1      -8.851   4.737  66.032  1.00  0.00     0.000 HD 
BRANCH  25  28
HETATM   28  C   UNL     1      -8.945   7.076  67.000  1.00  0.00    -0.130 A  
HETATM   29  C   UNL     1     -10.023   7.794  67.538  1.00  0.00    -0.242 A  
HETATM   30  C   UNL     1     -10.506   8.940  66.899  1.00  0.00    -0.304 A  
HETATM   31  C   UNL     1      -9.913   9.386  65.720  1.00  0.00    -0.278 A  
HETATM   32  C   UNL     1      -8.828   8.698  65.186  1.00  0.00    -0.147 A  
HETATM   33  C   UNL     1      -8.347   7.552  65.822  1.00  0.00    -0.144 A  
ENDBRANCH  25  28
ENDBRANCH  24  25
ENDBRANCH  22  24
ENDBRANCH  21  22
ENDBRANCH  20  21
ENDBRANCH  17  20
ENDBRANCH  11  14
ENDBRANCH   9  10
ENDBRANCH   6   9
TORSDOF 9
ENDMDL
MODEL      198
REMARK 921   NORMALIZED FREE ENERGY PREDICTED BY IDOCK:   -3.79 KCAL/MOL
REMARK 922        TOTAL FREE ENERGY PREDICTED BY IDOCK:   -8.23 KCAL/MOL
REMARK 923 INTER-LIGAND FREE ENERGY PREDICTED BY IDOCK:   -7.41 KCAL/MOL
REMARK 924 INTRA-LIGAND FREE ENERGY PREDICTED BY IDOCK:   -0.82 KCAL/MOL
REMARK 927      BINDING AFFINITY PREDICTED BY RF-SCORE:    0.00 PKD
ROOT
HETATM    1  N   UNL     1      -8.370   5.477  68.178  1.00  0.00    -0.099 NA 
HETATM    2  C   UNL     1      -7.491   5.743  67.198  1.00  0.00    -0.081 A  
HETATM    3  H1  UNL     1      -8.111   5.006  69.045  1.00  0.00     0.000 HD 
HETATM    4  H2  UNL     1      -9.341   5.759  68.049  1.00  0.00     0.000 HD 
HETATM    5  N   UNL     1      -7.824   6.347  66.086  1.00  0.00    -0.099 NA 
HETATM    6  C   UNL     1      -6.709   6.489  65.266  1.00  0.00    -0.043 A  
HETATM    7  S   UNL     1      -5.833   5.329  67.348  1.00  0.00    -0.018 SA 
HETATM    8  C   UNL     1      -5.535   5.992  65.797  1.00  0.00    -0.013 A  
ENDROOT
BRANCH   6   9
HETATM    9  C   UNL     1      -6.870   7.161  63.945  1.00  0.00    -0.048 C  
BRANCH   9  10
HETATM   10  C   UNL     1      -7.371   8.592  64.028  1.00  0.00    -0.106 C  
HETATM   11  N   UNL     1      -8.743   8.756  63.902  1.00  0.00    -0.423 N  
HETATM   12  O   UNL     1      -6.567   9.484  64.304  1.00  0.00    -0.091 OA 
HETATM   13  H   UNL     1      -9.291   7.923  63.687  1.00  0.00     0.000 HD 
BRANCH  11  14
HETATM   14  C   UNL     1      -9.448   9.968  64.044  1.00  0.00    -0.237 A  
HETATM   15  C   UNL     1     -10.128  10.319  65.210  1.00  0.00    -0.359 A  
HETATM   16  C   UNL     1     -10.908  11.474  65.265  1.00  0.00    -0.319 A  
HETATM   17  C   UNL     1     -11.015  12.317  64.155  1.00  0.00    -0.415 A  
HETATM   18  C   UNL     1      -9.494  10.843  62.953  1.00  0.00    -0.377 A  
HETATM   19  C   UNL     1     -10.283  12.001  63.003  1.00  0.00    -0.098 A  
BRANCH  17  20
HETATM   20  C   UNL     1     -11.944  13.512  64.187  1.00  0.00    -0.498 C  
BRANCH  20  21
HETATM   21  C   UNL     1     -12.101  14.173  65.568  1.00  0.00    -0.414 C  
BRANCH  21  22
HETATM   22  N   UNL     1     -10.810  14.609  66.093  1.00  0.00    -0.314 NA 
HETATM   23  H   UNL     1     -10.610  15.573  65.826  1.00  0.00     0.000 HD 
BRANCH  22  24
HETATM   24  C   UNL     1     -10.709  14.431  67.547  1.00  0.00    -0.271 C  
BRANCH  24  25
HETATM   25  C   UNL     1     -11.669  15.354  68.340  1.00  0.00    -0.316 C  
HETATM   26  O   UNL     1     -11.121  16.680  68.406  1.00  0.00    -0.359 OA 
HETATM   27  H   UNL     1     -11.710  17.245  68.892  1.00  0.00     0.000 HD 
BRANCH  25  28
HETATM   28  C   UNL     1     -12.042  14.878  69.732  1.00  0.00    -0.357 A  
HETATM   29  C   UNL     1     -12.213  13.510  69.989  1.00  0.00    -0.381 A  
HETATM   30  C   UNL     1     -12.629  13.067  71.249  1.00  0.00    -0.373 A  
HETATM   31  C   UNL     1     -12.872  13.986  72.268  1.00  0.00    -0.403 A  
HETATM   32  C   UNL     1     -12.683  15.345  72.036  1.00  0.00    -0.455 A  
HETATM   33  C   UNL     1     -12.271  15.788  70.778  1.00  0.00    -0.441 A  
ENDBRANCH  25  28
ENDBRANCH  24  25
ENDBRANCH  22  24
ENDBRANCH  21  22
ENDBRANCH  20  21
ENDBRANCH  17  20
ENDBRANCH  11  14
ENDBRANCH   9  10
ENDBRANCH   6   9
TORSDOF 9
ENDMDL
MODEL      199
REMARK 921   NORMALIZED FREE ENERGY PREDICTED BY IDOCK:   -3.79 KCAL/MOL
REMARK 922        TOTAL FREE ENERGY PREDICTED BY IDOCK:   -8.23 KCAL/MOL
REMARK 923 INTER-LIGAND FREE ENERGY PREDICTED BY IDOCK:   -6.95 KCAL/MOL
REMARK 924 INTRA-LIGAND FREE ENERGY PREDICTED BY IDOCK:   -1.27 KCAL/MOL
REMARK 927      BINDING AFFINITY PREDICTED BY RF-SCORE:    0.00 PKD
ROOT
HETATM    1  N   UNL     1     -10.971   3.061  64.107  1.00  0.00    -0.568 NA 
HETATM    2  C   UNL     1      -9.820   3.570  64.576  1.00  0.00    -0.179 A  
HETATM    3  H1  UNL     1     -11.402   2.219  64.489  1.00  0.00     0.000 HD 
HETATM    4  H2  UNL     1     -11.434   3.537  63.334  1.00  0.00     0.000 HD 
HETATM    5  N   UNL     1      -9.267   4.650  64.085  1.00  0.00    -0.114 NA 
HETATM    6  C   UNL     1      -8.091   4.940  64.771  1.00  0.00    -0.109 A  
HETATM    7  S   UNL     1      -8.993   2.848  65.893  1.00  0.00    -0.136 SA 
HETATM    8  C   UNL     1      -7.788   4.061  65.793  1.00  0.00    -0.090 A  
ENDROOT
BRANCH   6   9
HETATM    9  C   UNL     1      -7.304   6.140  64.371  1.00  0.00    -0.069 C  
BRANCH   9  10
HETATM   10  C   UNL     1      -8.060   7.453  64.490  1.00  0.00    -0.079 C  
HETATM   11  N   UNL     1      -8.328   7.874  65.784  1.00  0.00    -0.129 N  
HETATM   12  O   UNL     1      -8.285   8.098  63.466  1.00  0.00    -0.140 OA 
HETATM   13  H   UNL     1      -8.071   7.241  66.541  1.00  0.00     0.000 HD 
BRANCH  11  14
HETATM   14  C   UNL     1      -8.923   9.099  66.148  1.00  0.00    -0.173 A  
HETATM   15  C   UNL     1      -8.255  10.321  66.067  1.00  0.00    -0.141 A  
HETATM   16  C   UNL     1      -8.843  11.492  66.547  1.00  0.00    -0.190 A  
HETATM   17  C   UNL     1     -10.122  11.471  67.108  1.00  0.00    -0.223 A  
HETATM   18  C   UNL     1     -10.231   9.083  66.644  1.00  0.00    -0.333 A  
HETATM   19  C   UNL     1     -10.821  10.256  67.134  1.00  0.00    -0.278 A  
BRANCH  17  20
HETATM   20  C   UNL     1     -10.712  12.724  67.721  1.00  0.00    -0.237 C  
BRANCH  20  21
HETATM   21  C   UNL     1     -12.176  13.002  67.341  1.00  0.00    -0.097 C  
BRANCH  21  22
HETATM   22  N   UNL     1     -12.311  14.289  66.664  1.00  0.00    -0.541 NA 
HETATM   23  H   UNL     1     -11.597  14.947  66.979  1.00  0.00     0.000 HD 
BRANCH  22  24
HETATM   24  C   UNL     1     -12.300  14.157  65.202  1.00  0.00    -0.451 C  
BRANCH  24  25
HETATM   25  C   UNL     1     -11.016  14.731  64.550  1.00  0.00    -0.210 C  
HETATM   26  O   UNL     1     -10.150  13.654  64.158  1.00  0.00    -0.757 OA 
HETATM   27  H   UNL     1      -9.363  14.006  63.758  1.00  0.00     0.000 HD 
BRANCH  25  28
HETATM   28  C   UNL     1     -10.244  15.736  65.385  1.00  0.00    -0.380 A  
HETATM   29  C   UNL     1      -9.103  15.336  66.097  1.00  0.00    -0.314 A  
HETATM   30  C   UNL     1      -8.429  16.236  66.927  1.00  0.00    -0.257 A  
HETATM   31  C   UNL     1      -8.882  17.548  67.052  1.00  0.00    -0.252 A  
HETATM   32  C   UNL     1      -9.999  17.967  66.334  1.00  0.00    -0.358 A  
HETATM   33  C   UNL     1     -10.674  17.067  65.507  1.00  0.00    -0.146 A  
ENDBRANCH  25  28
ENDBRANCH  24  25
ENDBRANCH  22  24
ENDBRANCH  21  22
ENDBRANCH  20  21
ENDBRANCH  17  20
ENDBRANCH  11  14
ENDBRANCH   9  10
ENDBRANCH   6   9
TORSDOF 9
ENDMDL
MODEL      200
REMARK 921   NORMALIZED FREE ENERGY PREDICTED BY IDOCK:   -3.78 KCAL/MOL
REMARK 922        TOTAL FREE ENERGY PREDICTED BY IDOCK:   -8.22 KCAL/MOL
REMARK 923 INTER-LIGAND FREE ENERGY PREDICTED BY IDOCK:   -6.02 KCAL/MOL
REMARK 924 INTRA-LIGAND FREE ENERGY PREDICTED BY IDOCK:   -2.20 KCAL/MOL
REMARK 927      BINDING AFFINITY PREDICTED BY RF-SCORE:    0.00 PKD
ROOT
HETATM    1  N   UNL     1      -9.448   9.605  63.844  1.00  0.00    -0.420 NA 
HETATM    2  C   UNL     1      -8.879   8.852  64.799  1.00  0.00    -0.086 A  
HETATM    3  H1  UNL     1      -9.232   9.500  62.852  1.00  0.00     0.000 HD 
HETATM    4  H2  UNL     1     -10.127  10.313  64.121  1.00  0.00     0.000 HD 
HETATM    5  N   UNL     1      -9.157   8.986  66.072  1.00  0.00    -0.192 NA 
HETATM    6  C   UNL     1      -8.423   8.072  66.821  1.00  0.00    -0.128 A  
HETATM    7  S   UNL     1      -7.752   7.619  64.414  1.00  0.00    -0.131 SA 
HETATM    8  C   UNL     1      -7.605   7.243  66.079  1.00  0.00    -0.089 A  
ENDROOT
BRANCH   6   9
HETATM    9  C   UNL     1      -8.596   8.054  68.301  1.00  0.00    -0.130 C  
BRANCH   9  10
HETATM   10  C   UNL     1      -8.564   9.426  68.952  1.00  0.00    -0.131 C  
HETATM   11  N   UNL     1      -7.838  10.394  68.274  1.00  0.00    -0.103 N  
HETATM   12  O   UNL     1      -9.254   9.620  69.953  1.00  0.00    -0.198 OA 
HETATM   13  H   UNL     1      -7.324  10.094  67.446  1.00  0.00     0.000 HD 
BRANCH  11  14
HETATM   14  C   UNL     1      -7.746  11.756  68.626  1.00  0.00    -0.126 A  
HETATM   15  C   UNL     1      -8.696  12.704  68.246  1.00  0.00    -0.169 A  
HETATM   16  C   UNL     1      -8.504  14.060  68.517  1.00  0.00    -0.143 A  
HETATM   17  C   UNL     1      -7.361  14.498  69.190  1.00  0.00    -0.133 A  
HETATM   18  C   UNL     1      -6.633  12.181  69.361  1.00  0.00    -0.090 A  
HETATM   19  C   UNL     1      -6.434  13.542  69.628  1.00  0.00    -0.072 A  
BRANCH  17  20
HETATM   20  C   UNL     1      -7.109  15.978  69.389  1.00  0.00    -0.217 C  
BRANCH  20  21
HETATM   21  C   UNL     1      -7.009  16.798  68.090  1.00  0.00    -0.157 C  
BRANCH  21  22
HETATM   22  N   UNL     1      -8.082  17.784  68.004  1.00  0.00    -0.236 NA 
HETATM   23  H   UNL     1      -7.712  18.734  68.041  1.00  0.00     0.000 HD 
BRANCH  22  24
HETATM   24  C   UNL     1      -8.926  17.591  66.819  1.00  0.00    -0.256 C  
BRANCH  24  25
HETATM   25  C   UNL     1     -10.355  17.099  67.165  1.00  0.00    -0.307 C  
HETATM   26  O   UNL     1     -10.506  17.017  68.591  1.00  0.00    -0.320 OA 
HETATM   27  H   UNL     1     -11.382  16.716  68.803  1.00  0.00     0.000 HD 
BRANCH  25  28
HETATM   28  C   UNL     1     -10.774  15.788  66.525  1.00  0.00    -0.283 A  
HETATM   29  C   UNL     1     -11.687  14.944  67.176  1.00  0.00    -0.292 A  
HETATM   30  C   UNL     1     -12.023  13.701  66.630  1.00  0.00    -0.458 A  
HETATM   31  C   UNL     1     -11.456  13.290  65.426  1.00  0.00    -0.328 A  
HETATM   32  C   UNL     1     -10.567  14.125  64.756  1.00  0.00    -0.439 A  
HETATM   33  C   UNL     1     -10.229  15.365  65.302  1.00  0.00    -0.390 A  
ENDBRANCH  25  28
ENDBRANCH  24  25
ENDBRANCH  22  24
ENDBRANCH  21  22
ENDBRANCH  20  21
ENDBRANCH  17  20
ENDBRANCH  11  14
ENDBRANCH   9  10
ENDBRANCH   6   9
TORSDOF 9
ENDMDL
MODEL      201
REMARK 921   NORMALIZED FREE ENERGY PREDICTED BY IDOCK:   -3.77 KCAL/MOL
REMARK 922        TOTAL FREE ENERGY PREDICTED BY IDOCK:   -8.20 KCAL/MOL
REMARK 923 INTER-LIGAND FREE ENERGY PREDICTED BY IDOCK:   -7.25 KCAL/MOL
REMARK 924 INTRA-LIGAND FREE ENERGY PREDICTED BY IDOCK:   -0.95 KCAL/MOL
REMARK 927      BINDING AFFINITY PREDICTED BY RF-SCORE:    0.00 PKD
ROOT
HETATM    1  N   UNL     1      -7.224   6.785  67.925  1.00  0.00    -0.089 NA 
HETATM    2  C   UNL     1      -8.280   6.287  68.588  1.00  0.00    -0.112 A  
HETATM    3  H1  UNL     1      -7.022   6.557  66.951  1.00  0.00     0.000 HD 
HETATM    4  H2  UNL     1      -6.595   7.419  68.416  1.00  0.00     0.000 HD 
HETATM    5  N   UNL     1      -8.538   6.579  69.838  1.00  0.00    -0.138 NA 
HETATM    6  C   UNL     1      -9.692   5.924  70.255  1.00  0.00    -0.169 A  
HETATM    7  S   UNL     1      -9.402   5.238  67.827  1.00  0.00    -0.123 SA 
HETATM    8  C   UNL     1     -10.298   5.149  69.284  1.00  0.00    -0.178 A  
ENDROOT
BRANCH   6   9
HETATM    9  C   UNL     1     -10.168   6.126  71.652  1.00  0.00    -0.235 C  
BRANCH   9  10
HETATM   10  C   UNL     1     -10.552   7.558  71.982  1.00  0.00    -0.211 C  
HETATM   11  N   UNL     1     -11.408   8.172  71.080  1.00  0.00    -0.264 N  
HETATM   12  O   UNL     1     -10.179   8.037  73.053  1.00  0.00    -0.315 OA 
HETATM   13  H   UNL     1     -11.647   7.649  70.237  1.00  0.00     0.000 HD 
BRANCH  11  14
HETATM   14  C   UNL     1     -11.979   9.453  71.223  1.00  0.00    -0.353 A  
HETATM   15  C   UNL     1     -11.428  10.598  70.648  1.00  0.00    -0.374 A  
HETATM   16  C   UNL     1     -11.961  11.860  70.911  1.00  0.00    -0.070 A  
HETATM   17  C   UNL     1     -13.070  12.006  71.748  1.00  0.00    -0.460 A  
HETATM   18  C   UNL     1     -13.132   9.585  72.004  1.00  0.00    -0.528 A  
HETATM   19  C   UNL     1     -13.665  10.853  72.277  1.00  0.00     0.176 A  
BRANCH  17  20
HETATM   20  C   UNL     1     -13.579  13.385  72.113  1.00  0.00    -0.660 C  
BRANCH  20  21
HETATM   21  C   UNL     1     -12.543  14.514  71.974  1.00  0.00    -0.325 C  
BRANCH  21  22
HETATM   22  N   UNL     1     -12.864  15.389  70.850  1.00  0.00    -0.450 NA 
HETATM   23  H   UNL     1     -13.593  16.057  71.100  1.00  0.00     0.000 HD 
BRANCH  22  24
HETATM   24  C   UNL     1     -11.679  16.074  70.318  1.00  0.00    -0.292 C  
BRANCH  24  25
HETATM   25  C   UNL     1     -11.436  15.787  68.814  1.00  0.00    -0.388 C  
HETATM   26  O   UNL     1     -11.756  14.418  68.525  1.00  0.00    -0.302 OA 
HETATM   27  H   UNL     1     -11.607  14.242  67.603  1.00  0.00     0.000 HD 
BRANCH  25  28
HETATM   28  C   UNL     1     -10.047  16.114  68.296  1.00  0.00    -0.232 A  
HETATM   29  C   UNL     1      -9.884  16.694  67.029  1.00  0.00    -0.260 A  
HETATM   30  C   UNL     1      -8.606  16.930  66.512  1.00  0.00    -0.305 A  
HETATM   31  C   UNL     1      -7.477  16.595  67.257  1.00  0.00    -0.197 A  
HETATM   32  C   UNL     1      -7.622  16.041  68.525  1.00  0.00    -0.155 A  
HETATM   33  C   UNL     1      -8.898  15.802  69.041  1.00  0.00    -0.236 A  
ENDBRANCH  25  28
ENDBRANCH  24  25
ENDBRANCH  22  24
ENDBRANCH  21  22
ENDBRANCH  20  21
ENDBRANCH  17  20
ENDBRANCH  11  14
ENDBRANCH   9  10
ENDBRANCH   6   9
TORSDOF 9
ENDMDL
MODEL      202
REMARK 921   NORMALIZED FREE ENERGY PREDICTED BY IDOCK:   -3.76 KCAL/MOL
REMARK 922        TOTAL FREE ENERGY PREDICTED BY IDOCK:   -8.18 KCAL/MOL
REMARK 923 INTER-LIGAND FREE ENERGY PREDICTED BY IDOCK:   -7.19 KCAL/MOL
REMARK 924 INTRA-LIGAND FREE ENERGY PREDICTED BY IDOCK:   -1.00 KCAL/MOL
REMARK 927      BINDING AFFINITY PREDICTED BY RF-SCORE:    0.00 PKD
ROOT
HETATM    1  N   UNL     1     -11.477   2.772  73.604  1.00  0.00    -0.190 NA 
HETATM    2  C   UNL     1     -10.380   2.946  72.848  1.00  0.00    -0.155 A  
HETATM    3  H1  UNL     1     -12.103   1.973  73.498  1.00  0.00     0.000 HD 
HETATM    4  H2  UNL     1     -11.693   3.468  74.316  1.00  0.00     0.000 HD 
HETATM    5  N   UNL     1      -9.577   3.970  72.984  1.00  0.00    -0.124 NA 
HETATM    6  C   UNL     1      -8.529   3.882  72.073  1.00  0.00    -0.099 A  
HETATM    7  S   UNL     1      -9.929   1.806  71.650  1.00  0.00    -0.092 SA 
HETATM    8  C   UNL     1      -8.561   2.761  71.266  1.00  0.00    -0.064 A  
ENDROOT
BRANCH   6   9
HETATM    9  C   UNL     1      -7.493   4.952  72.065  1.00  0.00    -0.083 C  
BRANCH   9  10
HETATM   10  C   UNL     1      -8.051   6.365  72.087  1.00  0.00    -0.108 C  
HETATM   11  N   UNL     1      -9.207   6.564  71.347  1.00  0.00    -0.148 N  
HETATM   12  O   UNL     1      -7.522   7.197  72.825  1.00  0.00    -0.079 OA 
HETATM   13  H   UNL     1      -9.543   5.777  70.791  1.00  0.00     0.000 HD 
BRANCH  11  14
HETATM   14  C   UNL     1      -9.961   7.754  71.295  1.00  0.00    -0.175 A  
HETATM   15  C   UNL     1     -11.065   7.989  72.114  1.00  0.00    -0.372 A  
HETATM   16  C   UNL     1     -11.850   9.131  71.948  1.00  0.00    -0.439 A  
HETATM   17  C   UNL     1     -11.540  10.073  70.964  1.00  0.00    -0.476 A  
HETATM   18  C   UNL     1      -9.605   8.727  70.355  1.00  0.00    -0.210 A  
HETATM   19  C   UNL     1     -10.396   9.871  70.181  1.00  0.00    -0.336 A  
BRANCH  17  20
HETATM   20  C   UNL     1     -12.455  11.255  70.719  1.00  0.00    -0.471 C  
BRANCH  20  21
HETATM   21  C   UNL     1     -11.806  12.431  69.968  1.00  0.00    -0.288 C  
BRANCH  21  22
HETATM   22  N   UNL     1     -11.849  13.655  70.763  1.00  0.00    -0.519 NA 
HETATM   23  H   UNL     1     -11.103  13.668  71.458  1.00  0.00     0.000 HD 
BRANCH  22  24
HETATM   24  C   UNL     1     -11.820  14.864  69.932  1.00  0.00    -0.311 C  
BRANCH  24  25
HETATM   25  C   UNL     1     -10.555  14.957  69.041  1.00  0.00    -0.245 C  
HETATM   26  O   UNL     1      -9.384  15.031  69.869  1.00  0.00    -0.461 OA 
HETATM   27  H   UNL     1      -8.609  15.088  69.323  1.00  0.00     0.000 HD 
BRANCH  25  28
HETATM   28  C   UNL     1     -10.543  16.087  68.028  1.00  0.00    -0.295 A  
HETATM   29  C   UNL     1     -10.714  17.415  68.448  1.00  0.00    -0.301 A  
HETATM   30  C   UNL     1     -10.779  18.455  67.516  1.00  0.00    -0.399 A  
HETATM   31  C   UNL     1     -10.668  18.182  66.154  1.00  0.00    -0.164 A  
HETATM   32  C   UNL     1     -10.474  16.874  65.722  1.00  0.00    -0.279 A  
HETATM   33  C   UNL     1     -10.412  15.834  66.652  1.00  0.00    -0.302 A  
ENDBRANCH  25  28
ENDBRANCH  24  25
ENDBRANCH  22  24
ENDBRANCH  21  22
ENDBRANCH  20  21
ENDBRANCH  17  20
ENDBRANCH  11  14
ENDBRANCH   9  10
ENDBRANCH   6   9
TORSDOF 9
ENDMDL
MODEL      203
REMARK 921   NORMALIZED FREE ENERGY PREDICTED BY IDOCK:   -3.76 KCAL/MOL
REMARK 922        TOTAL FREE ENERGY PREDICTED BY IDOCK:   -8.18 KCAL/MOL
REMARK 923 INTER-LIGAND FREE ENERGY PREDICTED BY IDOCK:   -5.57 KCAL/MOL
REMARK 924 INTRA-LIGAND FREE ENERGY PREDICTED BY IDOCK:   -2.61 KCAL/MOL
REMARK 927      BINDING AFFINITY PREDICTED BY RF-SCORE:    0.00 PKD
ROOT
HETATM    1  N   UNL     1     -13.314  14.244  65.535  1.00  0.00    -0.615 NA 
HETATM    2  C   UNL     1     -12.447  13.267  65.222  1.00  0.00    -0.489 A  
HETATM    3  H1  UNL     1     -14.050  14.557  64.901  1.00  0.00     0.000 HD 
HETATM    4  H2  UNL     1     -13.233  14.693  66.446  1.00  0.00     0.000 HD 
HETATM    5  N   UNL     1     -11.503  12.866  66.034  1.00  0.00    -0.324 NA 
HETATM    6  C   UNL     1     -10.766  11.843  65.445  1.00  0.00    -0.283 A  
HETATM    7  S   UNL     1     -12.533  12.441  63.721  1.00  0.00    -0.466 SA 
HETATM    8  C   UNL     1     -11.192  11.480  64.181  1.00  0.00    -0.314 A  
ENDROOT
BRANCH   6   9
HETATM    9  C   UNL     1      -9.640  11.237  66.209  1.00  0.00    -0.235 C  
BRANCH   9  10
HETATM   10  C   UNL     1     -10.031  10.036  67.053  1.00  0.00    -0.205 C  
HETATM   11  N   UNL     1      -9.294   8.882  66.832  1.00  0.00    -0.158 N  
HETATM   12  O   UNL     1     -10.879  10.186  67.934  1.00  0.00    -0.251 OA 
HETATM   13  H   UNL     1      -8.611   8.906  66.076  1.00  0.00     0.000 HD 
BRANCH  11  14
HETATM   14  C   UNL     1      -9.404   7.679  67.559  1.00  0.00    -0.139 A  
HETATM   15  C   UNL     1      -8.555   7.350  68.615  1.00  0.00    -0.129 A  
HETATM   16  C   UNL     1      -8.626   6.099  69.229  1.00  0.00    -0.119 A  
HETATM   17  C   UNL     1      -9.561   5.150  68.808  1.00  0.00    -0.198 A  
HETATM   18  C   UNL     1     -10.388   6.760  67.180  1.00  0.00    -0.327 A  
HETATM   19  C   UNL     1     -10.457   5.499  67.790  1.00  0.00    -0.245 A  
BRANCH  17  20
HETATM   20  C   UNL     1      -9.564   3.759  69.408  1.00  0.00    -0.219 C  
BRANCH  20  21
HETATM   21  C   UNL     1      -9.523   2.613  68.382  1.00  0.00    -0.149 C  
BRANCH  21  22
HETATM   22  N   UNL     1      -8.339   1.779  68.568  1.00  0.00    -0.055 NA 
HETATM   23  H   UNL     1      -8.591   0.852  68.911  1.00  0.00     0.000 HD 
BRANCH  22  24
HETATM   24  C   UNL     1      -7.521   1.689  67.352  1.00  0.00    -0.058 C  
BRANCH  24  25
HETATM   25  C   UNL     1      -6.556   2.890  67.180  1.00  0.00    -0.037 C  
HETATM   26  O   UNL     1      -6.250   3.453  68.466  1.00  0.00    -0.030 OA 
HETATM   27  H   UNL     1      -5.658   4.188  68.360  1.00  0.00     0.000 HD 
BRANCH  25  28
HETATM   28  C   UNL     1      -7.022   3.982  66.235  1.00  0.00    -0.063 A  
HETATM   29  C   UNL     1      -6.404   5.242  66.251  1.00  0.00    -0.039 A  
HETATM   30  C   UNL     1      -6.875   6.276  65.437  1.00  0.00    -0.048 A  
HETATM   31  C   UNL     1      -7.964   6.064  64.594  1.00  0.00    -0.130 A  
HETATM   32  C   UNL     1      -8.572   4.814  64.549  1.00  0.00    -0.144 A  
HETATM   33  C   UNL     1      -8.105   3.780  65.364  1.00  0.00    -0.097 A  
ENDBRANCH  25  28
ENDBRANCH  24  25
ENDBRANCH  22  24
ENDBRANCH  21  22
ENDBRANCH  20  21
ENDBRANCH  17  20
ENDBRANCH  11  14
ENDBRANCH   9  10
ENDBRANCH   6   9
TORSDOF 9
ENDMDL
MODEL      204
REMARK 921   NORMALIZED FREE ENERGY PREDICTED BY IDOCK:   -3.75 KCAL/MOL
REMARK 922        TOTAL FREE ENERGY PREDICTED BY IDOCK:   -8.17 KCAL/MOL
REMARK 923 INTER-LIGAND FREE ENERGY PREDICTED BY IDOCK:   -6.76 KCAL/MOL
REMARK 924 INTRA-LIGAND FREE ENERGY PREDICTED BY IDOCK:   -1.41 KCAL/MOL
REMARK 927      BINDING AFFINITY PREDICTED BY RF-SCORE:    0.00 PKD
ROOT
HETATM    1  N   UNL     1     -11.346   4.262  64.876  1.00  0.00    -1.051 NA 
HETATM    2  C   UNL     1     -10.018   4.067  64.825  1.00  0.00    -0.205 A  
HETATM    3  H1  UNL     1     -12.015   3.501  64.994  1.00  0.00     0.000 HD 
HETATM    4  H2  UNL     1     -11.702   5.214  64.794  1.00  0.00     0.000 HD 
HETATM    5  N   UNL     1      -9.160   5.043  64.674  1.00  0.00    -0.084 NA 
HETATM    6  C   UNL     1      -7.862   4.543  64.661  1.00  0.00    -0.086 A  
HETATM    7  S   UNL     1      -9.338   2.501  64.985  1.00  0.00    -0.051 SA 
HETATM    8  C   UNL     1      -7.771   3.174  64.822  1.00  0.00    -0.078 A  
ENDROOT
BRANCH   6   9
HETATM    9  C   UNL     1      -6.727   5.495  64.504  1.00  0.00    -0.043 C  
BRANCH   9  10
HETATM   10  C   UNL     1      -7.115   6.958  64.628  1.00  0.00    -0.061 C  
HETATM   11  N   UNL     1      -7.467   7.379  65.902  1.00  0.00    -0.078 N  
HETATM   12  O   UNL     1      -6.991   7.686  63.643  1.00  0.00    -0.057 OA 
HETATM   13  H   UNL     1      -7.514   6.666  66.629  1.00  0.00     0.000 HD 
BRANCH  11  14
HETATM   14  C   UNL     1      -7.765   8.703  66.282  1.00  0.00    -0.098 A  
HETATM   15  C   UNL     1      -6.783   9.663  66.524  1.00  0.00    -0.079 A  
HETATM   16  C   UNL     1      -7.120  10.927  67.010  1.00  0.00    -0.109 A  
HETATM   17  C   UNL     1      -8.453  11.265  67.254  1.00  0.00    -0.144 A  
HETATM   18  C   UNL     1      -9.107   9.059  66.458  1.00  0.00    -0.202 A  
HETATM   19  C   UNL     1      -9.448  10.325  66.953  1.00  0.00    -0.200 A  
BRANCH  17  20
HETATM   20  C   UNL     1      -8.803  12.600  67.880  1.00  0.00    -0.182 C  
BRANCH  20  21
HETATM   21  C   UNL     1      -9.091  13.729  66.875  1.00  0.00    -0.242 C  
BRANCH  21  22
HETATM   22  N   UNL     1     -10.358  14.391  67.175  1.00  0.00    -0.261 NA 
HETATM   23  H   UNL     1     -11.138  13.913  66.724  1.00  0.00     0.000 HD 
BRANCH  22  24
HETATM   24  C   UNL     1     -10.587  14.535  68.617  1.00  0.00    -0.255 C  
BRANCH  24  25
HETATM   25  C   UNL     1     -12.057  14.263  69.029  1.00  0.00    -0.285 C  
HETATM   26  O   UNL     1     -12.607  15.431  69.657  1.00  0.00    -0.600 OA 
HETATM   27  H   UNL     1     -13.508  15.264  69.909  1.00  0.00     0.000 HD 
BRANCH  25  28
HETATM   28  C   UNL     1     -12.282  13.048  69.909  1.00  0.00    -0.271 A  
HETATM   29  C   UNL     1     -12.955  13.177  71.133  1.00  0.00    -0.280 A  
HETATM   30  C   UNL     1     -13.103  12.078  71.985  1.00  0.00    -0.456 A  
HETATM   31  C   UNL     1     -12.585  10.837  71.622  1.00  0.00    -0.456 A  
HETATM   32  C   UNL     1     -11.935  10.687  70.401  1.00  0.00    -0.436 A  
HETATM   33  C   UNL     1     -11.785  11.784  69.551  1.00  0.00    -0.408 A  
ENDBRANCH  25  28
ENDBRANCH  24  25
ENDBRANCH  22  24
ENDBRANCH  21  22
ENDBRANCH  20  21
ENDBRANCH  17  20
ENDBRANCH  11  14
ENDBRANCH   9  10
ENDBRANCH   6   9
TORSDOF 9
ENDMDL
MODEL      205
REMARK 921   NORMALIZED FREE ENERGY PREDICTED BY IDOCK:   -3.75 KCAL/MOL
REMARK 922        TOTAL FREE ENERGY PREDICTED BY IDOCK:   -8.16 KCAL/MOL
REMARK 923 INTER-LIGAND FREE ENERGY PREDICTED BY IDOCK:   -7.67 KCAL/MOL
REMARK 924 INTRA-LIGAND FREE ENERGY PREDICTED BY IDOCK:   -0.49 KCAL/MOL
REMARK 927      BINDING AFFINITY PREDICTED BY RF-SCORE:    0.00 PKD
ROOT
HETATM    1  N   UNL     1      -8.014  17.339  66.932  1.00  0.00    -0.209 NA 
HETATM    2  C   UNL     1      -9.007  16.627  66.374  1.00  0.00    -0.291 A  
HETATM    3  H1  UNL     1      -7.974  18.358  66.899  1.00  0.00     0.000 HD 
HETATM    4  H2  UNL     1      -7.265  16.838  67.409  1.00  0.00     0.000 HD 
HETATM    5  N   UNL     1      -9.057  15.320  66.416  1.00  0.00    -0.298 NA 
HETATM    6  C   UNL     1     -10.197  14.863  65.763  1.00  0.00    -0.336 A  
HETATM    7  S   UNL     1     -10.320  17.393  65.580  1.00  0.00    -0.026 SA 
HETATM    8  C   UNL     1     -11.004  15.859  65.247  1.00  0.00    -0.324 A  
ENDROOT
BRANCH   6   9
HETATM    9  C   UNL     1     -10.450  13.396  65.699  1.00  0.00    -0.293 C  
BRANCH   9  10
HETATM   10  C   UNL     1     -11.063  12.811  66.960  1.00  0.00    -0.278 C  
HETATM   11  N   UNL     1     -10.658  11.524  67.282  1.00  0.00    -0.218 N  
HETATM   12  O   UNL     1     -11.775  13.533  67.659  1.00  0.00    -0.321 OA 
HETATM   13  H   UNL     1     -10.051  11.049  66.614  1.00  0.00     0.000 HD 
BRANCH  11  14
HETATM   14  C   UNL     1     -11.009  10.814  68.448  1.00  0.00    -0.248 A  
HETATM   15  C   UNL     1     -11.823  11.349  69.446  1.00  0.00    -0.419 A  
HETATM   16  C   UNL     1     -12.049  10.655  70.635  1.00  0.00    -0.461 A  
HETATM   17  C   UNL     1     -11.476   9.399  70.849  1.00  0.00    -0.382 A  
HETATM   18  C   UNL     1     -10.489   9.528  68.626  1.00  0.00    -0.237 A  
HETATM   19  C   UNL     1     -10.709   8.831  69.823  1.00  0.00    -0.220 A  
BRANCH  17  20
HETATM   20  C   UNL     1     -11.640   8.698  72.181  1.00  0.00    -0.440 C  
BRANCH  20  21
HETATM   21  C   UNL     1     -12.055   7.219  72.087  1.00  0.00    -0.250 C  
BRANCH  21  22
HETATM   22  N   UNL     1     -11.492   6.442  73.188  1.00  0.00    -0.461 NA 
HETATM   23  H   UNL     1     -11.991   6.623  74.059  1.00  0.00     0.000 HD 
BRANCH  22  24
HETATM   24  C   UNL     1     -11.447   5.005  72.893  1.00  0.00    -0.226 C  
BRANCH  24  25
HETATM   25  C   UNL     1     -10.026   4.503  72.532  1.00  0.00    -0.170 C  
HETATM   26  O   UNL     1      -9.055   5.495  72.899  1.00  0.00    -0.124 OA 
HETATM   27  H   UNL     1      -8.184   5.187  72.678  1.00  0.00     0.000 HD 
BRANCH  25  28
HETATM   28  C   UNL     1      -9.820   4.087  71.087  1.00  0.00    -0.236 A  
HETATM   29  C   UNL     1      -9.466   2.765  70.776  1.00  0.00    -0.219 A  
HETATM   30  C   UNL     1      -9.202   2.390  69.455  1.00  0.00    -0.189 A  
HETATM   31  C   UNL     1      -9.293   3.329  68.430  1.00  0.00    -0.241 A  
HETATM   32  C   UNL     1      -9.665   4.638  68.719  1.00  0.00    -0.230 A  
HETATM   33  C   UNL     1      -9.927   5.014  70.038  1.00  0.00    -0.324 A  
ENDBRANCH  25  28
ENDBRANCH  24  25
ENDBRANCH  22  24
ENDBRANCH  21  22
ENDBRANCH  20  21
ENDBRANCH  17  20
ENDBRANCH  11  14
ENDBRANCH   9  10
ENDBRANCH   6   9
TORSDOF 9
ENDMDL
MODEL      206
REMARK 921   NORMALIZED FREE ENERGY PREDICTED BY IDOCK:   -3.74 KCAL/MOL
REMARK 922        TOTAL FREE ENERGY PREDICTED BY IDOCK:   -8.16 KCAL/MOL
REMARK 923 INTER-LIGAND FREE ENERGY PREDICTED BY IDOCK:   -6.09 KCAL/MOL
REMARK 924 INTRA-LIGAND FREE ENERGY PREDICTED BY IDOCK:   -2.07 KCAL/MOL
REMARK 927      BINDING AFFINITY PREDICTED BY RF-SCORE:    0.00 PKD
ROOT
HETATM    1  N   UNL     1     -10.227  10.721  63.415  1.00  0.00    -0.522 NA 
HETATM    2  C   UNL     1      -9.907  10.414  64.682  1.00  0.00    -0.338 A  
HETATM    3  H1  UNL     1      -9.650  10.453  62.616  1.00  0.00     0.000 HD 
HETATM    4  H2  UNL     1     -11.083  11.245  63.242  1.00  0.00     0.000 HD 
HETATM    5  N   UNL     1     -10.646  10.758  65.707  1.00  0.00    -0.182 NA 
HETATM    6  C   UNL     1     -10.070  10.302  66.888  1.00  0.00    -0.221 A  
HETATM    7  S   UNL     1      -8.499   9.509  65.056  1.00  0.00    -0.166 SA 
HETATM    8  C   UNL     1      -8.893   9.596  66.721  1.00  0.00    -0.135 A  
ENDROOT
BRANCH   6   9
HETATM    9  C   UNL     1     -10.758  10.584  68.179  1.00  0.00    -0.273 C  
BRANCH   9  10
HETATM   10  C   UNL     1     -10.938  12.062  68.482  1.00  0.00    -0.240 C  
HETATM   11  N   UNL     1     -10.090  12.921  67.800  1.00  0.00    -0.223 N  
HETATM   12  O   UNL     1     -11.870  12.405  69.210  1.00  0.00    -0.303 OA 
HETATM   13  H   UNL     1      -9.370  12.496  67.216  1.00  0.00     0.000 HD 
BRANCH  11  14
HETATM   14  C   UNL     1     -10.134  14.330  67.839  1.00  0.00    -0.233 A  
HETATM   15  C   UNL     1      -9.794  15.130  66.748  1.00  0.00    -0.251 A  
HETATM   16  C   UNL     1      -9.740  16.519  66.868  1.00  0.00    -0.259 A  
HETATM   17  C   UNL     1     -10.039  17.143  68.082  1.00  0.00    -0.311 A  
HETATM   18  C   UNL     1     -10.502  14.952  69.037  1.00  0.00    -0.247 A  
HETATM   19  C   UNL     1     -10.441  16.347  69.162  1.00  0.00    -0.303 A  
BRANCH  17  20
HETATM   20  C   UNL     1      -9.877  18.641  68.234  1.00  0.00    -0.410 C  
BRANCH  20  21
HETATM   21  C   UNL     1      -8.613  19.082  68.992  1.00  0.00    -0.164 C  
BRANCH  21  22
HETATM   22  N   UNL     1      -7.513  19.356  68.071  1.00  0.00    -0.272 NA 
HETATM   23  H   UNL     1      -7.274  20.347  68.067  1.00  0.00     0.000 HD 
BRANCH  22  24
HETATM   24  C   UNL     1      -6.333  18.528  68.348  1.00  0.00    -0.212 C  
BRANCH  24  25
HETATM   25  C   UNL     1      -6.533  17.567  69.547  1.00  0.00    -0.202 C  
HETATM   26  O   UNL     1      -5.665  17.952  70.625  1.00  0.00    -0.193 OA 
HETATM   27  H   UNL     1      -5.788  17.363  71.360  1.00  0.00     0.000 HD 
BRANCH  25  28
HETATM   28  C   UNL     1      -6.357  16.090  69.245  1.00  0.00    -0.158 A  
HETATM   29  C   UNL     1      -5.478  15.674  68.234  1.00  0.00    -0.115 A  
HETATM   30  C   UNL     1      -5.365  14.322  67.899  1.00  0.00    -0.069 A  
HETATM   31  C   UNL     1      -6.124  13.368  68.573  1.00  0.00    -0.085 A  
HETATM   32  C   UNL     1      -6.983  13.761  69.595  1.00  0.00     0.119 A  
HETATM   33  C   UNL     1      -7.099  15.112  69.928  1.00  0.00    -0.119 A  
ENDBRANCH  25  28
ENDBRANCH  24  25
ENDBRANCH  22  24
ENDBRANCH  21  22
ENDBRANCH  20  21
ENDBRANCH  17  20
ENDBRANCH  11  14
ENDBRANCH   9  10
ENDBRANCH   6   9
TORSDOF 9
ENDMDL
MODEL      207
REMARK 921   NORMALIZED FREE ENERGY PREDICTED BY IDOCK:   -3.74 KCAL/MOL
REMARK 922        TOTAL FREE ENERGY PREDICTED BY IDOCK:   -8.15 KCAL/MOL
REMARK 923 INTER-LIGAND FREE ENERGY PREDICTED BY IDOCK:   -7.42 KCAL/MOL
REMARK 924 INTRA-LIGAND FREE ENERGY PREDICTED BY IDOCK:   -0.73 KCAL/MOL
REMARK 927      BINDING AFFINITY PREDICTED BY RF-SCORE:    0.00 PKD
ROOT
HETATM    1  N   UNL     1      -9.246   2.419  69.226  1.00  0.00    -0.123 NA 
HETATM    2  C   UNL     1      -8.744   3.599  68.825  1.00  0.00    -0.098 A  
HETATM    3  H1  UNL     1      -9.285   1.598  68.622  1.00  0.00     0.000 HD 
HETATM    4  H2  UNL     1      -9.604   2.341  70.177  1.00  0.00     0.000 HD 
HETATM    5  N   UNL     1      -8.694   4.653  69.600  1.00  0.00    -0.080 NA 
HETATM    6  C   UNL     1      -8.122   5.722  68.918  1.00  0.00    -0.102 A  
HETATM    7  S   UNL     1      -8.095   3.806  67.251  1.00  0.00    -0.091 SA 
HETATM    8  C   UNL     1      -7.732   5.438  67.623  1.00  0.00    -0.092 A  
ENDROOT
BRANCH   6   9
HETATM    9  C   UNL     1      -7.965   7.024  69.626  1.00  0.00    -0.124 C  
BRANCH   9  10
HETATM   10  C   UNL     1      -8.362   8.236  68.801  1.00  0.00    -0.124 C  
HETATM   11  N   UNL     1      -9.718   8.370  68.546  1.00  0.00    -0.156 N  
HETATM   12  O   UNL     1      -7.494   9.061  68.510  1.00  0.00    -0.083 OA 
HETATM   13  H   UNL     1     -10.326   7.614  68.860  1.00  0.00     0.000 HD 
BRANCH  11  14
HETATM   14  C   UNL     1     -10.334   9.458  67.894  1.00  0.00    -0.225 A  
HETATM   15  C   UNL     1     -10.151   9.731  66.538  1.00  0.00    -0.307 A  
HETATM   16  C   UNL     1     -10.686  10.883  65.961  1.00  0.00    -0.208 A  
HETATM   17  C   UNL     1     -11.430  11.785  66.726  1.00  0.00    -0.352 A  
HETATM   18  C   UNL     1     -11.136  10.320  68.648  1.00  0.00    -0.290 A  
HETATM   19  C   UNL     1     -11.668  11.483  68.073  1.00  0.00    -0.343 A  
BRANCH  17  20
HETATM   20  C   UNL     1     -11.919  13.084  66.119  1.00  0.00    -0.488 C  
BRANCH  20  21
HETATM   21  C   UNL     1     -10.837  14.165  65.948  1.00  0.00    -0.294 C  
BRANCH  21  22
HETATM   22  N   UNL     1     -10.294  14.577  67.240  1.00  0.00    -0.259 NA 
HETATM   23  H   UNL     1      -9.336  14.915  67.145  1.00  0.00     0.000 HD 
BRANCH  22  24
HETATM   24  C   UNL     1     -11.141  15.569  67.913  1.00  0.00    -0.321 C  
BRANCH  24  25
HETATM   25  C   UNL     1     -10.337  16.546  68.809  1.00  0.00    -0.286 C  
HETATM   26  O   UNL     1     -11.059  16.791  70.026  1.00  0.00    -0.449 OA 
HETATM   27  H   UNL     1     -10.566  17.390  70.575  1.00  0.00     0.000 HD 
BRANCH  25  28
HETATM   28  C   UNL     1      -9.948  17.864  68.164  1.00  0.00    -0.350 A  
HETATM   29  C   UNL     1      -8.672  18.405  68.379  1.00  0.00    -0.337 A  
HETATM   30  C   UNL     1      -8.329  19.654  67.851  1.00  0.00    -0.349 A  
HETATM   31  C   UNL     1      -9.254  20.373  67.098  1.00  0.00    -0.511 A  
HETATM   32  C   UNL     1     -10.516  19.839  66.856  1.00  0.00    -0.596 A  
HETATM   33  C   UNL     1     -10.860  18.594  67.385  1.00  0.00    -0.381 A  
ENDBRANCH  25  28
ENDBRANCH  24  25
ENDBRANCH  22  24
ENDBRANCH  21  22
ENDBRANCH  20  21
ENDBRANCH  17  20
ENDBRANCH  11  14
ENDBRANCH   9  10
ENDBRANCH   6   9
TORSDOF 9
ENDMDL
MODEL      208
REMARK 921   NORMALIZED FREE ENERGY PREDICTED BY IDOCK:   -3.73 KCAL/MOL
REMARK 922        TOTAL FREE ENERGY PREDICTED BY IDOCK:   -8.14 KCAL/MOL
REMARK 923 INTER-LIGAND FREE ENERGY PREDICTED BY IDOCK:   -7.15 KCAL/MOL
REMARK 924 INTRA-LIGAND FREE ENERGY PREDICTED BY IDOCK:   -0.99 KCAL/MOL
REMARK 927      BINDING AFFINITY PREDICTED BY RF-SCORE:    0.00 PKD
ROOT
HETATM    1  N   UNL     1     -14.400  14.735  71.443  1.00  0.00    -0.557 NA 
HETATM    2  C   UNL     1     -13.230  15.142  70.924  1.00  0.00    -0.433 A  
HETATM    3  H1  UNL     1     -14.651  14.873  72.423  1.00  0.00     0.000 HD 
HETATM    4  H2  UNL     1     -15.068  14.268  70.832  1.00  0.00     0.000 HD 
HETATM    5  N   UNL     1     -12.909  14.965  69.667  1.00  0.00     0.062 NA 
HETATM    6  C   UNL     1     -11.645  15.490  69.417  1.00  0.00    -0.355 A  
HETATM    7  S   UNL     1     -12.065  15.962  71.877  1.00  0.00    -0.530 SA 
HETATM    8  C   UNL     1     -11.038  16.077  70.511  1.00  0.00    -0.353 A  
ENDROOT
BRANCH   6   9
HETATM    9  C   UNL     1     -11.089  15.398  68.038  1.00  0.00    -0.312 C  
BRANCH   9  10
HETATM   10  C   UNL     1     -10.445  14.061  67.711  1.00  0.00    -0.236 C  
HETATM   11  N   UNL     1     -11.290  12.962  67.757  1.00  0.00    -0.280 N  
HETATM   12  O   UNL     1      -9.274  14.048  67.330  1.00  0.00    -0.211 OA 
HETATM   13  H   UNL     1     -12.244  13.123  68.080  1.00  0.00     0.000 HD 
BRANCH  11  14
HETATM   14  C   UNL     1     -10.949  11.642  67.399  1.00  0.00    -0.261 A  
HETATM   15  C   UNL     1     -11.066  10.563  68.276  1.00  0.00    -0.340 A  
HETATM   16  C   UNL     1     -10.609   9.295  67.917  1.00  0.00    -0.288 A  
HETATM   17  C   UNL     1     -10.033   9.072  66.663  1.00  0.00    -0.349 A  
HETATM   18  C   UNL     1     -10.439  11.410  66.117  1.00  0.00    -0.303 A  
HETATM   19  C   UNL     1      -9.971  10.139  65.757  1.00  0.00    -0.339 A  
BRANCH  17  20
HETATM   20  C   UNL     1      -9.444   7.720  66.320  1.00  0.00    -0.201 C  
BRANCH  20  21
HETATM   21  C   UNL     1     -10.232   6.514  66.862  1.00  0.00    -0.215 C  
BRANCH  21  22
HETATM   22  N   UNL     1      -9.394   5.675  67.714  1.00  0.00    -0.109 NA 
HETATM   23  H   UNL     1      -9.311   4.732  67.334  1.00  0.00     0.000 HD 
BRANCH  22  24
HETATM   24  C   UNL     1      -8.072   6.267  67.954  1.00  0.00    -0.114 C  
BRANCH  24  25
HETATM   25  C   UNL     1      -7.656   6.238  69.447  1.00  0.00    -0.098 C  
HETATM   26  O   UNL     1      -6.800   5.110  69.689  1.00  0.00    -0.049 OA 
HETATM   27  H   UNL     1      -6.545   5.093  70.604  1.00  0.00     0.000 HD 
BRANCH  25  28
HETATM   28  C   UNL     1      -8.796   6.246  70.450  1.00  0.00    -0.147 A  
HETATM   29  C   UNL     1      -9.184   7.444  71.068  1.00  0.00    -0.153 A  
HETATM   30  C   UNL     1     -10.182   7.450  72.047  1.00  0.00    -0.221 A  
HETATM   31  C   UNL     1     -10.808   6.260  72.416  1.00  0.00    -0.277 A  
HETATM   32  C   UNL     1     -10.450   5.068  71.795  1.00  0.00    -0.246 A  
HETATM   33  C   UNL     1      -9.452   5.060  70.819  1.00  0.00    -0.230 A  
ENDBRANCH  25  28
ENDBRANCH  24  25
ENDBRANCH  22  24
ENDBRANCH  21  22
ENDBRANCH  20  21
ENDBRANCH  17  20
ENDBRANCH  11  14
ENDBRANCH   9  10
ENDBRANCH   6   9
TORSDOF 9
ENDMDL
MODEL      209
REMARK 921   NORMALIZED FREE ENERGY PREDICTED BY IDOCK:   -3.73 KCAL/MOL
REMARK 922        TOTAL FREE ENERGY PREDICTED BY IDOCK:   -8.13 KCAL/MOL
REMARK 923 INTER-LIGAND FREE ENERGY PREDICTED BY IDOCK:   -6.78 KCAL/MOL
REMARK 924 INTRA-LIGAND FREE ENERGY PREDICTED BY IDOCK:   -1.35 KCAL/MOL
REMARK 927      BINDING AFFINITY PREDICTED BY RF-SCORE:    0.00 PKD
ROOT
HETATM    1  N   UNL     1      -9.660  10.845  62.946  1.00  0.00    -0.415 NA 
HETATM    2  C   UNL     1      -8.657  10.417  63.730  1.00  0.00    -0.177 A  
HETATM    3  H1  UNL     1      -9.651  10.748  61.930  1.00  0.00     0.000 HD 
HETATM    4  H2  UNL     1     -10.467  11.287  63.385  1.00  0.00     0.000 HD 
HETATM    5  N   UNL     1      -8.669  10.542  65.033  1.00  0.00    -0.179 NA 
HETATM    6  C   UNL     1      -7.506  10.006  65.577  1.00  0.00    -0.137 A  
HETATM    7  S   UNL     1      -7.279   9.636  63.074  1.00  0.00    -0.114 SA 
HETATM    8  C   UNL     1      -6.634   9.464  64.652  1.00  0.00    -0.084 A  
ENDROOT
BRANCH   6   9
HETATM    9  C   UNL     1      -7.321  10.041  67.054  1.00  0.00    -0.091 C  
BRANCH   9  10
HETATM   10  C   UNL     1      -7.681  11.369  67.699  1.00  0.00    -0.121 C  
HETATM   11  N   UNL     1      -7.230  12.499  67.033  1.00  0.00    -0.370 N  
HETATM   12  O   UNL     1      -8.421  11.366  68.683  1.00  0.00    -0.155 OA 
HETATM   13  H   UNL     1      -6.634  12.351  66.219  1.00  0.00     0.000 HD 
BRANCH  11  14
HETATM   14  C   UNL     1      -7.521  13.834  67.380  1.00  0.00    -0.125 A  
HETATM   15  C   UNL     1      -6.947  14.476  68.477  1.00  0.00    -0.105 A  
HETATM   16  C   UNL     1      -7.352  15.758  68.850  1.00  0.00    -0.162 A  
HETATM   17  C   UNL     1      -8.334  16.436  68.123  1.00  0.00    -0.186 A  
HETATM   18  C   UNL     1      -8.454  14.535  66.607  1.00  0.00    -0.006 A  
HETATM   19  C   UNL     1      -8.868  15.820  66.984  1.00  0.00    -0.241 A  
BRANCH  17  20
HETATM   20  C   UNL     1      -8.843  17.783  68.594  1.00  0.00    -0.263 C  
BRANCH  20  21
HETATM   21  C   UNL     1      -9.914  17.720  69.696  1.00  0.00     0.326 C  
BRANCH  21  22
HETATM   22  N   UNL     1     -10.965  16.764  69.358  1.00  0.00    -0.328 NA 
HETATM   23  H   UNL     1     -10.924  16.506  68.372  1.00  0.00     0.000 HD 
BRANCH  22  24
HETATM   24  C   UNL     1     -10.937  15.575  70.217  1.00  0.00    -0.334 C  
BRANCH  24  25
HETATM   25  C   UNL     1     -11.367  14.281  69.478  1.00  0.00    -0.269 C  
HETATM   26  O   UNL     1     -12.206  14.619  68.362  1.00  0.00    -0.585 OA 
HETATM   27  H   UNL     1     -12.469  13.826  67.909  1.00  0.00     0.000 HD 
BRANCH  25  28
HETATM   28  C   UNL     1     -12.046  13.227  70.334  1.00  0.00    -0.401 A  
HETATM   29  C   UNL     1     -12.937  13.606  71.349  1.00  0.00    -0.427 A  
HETATM   30  C   UNL     1     -13.509  12.647  72.190  1.00  0.00    -0.561 A  
HETATM   31  C   UNL     1     -13.203  11.298  72.023  1.00  0.00    -0.437 A  
HETATM   32  C   UNL     1     -12.339  10.904  71.006  1.00  0.00    -0.498 A  
HETATM   33  C   UNL     1     -11.765  11.861  70.168  1.00  0.00    -0.337 A  
ENDBRANCH  25  28
ENDBRANCH  24  25
ENDBRANCH  22  24
ENDBRANCH  21  22
ENDBRANCH  20  21
ENDBRANCH  17  20
ENDBRANCH  11  14
ENDBRANCH   9  10
ENDBRANCH   6   9
TORSDOF 9
ENDMDL
MODEL      210
REMARK 921   NORMALIZED FREE ENERGY PREDICTED BY IDOCK:   -3.73 KCAL/MOL
REMARK 922        TOTAL FREE ENERGY PREDICTED BY IDOCK:   -8.13 KCAL/MOL
REMARK 923 INTER-LIGAND FREE ENERGY PREDICTED BY IDOCK:   -7.66 KCAL/MOL
REMARK 924 INTRA-LIGAND FREE ENERGY PREDICTED BY IDOCK:   -0.48 KCAL/MOL
REMARK 927      BINDING AFFINITY PREDICTED BY RF-SCORE:    0.00 PKD
ROOT
HETATM    1  N   UNL     1      -6.385  17.108  66.876  1.00  0.00    -0.182 NA 
HETATM    2  C   UNL     1      -7.717  17.213  67.014  1.00  0.00    -0.189 A  
HETATM    3  H1  UNL     1      -5.724  17.606  67.472  1.00  0.00     0.000 HD 
HETATM    4  H2  UNL     1      -6.018  16.502  66.143  1.00  0.00     0.000 HD 
HETATM    5  N   UNL     1      -8.565  16.573  66.249  1.00  0.00    -0.315 NA 
HETATM    6  C   UNL     1      -9.870  16.871  66.627  1.00  0.00    -0.287 A  
HETATM    7  S   UNL     1      -8.415  18.186  68.241  1.00  0.00    -0.288 SA 
HETATM    8  C   UNL     1      -9.976  17.735  67.700  1.00  0.00    -0.322 A  
ENDROOT
BRANCH   6   9
HETATM    9  C   UNL     1     -10.996  16.239  65.883  1.00  0.00    -0.037 C  
BRANCH   9  10
HETATM   10  C   UNL     1     -11.503  14.946  66.497  1.00  0.00    -0.286 C  
HETATM   11  N   UNL     1     -11.141  14.727  67.818  1.00  0.00    -0.288 N  
HETATM   12  O   UNL     1     -12.273  14.243  65.841  1.00  0.00    -0.417 OA 
HETATM   13  H   UNL     1     -10.506  15.402  68.243  1.00  0.00     0.000 HD 
BRANCH  11  14
HETATM   14  C   UNL     1     -11.572  13.655  68.626  1.00  0.00    -0.329 A  
HETATM   15  C   UNL     1     -12.002  13.823  69.942  1.00  0.00    -0.412 A  
HETATM   16  C   UNL     1     -12.308  12.721  70.742  1.00  0.00    -0.375 A  
HETATM   17  C   UNL     1     -12.204  11.422  70.238  1.00  0.00    -0.433 A  
HETATM   18  C   UNL     1     -11.533  12.362  68.094  1.00  0.00    -0.370 A  
HETATM   19  C   UNL     1     -11.833  11.253  68.897  1.00  0.00    -0.413 A  
BRANCH  17  20
HETATM   20  C   UNL     1     -12.437  10.229  71.141  1.00  0.00    -0.495 C  
BRANCH  20  21
HETATM   21  C   UNL     1     -11.254   9.249  71.237  1.00  0.00    -0.355 C  
BRANCH  21  22
HETATM   22  N   UNL     1     -11.294   8.266  70.158  1.00  0.00    -0.439 NA 
HETATM   23  H   UNL     1     -12.080   8.439  69.531  1.00  0.00     0.000 HD 
BRANCH  22  24
HETATM   24  C   UNL     1     -10.030   8.199  69.415  1.00  0.00    -0.188 C  
BRANCH  24  25
HETATM   25  C   UNL     1     -10.208   7.698  67.959  1.00  0.00    -0.202 C  
HETATM   26  O   UNL     1     -10.287   6.264  67.947  1.00  0.00    -0.151 OA 
HETATM   27  H   UNL     1     -10.396   5.957  67.055  1.00  0.00     0.000 HD 
BRANCH  25  28
HETATM   28  C   UNL     1      -9.158   8.165  66.967  1.00  0.00    -0.170 A  
HETATM   29  C   UNL     1      -7.794   8.063  67.281  1.00  0.00    -0.109 A  
HETATM   30  C   UNL     1      -6.823   8.559  66.406  1.00  0.00    -0.074 A  
HETATM   31  C   UNL     1      -7.201   9.156  65.206  1.00  0.00    -0.089 A  
HETATM   32  C   UNL     1      -8.548   9.243  64.869  1.00  0.00    -0.204 A  
HETATM   33  C   UNL     1      -9.520   8.752  65.743  1.00  0.00    -0.239 A  
ENDBRANCH  25  28
ENDBRANCH  24  25
ENDBRANCH  22  24
ENDBRANCH  21  22
ENDBRANCH  20  21
ENDBRANCH  17  20
ENDBRANCH  11  14
ENDBRANCH   9  10
ENDBRANCH   6   9
TORSDOF 9
ENDMDL
MODEL      211
REMARK 921   NORMALIZED FREE ENERGY PREDICTED BY IDOCK:   -3.73 KCAL/MOL
REMARK 922        TOTAL FREE ENERGY PREDICTED BY IDOCK:   -8.13 KCAL/MOL
REMARK 923 INTER-LIGAND FREE ENERGY PREDICTED BY IDOCK:   -5.28 KCAL/MOL
REMARK 924 INTRA-LIGAND FREE ENERGY PREDICTED BY IDOCK:   -2.85 KCAL/MOL
REMARK 927      BINDING AFFINITY PREDICTED BY RF-SCORE:    0.00 PKD
ROOT
HETATM    1  N   UNL     1      -7.301   4.709  63.953  1.00  0.00    -0.054 NA 
HETATM    2  C   UNL     1      -7.147   6.017  64.217  1.00  0.00    -0.053 A  
HETATM    3  H1  UNL     1      -6.523   4.048  63.950  1.00  0.00     0.000 HD 
HETATM    4  H2  UNL     1      -8.236   4.361  63.746  1.00  0.00     0.000 HD 
HETATM    5  N   UNL     1      -8.144   6.865  64.221  1.00  0.00    -0.087 NA 
HETATM    6  C   UNL     1      -7.687   8.141  64.530  1.00  0.00    -0.121 A  
HETATM    7  S   UNL     1      -5.613   6.678  64.604  1.00  0.00    -0.031 SA 
HETATM    8  C   UNL     1      -6.329   8.224  64.773  1.00  0.00    -0.064 A  
ENDROOT
BRANCH   6   9
HETATM    9  C   UNL     1      -8.668   9.261  64.593  1.00  0.00    -0.223 C  
BRANCH   9  10
HETATM   10  C   UNL     1      -9.561   9.243  65.822  1.00  0.00    -0.271 C  
HETATM   11  N   UNL     1      -9.564   8.058  66.543  1.00  0.00    -0.242 N  
HETATM   12  O   UNL     1     -10.125  10.285  66.157  1.00  0.00    -0.230 OA 
HETATM   13  H   UNL     1      -9.037   7.277  66.154  1.00  0.00     0.000 HD 
BRANCH  11  14
HETATM   14  C   UNL     1     -10.229   7.836  67.766  1.00  0.00    -0.212 A  
HETATM   15  C   UNL     1     -10.104   8.687  68.864  1.00  0.00    -0.213 A  
HETATM   16  C   UNL     1     -10.688   8.367  70.090  1.00  0.00    -0.238 A  
HETATM   17  C   UNL     1     -11.425   7.189  70.243  1.00  0.00    -0.287 A  
HETATM   18  C   UNL     1     -11.024   6.692  67.893  1.00  0.00    -0.342 A  
HETATM   19  C   UNL     1     -11.606   6.363  69.126  1.00  0.00    -0.096 A  
BRANCH  17  20
HETATM   20  C   UNL     1     -11.968   6.796  71.601  1.00  0.00    -0.391 C  
BRANCH  20  21
HETATM   21  C   UNL     1     -11.663   7.793  72.733  1.00  0.00    -0.258 C  
BRANCH  21  22
HETATM   22  N   UNL     1     -10.813   7.188  73.755  1.00  0.00    -0.522 NA 
HETATM   23  H   UNL     1     -10.968   6.182  73.814  1.00  0.00     0.000 HD 
BRANCH  22  24
HETATM   24  C   UNL     1      -9.391   7.493  73.552  1.00  0.00    -0.263 C  
BRANCH  24  25
HETATM   25  C   UNL     1      -8.522   6.226  73.344  1.00  0.00    -0.122 C  
HETATM   26  O   UNL     1      -7.151   6.525  73.652  1.00  0.00    -0.081 OA 
HETATM   27  H   UNL     1      -6.619   5.748  73.525  1.00  0.00     0.000 HD 
BRANCH  25  28
HETATM   28  C   UNL     1      -8.615   5.579  71.974  1.00  0.00    -0.131 A  
HETATM   29  C   UNL     1      -9.343   4.392  71.802  1.00  0.00    -0.195 A  
HETATM   30  C   UNL     1      -9.373   3.749  70.561  1.00  0.00    -0.228 A  
HETATM   31  C   UNL     1      -8.683   4.287  69.477  1.00  0.00    -0.121 A  
HETATM   32  C   UNL     1      -7.976   5.476  69.626  1.00  0.00    -0.093 A  
HETATM   33  C   UNL     1      -7.943   6.118  70.865  1.00  0.00    -0.116 A  
ENDBRANCH  25  28
ENDBRANCH  24  25
ENDBRANCH  22  24
ENDBRANCH  21  22
ENDBRANCH  20  21
ENDBRANCH  17  20
ENDBRANCH  11  14
ENDBRANCH   9  10
ENDBRANCH   6   9
TORSDOF 9
ENDMDL
MODEL      212
REMARK 921   NORMALIZED FREE ENERGY PREDICTED BY IDOCK:   -3.72 KCAL/MOL
REMARK 922        TOTAL FREE ENERGY PREDICTED BY IDOCK:   -8.12 KCAL/MOL
REMARK 923 INTER-LIGAND FREE ENERGY PREDICTED BY IDOCK:   -7.48 KCAL/MOL
REMARK 924 INTRA-LIGAND FREE ENERGY PREDICTED BY IDOCK:   -0.63 KCAL/MOL
REMARK 927      BINDING AFFINITY PREDICTED BY RF-SCORE:    0.00 PKD
ROOT
HETATM    1  N   UNL     1      -8.745  18.816  68.617  1.00  0.00    -0.340 NA 
HETATM    2  C   UNL     1      -9.435  18.636  67.479  1.00  0.00    -0.291 A  
HETATM    3  H1  UNL     1      -8.624  19.730  69.054  1.00  0.00     0.000 HD 
HETATM    4  H2  UNL     1      -8.322  18.003  69.063  1.00  0.00     0.000 HD 
HETATM    5  N   UNL     1      -9.589  17.463  66.917  1.00  0.00    -0.267 NA 
HETATM    6  C   UNL     1     -10.350  17.584  65.759  1.00  0.00    -0.209 A  
HETATM    7  S   UNL     1     -10.203  19.945  66.681  1.00  0.00    -0.496 SA 
HETATM    8  C   UNL     1     -10.773  18.868  65.478  1.00  0.00    -0.001 A  
ENDROOT
BRANCH   6   9
HETATM    9  C   UNL     1     -10.649  16.358  64.966  1.00  0.00    -0.217 C  
BRANCH   9  10
HETATM   10  C   UNL     1     -10.841  15.104  65.800  1.00  0.00    -0.353 C  
HETATM   11  N   UNL     1      -9.928  14.085  65.570  1.00  0.00    -0.477 N  
HETATM   12  O   UNL     1     -11.701  15.108  66.682  1.00  0.00    -0.215 OA 
HETATM   13  H   UNL     1      -9.259  14.225  64.813  1.00  0.00     0.000 HD 
BRANCH  11  14
HETATM   14  C   UNL     1      -9.842  12.874  66.286  1.00  0.00    -0.273 A  
HETATM   15  C   UNL     1     -10.604  11.750  65.970  1.00  0.00    -0.302 A  
HETATM   16  C   UNL     1     -10.571  10.611  66.777  1.00  0.00    -0.297 A  
HETATM   17  C   UNL     1      -9.762  10.567  67.915  1.00  0.00    -0.171 A  
HETATM   18  C   UNL     1      -8.978  12.810  67.384  1.00  0.00    -0.195 A  
HETATM   19  C   UNL     1      -8.948  11.671  68.201  1.00  0.00    -0.182 A  
BRANCH  17  20
HETATM   20  C   UNL     1      -9.810   9.371  68.843  1.00  0.00    -0.176 C  
BRANCH  20  21
HETATM   21  C   UNL     1     -10.091   9.707  70.318  1.00  0.00    -0.275 C  
BRANCH  21  22
HETATM   22  N   UNL     1     -11.172   8.882  70.851  1.00  0.00    -0.266 NA 
HETATM   23  H   UNL     1     -11.801   8.575  70.109  1.00  0.00     0.000 HD 
BRANCH  22  24
HETATM   24  C   UNL     1     -10.674   7.740  71.627  1.00  0.00    -0.220 C  
BRANCH  24  25
HETATM   25  C   UNL     1     -10.445   6.473  70.763  1.00  0.00    -0.220 C  
HETATM   26  O   UNL     1     -11.482   6.368  69.775  1.00  0.00    -0.424 OA 
HETATM   27  H   UNL     1     -11.342   5.591  69.246  1.00  0.00     0.000 HD 
BRANCH  25  28
HETATM   28  C   UNL     1     -10.325   5.166  71.527  1.00  0.00    -0.278 A  
HETATM   29  C   UNL     1      -9.678   4.065  70.946  1.00  0.00    -0.257 A  
HETATM   30  C   UNL     1      -9.627   2.836  71.610  1.00  0.00    -0.222 A  
HETATM   31  C   UNL     1     -10.215   2.694  72.865  1.00  0.00    -0.230 A  
HETATM   32  C   UNL     1     -10.840   3.783  73.466  1.00  0.00    -0.324 A  
HETATM   33  C   UNL     1     -10.894   5.010  72.801  1.00  0.00    -0.305 A  
ENDBRANCH  25  28
ENDBRANCH  24  25
ENDBRANCH  22  24
ENDBRANCH  21  22
ENDBRANCH  20  21
ENDBRANCH  17  20
ENDBRANCH  11  14
ENDBRANCH   9  10
ENDBRANCH   6   9
TORSDOF 9
ENDMDL
MODEL      213
REMARK 921   NORMALIZED FREE ENERGY PREDICTED BY IDOCK:   -3.71 KCAL/MOL
REMARK 922        TOTAL FREE ENERGY PREDICTED BY IDOCK:   -8.10 KCAL/MOL
REMARK 923 INTER-LIGAND FREE ENERGY PREDICTED BY IDOCK:   -7.38 KCAL/MOL
REMARK 924 INTRA-LIGAND FREE ENERGY PREDICTED BY IDOCK:   -0.72 KCAL/MOL
REMARK 927      BINDING AFFINITY PREDICTED BY RF-SCORE:    0.00 PKD
ROOT
HETATM    1  N   UNL     1      -7.277   6.002  74.152  1.00  0.00    -0.088 NA 
HETATM    2  C   UNL     1      -8.474   5.993  73.543  1.00  0.00    -0.119 A  
HETATM    3  H1  UNL     1      -7.144   6.327  75.110  1.00  0.00     0.000 HD 
HETATM    4  H2  UNL     1      -6.465   5.670  73.634  1.00  0.00     0.000 HD 
HETATM    5  N   UNL     1      -8.645   5.576  72.314  1.00  0.00    -0.125 NA 
HETATM    6  C   UNL     1      -9.985   5.677  71.955  1.00  0.00    -0.180 A  
HETATM    7  S   UNL     1      -9.895   6.506  74.354  1.00  0.00    -0.336 SA 
HETATM    8  C   UNL     1     -10.813   6.163  72.949  1.00  0.00    -0.260 A  
ENDROOT
BRANCH   6   9
HETATM    9  C   UNL     1     -10.398   5.247  70.589  1.00  0.00    -0.324 C  
BRANCH   9  10
HETATM   10  C   UNL     1      -9.854   6.116  69.468  1.00  0.00    -0.159 C  
HETATM   11  N   UNL     1     -10.307   7.427  69.454  1.00  0.00    -0.206 N  
HETATM   12  O   UNL     1      -8.987   5.651  68.728  1.00  0.00    -0.114 OA 
HETATM   13  H   UNL     1     -11.019   7.679  70.138  1.00  0.00     0.000 HD 
BRANCH  11  14
HETATM   14  C   UNL     1      -9.872   8.442  68.578  1.00  0.00    -0.173 A  
HETATM   15  C   UNL     1      -8.897   9.378  68.926  1.00  0.00    -0.136 A  
HETATM   16  C   UNL     1      -8.581  10.435  68.071  1.00  0.00    -0.123 A  
HETATM   17  C   UNL     1      -9.225  10.573  66.839  1.00  0.00    -0.173 A  
HETATM   18  C   UNL     1     -10.469   8.535  67.316  1.00  0.00    -0.366 A  
HETATM   19  C   UNL     1     -10.159   9.600  66.459  1.00  0.00    -0.314 A  
BRANCH  17  20
HETATM   20  C   UNL     1      -8.953  11.778  65.963  1.00  0.00    -0.108 C  
BRANCH  20  21
HETATM   21  C   UNL     1     -10.070  12.837  65.954  1.00  0.00    -0.276 C  
BRANCH  21  22
HETATM   22  N   UNL     1      -9.516  14.188  65.947  1.00  0.00    -0.516 NA 
HETATM   23  H   UNL     1      -9.450  14.554  64.997  1.00  0.00     0.000 HD 
BRANCH  22  24
HETATM   24  C   UNL     1     -10.266  15.104  66.816  1.00  0.00    -0.264 C  
BRANCH  24  25
HETATM   25  C   UNL     1     -10.812  16.344  66.063  1.00  0.00    -0.093 C  
HETATM   26  O   UNL     1     -10.699  16.139  64.646  1.00  0.00    -0.777 OA 
HETATM   27  H   UNL     1     -11.033  16.899  64.185  1.00  0.00     0.000 HD 
BRANCH  25  28
HETATM   28  C   UNL     1     -10.188  17.675  66.444  1.00  0.00    -0.364 A  
HETATM   29  C   UNL     1      -8.862  17.962  66.084  1.00  0.00    -0.109 A  
HETATM   30  C   UNL     1      -8.255  19.153  66.494  1.00  0.00    -0.315 A  
HETATM   31  C   UNL     1      -8.965  20.073  67.261  1.00  0.00    -0.440 A  
HETATM   32  C   UNL     1     -10.288  19.814  67.606  1.00  0.00    -0.579 A  
HETATM   33  C   UNL     1     -10.895  18.623  67.200  1.00  0.00    -0.341 A  
ENDBRANCH  25  28
ENDBRANCH  24  25
ENDBRANCH  22  24
ENDBRANCH  21  22
ENDBRANCH  20  21
ENDBRANCH  17  20
ENDBRANCH  11  14
ENDBRANCH   9  10
ENDBRANCH   6   9
TORSDOF 9
ENDMDL
MODEL      214
REMARK 921   NORMALIZED FREE ENERGY PREDICTED BY IDOCK:   -3.70 KCAL/MOL
REMARK 922        TOTAL FREE ENERGY PREDICTED BY IDOCK:   -8.09 KCAL/MOL
REMARK 923 INTER-LIGAND FREE ENERGY PREDICTED BY IDOCK:   -7.30 KCAL/MOL
REMARK 924 INTRA-LIGAND FREE ENERGY PREDICTED BY IDOCK:   -0.79 KCAL/MOL
REMARK 927      BINDING AFFINITY PREDICTED BY RF-SCORE:    0.00 PKD
ROOT
HETATM    1  N   UNL     1     -10.301  16.296  65.429  1.00  0.00    -0.567 NA 
HETATM    2  C   UNL     1     -10.745  15.129  64.933  1.00  0.00    -0.398 A  
HETATM    3  H1  UNL     1     -10.841  17.160  65.381  1.00  0.00     0.000 HD 
HETATM    4  H2  UNL     1      -9.385  16.318  65.874  1.00  0.00     0.000 HD 
HETATM    5  N   UNL     1     -10.052  14.020  64.995  1.00  0.00    -0.349 NA 
HETATM    6  C   UNL     1     -10.763  12.978  64.407  1.00  0.00    -0.394 A  
HETATM    7  S   UNL     1     -12.287  14.998  64.196  1.00  0.00     0.135 SA 
HETATM    8  C   UNL     1     -12.006  13.332  63.919  1.00  0.00    -0.483 A  
ENDROOT
BRANCH   6   9
HETATM    9  C   UNL     1     -10.152  11.619  64.376  1.00  0.00    -0.322 C  
BRANCH   9  10
HETATM   10  C   UNL     1     -10.211  10.877  65.700  1.00  0.00    -0.263 C  
HETATM   11  N   UNL     1     -10.648  11.621  66.786  1.00  0.00    -0.234 N  
HETATM   12  O   UNL     1      -9.981   9.667  65.708  1.00  0.00    -0.293 OA 
HETATM   13  H   UNL     1     -10.816  12.615  66.629  1.00  0.00     0.000 HD 
BRANCH  11  14
HETATM   14  C   UNL     1     -10.879  11.128  68.086  1.00  0.00    -0.219 A  
HETATM   15  C   UNL     1      -9.979  10.300  68.756  1.00  0.00    -0.187 A  
HETATM   16  C   UNL     1     -10.302   9.743  69.994  1.00  0.00    -0.307 A  
HETATM   17  C   UNL     1     -11.532  10.013  70.599  1.00  0.00    -0.425 A  
HETATM   18  C   UNL     1     -12.083  11.459  68.719  1.00  0.00    -0.256 A  
HETATM   19  C   UNL     1     -12.413  10.895  69.959  1.00  0.00    -0.332 A  
BRANCH  17  20
HETATM   20  C   UNL     1     -11.918   9.324  71.891  1.00  0.00    -0.433 C  
BRANCH  20  21
HETATM   21  C   UNL     1     -12.428   7.881  71.727  1.00  0.00    -0.323 C  
BRANCH  21  22
HETATM   22  N   UNL     1     -11.607   6.942  72.487  1.00  0.00    -0.423 NA 
HETATM   23  H   UNL     1     -12.168   6.437  73.174  1.00  0.00     0.000 HD 
BRANCH  22  24
HETATM   24  C   UNL     1     -10.869   6.015  71.621  1.00  0.00    -0.260 C  
BRANCH  24  25
HETATM   25  C   UNL     1     -10.154   4.887  72.408  1.00  0.00    -0.187 C  
HETATM   26  O   UNL     1      -9.579   5.426  73.609  1.00  0.00    -0.136 OA 
HETATM   27  H   UNL     1      -9.141   4.734  74.091  1.00  0.00     0.000 HD 
BRANCH  25  28
HETATM   28  C   UNL     1      -9.105   4.107  71.637  1.00  0.00    -0.172 A  
HETATM   29  C   UNL     1      -7.741   4.366  71.840  1.00  0.00    -0.084 A  
HETATM   30  C   UNL     1      -6.770   3.706  71.082  1.00  0.00    -0.031 A  
HETATM   31  C   UNL     1      -7.148   2.775  70.117  1.00  0.00    -0.033 A  
HETATM   32  C   UNL     1      -8.496   2.489  69.921  1.00  0.00    -0.088 A  
HETATM   33  C   UNL     1      -9.467   3.151  70.675  1.00  0.00    -0.233 A  
ENDBRANCH  25  28
ENDBRANCH  24  25
ENDBRANCH  22  24
ENDBRANCH  21  22
ENDBRANCH  20  21
ENDBRANCH  17  20
ENDBRANCH  11  14
ENDBRANCH   9  10
ENDBRANCH   6   9
TORSDOF 9
ENDMDL
MODEL      215
REMARK 921   NORMALIZED FREE ENERGY PREDICTED BY IDOCK:   -3.70 KCAL/MOL
REMARK 922        TOTAL FREE ENERGY PREDICTED BY IDOCK:   -8.08 KCAL/MOL
REMARK 923 INTER-LIGAND FREE ENERGY PREDICTED BY IDOCK:   -7.07 KCAL/MOL
REMARK 924 INTRA-LIGAND FREE ENERGY PREDICTED BY IDOCK:   -1.01 KCAL/MOL
REMARK 927      BINDING AFFINITY PREDICTED BY RF-SCORE:    0.00 PKD
ROOT
HETATM    1  N   UNL     1      -9.312  12.183  63.419  1.00  0.00    -0.636 NA 
HETATM    2  C   UNL     1     -10.456  12.450  64.069  1.00  0.00    -0.416 A  
HETATM    3  H1  UNL     1      -9.286  11.800  62.474  1.00  0.00     0.000 HD 
HETATM    4  H2  UNL     1      -8.428  12.371  63.891  1.00  0.00     0.000 HD 
HETATM    5  N   UNL     1     -10.488  12.942  65.282  1.00  0.00    -0.290 NA 
HETATM    6  C   UNL     1     -11.806  13.118  65.693  1.00  0.00    -0.387 A  
HETATM    7  S   UNL     1     -11.984  12.192  63.335  1.00  0.00    -0.438 SA 
HETATM    8  C   UNL     1     -12.755  12.763  64.753  1.00  0.00    -0.393 A  
ENDROOT
BRANCH   6   9
HETATM    9  C   UNL     1     -12.067  13.675  67.050  1.00  0.00    -0.423 C  
BRANCH   9  10
HETATM   10  C   UNL     1     -11.171  13.113  68.140  1.00  0.00    -0.271 C  
HETATM   11  N   UNL     1     -10.916  11.752  68.063  1.00  0.00    -0.212 N  
HETATM   12  O   UNL     1     -10.652  13.894  68.938  1.00  0.00    -0.242 OA 
HETATM   13  H   UNL     1     -11.406  11.228  67.338  1.00  0.00     0.000 HD 
BRANCH  11  14
HETATM   14  C   UNL     1     -10.040  11.026  68.896  1.00  0.00    -0.199 A  
HETATM   15  C   UNL     1      -8.660  10.991  68.699  1.00  0.00    -0.157 A  
HETATM   16  C   UNL     1      -7.845  10.167  69.477  1.00  0.00    -0.165 A  
HETATM   17  C   UNL     1      -8.393   9.368  70.483  1.00  0.00    -0.233 A  
HETATM   18  C   UNL     1     -10.585  10.282  69.948  1.00  0.00    -0.324 A  
HETATM   19  C   UNL     1      -9.771   9.448  70.726  1.00  0.00    -0.332 A  
BRANCH  17  20
HETATM   20  C   UNL     1      -7.519   8.400  71.253  1.00  0.00    -0.093 C  
BRANCH  20  21
HETATM   21  C   UNL     1      -7.968   6.929  71.188  1.00  0.00    -0.101 C  
BRANCH  21  22
HETATM   22  N   UNL     1      -8.453   6.584  69.854  1.00  0.00    -0.134 NA 
HETATM   23  H   UNL     1      -7.710   6.669  69.160  1.00  0.00     0.000 HD 
BRANCH  22  24
HETATM   24  C   UNL     1      -9.070   5.253  69.810  1.00  0.00    -0.116 C  
BRANCH  24  25
HETATM   25  C   UNL     1      -8.466   4.269  70.845  1.00  0.00    -0.083 C  
HETATM   26  O   UNL     1      -7.786   3.205  70.160  1.00  0.00    -0.043 OA 
HETATM   27  H   UNL     1      -7.416   2.603  70.795  1.00  0.00     0.000 HD 
BRANCH  25  28
HETATM   28  C   UNL     1      -9.441   3.694  71.856  1.00  0.00    -0.203 A  
HETATM   29  C   UNL     1      -9.455   2.316  72.119  1.00  0.00    -0.175 A  
HETATM   30  C   UNL     1     -10.398   1.767  72.993  1.00  0.00    -0.203 A  
HETATM   31  C   UNL     1     -11.334   2.588  73.618  1.00  0.00    -0.300 A  
HETATM   32  C   UNL     1     -11.318   3.960  73.386  1.00  0.00    -0.248 A  
HETATM   33  C   UNL     1     -10.378   4.509  72.511  1.00  0.00    -0.257 A  
ENDBRANCH  25  28
ENDBRANCH  24  25
ENDBRANCH  22  24
ENDBRANCH  21  22
ENDBRANCH  20  21
ENDBRANCH  17  20
ENDBRANCH  11  14
ENDBRANCH   9  10
ENDBRANCH   6   9
TORSDOF 9
ENDMDL
MODEL      216
REMARK 921   NORMALIZED FREE ENERGY PREDICTED BY IDOCK:   -3.68 KCAL/MOL
REMARK 922        TOTAL FREE ENERGY PREDICTED BY IDOCK:   -8.06 KCAL/MOL
REMARK 923 INTER-LIGAND FREE ENERGY PREDICTED BY IDOCK:   -6.68 KCAL/MOL
REMARK 924 INTRA-LIGAND FREE ENERGY PREDICTED BY IDOCK:   -1.38 KCAL/MOL
REMARK 927      BINDING AFFINITY PREDICTED BY RF-SCORE:    0.00 PKD
ROOT
HETATM    1  N   UNL     1      -7.998  17.623  66.866  1.00  0.00    -0.215 NA 
HETATM    2  C   UNL     1      -9.011  16.920  66.333  1.00  0.00    -0.283 A  
HETATM    3  H1  UNL     1      -7.956  18.642  66.840  1.00  0.00     0.000 HD 
HETATM    4  H2  UNL     1      -7.238  17.116  67.317  1.00  0.00     0.000 HD 
HETATM    5  N   UNL     1      -9.065  15.613  66.366  1.00  0.00    -0.293 NA 
HETATM    6  C   UNL     1     -10.226  15.165  65.743  1.00  0.00    -0.341 A  
HETATM    7  S   UNL     1     -10.343  17.697  65.584  1.00  0.00     0.040 SA 
HETATM    8  C   UNL     1     -11.043  16.169  65.259  1.00  0.00    -0.181 A  
ENDROOT
BRANCH   6   9
HETATM    9  C   UNL     1     -10.486  13.700  65.675  1.00  0.00    -0.304 C  
BRANCH   9  10
HETATM   10  C   UNL     1     -11.056  13.106  66.952  1.00  0.00    -0.282 C  
HETATM   11  N   UNL     1     -10.722  11.783  67.199  1.00  0.00    -0.230 N  
HETATM   12  O   UNL     1     -11.671  13.844  67.722  1.00  0.00    -0.325 OA 
HETATM   13  H   UNL     1     -10.193  11.296  66.476  1.00  0.00     0.000 HD 
BRANCH  11  14
HETATM   14  C   UNL     1     -11.046  11.051  68.359  1.00  0.00    -0.251 A  
HETATM   15  C   UNL     1     -12.149  11.347  69.160  1.00  0.00    -0.331 A  
HETATM   16  C   UNL     1     -12.366  10.670  70.361  1.00  0.00    -0.428 A  
HETATM   17  C   UNL     1     -11.489   9.668  70.783  1.00  0.00    -0.399 A  
HETATM   18  C   UNL     1     -10.205  10.001  68.741  1.00  0.00    -0.201 A  
HETATM   19  C   UNL     1     -10.415   9.324  69.950  1.00  0.00    -0.247 A  
BRANCH  17  20
HETATM   20  C   UNL     1     -11.671   9.010  72.135  1.00  0.00    -0.366 C  
BRANCH  20  21
HETATM   21  C   UNL     1     -11.611   7.472  72.119  1.00  0.00    -0.298 C  
BRANCH  21  22
HETATM   22  N   UNL     1     -11.188   6.948  73.415  1.00  0.00    -0.511 NA 
HETATM   23  H   UNL     1     -11.975   6.544  73.923  1.00  0.00     0.000 HD 
BRANCH  22  24
HETATM   24  C   UNL     1     -10.085   5.986  73.297  1.00  0.00    -0.193 C  
BRANCH  24  25
HETATM   25  C   UNL     1      -8.691   6.636  73.485  1.00  0.00    -0.123 C  
HETATM   26  O   UNL     1      -8.755   7.629  74.520  1.00  0.00    -0.380 OA 
HETATM   27  H   UNL     1      -7.900   8.026  74.635  1.00  0.00     0.000 HD 
BRANCH  25  28
HETATM   28  C   UNL     1      -8.066   7.231  72.236  1.00  0.00    -0.109 A  
HETATM   29  C   UNL     1      -7.976   6.471  71.060  1.00  0.00    -0.111 A  
HETATM   30  C   UNL     1      -7.337   6.983  69.927  1.00  0.00    -0.085 A  
HETATM   31  C   UNL     1      -6.784   8.262  69.954  1.00  0.00    -0.043 A  
HETATM   32  C   UNL     1      -6.886   9.037  71.105  1.00  0.00    -0.092 A  
HETATM   33  C   UNL     1      -7.522   8.525  72.238  1.00  0.00    -0.100 A  
ENDBRANCH  25  28
ENDBRANCH  24  25
ENDBRANCH  22  24
ENDBRANCH  21  22
ENDBRANCH  20  21
ENDBRANCH  17  20
ENDBRANCH  11  14
ENDBRANCH   9  10
ENDBRANCH   6   9
TORSDOF 9
ENDMDL
MODEL      217
REMARK 921   NORMALIZED FREE ENERGY PREDICTED BY IDOCK:   -3.67 KCAL/MOL
REMARK 922        TOTAL FREE ENERGY PREDICTED BY IDOCK:   -8.04 KCAL/MOL
REMARK 923 INTER-LIGAND FREE ENERGY PREDICTED BY IDOCK:   -7.01 KCAL/MOL
REMARK 924 INTRA-LIGAND FREE ENERGY PREDICTED BY IDOCK:   -1.03 KCAL/MOL
REMARK 927      BINDING AFFINITY PREDICTED BY RF-SCORE:    0.00 PKD
ROOT
HETATM    1  N   UNL     1      -6.990  17.711  66.987  1.00  0.00    -0.170 NA 
HETATM    2  C   UNL     1      -8.280  17.801  66.622  1.00  0.00    -0.259 A  
HETATM    3  H1  UNL     1      -6.532  18.401  67.582  1.00  0.00     0.000 HD 
HETATM    4  H2  UNL     1      -6.444  16.918  66.653  1.00  0.00     0.000 HD 
HETATM    5  N   UNL     1      -8.868  16.916  65.858  1.00  0.00    -0.529 NA 
HETATM    6  C   UNL     1     -10.198  17.267  65.654  1.00  0.00    -0.124 A  
HETATM    7  S   UNL     1      -9.275  19.088  67.165  1.00  0.00    -0.300 SA 
HETATM    8  C   UNL     1     -10.594  18.424  66.297  1.00  0.00    -0.311 A  
ENDROOT
BRANCH   6   9
HETATM    9  C   UNL     1     -11.053  16.384  64.812  1.00  0.00    -0.246 C  
BRANCH   9  10
HETATM   10  C   UNL     1     -11.331  15.019  65.418  1.00  0.00    -0.328 C  
HETATM   11  N   UNL     1     -10.641  14.729  66.585  1.00  0.00    -0.293 N  
HETATM   12  O   UNL     1     -12.208  14.317  64.912  1.00  0.00    -0.407 OA 
HETATM   13  H   UNL     1      -9.952  15.413  66.898  1.00  0.00     0.000 HD 
BRANCH  11  14
HETATM   14  C   UNL     1     -10.807  13.576  67.379  1.00  0.00    -0.269 A  
HETATM   15  C   UNL     1     -11.756  13.485  68.396  1.00  0.00    -0.393 A  
HETATM   16  C   UNL     1     -11.806  12.369  69.232  1.00  0.00    -0.361 A  
HETATM   17  C   UNL     1     -10.913  11.308  69.060  1.00  0.00    -0.288 A  
HETATM   18  C   UNL     1      -9.957  12.487  67.157  1.00  0.00    -0.217 A  
HETATM   19  C   UNL     1      -9.999  11.368  68.000  1.00  0.00    -0.192 A  
BRANCH  17  20
HETATM   20  C   UNL     1     -10.905  10.148  70.034  1.00  0.00    -0.361 C  
BRANCH  20  21
HETATM   21  C   UNL     1      -9.671   9.234  69.940  1.00  0.00    -0.201 C  
BRANCH  21  22
HETATM   22  N   UNL     1      -9.866   8.184  68.944  1.00  0.00    -0.171 NA 
HETATM   23  H   UNL     1     -10.681   8.376  68.362  1.00  0.00     0.000 HD 
BRANCH  22  24
HETATM   24  C   UNL     1      -8.669   7.962  68.123  1.00  0.00    -0.126 C  
BRANCH  24  25
HETATM   25  C   UNL     1      -8.999   7.668  66.637  1.00  0.00    -0.156 C  
HETATM   26  O   UNL     1     -10.274   8.238  66.303  1.00  0.00    -0.460 OA 
HETATM   27  H   UNL     1     -10.475   8.058  65.392  1.00  0.00     0.000 HD 
BRANCH  25  28
HETATM   28  C   UNL     1      -8.964   6.206  66.230  1.00  0.00    -0.162 A  
HETATM   29  C   UNL     1      -7.761   5.617  65.813  1.00  0.00    -0.088 A  
HETATM   30  C   UNL     1      -7.733   4.293  65.366  1.00  0.00    -0.086 A  
HETATM   31  C   UNL     1      -8.905   3.539  65.336  1.00  0.00    -0.126 A  
HETATM   32  C   UNL     1     -10.101   4.101  65.770  1.00  0.00    -0.179 A  
HETATM   33  C   UNL     1     -10.131   5.424  66.214  1.00  0.00    -0.209 A  
ENDBRANCH  25  28
ENDBRANCH  24  25
ENDBRANCH  22  24
ENDBRANCH  21  22
ENDBRANCH  20  21
ENDBRANCH  17  20
ENDBRANCH  11  14
ENDBRANCH   9  10
ENDBRANCH   6   9
TORSDOF 9
ENDMDL
MODEL      218
REMARK 921   NORMALIZED FREE ENERGY PREDICTED BY IDOCK:   -3.64 KCAL/MOL
REMARK 922        TOTAL FREE ENERGY PREDICTED BY IDOCK:   -8.00 KCAL/MOL
REMARK 923 INTER-LIGAND FREE ENERGY PREDICTED BY IDOCK:   -7.31 KCAL/MOL
REMARK 924 INTRA-LIGAND FREE ENERGY PREDICTED BY IDOCK:   -0.69 KCAL/MOL
REMARK 927      BINDING AFFINITY PREDICTED BY RF-SCORE:    0.00 PKD
ROOT
HETATM    1  N   UNL     1      -9.790   4.214  63.832  1.00  0.00    -0.276 NA 
HETATM    2  C   UNL     1      -8.597   4.829  63.779  1.00  0.00    -0.133 A  
HETATM    3  H1  UNL     1      -9.981   3.425  64.449  1.00  0.00     0.000 HD 
HETATM    4  H2  UNL     1     -10.538   4.552  63.228  1.00  0.00     0.000 HD 
HETATM    5  N   UNL     1      -8.351   5.842  62.987  1.00  0.00    -0.086 NA 
HETATM    6  C   UNL     1      -7.039   6.272  63.152  1.00  0.00    -0.052 A  
HETATM    7  S   UNL     1      -7.295   4.343  64.783  1.00  0.00    -0.072 SA 
HETATM    8  C   UNL     1      -6.316   5.569  64.096  1.00  0.00    -0.022 A  
ENDROOT
BRANCH   6   9
HETATM    9  C   UNL     1      -6.554   7.425  62.342  1.00  0.00    -0.070 C  
BRANCH   9  10
HETATM   10  C   UNL     1      -7.146   8.765  62.745  1.00  0.00    -0.093 C  
HETATM   11  N   UNL     1      -8.464   8.734  63.174  1.00  0.00    -0.344 N  
HETATM   12  O   UNL     1      -6.409   9.752  62.770  1.00  0.00    -0.100 OA 
HETATM   13  H   UNL     1      -8.951   7.839  63.111  1.00  0.00     0.000 HD 
BRANCH  11  14
HETATM   14  C   UNL     1      -9.193   9.825  63.689  1.00  0.00    -0.183 A  
HETATM   15  C   UNL     1      -9.727  10.829  62.882  1.00  0.00    -0.337 A  
HETATM   16  C   UNL     1     -10.340  11.950  63.444  1.00  0.00    -0.481 A  
HETATM   17  C   UNL     1     -10.445  12.086  64.830  1.00  0.00    -0.325 A  
HETATM   18  C   UNL     1      -9.357   9.921  65.075  1.00  0.00    -0.323 A  
HETATM   19  C   UNL     1      -9.966  11.049  65.643  1.00  0.00    -0.299 A  
BRANCH  17  20
HETATM   20  C   UNL     1     -11.017  13.351  65.435  1.00  0.00    -0.297 C  
BRANCH  20  21
HETATM   21  C   UNL     1     -11.801  13.146  66.744  1.00  0.00    -0.385 C  
BRANCH  21  22
HETATM   22  N   UNL     1     -12.450  14.383  67.170  1.00  0.00    -0.521 NA 
HETATM   23  H   UNL     1     -13.276  14.578  66.603  1.00  0.00     0.000 HD 
BRANCH  22  24
HETATM   24  C   UNL     1     -12.779  14.378  68.600  1.00  0.00     0.758 C  
BRANCH  24  25
HETATM   25  C   UNL     1     -11.652  14.972  69.484  1.00  0.00    -0.311 C  
HETATM   26  O   UNL     1     -10.479  14.149  69.389  1.00  0.00    -0.418 OA 
HETATM   27  H   UNL     1      -9.788  14.513  69.930  1.00  0.00     0.000 HD 
BRANCH  25  28
HETATM   28  C   UNL     1     -12.007  15.200  70.942  1.00  0.00    -0.378 A  
HETATM   29  C   UNL     1     -12.818  14.280  71.624  1.00  0.00    -0.424 A  
HETATM   30  C   UNL     1     -13.211  14.518  72.944  1.00  0.00    -0.612 A  
HETATM   31  C   UNL     1     -12.795  15.674  73.600  1.00  0.00    -0.704 A  
HETATM   32  C   UNL     1     -11.971  16.585  72.946  1.00  0.00    -0.486 A  
HETATM   33  C   UNL     1     -11.580  16.349  71.626  1.00  0.00    -0.335 A  
ENDBRANCH  25  28
ENDBRANCH  24  25
ENDBRANCH  22  24
ENDBRANCH  21  22
ENDBRANCH  20  21
ENDBRANCH  17  20
ENDBRANCH  11  14
ENDBRANCH   9  10
ENDBRANCH   6   9
TORSDOF 9
ENDMDL
MODEL      219
REMARK 921   NORMALIZED FREE ENERGY PREDICTED BY IDOCK:   -3.64 KCAL/MOL
REMARK 922        TOTAL FREE ENERGY PREDICTED BY IDOCK:   -7.99 KCAL/MOL
REMARK 923 INTER-LIGAND FREE ENERGY PREDICTED BY IDOCK:   -7.57 KCAL/MOL
REMARK 924 INTRA-LIGAND FREE ENERGY PREDICTED BY IDOCK:   -0.42 KCAL/MOL
REMARK 927      BINDING AFFINITY PREDICTED BY RF-SCORE:    0.00 PKD
ROOT
HETATM    1  N   UNL     1     -10.222   5.690  71.930  1.00  0.00    -0.189 NA 
HETATM    2  C   UNL     1      -9.934   4.715  71.052  1.00  0.00    -0.200 A  
HETATM    3  H1  UNL     1     -10.296   5.528  72.935  1.00  0.00     0.000 HD 
HETATM    4  H2  UNL     1     -10.373   6.634  71.577  1.00  0.00     0.000 HD 
HETATM    5  N   UNL     1      -9.840   4.923  69.763  1.00  0.00    -0.202 NA 
HETATM    6  C   UNL     1      -9.529   3.736  69.108  1.00  0.00    -0.172 A  
HETATM    7  S   UNL     1      -9.637   3.107  71.566  1.00  0.00    -0.159 SA 
HETATM    8  C   UNL     1      -9.378   2.642  69.938  1.00  0.00    -0.121 A  
ENDROOT
BRANCH   6   9
HETATM    9  C   UNL     1      -9.369   3.753  67.627  1.00  0.00    -0.240 C  
BRANCH   9  10
HETATM   10  C   UNL     1      -9.834   5.038  66.962  1.00  0.00    -0.185 C  
HETATM   11  N   UNL     1      -9.068   6.162  67.230  1.00  0.00    -0.115 N  
HETATM   12  O   UNL     1     -10.769   4.983  66.162  1.00  0.00    -0.315 OA 
HETATM   13  H   UNL     1      -8.311   6.057  67.905  1.00  0.00     0.000 HD 
BRANCH  11  14
HETATM   14  C   UNL     1      -9.241   7.437  66.653  1.00  0.00    -0.158 A  
HETATM   15  C   UNL     1     -10.154   8.372  67.140  1.00  0.00    -0.335 A  
HETATM   16  C   UNL     1     -10.374   9.576  66.468  1.00  0.00    -0.263 A  
HETATM   17  C   UNL     1      -9.673   9.878  65.298  1.00  0.00    -0.383 A  
HETATM   18  C   UNL     1      -8.485   7.764  65.522  1.00  0.00    -0.146 A  
HETATM   19  C   UNL     1      -8.709   8.969  64.841  1.00  0.00    -0.200 A  
BRANCH  17  20
HETATM   20  C   UNL     1      -9.991  11.137  64.518  1.00  0.00    -0.350 C  
BRANCH  20  21
HETATM   21  C   UNL     1     -10.063  12.421  65.363  1.00  0.00    -0.269 C  
BRANCH  21  22
HETATM   22  N   UNL     1     -10.863  13.446  64.698  1.00  0.00    -0.371 NA 
HETATM   23  H   UNL     1     -11.850  13.355  64.938  1.00  0.00     0.000 HD 
BRANCH  22  24
HETATM   24  C   UNL     1     -10.374  14.802  64.973  1.00  0.00    -0.389 C  
BRANCH  24  25
HETATM   25  C   UNL     1     -10.107  15.058  66.478  1.00  0.00    -0.276 C  
HETATM   26  O   UNL     1     -11.030  14.294  67.270  1.00  0.00    -0.286 OA 
HETATM   27  H   UNL     1     -10.866  14.451  68.192  1.00  0.00     0.000 HD 
BRANCH  25  28
HETATM   28  C   UNL     1     -10.132  16.512  66.915  1.00  0.00    -0.281 A  
HETATM   29  C   UNL     1      -9.888  16.851  68.255  1.00  0.00    -0.266 A  
HETATM   30  C   UNL     1      -9.981  18.179  68.682  1.00  0.00    -0.409 A  
HETATM   31  C   UNL     1     -10.313  19.184  67.776  1.00  0.00    -0.513 A  
HETATM   32  C   UNL     1     -10.534  18.867  66.439  1.00  0.00    -0.505 A  
HETATM   33  C   UNL     1     -10.444  17.541  66.012  1.00  0.00    -0.274 A  
ENDBRANCH  25  28
ENDBRANCH  24  25
ENDBRANCH  22  24
ENDBRANCH  21  22
ENDBRANCH  20  21
ENDBRANCH  17  20
ENDBRANCH  11  14
ENDBRANCH   9  10
ENDBRANCH   6   9
TORSDOF 9
ENDMDL
MODEL      220
REMARK 921   NORMALIZED FREE ENERGY PREDICTED BY IDOCK:   -3.59 KCAL/MOL
REMARK 922        TOTAL FREE ENERGY PREDICTED BY IDOCK:   -7.93 KCAL/MOL
REMARK 923 INTER-LIGAND FREE ENERGY PREDICTED BY IDOCK:   -6.65 KCAL/MOL
REMARK 924 INTRA-LIGAND FREE ENERGY PREDICTED BY IDOCK:   -1.28 KCAL/MOL
REMARK 927      BINDING AFFINITY PREDICTED BY RF-SCORE:    0.00 PKD
ROOT
HETATM    1  N   UNL     1      -8.948   5.530  64.105  1.00  0.00    -0.340 NA 
HETATM    2  C   UNL     1      -8.871   4.934  65.306  1.00  0.00    -0.152 A  
HETATM    3  H1  UNL     1      -9.155   5.021  63.245  1.00  0.00     0.000 HD 
HETATM    4  H2  UNL     1      -8.792   6.535  64.049  1.00  0.00     0.000 HD 
HETATM    5  N   UNL     1      -8.605   5.588  66.409  1.00  0.00    -0.118 NA 
HETATM    6  C   UNL     1      -8.596   4.715  67.492  1.00  0.00    -0.103 A  
HETATM    7  S   UNL     1      -9.150   3.253  65.491  1.00  0.00    -0.152 SA 
HETATM    8  C   UNL     1      -8.877   3.400  67.176  1.00  0.00    -0.135 A  
ENDROOT
BRANCH   6   9
HETATM    9  C   UNL     1      -8.317   5.260  68.851  1.00  0.00    -0.092 C  
BRANCH   9  10
HETATM   10  C   UNL     1      -8.393   6.774  68.946  1.00  0.00    -0.121 C  
HETATM   11  N   UNL     1      -7.246   7.456  68.570  1.00  0.00    -0.084 N  
HETATM   12  O   UNL     1      -9.472   7.293  69.237  1.00  0.00    -0.154 OA 
HETATM   13  H   UNL     1      -6.427   6.894  68.339  1.00  0.00     0.000 HD 
BRANCH  11  14
HETATM   14  C   UNL     1      -7.109   8.856  68.479  1.00  0.00    -0.072 A  
HETATM   15  C   UNL     1      -6.856   9.668  69.584  1.00  0.00    -0.067 A  
HETATM   16  C   UNL     1      -6.844  11.058  69.466  1.00  0.00    -0.133 A  
HETATM   17  C   UNL     1      -7.072  11.671  68.231  1.00  0.00    -0.078 A  
HETATM   18  C   UNL     1      -7.268   9.461  67.227  1.00  0.00    -0.087 A  
HETATM   19  C   UNL     1      -7.264  10.857  67.106  1.00  0.00    -0.104 A  
BRANCH  17  20
HETATM   20  C   UNL     1      -7.161  13.179  68.128  1.00  0.00    -0.109 C  
BRANCH  20  21
HETATM   21  C   UNL     1      -8.480  13.711  67.542  1.00  0.00    -0.189 C  
BRANCH  21  22
HETATM   22  N   UNL     1      -9.562  13.631  68.520  1.00  0.00    -0.325 NA 
HETATM   23  H   UNL     1     -10.265  14.351  68.351  1.00  0.00     0.000 HD 
BRANCH  22  24
HETATM   24  C   UNL     1     -10.172  12.297  68.572  1.00  0.00    -0.206 C  
BRANCH  24  25
HETATM   25  C   UNL     1     -11.565  12.239  67.893  1.00  0.00    -0.354 C  
HETATM   26  O   UNL     1     -12.258  11.054  68.313  1.00  0.00    -0.769 OA 
HETATM   27  H   UNL     1     -13.112  11.019  67.896  1.00  0.00     0.000 HD 
BRANCH  25  28
HETATM   28  C   UNL     1     -11.565  12.330  66.378  1.00  0.00    -0.445 A  
HETATM   29  C   UNL     1     -10.739  11.487  65.620  1.00  0.00    -0.323 A  
HETATM   30  C   UNL     1     -10.676  11.612  64.229  1.00  0.00    -0.398 A  
HETATM   31  C   UNL     1     -11.443  12.577  63.579  1.00  0.00    -0.570 A  
HETATM   32  C   UNL     1     -12.285  13.405  64.314  1.00  0.00    -0.450 A  
HETATM   33  C   UNL     1     -12.346  13.282  65.703  1.00  0.00    -0.521 A  
ENDBRANCH  25  28
ENDBRANCH  24  25
ENDBRANCH  22  24
ENDBRANCH  21  22
ENDBRANCH  20  21
ENDBRANCH  17  20
ENDBRANCH  11  14
ENDBRANCH   9  10
ENDBRANCH   6   9
TORSDOF 9
ENDMDL
MODEL      221
REMARK 921   NORMALIZED FREE ENERGY PREDICTED BY IDOCK:   -3.59 KCAL/MOL
REMARK 922        TOTAL FREE ENERGY PREDICTED BY IDOCK:   -7.93 KCAL/MOL
REMARK 923 INTER-LIGAND FREE ENERGY PREDICTED BY IDOCK:   -7.06 KCAL/MOL
REMARK 924 INTRA-LIGAND FREE ENERGY PREDICTED BY IDOCK:   -0.86 KCAL/MOL
REMARK 927      BINDING AFFINITY PREDICTED BY RF-SCORE:    0.00 PKD
ROOT
HETATM    1  N   UNL     1      -7.433   5.945  74.536  1.00  0.00    -0.094 NA 
HETATM    2  C   UNL     1      -8.549   5.974  73.789  1.00  0.00    -0.124 A  
HETATM    3  H1  UNL     1      -7.347   6.439  75.424  1.00  0.00     0.000 HD 
HETATM    4  H2  UNL     1      -6.636   5.407  74.199  1.00  0.00     0.000 HD 
HETATM    5  N   UNL     1      -8.659   5.341  72.648  1.00  0.00    -0.117 NA 
HETATM    6  C   UNL     1      -9.923   5.547  72.105  1.00  0.00    -0.178 A  
HETATM    7  S   UNL     1      -9.945   6.830  74.297  1.00  0.00    -0.267 SA 
HETATM    8  C   UNL     1     -10.759   6.334  72.874  1.00  0.00    -0.247 A  
ENDROOT
BRANCH   6   9
HETATM    9  C   UNL     1     -10.259   4.906  70.803  1.00  0.00    -0.276 C  
BRANCH   9  10
HETATM   10  C   UNL     1      -9.590   5.547  69.599  1.00  0.00    -0.158 C  
HETATM   11  N   UNL     1     -10.066   6.800  69.245  1.00  0.00    -0.163 N  
HETATM   12  O   UNL     1      -8.621   4.980  69.092  1.00  0.00    -0.091 OA 
HETATM   13  H   UNL     1     -10.870   7.154  69.764  1.00  0.00     0.000 HD 
BRANCH  11  14
HETATM   14  C   UNL     1      -9.540   7.629  68.234  1.00  0.00    -0.153 A  
HETATM   15  C   UNL     1      -8.418   8.435  68.421  1.00  0.00    -0.135 A  
HETATM   16  C   UNL     1      -8.002   9.326  67.431  1.00  0.00    -0.106 A  
HETATM   17  C   UNL     1      -8.694   9.422  66.221  1.00  0.00    -0.157 A  
HETATM   18  C   UNL     1     -10.196   7.670  66.998  1.00  0.00    -0.371 A  
HETATM   19  C   UNL     1      -9.785   8.569  66.005  1.00  0.00    -0.195 A  
BRANCH  17  20
HETATM   20  C   UNL     1      -8.301  10.463  65.193  1.00  0.00    -0.165 C  
BRANCH  20  21
HETATM   21  C   UNL     1      -9.473  11.053  64.389  1.00  0.00    -0.238 C  
BRANCH  21  22
HETATM   22  N   UNL     1      -9.884  12.347  64.926  1.00  0.00    -0.460 NA 
HETATM   23  H   UNL     1     -10.004  13.033  64.180  1.00  0.00     0.000 HD 
BRANCH  22  24
HETATM   24  C   UNL     1     -11.090  12.251  65.757  1.00  0.00    -0.323 C  
BRANCH  24  25
HETATM   25  C   UNL     1     -11.984  13.515  65.677  1.00  0.00    -0.397 C  
HETATM   26  O   UNL     1     -12.361  13.755  64.313  1.00  0.00    -0.572 OA 
HETATM   27  H   UNL     1     -12.909  14.530  64.265  1.00  0.00     0.000 HD 
BRANCH  25  28
HETATM   28  C   UNL     1     -11.398  14.777  66.282  1.00  0.00    -0.334 A  
HETATM   29  C   UNL     1     -11.590  15.064  67.642  1.00  0.00    -0.327 A  
HETATM   30  C   UNL     1     -11.117  16.260  68.192  1.00  0.00    -0.329 A  
HETATM   31  C   UNL     1     -10.443  17.180  67.391  1.00  0.00    -0.334 A  
HETATM   32  C   UNL     1     -10.224  16.899  66.046  1.00  0.00    -0.350 A  
HETATM   33  C   UNL     1     -10.698  15.707  65.496  1.00  0.00    -0.403 A  
ENDBRANCH  25  28
ENDBRANCH  24  25
ENDBRANCH  22  24
ENDBRANCH  21  22
ENDBRANCH  20  21
ENDBRANCH  17  20
ENDBRANCH  11  14
ENDBRANCH   9  10
ENDBRANCH   6   9
TORSDOF 9
ENDMDL
MODEL      222
REMARK 921   NORMALIZED FREE ENERGY PREDICTED BY IDOCK:   -3.58 KCAL/MOL
REMARK 922        TOTAL FREE ENERGY PREDICTED BY IDOCK:   -7.92 KCAL/MOL
REMARK 923 INTER-LIGAND FREE ENERGY PREDICTED BY IDOCK:   -7.13 KCAL/MOL
REMARK 924 INTRA-LIGAND FREE ENERGY PREDICTED BY IDOCK:   -0.79 KCAL/MOL
REMARK 927      BINDING AFFINITY PREDICTED BY RF-SCORE:    0.00 PKD
ROOT
HETATM    1  N   UNL     1      -9.890  15.892  65.887  1.00  0.00    -0.328 NA 
HETATM    2  C   UNL     1     -10.515  14.978  65.127  1.00  0.00    -0.412 A  
HETATM    3  H1  UNL     1     -10.267  16.825  66.056  1.00  0.00     0.000 HD 
HETATM    4  H2  UNL     1      -9.000  15.642  66.316  1.00  0.00     0.000 HD 
HETATM    5  N   UNL     1     -10.033  13.781  64.911  1.00  0.00    -0.240 NA 
HETATM    6  C   UNL     1     -10.895  13.057  64.094  1.00  0.00    -0.405 A  
HETATM    7  S   UNL     1     -12.031  15.308  64.395  1.00  0.00    -0.137 SA 
HETATM    8  C   UNL     1     -12.039  13.735  63.719  1.00  0.00    -0.336 A  
ENDROOT
BRANCH   6   9
HETATM    9  C   UNL     1     -10.534  11.659  63.728  1.00  0.00    -0.454 C  
BRANCH   9  10
HETATM   10  C   UNL     1     -10.252  10.754  64.915  1.00  0.00    -0.320 C  
HETATM   11  N   UNL     1     -10.682  11.228  66.146  1.00  0.00    -0.266 N  
HETATM   12  O   UNL     1      -9.773   9.638  64.706  1.00  0.00    -0.237 OA 
HETATM   13  H   UNL     1     -11.076  12.169  66.168  1.00  0.00     0.000 HD 
BRANCH  11  14
HETATM   14  C   UNL     1     -10.623  10.528  67.368  1.00  0.00    -0.263 A  
HETATM   15  C   UNL     1     -10.171   9.213  67.468  1.00  0.00    -0.304 A  
HETATM   16  C   UNL     1     -10.240   8.522  68.679  1.00  0.00    -0.217 A  
HETATM   17  C   UNL     1     -10.752   9.138  69.824  1.00  0.00    -0.239 A  
HETATM   18  C   UNL     1     -11.071  11.173  68.526  1.00  0.00    -0.298 A  
HETATM   19  C   UNL     1     -11.149  10.479  69.742  1.00  0.00    -0.354 A  
BRANCH  17  20
HETATM   20  C   UNL     1     -10.921   8.350  71.107  1.00  0.00    -0.292 C  
BRANCH  20  21
HETATM   21  C   UNL     1     -12.082   7.341  71.098  1.00  0.00    -0.340 C  
BRANCH  21  22
HETATM   22  N   UNL     1     -11.634   6.017  71.524  1.00  0.00    -0.234 NA 
HETATM   23  H   UNL     1     -10.878   5.677  70.930  1.00  0.00     0.000 HD 
BRANCH  22  24
HETATM   24  C   UNL     1     -11.250   5.985  72.941  1.00  0.00    -0.230 C  
BRANCH  24  25
HETATM   25  C   UNL     1      -9.859   5.342  73.178  1.00  0.00    -0.162 C  
HETATM   26  O   UNL     1      -9.911   4.494  74.336  1.00  0.00    -0.152 OA 
HETATM   27  H   UNL     1      -9.059   4.100  74.481  1.00  0.00     0.000 HD 
BRANCH  25  28
HETATM   28  C   UNL     1      -8.696   6.310  73.298  1.00  0.00    -0.125 A  
HETATM   29  C   UNL     1      -7.598   6.206  72.431  1.00  0.00    -0.099 A  
HETATM   30  C   UNL     1      -6.490   7.045  72.581  1.00  0.00    -0.053 A  
HETATM   31  C   UNL     1      -6.467   8.000  73.595  1.00  0.00    -0.110 A  
HETATM   32  C   UNL     1      -7.559   8.132  74.448  1.00  0.00    -0.268 A  
HETATM   33  C   UNL     1      -8.665   7.293  74.301  1.00  0.00    -0.250 A  
ENDBRANCH  25  28
ENDBRANCH  24  25
ENDBRANCH  22  24
ENDBRANCH  21  22
ENDBRANCH  20  21
ENDBRANCH  17  20
ENDBRANCH  11  14
ENDBRANCH   9  10
ENDBRANCH   6   9
TORSDOF 9
ENDMDL
MODEL      223
REMARK 921   NORMALIZED FREE ENERGY PREDICTED BY IDOCK:   -3.58 KCAL/MOL
REMARK 922        TOTAL FREE ENERGY PREDICTED BY IDOCK:   -7.90 KCAL/MOL
REMARK 923 INTER-LIGAND FREE ENERGY PREDICTED BY IDOCK:   -7.45 KCAL/MOL
REMARK 924 INTRA-LIGAND FREE ENERGY PREDICTED BY IDOCK:   -0.45 KCAL/MOL
REMARK 927      BINDING AFFINITY PREDICTED BY RF-SCORE:    0.00 PKD
ROOT
HETATM    1  N   UNL     1      -6.982  17.291  68.561  1.00  0.00    -0.199 NA 
HETATM    2  C   UNL     1      -8.269  17.421  68.197  1.00  0.00    -0.238 A  
HETATM    3  H1  UNL     1      -6.356  18.088  68.679  1.00  0.00     0.000 HD 
HETATM    4  H2  UNL     1      -6.615  16.355  68.727  1.00  0.00     0.000 HD 
HETATM    5  N   UNL     1      -9.072  16.399  68.045  1.00  0.00    -0.198 NA 
HETATM    6  C   UNL     1     -10.339  16.836  67.671  1.00  0.00    -0.309 A  
HETATM    7  S   UNL     1      -8.972  18.961  67.928  1.00  0.00    -0.305 SA 
HETATM    8  C   UNL     1     -10.466  18.208  67.562  1.00  0.00    -0.410 A  
ENDROOT
BRANCH   6   9
HETATM    9  C   UNL     1     -11.412  15.827  67.451  1.00  0.00    -0.019 C  
BRANCH   9  10
HETATM   10  C   UNL     1     -11.781  15.026  68.688  1.00  0.00    -0.337 C  
HETATM   11  N   UNL     1     -11.973  13.668  68.487  1.00  0.00    -0.369 N  
HETATM   12  O   UNL     1     -11.781  15.595  69.780  1.00  0.00    -0.314 OA 
HETATM   13  H   UNL     1     -11.930  13.330  67.526  1.00  0.00     0.000 HD 
BRANCH  11  14
HETATM   14  C   UNL     1     -12.223  12.710  69.492  1.00  0.00    -0.090 A  
HETATM   15  C   UNL     1     -12.649  13.051  70.775  1.00  0.00    -0.321 A  
HETATM   16  C   UNL     1     -12.771  12.081  71.771  1.00  0.00    -0.273 A  
HETATM   17  C   UNL     1     -12.482  10.741  71.501  1.00  0.00    -0.447 A  
HETATM   18  C   UNL     1     -11.999  11.361  69.196  1.00  0.00    -0.395 A  
HETATM   19  C   UNL     1     -12.114  10.386  70.196  1.00  0.00    -0.334 A  
BRANCH  17  20
HETATM   20  C   UNL     1     -12.516   9.711  72.611  1.00  0.00     0.307 C  
BRANCH  20  21
HETATM   21  C   UNL     1     -12.600   8.250  72.135  1.00  0.00    -0.337 C  
BRANCH  21  22
HETATM   22  N   UNL     1     -11.737   7.384  72.935  1.00  0.00    -0.582 NA 
HETATM   23  H   UNL     1     -12.130   7.230  73.863  1.00  0.00     0.000 HD 
BRANCH  22  24
HETATM   24  C   UNL     1     -11.448   6.110  72.265  1.00  0.00    -0.312 C  
BRANCH  24  25
HETATM   25  C   UNL     1     -10.159   6.156  71.405  1.00  0.00    -0.194 C  
HETATM   26  O   UNL     1      -9.512   7.428  71.570  1.00  0.00    -0.152 OA 
HETATM   27  H   UNL     1      -8.722   7.456  71.043  1.00  0.00     0.000 HD 
BRANCH  25  28
HETATM   28  C   UNL     1     -10.340   5.856  69.928  1.00  0.00    -0.307 A  
HETATM   29  C   UNL     1      -9.756   4.713  69.362  1.00  0.00    -0.272 A  
HETATM   30  C   UNL     1      -9.854   4.467  67.990  1.00  0.00    -0.135 A  
HETATM   31  C   UNL     1     -10.542   5.357  67.167  1.00  0.00    -0.274 A  
HETATM   32  C   UNL     1     -11.146   6.483  67.716  1.00  0.00    -0.366 A  
HETATM   33  C   UNL     1     -11.046   6.731  69.086  1.00  0.00    -0.270 A  
ENDBRANCH  25  28
ENDBRANCH  24  25
ENDBRANCH  22  24
ENDBRANCH  21  22
ENDBRANCH  20  21
ENDBRANCH  17  20
ENDBRANCH  11  14
ENDBRANCH   9  10
ENDBRANCH   6   9
TORSDOF 9
ENDMDL
MODEL      224
REMARK 921   NORMALIZED FREE ENERGY PREDICTED BY IDOCK:   -3.55 KCAL/MOL
REMARK 922        TOTAL FREE ENERGY PREDICTED BY IDOCK:   -7.86 KCAL/MOL
REMARK 923 INTER-LIGAND FREE ENERGY PREDICTED BY IDOCK:   -7.37 KCAL/MOL
REMARK 924 INTRA-LIGAND FREE ENERGY PREDICTED BY IDOCK:   -0.49 KCAL/MOL
REMARK 927      BINDING AFFINITY PREDICTED BY RF-SCORE:    0.00 PKD
ROOT
HETATM    1  N   UNL     1      -9.982   3.591  65.276  1.00  0.00    -0.382 NA 
HETATM    2  C   UNL     1      -9.545   4.343  66.300  1.00  0.00    -0.194 A  
HETATM    3  H1  UNL     1      -9.486   3.521  64.388  1.00  0.00     0.000 HD 
HETATM    4  H2  UNL     1     -10.849   3.068  65.392  1.00  0.00     0.000 HD 
HETATM    5  N   UNL     1     -10.182   4.433  67.440  1.00  0.00    -0.020 NA 
HETATM    6  C   UNL     1      -9.494   5.275  68.308  1.00  0.00    -0.124 A  
HETATM    7  S   UNL     1      -8.081   5.230  66.198  1.00  0.00    -0.110 SA 
HETATM    8  C   UNL     1      -8.322   5.797  67.796  1.00  0.00    -0.104 A  
ENDROOT
BRANCH   6   9
HETATM    9  C   UNL     1     -10.050   5.511  69.670  1.00  0.00    -0.309 C  
BRANCH   9  10
HETATM   10  C   UNL     1     -10.135   6.975  70.066  1.00  0.00    -0.187 C  
HETATM   11  N   UNL     1     -10.506   7.849  69.055  1.00  0.00    -0.246 N  
HETATM   12  O   UNL     1      -9.982   7.276  71.251  1.00  0.00    -0.188 OA 
HETATM   13  H   UNL     1     -10.613   7.456  68.119  1.00  0.00     0.000 HD 
BRANCH  11  14
HETATM   14  C   UNL     1     -10.748   9.230  69.202  1.00  0.00    -0.183 A  
HETATM   15  C   UNL     1     -11.801   9.738  69.961  1.00  0.00    -0.067 A  
HETATM   16  C   UNL     1     -12.073  11.107  69.985  1.00  0.00    -0.437 A  
HETATM   17  C   UNL     1     -11.285  12.003  69.257  1.00  0.00    -0.291 A  
HETATM   18  C   UNL     1      -9.913  10.128  68.529  1.00  0.00    -0.177 A  
HETATM   19  C   UNL     1     -10.188  11.502  68.544  1.00  0.00    -0.219 A  
BRANCH  17  20
HETATM   20  C   UNL     1     -11.647  13.473  69.204  1.00  0.00    -0.359 C  
BRANCH  20  21
HETATM   21  C   UNL     1     -11.845  14.039  67.787  1.00  0.00    -0.384 C  
BRANCH  21  22
HETATM   22  N   UNL     1     -10.828  15.037  67.470  1.00  0.00    -0.289 NA 
HETATM   23  H   UNL     1     -11.254  15.919  67.184  1.00  0.00     0.000 HD 
BRANCH  22  24
HETATM   24  C   UNL     1      -9.881  15.241  68.573  1.00  0.00    -0.210 C  
BRANCH  24  25
HETATM   25  C   UNL     1     -10.017  16.633  69.240  1.00  0.00    -0.222 C  
HETATM   26  O   UNL     1     -11.300  16.741  69.877  1.00  0.00    -0.336 OA 
HETATM   27  H   UNL     1     -11.382  17.595  70.286  1.00  0.00     0.000 HD 
BRANCH  25  28
HETATM   28  C   UNL     1      -9.789  17.827  68.330  1.00  0.00    -0.340 A  
HETATM   29  C   UNL     1      -8.485  18.252  68.036  1.00  0.00    -0.273 A  
HETATM   30  C   UNL     1      -8.266  19.394  67.259  1.00  0.00    -0.311 A  
HETATM   31  C   UNL     1      -9.347  20.120  66.762  1.00  0.00    -0.513 A  
HETATM   32  C   UNL     1     -10.646  19.697  67.025  1.00  0.00    -0.602 A  
HETATM   33  C   UNL     1     -10.866  18.559  67.803  1.00  0.00    -0.289 A  
ENDBRANCH  25  28
ENDBRANCH  24  25
ENDBRANCH  22  24
ENDBRANCH  21  22
ENDBRANCH  20  21
ENDBRANCH  17  20
ENDBRANCH  11  14
ENDBRANCH   9  10
ENDBRANCH   6   9
TORSDOF 9
ENDMDL
MODEL      225
REMARK 921   NORMALIZED FREE ENERGY PREDICTED BY IDOCK:   -3.52 KCAL/MOL
REMARK 922        TOTAL FREE ENERGY PREDICTED BY IDOCK:   -7.82 KCAL/MOL
REMARK 923 INTER-LIGAND FREE ENERGY PREDICTED BY IDOCK:   -6.72 KCAL/MOL
REMARK 924 INTRA-LIGAND FREE ENERGY PREDICTED BY IDOCK:   -1.09 KCAL/MOL
REMARK 927      BINDING AFFINITY PREDICTED BY RF-SCORE:    0.00 PKD
ROOT
HETATM    1  N   UNL     1      -9.623  20.571  66.970  1.00  0.00    -0.586 NA 
HETATM    2  C   UNL     1      -9.543  19.326  67.469  1.00  0.00    -0.313 A  
HETATM    3  H1  UNL     1      -8.856  21.241  67.024  1.00  0.00     0.000 HD 
HETATM    4  H2  UNL     1     -10.490  20.859  66.517  1.00  0.00     0.000 HD 
HETATM    5  N   UNL     1     -10.527  18.466  67.399  1.00  0.00    -0.401 NA 
HETATM    6  C   UNL     1     -10.156  17.264  67.992  1.00  0.00    -0.324 A  
HETATM    7  S   UNL     1      -8.111  18.754  68.219  1.00  0.00    -0.334 SA 
HETATM    8  C   UNL     1      -8.867  17.241  68.491  1.00  0.00    -0.269 A  
ENDROOT
BRANCH   6   9
HETATM    9  C   UNL     1     -11.135  16.142  68.015  1.00  0.00    -0.317 C  
BRANCH   9  10
HETATM   10  C   UNL     1     -10.618  14.847  67.412  1.00  0.00    -0.263 C  
HETATM   11  N   UNL     1     -10.505  13.780  68.291  1.00  0.00    -0.241 N  
HETATM   12  O   UNL     1     -10.441  14.792  66.195  1.00  0.00    -0.285 OA 
HETATM   13  H   UNL     1     -10.698  13.967  69.275  1.00  0.00     0.000 HD 
BRANCH  11  14
HETATM   14  C   UNL     1     -10.146  12.460  67.948  1.00  0.00    -0.208 A  
HETATM   15  C   UNL     1      -8.821  12.047  67.804  1.00  0.00    -0.165 A  
HETATM   16  C   UNL     1      -8.516  10.763  67.350  1.00  0.00    -0.119 A  
HETATM   17  C   UNL     1      -9.533   9.855  67.042  1.00  0.00    -0.196 A  
HETATM   18  C   UNL     1     -11.166  11.534  67.709  1.00  0.00    -0.343 A  
HETATM   19  C   UNL     1     -10.863  10.246  67.245  1.00  0.00    -0.312 A  
BRANCH  17  20
HETATM   20  C   UNL     1      -9.197   8.501  66.452  1.00  0.00    -0.251 C  
BRANCH  20  21
HETATM   21  C   UNL     1      -7.694   8.183  66.377  1.00  0.00    -0.092 C  
BRANCH  21  22
HETATM   22  N   UNL     1      -7.290   7.285  67.456  1.00  0.00    -0.090 NA 
HETATM   23  H   UNL     1      -7.743   7.538  68.334  1.00  0.00     0.000 HD 
BRANCH  22  24
HETATM   24  C   UNL     1      -7.525   5.874  67.127  1.00  0.00    -0.084 C  
BRANCH  24  25
HETATM   25  C   UNL     1      -7.715   4.982  68.381  1.00  0.00    -0.079 C  
HETATM   26  O   UNL     1      -7.975   3.629  67.976  1.00  0.00    -0.075 OA 
HETATM   27  H   UNL     1      -8.091   3.082  68.745  1.00  0.00     0.000 HD 
BRANCH  25  28
HETATM   28  C   UNL     1      -8.777   5.441  69.363  1.00  0.00    -0.110 A  
HETATM   29  C   UNL     1     -10.044   5.829  68.903  1.00  0.00    -0.242 A  
HETATM   30  C   UNL     1     -11.004   6.323  69.791  1.00  0.00    -0.444 A  
HETATM   31  C   UNL     1     -10.712   6.431  71.149  1.00  0.00    -0.293 A  
HETATM   32  C   UNL     1      -9.467   6.029  71.624  1.00  0.00    -0.163 A  
HETATM   33  C   UNL     1      -8.507   5.537  70.738  1.00  0.00    -0.122 A  
ENDBRANCH  25  28
ENDBRANCH  24  25
ENDBRANCH  22  24
ENDBRANCH  21  22
ENDBRANCH  20  21
ENDBRANCH  17  20
ENDBRANCH  11  14
ENDBRANCH   9  10
ENDBRANCH   6   9
TORSDOF 9
ENDMDL
MODEL      226
REMARK 921   NORMALIZED FREE ENERGY PREDICTED BY IDOCK:   -3.51 KCAL/MOL
REMARK 922        TOTAL FREE ENERGY PREDICTED BY IDOCK:   -7.80 KCAL/MOL
REMARK 923 INTER-LIGAND FREE ENERGY PREDICTED BY IDOCK:   -6.80 KCAL/MOL
REMARK 924 INTRA-LIGAND FREE ENERGY PREDICTED BY IDOCK:   -1.00 KCAL/MOL
REMARK 927      BINDING AFFINITY PREDICTED BY RF-SCORE:    0.00 PKD
ROOT
HETATM    1  N   UNL     1      -9.956   4.992  68.054  1.00  0.00    -0.148 NA 
HETATM    2  C   UNL     1      -8.965   5.526  67.321  1.00  0.00    -0.111 A  
HETATM    3  H1  UNL     1      -9.791   4.327  68.810  1.00  0.00     0.000 HD 
HETATM    4  H2  UNL     1     -10.916   5.263  67.845  1.00  0.00     0.000 HD 
HETATM    5  N   UNL     1      -9.177   6.379  66.351  1.00  0.00    -0.157 NA 
HETATM    6  C   UNL     1      -7.969   6.762  65.777  1.00  0.00    -0.112 A  
HETATM    7  S   UNL     1      -7.322   5.145  67.626  1.00  0.00    -0.076 SA 
HETATM    8  C   UNL     1      -6.851   6.188  66.351  1.00  0.00    -0.062 A  
ENDROOT
BRANCH   6   9
HETATM    9  C   UNL     1      -7.985   7.738  64.652  1.00  0.00    -0.136 C  
BRANCH   9  10
HETATM   10  C   UNL     1      -8.778   9.003  64.932  1.00  0.00    -0.166 C  
HETATM   11  N   UNL     1      -8.770   9.436  66.250  1.00  0.00    -0.137 N  
HETATM   12  O   UNL     1      -9.273   9.611  63.983  1.00  0.00    -0.250 OA 
HETATM   13  H   UNL     1      -8.305   8.836  66.932  1.00  0.00     0.000 HD 
BRANCH  11  14
HETATM   14  C   UNL     1      -9.344  10.629  66.732  1.00  0.00    -0.157 A  
HETATM   15  C   UNL     1      -8.590  11.752  67.071  1.00  0.00    -0.173 A  
HETATM   16  C   UNL     1      -9.189  12.869  67.653  1.00  0.00    -0.193 A  
HETATM   17  C   UNL     1     -10.564  12.895  67.898  1.00  0.00    -0.232 A  
HETATM   18  C   UNL     1     -10.731  10.676  66.910  1.00  0.00    -0.297 A  
HETATM   19  C   UNL     1     -11.335  11.794  67.502  1.00  0.00    -0.377 A  
BRANCH  17  20
HETATM   20  C   UNL     1     -11.192  14.067  68.625  1.00  0.00    -0.294 C  
BRANCH  20  21
HETATM   21  C   UNL     1     -11.283  15.364  67.802  1.00  0.00    -0.321 C  
BRANCH  21  22
HETATM   22  N   UNL     1     -11.221  15.086  66.370  1.00  0.00    -0.335 NA 
HETATM   23  H   UNL     1     -12.154  15.062  65.959  1.00  0.00     0.000 HD 
BRANCH  22  24
HETATM   24  C   UNL     1     -10.352  16.029  65.655  1.00  0.00    -0.392 C  
BRANCH  24  25
HETATM   25  C   UNL     1     -10.357  17.449  66.275  1.00  0.00    -0.330 C  
HETATM   26  O   UNL     1     -10.869  18.392  65.319  1.00  0.00    -0.624 OA 
HETATM   27  H   UNL     1     -10.872  19.262  65.700  1.00  0.00     0.000 HD 
BRANCH  25  28
HETATM   28  C   UNL     1      -9.026  17.937  66.819  1.00  0.00    -0.272 A  
HETATM   29  C   UNL     1      -7.823  17.456  66.280  1.00  0.00    -0.330 A  
HETATM   30  C   UNL     1      -6.595  17.842  66.824  1.00  0.00    -0.216 A  
HETATM   31  C   UNL     1      -6.552  18.717  67.908  1.00  0.00    -0.219 A  
HETATM   32  C   UNL     1      -7.736  19.221  68.438  1.00  0.00    -0.362 A  
HETATM   33  C   UNL     1      -8.964  18.834  67.898  1.00  0.00    -0.320 A  
ENDBRANCH  25  28
ENDBRANCH  24  25
ENDBRANCH  22  24
ENDBRANCH  21  22
ENDBRANCH  20  21
ENDBRANCH  17  20
ENDBRANCH  11  14
ENDBRANCH   9  10
ENDBRANCH   6   9
TORSDOF 9
ENDMDL
MODEL      227
REMARK 921   NORMALIZED FREE ENERGY PREDICTED BY IDOCK:   -3.50 KCAL/MOL
REMARK 922        TOTAL FREE ENERGY PREDICTED BY IDOCK:   -7.79 KCAL/MOL
REMARK 923 INTER-LIGAND FREE ENERGY PREDICTED BY IDOCK:   -7.37 KCAL/MOL
REMARK 924 INTRA-LIGAND FREE ENERGY PREDICTED BY IDOCK:   -0.42 KCAL/MOL
REMARK 927      BINDING AFFINITY PREDICTED BY RF-SCORE:    0.00 PKD
ROOT
HETATM    1  N   UNL     1      -6.442  16.991  66.811  1.00  0.00    -0.207 NA 
HETATM    2  C   UNL     1      -7.781  17.085  66.763  1.00  0.00    -0.239 A  
HETATM    3  H1  UNL     1      -5.865  17.580  67.412  1.00  0.00     0.000 HD 
HETATM    4  H2  UNL     1      -5.981  16.300  66.221  1.00  0.00     0.000 HD 
HETATM    5  N   UNL     1      -8.521  16.328  65.992  1.00  0.00    -0.332 NA 
HETATM    6  C   UNL     1      -9.865  16.646  66.157  1.00  0.00    -0.318 A  
HETATM    7  S   UNL     1      -8.635  18.199  67.747  1.00  0.00    -0.259 SA 
HETATM    8  C   UNL     1     -10.112  17.645  67.080  1.00  0.00    -0.330 A  
ENDROOT
BRANCH   6   9
HETATM    9  C   UNL     1     -10.882  15.894  65.371  1.00  0.00    -0.361 C  
BRANCH   9  10
HETATM   10  C   UNL     1     -11.383  14.628  66.044  1.00  0.00    -0.344 C  
HETATM   11  N   UNL     1     -11.141  14.537  67.406  1.00  0.00    -0.303 N  
HETATM   12  O   UNL     1     -12.050  13.832  65.381  1.00  0.00    -0.362 OA 
HETATM   13  H   UNL     1     -10.585  15.280  67.829  1.00  0.00     0.000 HD 
BRANCH  11  14
HETATM   14  C   UNL     1     -11.595  13.512  68.261  1.00  0.00    -0.346 A  
HETATM   15  C   UNL     1     -12.035  13.748  69.563  1.00  0.00    -0.399 A  
HETATM   16  C   UNL     1     -12.365  12.690  70.411  1.00  0.00    -0.315 A  
HETATM   17  C   UNL     1     -12.275  11.367  69.970  1.00  0.00    -0.377 A  
HETATM   18  C   UNL     1     -11.570  12.194  67.791  1.00  0.00    -0.410 A  
HETATM   19  C   UNL     1     -11.894  11.129  68.643  1.00  0.00    -0.357 A  
BRANCH  17  20
HETATM   20  C   UNL     1     -12.534  10.221  70.926  1.00  0.00    -0.466 C  
BRANCH  20  21
HETATM   21  C   UNL     1     -11.292   9.391  71.292  1.00  0.00    -0.366 C  
BRANCH  21  22
HETATM   22  N   UNL     1     -11.142   8.244  70.402  1.00  0.00    -0.258 NA 
HETATM   23  H   UNL     1     -11.765   8.319  69.597  1.00  0.00     0.000 HD 
BRANCH  22  24
HETATM   24  C   UNL     1      -9.752   8.042  69.978  1.00  0.00    -0.173 C  
BRANCH  24  25
HETATM   25  C   UNL     1      -8.723   8.379  71.088  1.00  0.00    -0.159 C  
HETATM   26  O   UNL     1      -7.607   9.079  70.516  1.00  0.00    -0.082 OA 
HETATM   27  H   UNL     1      -6.977   9.285  71.197  1.00  0.00     0.000 HD 
BRANCH  25  28
HETATM   28  C   UNL     1      -8.230   7.202  71.909  1.00  0.00    -0.104 A  
HETATM   29  C   UNL     1      -7.918   5.985  71.285  1.00  0.00    -0.113 A  
HETATM   30  C   UNL     1      -7.534   4.874  72.041  1.00  0.00    -0.083 A  
HETATM   31  C   UNL     1      -7.451   4.966  73.429  1.00  0.00    -0.088 A  
HETATM   32  C   UNL     1      -7.733   6.173  74.061  1.00  0.00    -0.089 A  
HETATM   33  C   UNL     1      -8.120   7.283  73.307  1.00  0.00    -0.132 A  
ENDBRANCH  25  28
ENDBRANCH  24  25
ENDBRANCH  22  24
ENDBRANCH  21  22
ENDBRANCH  20  21
ENDBRANCH  17  20
ENDBRANCH  11  14
ENDBRANCH   9  10
ENDBRANCH   6   9
TORSDOF 9
ENDMDL
MODEL      228
REMARK 921   NORMALIZED FREE ENERGY PREDICTED BY IDOCK:   -3.50 KCAL/MOL
REMARK 922        TOTAL FREE ENERGY PREDICTED BY IDOCK:   -7.78 KCAL/MOL
REMARK 923 INTER-LIGAND FREE ENERGY PREDICTED BY IDOCK:   -7.64 KCAL/MOL
REMARK 924 INTRA-LIGAND FREE ENERGY PREDICTED BY IDOCK:   -0.14 KCAL/MOL
REMARK 927      BINDING AFFINITY PREDICTED BY RF-SCORE:    0.00 PKD
ROOT
HETATM    1  N   UNL     1      -8.815   6.166  72.550  1.00  0.00    -0.125 NA 
HETATM    2  C   UNL     1      -8.728   6.148  71.210  1.00  0.00    -0.132 A  
HETATM    3  H1  UNL     1      -8.241   5.575  73.152  1.00  0.00     0.000 HD 
HETATM    4  H2  UNL     1      -9.483   6.800  72.986  1.00  0.00     0.000 HD 
HETATM    5  N   UNL     1      -9.464   6.907  70.438  1.00  0.00    -0.169 NA 
HETATM    6  C   UNL     1      -9.154   6.676  69.102  1.00  0.00    -0.137 A  
HETATM    7  S   UNL     1      -7.609   5.133  70.400  1.00  0.00    -0.072 SA 
HETATM    8  C   UNL     1      -8.160   5.739  68.895  1.00  0.00    -0.102 A  
ENDROOT
BRANCH   6   9
HETATM    9  C   UNL     1      -9.878   7.446  68.053  1.00  0.00    -0.172 C  
BRANCH   9  10
HETATM   10  C   UNL     1     -10.169   8.890  68.425  1.00  0.00    -0.199 C  
HETATM   11  N   UNL     1     -11.380   9.112  69.064  1.00  0.00    -0.360 N  
HETATM   12  O   UNL     1      -9.292   9.735  68.242  1.00  0.00    -0.129 OA 
HETATM   13  H   UNL     1     -12.006   8.313  69.162  1.00  0.00     0.000 HD 
BRANCH  11  14
HETATM   14  C   UNL     1     -11.824  10.342  69.592  1.00  0.00    -0.111 A  
HETATM   15  C   UNL     1     -11.660  11.556  68.925  1.00  0.00    -0.384 A  
HETATM   16  C   UNL     1     -12.010  12.761  69.536  1.00  0.00    -0.338 A  
HETATM   17  C   UNL     1     -12.545  12.778  70.826  1.00  0.00    -0.308 A  
HETATM   18  C   UNL     1     -12.424  10.346  70.855  1.00  0.00    -0.478 A  
HETATM   19  C   UNL     1     -12.769  11.556  71.474  1.00  0.00    -0.439 A  
BRANCH  17  20
HETATM   20  C   UNL     1     -12.825  14.094  71.523  1.00  0.00    -0.430 C  
BRANCH  20  21
HETATM   21  C   UNL     1     -11.734  15.164  71.346  1.00  0.00    -0.374 C  
BRANCH  21  22
HETATM   22  N   UNL     1     -11.730  15.695  69.985  1.00  0.00    -0.332 NA 
HETATM   23  H   UNL     1     -12.249  16.571  69.931  1.00  0.00     0.000 HD 
BRANCH  22  24
HETATM   24  C   UNL     1     -10.372  15.851  69.449  1.00  0.00    -0.265 C  
BRANCH  24  25
HETATM   25  C   UNL     1     -10.338  16.598  68.091  1.00  0.00    -0.303 C  
HETATM   26  O   UNL     1     -11.088  17.819  68.193  1.00  0.00    -0.173 OA 
HETATM   27  H   UNL     1     -11.067  18.277  67.361  1.00  0.00     0.000 HD 
BRANCH  25  28
HETATM   28  C   UNL     1     -10.807  15.802  66.887  1.00  0.00    -0.265 A  
HETATM   29  C   UNL     1     -10.766  16.371  65.605  1.00  0.00    -0.280 A  
HETATM   30  C   UNL     1     -11.264  15.674  64.500  1.00  0.00    -0.337 A  
HETATM   31  C   UNL     1     -11.803  14.399  64.662  1.00  0.00    -0.460 A  
HETATM   32  C   UNL     1     -11.829  13.812  65.923  1.00  0.00    -0.405 A  
HETATM   33  C   UNL     1     -11.334  14.508  67.027  1.00  0.00    -0.359 A  
ENDBRANCH  25  28
ENDBRANCH  24  25
ENDBRANCH  22  24
ENDBRANCH  21  22
ENDBRANCH  20  21
ENDBRANCH  17  20
ENDBRANCH  11  14
ENDBRANCH   9  10
ENDBRANCH   6   9
TORSDOF 9
ENDMDL
MODEL      229
REMARK 921   NORMALIZED FREE ENERGY PREDICTED BY IDOCK:   -3.49 KCAL/MOL
REMARK 922        TOTAL FREE ENERGY PREDICTED BY IDOCK:   -7.77 KCAL/MOL
REMARK 923 INTER-LIGAND FREE ENERGY PREDICTED BY IDOCK:   -5.83 KCAL/MOL
REMARK 924 INTRA-LIGAND FREE ENERGY PREDICTED BY IDOCK:   -1.94 KCAL/MOL
REMARK 927      BINDING AFFINITY PREDICTED BY RF-SCORE:    0.00 PKD
ROOT
HETATM    1  N   UNL     1     -12.298  14.007  68.982  1.00  0.00    -0.501 NA 
HETATM    2  C   UNL     1     -11.441  13.585  68.038  1.00  0.00    -0.307 A  
HETATM    3  H1  UNL     1     -13.290  14.165  68.801  1.00  0.00     0.000 HD 
HETATM    4  H2  UNL     1     -11.942  14.176  69.922  1.00  0.00     0.000 HD 
HETATM    5  N   UNL     1     -10.169  13.382  68.270  1.00  0.00    -0.245 NA 
HETATM    6  C   UNL     1      -9.534  12.947  67.111  1.00  0.00    -0.229 A  
HETATM    7  S   UNL     1     -11.965  13.249  66.440  1.00  0.00    -0.401 SA 
HETATM    8  C   UNL     1     -10.364  12.814  66.014  1.00  0.00    -0.276 A  
ENDROOT
BRANCH   6   9
HETATM    9  C   UNL     1      -8.075  12.651  67.159  1.00  0.00    -0.141 C  
BRANCH   9  10
HETATM   10  C   UNL     1      -7.731  11.290  67.741  1.00  0.00    -0.113 C  
HETATM   11  N   UNL     1      -7.526  11.258  69.112  1.00  0.00    -0.233 N  
HETATM   12  O   UNL     1      -7.762  10.307  66.999  1.00  0.00    -0.098 OA 
HETATM   13  H   UNL     1      -7.544  12.151  69.604  1.00  0.00     0.000 HD 
BRANCH  11  14
HETATM   14  C   UNL     1      -7.296  10.104  69.887  1.00  0.00    -0.165 A  
HETATM   15  C   UNL     1      -8.112   8.974  69.827  1.00  0.00    -0.109 A  
HETATM   16  C   UNL     1      -7.915   7.901  70.697  1.00  0.00    -0.096 A  
HETATM   17  C   UNL     1      -6.884   7.926  71.639  1.00  0.00    -0.057 A  
HETATM   18  C   UNL     1      -6.219  10.105  70.781  1.00  0.00    -0.069 A  
HETATM   19  C   UNL     1      -6.023   9.031  71.660  1.00  0.00    -0.069 A  
BRANCH  17  20
HETATM   20  C   UNL     1      -6.740   6.805  72.648  1.00  0.00    -0.063 C  
BRANCH  20  21
HETATM   21  C   UNL     1      -7.643   6.930  73.887  1.00  0.00    -0.097 C  
BRANCH  21  22
HETATM   22  N   UNL     1      -8.413   5.708  74.105  1.00  0.00    -0.117 NA 
HETATM   23  H   UNL     1      -7.978   5.121  74.817  1.00  0.00     0.000 HD 
BRANCH  22  24
HETATM   24  C   UNL     1      -9.818   5.983  74.432  1.00  0.00    -0.264 C  
BRANCH  24  25
HETATM   25  C   UNL     1     -10.791   5.614  73.283  1.00  0.00    -0.282 C  
HETATM   26  O   UNL     1     -10.334   4.422  72.626  1.00  0.00    -0.177 OA 
HETATM   27  H   UNL     1     -10.931   4.196  71.922  1.00  0.00     0.000 HD 
BRANCH  25  28
HETATM   28  C   UNL     1     -11.047   6.704  72.258  1.00  0.00    -0.292 A  
HETATM   29  C   UNL     1     -11.050   8.052  72.647  1.00  0.00    -0.453 A  
HETATM   30  C   UNL     1     -11.358   9.058  71.726  1.00  0.00    -0.447 A  
HETATM   31  C   UNL     1     -11.660   8.730  70.406  1.00  0.00    -0.105 A  
HETATM   32  C   UNL     1     -11.637   7.400  69.999  1.00  0.00    -0.024 A  
HETATM   33  C   UNL     1     -11.333   6.394  70.919  1.00  0.00    -0.398 A  
ENDBRANCH  25  28
ENDBRANCH  24  25
ENDBRANCH  22  24
ENDBRANCH  21  22
ENDBRANCH  20  21
ENDBRANCH  17  20
ENDBRANCH  11  14
ENDBRANCH   9  10
ENDBRANCH   6   9
TORSDOF 9
ENDMDL
MODEL      230
REMARK 921   NORMALIZED FREE ENERGY PREDICTED BY IDOCK:   -3.47 KCAL/MOL
REMARK 922        TOTAL FREE ENERGY PREDICTED BY IDOCK:   -7.75 KCAL/MOL
REMARK 923 INTER-LIGAND FREE ENERGY PREDICTED BY IDOCK:   -7.01 KCAL/MOL
REMARK 924 INTRA-LIGAND FREE ENERGY PREDICTED BY IDOCK:   -0.74 KCAL/MOL
REMARK 927      BINDING AFFINITY PREDICTED BY RF-SCORE:    0.00 PKD
ROOT
HETATM    1  N   UNL     1     -10.667   3.347  64.705  1.00  0.00    -0.453 NA 
HETATM    2  C   UNL     1     -10.111   4.364  65.384  1.00  0.00    -0.223 A  
HETATM    3  H1  UNL     1     -10.240   2.934  63.875  1.00  0.00     0.000 HD 
HETATM    4  H2  UNL     1     -11.556   2.971  65.032  1.00  0.00     0.000 HD 
HETATM    5  N   UNL     1     -10.659   4.893  66.448  1.00  0.00    -0.284 NA 
HETATM    6  C   UNL     1      -9.858   5.919  66.940  1.00  0.00    -0.156 A  
HETATM    7  S   UNL     1      -8.603   5.033  64.918  1.00  0.00    -0.149 SA 
HETATM    8  C   UNL     1      -8.693   6.132  66.229  1.00  0.00    -0.143 A  
ENDROOT
BRANCH   6   9
HETATM    9  C   UNL     1     -10.300   6.654  68.158  1.00  0.00    -0.223 C  
BRANCH   9  10
HETATM   10  C   UNL     1     -10.133   8.162  68.074  1.00  0.00    -0.197 C  
HETATM   11  N   UNL     1     -10.882   8.794  67.093  1.00  0.00    -0.376 N  
HETATM   12  O   UNL     1      -9.448   8.728  68.927  1.00  0.00    -0.144 OA 
HETATM   13  H   UNL     1     -11.417   8.198  66.462  1.00  0.00     0.000 HD 
BRANCH  11  14
HETATM   14  C   UNL     1     -10.970  10.186  66.888  1.00  0.00    -0.036 A  
HETATM   15  C   UNL     1     -11.623  11.043  67.774  1.00  0.00    -0.277 A  
HETATM   16  C   UNL     1     -11.786  12.396  67.473  1.00  0.00    -0.354 A  
HETATM   17  C   UNL     1     -11.287  12.928  66.282  1.00  0.00    -0.364 A  
HETATM   18  C   UNL     1     -10.407  10.726  65.727  1.00  0.00    -0.295 A  
HETATM   19  C   UNL     1     -10.576  12.083  65.419  1.00  0.00    -0.319 A  
BRANCH  17  20
HETATM   20  C   UNL     1     -11.558  14.371  65.913  1.00  0.00    -0.361 C  
BRANCH  20  21
HETATM   21  C   UNL     1     -10.327  15.294  65.963  1.00  0.00    -0.312 C  
BRANCH  21  22
HETATM   22  N   UNL     1     -10.561  16.439  66.839  1.00  0.00    -0.288 NA 
HETATM   23  H   UNL     1     -11.236  17.084  66.429  1.00  0.00     0.000 HD 
BRANCH  22  24
HETATM   24  C   UNL     1     -10.967  16.036  68.191  1.00  0.00    -0.339 C  
BRANCH  24  25
HETATM   25  C   UNL     1      -9.896  15.183  68.918  1.00  0.00    -0.229 C  
HETATM   26  O   UNL     1     -10.242  15.054  70.306  1.00  0.00    -0.497 OA 
HETATM   27  H   UNL     1      -9.585  14.531  70.752  1.00  0.00     0.000 HD 
BRANCH  25  28
HETATM   28  C   UNL     1      -8.464  15.668  68.785  1.00  0.00    -0.192 A  
HETATM   29  C   UNL     1      -8.163  17.030  68.935  1.00  0.00    -0.204 A  
HETATM   30  C   UNL     1      -6.859  17.497  68.741  1.00  0.00    -0.233 A  
HETATM   31  C   UNL     1      -5.841  16.608  68.401  1.00  0.00    -0.121 A  
HETATM   32  C   UNL     1      -6.119  15.251  68.272  1.00  0.00    -0.122 A  
HETATM   33  C   UNL     1      -7.421  14.784  68.463  1.00  0.00    -0.117 A  
ENDBRANCH  25  28
ENDBRANCH  24  25
ENDBRANCH  22  24
ENDBRANCH  21  22
ENDBRANCH  20  21
ENDBRANCH  17  20
ENDBRANCH  11  14
ENDBRANCH   9  10
ENDBRANCH   6   9
TORSDOF 9
ENDMDL
MODEL      231
REMARK 921   NORMALIZED FREE ENERGY PREDICTED BY IDOCK:   -3.47 KCAL/MOL
REMARK 922        TOTAL FREE ENERGY PREDICTED BY IDOCK:   -7.74 KCAL/MOL
REMARK 923 INTER-LIGAND FREE ENERGY PREDICTED BY IDOCK:   -5.17 KCAL/MOL
REMARK 924 INTRA-LIGAND FREE ENERGY PREDICTED BY IDOCK:   -2.57 KCAL/MOL
REMARK 927      BINDING AFFINITY PREDICTED BY RF-SCORE:    0.00 PKD
ROOT
HETATM    1  N   UNL     1     -11.245  14.168  67.428  1.00  0.00    -0.306 NA 
HETATM    2  C   UNL     1     -10.004  14.504  67.817  1.00  0.00    -0.225 A  
HETATM    3  H1  UNL     1     -11.936  14.854  67.125  1.00  0.00     0.000 HD 
HETATM    4  H2  UNL     1     -11.507  13.183  67.436  1.00  0.00     0.000 HD 
HETATM    5  N   UNL     1      -9.116  13.624  68.206  1.00  0.00    -0.194 NA 
HETATM    6  C   UNL     1      -7.926  14.260  68.542  1.00  0.00    -0.145 A  
HETATM    7  S   UNL     1      -9.473  16.134  67.804  1.00  0.00    -0.217 SA 
HETATM    8  C   UNL     1      -7.940  15.632  68.381  1.00  0.00    -0.136 A  
ENDROOT
BRANCH   6   9
HETATM    9  C   UNL     1      -6.777  13.434  69.008  1.00  0.00    -0.108 C  
BRANCH   9  10
HETATM   10  C   UNL     1      -6.952  11.940  68.794  1.00  0.00    -0.104 C  
HETATM   11  N   UNL     1      -7.583  11.257  69.823  1.00  0.00    -0.303 N  
HETATM   12  O   UNL     1      -6.633  11.459  67.706  1.00  0.00    -0.064 OA 
HETATM   13  H   UNL     1      -7.805  11.789  70.665  1.00  0.00     0.000 HD 
BRANCH  11  14
HETATM   14  C   UNL     1      -7.945   9.895  69.811  1.00  0.00    -0.174 A  
HETATM   15  C   UNL     1      -9.092   9.409  70.439  1.00  0.00    -0.302 A  
HETATM   16  C   UNL     1      -9.350   8.039  70.501  1.00  0.00    -0.155 A  
HETATM   17  C   UNL     1      -8.470   7.121  69.922  1.00  0.00    -0.140 A  
HETATM   18  C   UNL     1      -7.097   8.986  69.169  1.00  0.00    -0.063 A  
HETATM   19  C   UNL     1      -7.349   7.608  69.236  1.00  0.00    -0.088 A  
BRANCH  17  20
HETATM   20  C   UNL     1      -8.700   5.632  70.082  1.00  0.00    -0.140 C  
BRANCH  20  21
HETATM   21  C   UNL     1     -10.018   5.113  69.480  1.00  0.00    -0.231 C  
BRANCH  21  22
HETATM   22  N   UNL     1      -9.767   4.155  68.408  1.00  0.00    -0.122 NA 
HETATM   23  H   UNL     1     -10.636   3.733  68.081  1.00  0.00     0.000 HD 
BRANCH  22  24
HETATM   24  C   UNL     1      -9.014   4.745  67.295  1.00  0.00    -0.112 C  
BRANCH  24  25
HETATM   25  C   UNL     1      -9.907   5.551  66.317  1.00  0.00    -0.145 C  
HETATM   26  O   UNL     1      -9.675   5.106  64.972  1.00  0.00    -0.363 OA 
HETATM   27  H   UNL     1     -10.223   5.600  64.373  1.00  0.00     0.000 HD 
BRANCH  25  28
HETATM   28  C   UNL     1      -9.772   7.061  66.392  1.00  0.00    -0.133 A  
HETATM   29  C   UNL     1     -10.693   7.817  67.134  1.00  0.00    -0.337 A  
HETATM   30  C   UNL     1     -10.621   9.213  67.149  1.00  0.00    -0.286 A  
HETATM   31  C   UNL     1      -9.626   9.870  66.428  1.00  0.00    -0.255 A  
HETATM   32  C   UNL     1      -8.691   9.134  65.707  1.00  0.00    -0.192 A  
HETATM   33  C   UNL     1      -8.764   7.740  65.689  1.00  0.00    -0.132 A  
ENDBRANCH  25  28
ENDBRANCH  24  25
ENDBRANCH  22  24
ENDBRANCH  21  22
ENDBRANCH  20  21
ENDBRANCH  17  20
ENDBRANCH  11  14
ENDBRANCH   9  10
ENDBRANCH   6   9
TORSDOF 9
ENDMDL
MODEL      232
REMARK 921   NORMALIZED FREE ENERGY PREDICTED BY IDOCK:   -3.45 KCAL/MOL
REMARK 922        TOTAL FREE ENERGY PREDICTED BY IDOCK:   -7.71 KCAL/MOL
REMARK 923 INTER-LIGAND FREE ENERGY PREDICTED BY IDOCK:   -4.74 KCAL/MOL
REMARK 924 INTRA-LIGAND FREE ENERGY PREDICTED BY IDOCK:   -2.97 KCAL/MOL
REMARK 927      BINDING AFFINITY PREDICTED BY RF-SCORE:    0.00 PKD
ROOT
HETATM    1  N   UNL     1      -7.119   4.759  72.281  1.00  0.00    -0.075 NA 
HETATM    2  C   UNL     1      -8.416   5.046  72.477  1.00  0.00    -0.120 A  
HETATM    3  H1  UNL     1      -6.779   3.810  72.123  1.00  0.00     0.000 HD 
HETATM    4  H2  UNL     1      -6.445   5.523  72.290  1.00  0.00     0.000 HD 
HETATM    5  N   UNL     1      -8.853   6.264  72.680  1.00  0.00    -0.127 NA 
HETATM    6  C   UNL     1     -10.235   6.255  72.846  1.00  0.00    -0.190 A  
HETATM    7  S   UNL     1      -9.619   3.824  72.446  1.00  0.00    -0.147 SA 
HETATM    8  C   UNL     1     -10.820   5.008  72.745  1.00  0.00    -0.244 A  
ENDROOT
BRANCH   6   9
HETATM    9  C   UNL     1     -10.937   7.547  73.084  1.00  0.00    -0.420 C  
BRANCH   9  10
HETATM   10  C   UNL     1     -10.973   8.472  71.880  1.00  0.00    -0.324 C  
HETATM   11  N   UNL     1      -9.991   8.252  70.926  1.00  0.00    -0.187 N  
HETATM   12  O   UNL     1     -11.909   9.265  71.773  1.00  0.00    -0.353 OA 
HETATM   13  H   UNL     1      -9.284   7.550  71.142  1.00  0.00     0.000 HD 
BRANCH  11  14
HETATM   14  C   UNL     1      -9.881   8.912  69.685  1.00  0.00    -0.180 A  
HETATM   15  C   UNL     1     -10.459   8.424  68.513  1.00  0.00    -0.201 A  
HETATM   16  C   UNL     1     -10.227   9.047  67.286  1.00  0.00    -0.323 A  
HETATM   17  C   UNL     1      -9.421  10.185  67.205  1.00  0.00    -0.185 A  
HETATM   18  C   UNL     1      -9.131  10.091  69.621  1.00  0.00    -0.230 A  
HETATM   19  C   UNL     1      -8.890  10.715  68.389  1.00  0.00    -0.145 A  
BRANCH  17  20
HETATM   20  C   UNL     1      -9.089  10.795  65.859  1.00  0.00    -0.208 C  
BRANCH  20  21
HETATM   21  C   UNL     1      -9.294   9.858  64.656  1.00  0.00    -0.277 C  
BRANCH  21  22
HETATM   22  N   UNL     1      -8.017   9.366  64.146  1.00  0.00    -0.126 NA 
HETATM   23  H   UNL     1      -7.242   9.681  64.730  1.00  0.00     0.000 HD 
BRANCH  22  24
HETATM   24  C   UNL     1      -8.002   7.907  63.989  1.00  0.00    -0.124 C  
BRANCH  24  25
HETATM   25  C   UNL     1      -6.838   7.225  64.754  1.00  0.00    -0.050 C  
HETATM   26  O   UNL     1      -6.623   5.905  64.231  1.00  0.00    -0.036 OA 
HETATM   27  H   UNL     1      -5.910   5.488  64.701  1.00  0.00     0.000 HD 
BRANCH  25  28
HETATM   28  C   UNL     1      -6.986   7.166  66.264  1.00  0.00    -0.065 A  
HETATM   29  C   UNL     1      -6.353   8.120  67.074  1.00  0.00    -0.056 A  
HETATM   30  C   UNL     1      -6.422   8.030  68.468  1.00  0.00    -0.054 A  
HETATM   31  C   UNL     1      -7.129   6.990  69.068  1.00  0.00    -0.084 A  
HETATM   32  C   UNL     1      -7.783   6.050  68.278  1.00  0.00    -0.102 A  
HETATM   33  C   UNL     1      -7.712   6.137  66.886  1.00  0.00    -0.103 A  
ENDBRANCH  25  28
ENDBRANCH  24  25
ENDBRANCH  22  24
ENDBRANCH  21  22
ENDBRANCH  20  21
ENDBRANCH  17  20
ENDBRANCH  11  14
ENDBRANCH   9  10
ENDBRANCH   6   9
TORSDOF 9
ENDMDL
MODEL      233
REMARK 921   NORMALIZED FREE ENERGY PREDICTED BY IDOCK:   -3.44 KCAL/MOL
REMARK 922        TOTAL FREE ENERGY PREDICTED BY IDOCK:   -7.69 KCAL/MOL
REMARK 923 INTER-LIGAND FREE ENERGY PREDICTED BY IDOCK:   -6.33 KCAL/MOL
REMARK 924 INTRA-LIGAND FREE ENERGY PREDICTED BY IDOCK:   -1.36 KCAL/MOL
REMARK 927      BINDING AFFINITY PREDICTED BY RF-SCORE:    0.00 PKD
ROOT
HETATM    1  N   UNL     1      -9.774   2.691  67.309  1.00  0.00    -0.346 NA 
HETATM    2  C   UNL     1      -9.226   3.884  67.589  1.00  0.00    -0.167 A  
HETATM    3  H1  UNL     1      -9.646   1.869  67.899  1.00  0.00     0.000 HD 
HETATM    4  H2  UNL     1     -10.343   2.602  66.468  1.00  0.00     0.000 HD 
HETATM    5  N   UNL     1      -9.390   4.939  66.832  1.00  0.00    -0.125 NA 
HETATM    6  C   UNL     1      -8.713   6.028  67.372  1.00  0.00    -0.104 A  
HETATM    7  S   UNL     1      -8.281   4.126  69.000  1.00  0.00    -0.070 SA 
HETATM    8  C   UNL     1      -8.054   5.765  68.558  1.00  0.00    -0.108 A  
ENDROOT
BRANCH   6   9
HETATM    9  C   UNL     1      -8.775   7.336  66.663  1.00  0.00    -0.136 C  
BRANCH   9  10
HETATM   10  C   UNL     1      -9.034   8.528  67.570  1.00  0.00    -0.135 C  
HETATM   11  N   UNL     1     -10.346   8.690  67.986  1.00  0.00    -0.227 N  
HETATM   12  O   UNL     1      -8.073   9.194  67.957  1.00  0.00    -0.104 OA 
HETATM   13  H   UNL     1     -11.040   8.053  67.594  1.00  0.00     0.000 HD 
BRANCH  11  14
HETATM   14  C   UNL     1     -10.810   9.655  68.903  1.00  0.00    -0.174 A  
HETATM   15  C   UNL     1     -11.150   9.348  70.221  1.00  0.00    -0.299 A  
HETATM   16  C   UNL     1     -11.714  10.311  71.059  1.00  0.00    -0.461 A  
HETATM   17  C   UNL     1     -11.938  11.612  70.600  1.00  0.00    -0.356 A  
HETATM   18  C   UNL     1     -10.967  10.973  68.461  1.00  0.00    -0.276 A  
HETATM   19  C   UNL     1     -11.540  11.940  69.297  1.00  0.00    -0.376 A  
BRANCH  17  20
HETATM   20  C   UNL     1     -12.645  12.623  71.479  1.00  0.00    -0.256 C  
BRANCH  20  21
HETATM   21  C   UNL     1     -13.039  13.931  70.772  1.00  0.00    -0.137 C  
BRANCH  21  22
HETATM   22  N   UNL     1     -12.204  15.044  71.217  1.00  0.00    -0.295 NA 
HETATM   23  H   UNL     1     -12.167  15.092  72.235  1.00  0.00     0.000 HD 
BRANCH  22  24
HETATM   24  C   UNL     1     -10.855  14.996  70.639  1.00  0.00    -0.097 C  
BRANCH  24  25
HETATM   25  C   UNL     1     -10.643  16.030  69.505  1.00  0.00    -0.290 C  
HETATM   26  O   UNL     1     -11.654  17.048  69.583  1.00  0.00     0.060 OA 
HETATM   27  H   UNL     1     -11.524  17.682  68.887  1.00  0.00     0.000 HD 
BRANCH  25  28
HETATM   28  C   UNL     1     -10.588  15.465  68.097  1.00  0.00    -0.263 A  
HETATM   29  C   UNL     1     -11.740  14.925  67.507  1.00  0.00    -0.328 A  
HETATM   30  C   UNL     1     -11.682  14.335  66.240  1.00  0.00    -0.404 A  
HETATM   31  C   UNL     1     -10.475  14.282  65.547  1.00  0.00    -0.361 A  
HETATM   32  C   UNL     1      -9.328  14.834  66.109  1.00  0.00    -0.292 A  
HETATM   33  C   UNL     1      -9.384  15.421  67.375  1.00  0.00    -0.205 A  
ENDBRANCH  25  28
ENDBRANCH  24  25
ENDBRANCH  22  24
ENDBRANCH  21  22
ENDBRANCH  20  21
ENDBRANCH  17  20
ENDBRANCH  11  14
ENDBRANCH   9  10
ENDBRANCH   6   9
TORSDOF 9
ENDMDL
MODEL      234
REMARK 921   NORMALIZED FREE ENERGY PREDICTED BY IDOCK:   -3.41 KCAL/MOL
REMARK 922        TOTAL FREE ENERGY PREDICTED BY IDOCK:   -7.65 KCAL/MOL
REMARK 923 INTER-LIGAND FREE ENERGY PREDICTED BY IDOCK:   -7.19 KCAL/MOL
REMARK 924 INTRA-LIGAND FREE ENERGY PREDICTED BY IDOCK:   -0.46 KCAL/MOL
REMARK 927      BINDING AFFINITY PREDICTED BY RF-SCORE:    0.00 PKD
ROOT
HETATM    1  N   UNL     1     -10.247  16.344  65.206  1.00  0.00    -0.589 NA 
HETATM    2  C   UNL     1     -10.780  15.196  64.757  1.00  0.00    -0.319 A  
HETATM    3  H1  UNL     1     -10.763  17.224  65.230  1.00  0.00     0.000 HD 
HETATM    4  H2  UNL     1      -9.284  16.336  65.539  1.00  0.00     0.000 HD 
HETATM    5  N   UNL     1     -10.118  14.067  64.727  1.00  0.00    -0.307 NA 
HETATM    6  C   UNL     1     -10.923  13.053  64.219  1.00  0.00    -0.399 A  
HETATM    7  S   UNL     1     -12.403  15.117  64.208  1.00  0.00     0.077 SA 
HETATM    8  C   UNL     1     -12.205  13.446  63.887  1.00  0.00    -0.415 A  
ENDROOT
BRANCH   6   9
HETATM    9  C   UNL     1     -10.360  11.678  64.105  1.00  0.00    -0.386 C  
BRANCH   9  10
HETATM   10  C   UNL     1     -10.274  10.926  65.422  1.00  0.00    -0.277 C  
HETATM   11  N   UNL     1     -10.718  11.619  66.539  1.00  0.00    -0.260 N  
HETATM   12  O   UNL     1      -9.930   9.743  65.405  1.00  0.00    -0.320 OA 
HETATM   13  H   UNL     1     -10.989  12.593  66.403  1.00  0.00     0.000 HD 
BRANCH  11  14
HETATM   14  C   UNL     1     -10.828  11.099  67.845  1.00  0.00    -0.235 A  
HETATM   15  C   UNL     1      -9.805  10.384  68.466  1.00  0.00    -0.176 A  
HETATM   16  C   UNL     1     -10.001   9.789  69.713  1.00  0.00    -0.265 A  
HETATM   17  C   UNL     1     -11.225   9.908  70.376  1.00  0.00    -0.379 A  
HETATM   18  C   UNL     1     -12.032  11.281  68.534  1.00  0.00    -0.288 A  
HETATM   19  C   UNL     1     -12.235  10.678  69.783  1.00  0.00    -0.318 A  
BRANCH  17  20
HETATM   20  C   UNL     1     -11.466   9.174  71.679  1.00  0.00    -0.451 C  
BRANCH  20  21
HETATM   21  C   UNL     1     -11.713   7.663  71.534  1.00  0.00    -0.281 C  
BRANCH  21  22
HETATM   22  N   UNL     1     -10.464   6.912  71.628  1.00  0.00    -0.204 NA 
HETATM   23  H   UNL     1     -10.482   6.266  72.417  1.00  0.00     0.000 HD 
BRANCH  22  24
HETATM   24  C   UNL     1     -10.134   6.214  70.380  1.00  0.00    -0.189 C  
BRANCH  24  25
HETATM   25  C   UNL     1      -9.275   4.943  70.604  1.00  0.00    -0.136 C  
HETATM   26  O   UNL     1      -9.518   4.003  69.545  1.00  0.00    -0.158 OA 
HETATM   27  H   UNL     1      -8.991   3.224  69.682  1.00  0.00     0.000 HD 
BRANCH  25  28
HETATM   28  C   UNL     1      -9.443   4.261  71.949  1.00  0.00    -0.201 A  
HETATM   29  C   UNL     1     -10.207   3.089  72.057  1.00  0.00    -0.108 A  
HETATM   30  C   UNL     1     -10.429   2.495  73.303  1.00  0.00    -0.234 A  
HETATM   31  C   UNL     1      -9.886   3.060  74.454  1.00  0.00    -0.154 A  
HETATM   32  C   UNL     1      -9.107   4.209  74.362  1.00  0.00    -0.108 A  
HETATM   33  C   UNL     1      -8.887   4.805  73.118  1.00  0.00    -0.111 A  
ENDBRANCH  25  28
ENDBRANCH  24  25
ENDBRANCH  22  24
ENDBRANCH  21  22
ENDBRANCH  20  21
ENDBRANCH  17  20
ENDBRANCH  11  14
ENDBRANCH   9  10
ENDBRANCH   6   9
TORSDOF 9
ENDMDL
MODEL      235
REMARK 921   NORMALIZED FREE ENERGY PREDICTED BY IDOCK:   -3.41 KCAL/MOL
REMARK 922        TOTAL FREE ENERGY PREDICTED BY IDOCK:   -7.65 KCAL/MOL
REMARK 923 INTER-LIGAND FREE ENERGY PREDICTED BY IDOCK:   -6.62 KCAL/MOL
REMARK 924 INTRA-LIGAND FREE ENERGY PREDICTED BY IDOCK:   -1.02 KCAL/MOL
REMARK 927      BINDING AFFINITY PREDICTED BY RF-SCORE:    0.00 PKD
ROOT
HETATM    1  N   UNL     1     -11.311  17.177  71.265  1.00  0.00     0.137 NA 
HETATM    2  C   UNL     1     -11.123  16.760  70.002  1.00  0.00     0.050 A  
HETATM    3  H1  UNL     1     -10.851  18.001  71.652  1.00  0.00     0.000 HD 
HETATM    4  H2  UNL     1     -11.942  16.646  71.864  1.00  0.00     0.000 HD 
HETATM    5  N   UNL     1     -11.713  15.702  69.505  1.00  0.00    -0.351 NA 
HETATM    6  C   UNL     1     -11.333  15.519  68.180  1.00  0.00    -0.345 A  
HETATM    7  S   UNL     1     -10.102  17.613  68.921  1.00  0.00    -0.309 SA 
HETATM    8  C   UNL     1     -10.459  16.473  67.694  1.00  0.00    -0.305 A  
ENDROOT
BRANCH   6   9
HETATM    9  C   UNL     1     -11.899  14.368  67.423  1.00  0.00    -0.430 C  
BRANCH   9  10
HETATM   10  C   UNL     1     -10.906  13.252  67.147  1.00  0.00    -0.258 C  
HETATM   11  N   UNL     1     -11.416  12.147  66.482  1.00  0.00    -0.363 N  
HETATM   12  O   UNL     1      -9.720  13.435  67.424  1.00  0.00    -0.213 OA 
HETATM   13  H   UNL     1     -12.420  12.136  66.303  1.00  0.00     0.000 HD 
BRANCH  11  14
HETATM   14  C   UNL     1     -10.673  11.037  66.030  1.00  0.00    -0.177 A  
HETATM   15  C   UNL     1     -10.301   9.983  66.864  1.00  0.00    -0.297 A  
HETATM   16  C   UNL     1      -9.467   8.964  66.403  1.00  0.00    -0.283 A  
HETATM   17  C   UNL     1      -8.996   8.968  65.087  1.00  0.00    -0.216 A  
HETATM   18  C   UNL     1     -10.262  11.011  64.693  1.00  0.00    -0.392 A  
HETATM   19  C   UNL     1      -9.418   9.992  64.229  1.00  0.00    -0.336 A  
BRANCH  17  20
HETATM   20  C   UNL     1      -8.009   7.917  64.623  1.00  0.00    -0.143 C  
BRANCH  20  21
HETATM   21  C   UNL     1      -7.565   6.922  65.709  1.00  0.00    -0.091 C  
BRANCH  21  22
HETATM   22  N   UNL     1      -7.737   5.542  65.262  1.00  0.00    -0.087 NA 
HETATM   23  H   UNL     1      -7.079   4.919  65.731  1.00  0.00     0.000 HD 
BRANCH  22  24
HETATM   24  C   UNL     1      -9.118   5.070  65.422  1.00  0.00    -0.154 C  
BRANCH  24  25
HETATM   25  C   UNL     1      -9.280   4.045  66.573  1.00  0.00    -0.163 C  
HETATM   26  O   UNL     1     -10.074   2.936  66.125  1.00  0.00    -0.068 OA 
HETATM   27  H   UNL     1     -10.173   2.307  66.831  1.00  0.00     0.000 HD 
BRANCH  25  28
HETATM   28  C   UNL     1      -9.844   4.593  67.871  1.00  0.00    -0.177 A  
HETATM   29  C   UNL     1     -10.659   5.735  67.861  1.00  0.00    -0.304 A  
HETATM   30  C   UNL     1     -11.122   6.291  69.057  1.00  0.00    -0.446 A  
HETATM   31  C   UNL     1     -10.782   5.710  70.277  1.00  0.00    -0.364 A  
HETATM   32  C   UNL     1      -9.994   4.564  70.303  1.00  0.00    -0.288 A  
HETATM   33  C   UNL     1      -9.528   4.010  69.109  1.00  0.00    -0.249 A  
ENDBRANCH  25  28
ENDBRANCH  24  25
ENDBRANCH  22  24
ENDBRANCH  21  22
ENDBRANCH  20  21
ENDBRANCH  17  20
ENDBRANCH  11  14
ENDBRANCH   9  10
ENDBRANCH   6   9
TORSDOF 9
ENDMDL
MODEL      236
REMARK 921   NORMALIZED FREE ENERGY PREDICTED BY IDOCK:   -3.40 KCAL/MOL
REMARK 922        TOTAL FREE ENERGY PREDICTED BY IDOCK:   -7.64 KCAL/MOL
REMARK 923 INTER-LIGAND FREE ENERGY PREDICTED BY IDOCK:   -6.75 KCAL/MOL
REMARK 924 INTRA-LIGAND FREE ENERGY PREDICTED BY IDOCK:   -0.88 KCAL/MOL
REMARK 927      BINDING AFFINITY PREDICTED BY RF-SCORE:    0.00 PKD
ROOT
HETATM    1  N   UNL     1     -10.948  19.789  65.652  1.00  0.00    -0.277 NA 
HETATM    2  C   UNL     1     -10.515  18.641  66.199  1.00  0.00    -0.430 A  
HETATM    3  H1  UNL     1     -11.105  20.638  66.195  1.00  0.00     0.000 HD 
HETATM    4  H2  UNL     1     -11.127  19.813  64.649  1.00  0.00     0.000 HD 
HETATM    5  N   UNL     1     -10.312  17.552  65.502  1.00  0.00    -0.636 NA 
HETATM    6  C   UNL     1      -9.863  16.529  66.331  1.00  0.00    -0.293 A  
HETATM    7  S   UNL     1     -10.161  18.525  67.872  1.00  0.00    -0.388 SA 
HETATM    8  C   UNL     1      -9.719  16.885  67.658  1.00  0.00    -0.249 A  
ENDROOT
BRANCH   6   9
HETATM    9  C   UNL     1      -9.566  15.198  65.732  1.00  0.00    -0.344 C  
BRANCH   9  10
HETATM   10  C   UNL     1     -10.266  14.035  66.413  1.00  0.00    -0.291 C  
HETATM   11  N   UNL     1      -9.513  12.879  66.552  1.00  0.00    -0.257 N  
HETATM   12  O   UNL     1     -11.389  14.218  66.886  1.00  0.00    -0.317 OA 
HETATM   13  H   UNL     1      -8.588  12.874  66.121  1.00  0.00     0.000 HD 
BRANCH  11  14
HETATM   14  C   UNL     1      -9.909  11.710  67.234  1.00  0.00    -0.187 A  
HETATM   15  C   UNL     1      -9.957  11.624  68.625  1.00  0.00    -0.192 A  
HETATM   16  C   UNL     1     -10.242  10.413  69.258  1.00  0.00    -0.248 A  
HETATM   17  C   UNL     1     -10.500   9.261  68.511  1.00  0.00    -0.240 A  
HETATM   18  C   UNL     1     -10.235  10.578  66.481  1.00  0.00    -0.288 A  
HETATM   19  C   UNL     1     -10.514   9.358  67.114  1.00  0.00    -0.315 A  
BRANCH  17  20
HETATM   20  C   UNL     1     -10.706   7.929  69.203  1.00  0.00    -0.130 C  
BRANCH  20  21
HETATM   21  C   UNL     1     -10.114   7.839  70.621  1.00  0.00    -0.191 C  
BRANCH  21  22
HETATM   22  N   UNL     1      -9.698   6.474  70.933  1.00  0.00    -0.176 NA 
HETATM   23  H   UNL     1      -9.821   6.270  71.925  1.00  0.00     0.000 HD 
BRANCH  22  24
HETATM   24  C   UNL     1     -10.379   5.477  70.099  1.00  0.00    -0.284 C  
BRANCH  24  25
HETATM   25  C   UNL     1      -9.483   4.259  69.755  1.00  0.00    -0.190 C  
HETATM   26  O   UNL     1      -8.268   4.322  70.518  1.00  0.00    -0.065 OA 
HETATM   27  H   UNL     1      -7.719   3.576  70.308  1.00  0.00     0.000 HD 
BRANCH  25  28
HETATM   28  C   UNL     1      -9.161   4.070  68.284  1.00  0.00    -0.183 A  
HETATM   29  C   UNL     1      -8.456   2.936  67.855  1.00  0.00    -0.103 A  
HETATM   30  C   UNL     1      -8.090   2.789  66.514  1.00  0.00    -0.082 A  
HETATM   31  C   UNL     1      -8.428   3.770  65.585  1.00  0.00    -0.110 A  
HETATM   32  C   UNL     1      -9.148   4.890  65.990  1.00  0.00    -0.139 A  
HETATM   33  C   UNL     1      -9.512   5.039  67.330  1.00  0.00    -0.149 A  
ENDBRANCH  25  28
ENDBRANCH  24  25
ENDBRANCH  22  24
ENDBRANCH  21  22
ENDBRANCH  20  21
ENDBRANCH  17  20
ENDBRANCH  11  14
ENDBRANCH   9  10
ENDBRANCH   6   9
TORSDOF 9
ENDMDL
MODEL      237
REMARK 921   NORMALIZED FREE ENERGY PREDICTED BY IDOCK:   -3.35 KCAL/MOL
REMARK 922        TOTAL FREE ENERGY PREDICTED BY IDOCK:   -7.56 KCAL/MOL
REMARK 923 INTER-LIGAND FREE ENERGY PREDICTED BY IDOCK:   -6.71 KCAL/MOL
REMARK 924 INTRA-LIGAND FREE ENERGY PREDICTED BY IDOCK:   -0.85 KCAL/MOL
REMARK 927      BINDING AFFINITY PREDICTED BY RF-SCORE:    0.00 PKD
ROOT
HETATM    1  N   UNL     1      -7.071  17.298  67.198  1.00  0.00    -0.162 NA 
HETATM    2  C   UNL     1      -8.379  17.433  66.923  1.00  0.00    -0.235 A  
HETATM    3  H1  UNL     1      -6.615  17.774  67.976  1.00  0.00     0.000 HD 
HETATM    4  H2  UNL     1      -6.509  16.692  66.601  1.00  0.00     0.000 HD 
HETATM    5  N   UNL     1      -8.964  16.822  65.924  1.00  0.00    -0.517 NA 
HETATM    6  C   UNL     1     -10.316  17.147  65.889  1.00  0.00    -0.284 A  
HETATM    7  S   UNL     1      -9.400  18.409  67.894  1.00  0.00    -0.286 SA 
HETATM    8  C   UNL     1     -10.729  18.001  66.894  1.00  0.00    -0.200 A  
ENDROOT
BRANCH   6   9
HETATM    9  C   UNL     1     -11.171  16.550  64.826  1.00  0.00    -0.150 C  
BRANCH   9  10
HETATM   10  C   UNL     1     -11.359  15.047  64.944  1.00  0.00    -0.417 C  
HETATM   11  N   UNL     1     -10.682  14.439  65.990  1.00  0.00    -0.295 N  
HETATM   12  O   UNL     1     -12.164  14.493  64.194  1.00  0.00    -0.524 OA 
HETATM   13  H   UNL     1     -10.057  15.027  66.542  1.00  0.00     0.000 HD 
BRANCH  11  14
HETATM   14  C   UNL     1     -10.779  13.082  66.360  1.00  0.00    -0.282 A  
HETATM   15  C   UNL     1     -11.339  12.663  67.567  1.00  0.00    -0.361 A  
HETATM   16  C   UNL     1     -11.309  11.320  67.943  1.00  0.00    -0.367 A  
HETATM   17  C   UNL     1     -10.729  10.359  67.111  1.00  0.00    -0.316 A  
HETATM   18  C   UNL     1     -10.260  12.116  65.492  1.00  0.00    -0.294 A  
HETATM   19  C   UNL     1     -10.222  10.767  65.870  1.00  0.00    -0.319 A  
BRANCH  17  20
HETATM   20  C   UNL     1     -10.606   8.921  67.570  1.00  0.00    -0.307 C  
BRANCH  20  21
HETATM   21  C   UNL     1      -9.238   8.271  67.303  1.00  0.00    -0.138 C  
BRANCH  21  22
HETATM   22  N   UNL     1      -9.343   6.815  67.265  1.00  0.00    -0.131 NA 
HETATM   23  H   UNL     1      -9.918   6.467  68.033  1.00  0.00     0.000 HD 
BRANCH  22  24
HETATM   24  C   UNL     1      -9.834   6.323  65.972  1.00  0.00     0.181 C  
BRANCH  24  25
HETATM   25  C   UNL     1     -10.350   4.862  66.035  1.00  0.00    -0.271 C  
HETATM   26  O   UNL     1     -10.004   4.281  67.302  1.00  0.00    -0.179 OA 
HETATM   27  H   UNL     1     -10.320   3.386  67.340  1.00  0.00     0.000 HD 
BRANCH  25  28
HETATM   28  C   UNL     1      -9.895   3.953  64.908  1.00  0.00    -0.197 A  
HETATM   29  C   UNL     1      -8.557   3.535  64.833  1.00  0.00    -0.109 A  
HETATM   30  C   UNL     1      -8.112   2.758  63.759  1.00  0.00    -0.082 A  
HETATM   31  C   UNL     1      -8.998   2.386  62.751  1.00  0.00    -0.084 A  
HETATM   32  C   UNL     1     -10.333   2.772  62.822  1.00  0.00    -0.133 A  
HETATM   33  C   UNL     1     -10.778   3.550  63.893  1.00  0.00    -0.248 A  
ENDBRANCH  25  28
ENDBRANCH  24  25
ENDBRANCH  22  24
ENDBRANCH  21  22
ENDBRANCH  20  21
ENDBRANCH  17  20
ENDBRANCH  11  14
ENDBRANCH   9  10
ENDBRANCH   6   9
TORSDOF 9
ENDMDL
MODEL      238
REMARK 921   NORMALIZED FREE ENERGY PREDICTED BY IDOCK:   -3.32 KCAL/MOL
REMARK 922        TOTAL FREE ENERGY PREDICTED BY IDOCK:   -7.51 KCAL/MOL
REMARK 923 INTER-LIGAND FREE ENERGY PREDICTED BY IDOCK:   -6.40 KCAL/MOL
REMARK 924 INTRA-LIGAND FREE ENERGY PREDICTED BY IDOCK:   -1.11 KCAL/MOL
REMARK 927      BINDING AFFINITY PREDICTED BY RF-SCORE:    0.00 PKD
ROOT
HETATM    1  N   UNL     1     -11.536   2.310  73.504  1.00  0.00    -0.213 NA 
HETATM    2  C   UNL     1     -10.784   3.418  73.391  1.00  0.00    -0.207 A  
HETATM    3  H1  UNL     1     -11.144   1.369  73.473  1.00  0.00     0.000 HD 
HETATM    4  H2  UNL     1     -12.542   2.415  73.626  1.00  0.00     0.000 HD 
HETATM    5  N   UNL     1     -11.287   4.626  73.430  1.00  0.00    -0.332 NA 
HETATM    6  C   UNL     1     -10.274   5.571  73.293  1.00  0.00    -0.195 A  
HETATM    7  S   UNL     1      -9.081   3.330  73.213  1.00  0.00    -0.089 SA 
HETATM    8  C   UNL     1      -9.005   5.040  73.166  1.00  0.00    -0.117 A  
ENDROOT
BRANCH   6   9
HETATM    9  C   UNL     1     -10.633   7.016  73.317  1.00  0.00    -0.378 C  
BRANCH   9  10
HETATM   10  C   UNL     1      -9.604   7.927  72.668  1.00  0.00    -0.227 C  
HETATM   11  N   UNL     1      -9.759   8.131  71.305  1.00  0.00    -0.159 N  
HETATM   12  O   UNL     1      -8.786   8.500  73.389  1.00  0.00    -0.331 OA 
HETATM   13  H   UNL     1     -10.492   7.598  70.837  1.00  0.00     0.000 HD 
BRANCH  11  14
HETATM   14  C   UNL     1      -8.995   9.007  70.508  1.00  0.00    -0.213 A  
HETATM   15  C   UNL     1      -7.603   9.076  70.576  1.00  0.00    -0.113 A  
HETATM   16  C   UNL     1      -6.897  10.039  69.853  1.00  0.00    -0.108 A  
HETATM   17  C   UNL     1      -7.568  10.949  69.032  1.00  0.00    -0.135 A  
HETATM   18  C   UNL     1      -9.666   9.869  69.634  1.00  0.00    -0.252 A  
HETATM   19  C   UNL     1      -8.961  10.842  68.913  1.00  0.00    -0.146 A  
BRANCH  17  20
HETATM   20  C   UNL     1      -6.807  12.056  68.333  1.00  0.00    -0.072 C  
BRANCH  20  21
HETATM   21  C   UNL     1      -7.643  12.895  67.350  1.00  0.00    -0.148 C  
BRANCH  21  22
HETATM   22  N   UNL     1      -7.678  14.298  67.752  1.00  0.00    -0.146 NA 
HETATM   23  H   UNL     1      -6.844  14.793  67.434  1.00  0.00     0.000 HD 
BRANCH  22  24
HETATM   24  C   UNL     1      -8.899  14.978  67.304  1.00  0.00    -0.201 C  
BRANCH  24  25
HETATM   25  C   UNL     1     -10.155  14.072  67.364  1.00  0.00    -0.244 C  
HETATM   26  O   UNL     1     -10.988  14.324  66.221  1.00  0.00    -0.308 OA 
HETATM   27  H   UNL     1     -11.758  13.769  66.259  1.00  0.00     0.000 HD 
BRANCH  25  28
HETATM   28  C   UNL     1     -10.979  14.169  68.635  1.00  0.00    -0.275 A  
HETATM   29  C   UNL     1     -11.014  15.367  69.365  1.00  0.00    -0.276 A  
HETATM   30  C   UNL     1     -11.709  15.444  70.575  1.00  0.00    -0.356 A  
HETATM   31  C   UNL     1     -12.382  14.328  71.068  1.00  0.00    -0.431 A  
HETATM   32  C   UNL     1     -12.377  13.140  70.345  1.00  0.00    -0.351 A  
HETATM   33  C   UNL     1     -11.680  13.061  69.137  1.00  0.00    -0.378 A  
ENDBRANCH  25  28
ENDBRANCH  24  25
ENDBRANCH  22  24
ENDBRANCH  21  22
ENDBRANCH  20  21
ENDBRANCH  17  20
ENDBRANCH  11  14
ENDBRANCH   9  10
ENDBRANCH   6   9
TORSDOF 9
ENDMDL
MODEL      239
REMARK 921   NORMALIZED FREE ENERGY PREDICTED BY IDOCK:   -3.32 KCAL/MOL
REMARK 922        TOTAL FREE ENERGY PREDICTED BY IDOCK:   -7.51 KCAL/MOL
REMARK 923 INTER-LIGAND FREE ENERGY PREDICTED BY IDOCK:   -6.38 KCAL/MOL
REMARK 924 INTRA-LIGAND FREE ENERGY PREDICTED BY IDOCK:   -1.13 KCAL/MOL
REMARK 927      BINDING AFFINITY PREDICTED BY RF-SCORE:    0.00 PKD
ROOT
HETATM    1  N   UNL     1     -11.883  14.139  66.765  1.00  0.00    -0.407 NA 
HETATM    2  C   UNL     1     -11.630  13.181  65.858  1.00  0.00    -0.354 A  
HETATM    3  H1  UNL     1     -12.615  14.839  66.644  1.00  0.00     0.000 HD 
HETATM    4  H2  UNL     1     -11.317  14.169  67.612  1.00  0.00     0.000 HD 
HETATM    5  N   UNL     1     -10.690  12.283  66.014  1.00  0.00    -0.254 NA 
HETATM    6  C   UNL     1     -10.665  11.422  64.922  1.00  0.00    -0.286 A  
HETATM    7  S   UNL     1     -12.556  13.042  64.421  1.00  0.00    -0.235 SA 
HETATM    8  C   UNL     1     -11.618  11.687  63.956  1.00  0.00    -0.280 A  
ENDROOT
BRANCH   6   9
HETATM    9  C   UNL     1      -9.666  10.317  64.901  1.00  0.00    -0.385 C  
BRANCH   9  10
HETATM   10  C   UNL     1      -9.680   9.437  66.139  1.00  0.00    -0.265 C  
HETATM   11  N   UNL     1     -10.145  10.041  67.298  1.00  0.00    -0.197 N  
HETATM   12  O   UNL     1      -9.391   8.246  66.020  1.00  0.00    -0.199 OA 
HETATM   13  H   UNL     1     -10.362  11.036  67.247  1.00  0.00     0.000 HD 
BRANCH  11  14
HETATM   14  C   UNL     1     -10.344   9.404  68.540  1.00  0.00    -0.209 A  
HETATM   15  C   UNL     1      -9.939   8.094  68.794  1.00  0.00    -0.198 A  
HETATM   16  C   UNL     1     -10.260   7.465  69.998  1.00  0.00    -0.211 A  
HETATM   17  C   UNL     1     -10.984   8.140  70.984  1.00  0.00    -0.273 A  
HETATM   18  C   UNL     1     -11.007  10.108  69.551  1.00  0.00    -0.295 A  
HETATM   19  C   UNL     1     -11.338   9.476  70.758  1.00  0.00    -0.387 A  
BRANCH  17  20
HETATM   20  C   UNL     1     -11.418   7.419  72.244  1.00  0.00    -0.329 C  
BRANCH  20  21
HETATM   21  C   UNL     1     -12.033   6.027  72.013  1.00  0.00    -0.176 C  
BRANCH  21  22
HETATM   22  N   UNL     1     -11.910   5.192  73.204  1.00  0.00    -0.504 NA 
HETATM   23  H   UNL     1     -12.827   4.932  73.568  1.00  0.00     0.000 HD 
BRANCH  22  24
HETATM   24  C   UNL     1     -11.077   4.006  72.972  1.00  0.00    -0.081 C  
BRANCH  24  25
HETATM   25  C   UNL     1      -9.568   4.268  73.208  1.00  0.00    -0.118 C  
HETATM   26  O   UNL     1      -9.405   5.284  74.210  1.00  0.00    -0.126 OA 
HETATM   27  H   UNL     1      -8.479   5.444  74.354  1.00  0.00     0.000 HD 
BRANCH  25  28
HETATM   28  C   UNL     1      -8.759   4.623  71.974  1.00  0.00    -0.132 A  
HETATM   29  C   UNL     1      -9.178   4.193  70.707  1.00  0.00    -0.197 A  
HETATM   30  C   UNL     1      -8.401   4.452  69.573  1.00  0.00    -0.074 A  
HETATM   31  C   UNL     1      -7.200   5.148  69.692  1.00  0.00    -0.056 A  
HETATM   32  C   UNL     1      -6.783   5.603  70.939  1.00  0.00    -0.049 A  
HETATM   33  C   UNL     1      -7.556   5.342  72.072  1.00  0.00    -0.099 A  
ENDBRANCH  25  28
ENDBRANCH  24  25
ENDBRANCH  22  24
ENDBRANCH  21  22
ENDBRANCH  20  21
ENDBRANCH  17  20
ENDBRANCH  11  14
ENDBRANCH   9  10
ENDBRANCH   6   9
TORSDOF 9
ENDMDL
MODEL      240
REMARK 921   NORMALIZED FREE ENERGY PREDICTED BY IDOCK:   -3.30 KCAL/MOL
REMARK 922        TOTAL FREE ENERGY PREDICTED BY IDOCK:   -7.49 KCAL/MOL
REMARK 923 INTER-LIGAND FREE ENERGY PREDICTED BY IDOCK:   -5.85 KCAL/MOL
REMARK 924 INTRA-LIGAND FREE ENERGY PREDICTED BY IDOCK:   -1.63 KCAL/MOL
REMARK 927      BINDING AFFINITY PREDICTED BY RF-SCORE:    0.00 PKD
ROOT
HETATM    1  N   UNL     1      -6.018   8.738  66.253  1.00  0.00    -0.051 NA 
HETATM    2  C   UNL     1      -6.709   9.323  65.261  1.00  0.00    -0.074 A  
HETATM    3  H1  UNL     1      -4.999   8.681  66.262  1.00  0.00     0.000 HD 
HETATM    4  H2  UNL     1      -6.534   8.333  67.033  1.00  0.00     0.000 HD 
HETATM    5  N   UNL     1      -8.016   9.396  65.250  1.00  0.00    -0.107 NA 
HETATM    6  C   UNL     1      -8.449  10.057  64.105  1.00  0.00    -0.176 A  
HETATM    7  S   UNL     1      -5.915  10.054  63.929  1.00  0.00    -0.139 SA 
HETATM    8  C   UNL     1      -7.435  10.490  63.271  1.00  0.00     0.011 A  
ENDROOT
BRANCH   6   9
HETATM    9  C   UNL     1      -9.911  10.254  63.899  1.00  0.00    -0.251 C  
BRANCH   9  10
HETATM   10  C   UNL     1     -10.393  11.673  64.146  1.00  0.00    -0.337 C  
HETATM   11  N   UNL     1     -10.011  12.234  65.355  1.00  0.00    -0.296 N  
HETATM   12  O   UNL     1     -10.983  12.262  63.239  1.00  0.00    -0.432 OA 
HETATM   13  H   UNL     1      -9.511  11.631  66.009  1.00  0.00     0.000 HD 
BRANCH  11  14
HETATM   14  C   UNL     1     -10.250  13.562  65.763  1.00  0.00    -0.297 A  
HETATM   15  C   UNL     1      -9.699  14.666  65.114  1.00  0.00     0.003 A  
HETATM   16  C   UNL     1      -9.869  15.955  65.622  1.00  0.00    -0.337 A  
HETATM   17  C   UNL     1     -10.609  16.170  66.788  1.00  0.00    -0.277 A  
HETATM   18  C   UNL     1     -11.050  13.778  66.891  1.00  0.00    -0.311 A  
HETATM   19  C   UNL     1     -11.216  15.070  67.408  1.00  0.00    -0.337 A  
BRANCH  17  20
HETATM   20  C   UNL     1     -10.702  17.556  67.391  1.00  0.00    -0.250 C  
BRANCH  20  21
HETATM   21  C   UNL     1     -10.392  18.707  66.418  1.00  0.00    -0.432 C  
BRANCH  21  22
HETATM   22  N   UNL     1      -8.988  19.103  66.498  1.00  0.00    -0.331 NA 
HETATM   23  H   UNL     1      -8.875  20.098  66.308  1.00  0.00     0.000 HD 
BRANCH  22  24
HETATM   24  C   UNL     1      -8.375  18.735  67.780  1.00  0.00    -0.271 C  
BRANCH  24  25
HETATM   25  C   UNL     1      -6.959  18.126  67.623  1.00  0.00    -0.202 C  
HETATM   26  O   UNL     1      -6.586  18.119  66.236  1.00  0.00    -0.186 OA 
HETATM   27  H   UNL     1      -5.718  17.745  66.141  1.00  0.00     0.000 HD 
BRANCH  25  28
HETATM   28  C   UNL     1      -6.766  16.742  68.217  1.00  0.00    -0.154 A  
HETATM   29  C   UNL     1      -7.504  16.348  69.344  1.00  0.00    -0.122 A  
HETATM   30  C   UNL     1      -7.280  15.105  69.942  1.00  0.00    -0.090 A  
HETATM   31  C   UNL     1      -6.323  14.238  69.420  1.00  0.00    -0.120 A  
HETATM   32  C   UNL     1      -5.600  14.605  68.289  1.00  0.00    -0.117 A  
HETATM   33  C   UNL     1      -5.820  15.847  67.692  1.00  0.00    -0.171 A  
ENDBRANCH  25  28
ENDBRANCH  24  25
ENDBRANCH  22  24
ENDBRANCH  21  22
ENDBRANCH  20  21
ENDBRANCH  17  20
ENDBRANCH  11  14
ENDBRANCH   9  10
ENDBRANCH   6   9
TORSDOF 9
ENDMDL
MODEL      241
REMARK 921   NORMALIZED FREE ENERGY PREDICTED BY IDOCK:   -3.30 KCAL/MOL
REMARK 922        TOTAL FREE ENERGY PREDICTED BY IDOCK:   -7.48 KCAL/MOL
REMARK 923 INTER-LIGAND FREE ENERGY PREDICTED BY IDOCK:   -6.45 KCAL/MOL
REMARK 924 INTRA-LIGAND FREE ENERGY PREDICTED BY IDOCK:   -1.03 KCAL/MOL
REMARK 927      BINDING AFFINITY PREDICTED BY RF-SCORE:    0.00 PKD
ROOT
HETATM    1  N   UNL     1     -10.895   3.877  63.825  1.00  0.00    -0.392 NA 
HETATM    2  C   UNL     1      -9.657   4.243  64.194  1.00  0.00    -0.116 A  
HETATM    3  H1  UNL     1     -11.422   3.143  64.300  1.00  0.00     0.000 HD 
HETATM    4  H2  UNL     1     -11.328   4.353  63.035  1.00  0.00     0.000 HD 
HETATM    5  N   UNL     1      -8.981   5.184  63.584  1.00  0.00     0.024 NA 
HETATM    6  C   UNL     1      -7.738   5.347  64.186  1.00  0.00    -0.086 A  
HETATM    7  S   UNL     1      -8.869   3.514  65.531  1.00  0.00    -0.133 SA 
HETATM    8  C   UNL     1      -7.508   4.519  65.268  1.00  0.00    -0.077 A  
ENDROOT
BRANCH   6   9
HETATM    9  C   UNL     1      -6.808   6.378  63.646  1.00  0.00    -0.045 C  
BRANCH   9  10
HETATM   10  C   UNL     1      -7.184   7.807  64.000  1.00  0.00    -0.080 C  
HETATM   11  N   UNL     1      -8.473   7.987  64.478  1.00  0.00    -0.377 N  
HETATM   12  O   UNL     1      -6.313   8.677  63.946  1.00  0.00    -0.072 OA 
HETATM   13  H   UNL     1      -9.085   7.171  64.479  1.00  0.00     0.000 HD 
BRANCH  11  14
HETATM   14  C   UNL     1      -9.015   9.195  64.961  1.00  0.00    -0.171 A  
HETATM   15  C   UNL     1      -9.695  10.101  64.148  1.00  0.00    -0.301 A  
HETATM   16  C   UNL     1     -10.112  11.337  64.644  1.00  0.00    -0.343 A  
HETATM   17  C   UNL     1      -9.870  11.690  65.975  1.00  0.00    -0.258 A  
HETATM   18  C   UNL     1      -8.832   9.513  66.311  1.00  0.00    -0.172 A  
HETATM   19  C   UNL     1      -9.243  10.757  66.811  1.00  0.00    -0.174 A  
BRANCH  17  20
HETATM   20  C   UNL     1     -10.232  13.072  66.479  1.00  0.00    -0.270 C  
BRANCH  20  21
HETATM   21  C   UNL     1     -11.542  13.145  67.283  1.00  0.00    -0.355 C  
BRANCH  21  22
HETATM   22  N   UNL     1     -11.374  12.577  68.618  1.00  0.00    -0.264 NA 
HETATM   23  H   UNL     1     -11.595  13.263  69.339  1.00  0.00     0.000 HD 
BRANCH  22  24
HETATM   24  C   UNL     1     -12.150  11.345  68.804  1.00  0.00    -0.189 C  
BRANCH  24  25
HETATM   25  C   UNL     1     -12.513  11.074  70.286  1.00  0.00    -0.285 C  
HETATM   26  O   UNL     1     -12.079  12.176  71.099  1.00  0.00    -0.311 OA 
HETATM   27  H   UNL     1     -12.302  12.009  72.008  1.00  0.00     0.000 HD 
BRANCH  25  28
HETATM   28  C   UNL     1     -11.996   9.770  70.865  1.00  0.00    -0.413 A  
HETATM   29  C   UNL     1     -12.892   8.751  71.224  1.00  0.00    -0.250 A  
HETATM   30  C   UNL     1     -12.431   7.576  71.825  1.00  0.00    -0.360 A  
HETATM   31  C   UNL     1     -11.071   7.402  72.070  1.00  0.00    -0.279 A  
HETATM   32  C   UNL     1     -10.167   8.392  71.698  1.00  0.00    -0.310 A  
HETATM   33  C   UNL     1     -10.626   9.568  71.100  1.00  0.00    -0.388 A  
ENDBRANCH  25  28
ENDBRANCH  24  25
ENDBRANCH  22  24
ENDBRANCH  21  22
ENDBRANCH  20  21
ENDBRANCH  17  20
ENDBRANCH  11  14
ENDBRANCH   9  10
ENDBRANCH   6   9
TORSDOF 9
ENDMDL
MODEL      242
REMARK 921   NORMALIZED FREE ENERGY PREDICTED BY IDOCK:   -3.30 KCAL/MOL
REMARK 922        TOTAL FREE ENERGY PREDICTED BY IDOCK:   -7.48 KCAL/MOL
REMARK 923 INTER-LIGAND FREE ENERGY PREDICTED BY IDOCK:   -6.68 KCAL/MOL
REMARK 924 INTRA-LIGAND FREE ENERGY PREDICTED BY IDOCK:   -0.79 KCAL/MOL
REMARK 927      BINDING AFFINITY PREDICTED BY RF-SCORE:    0.00 PKD
ROOT
HETATM    1  N   UNL     1      -9.269  10.316  63.566  1.00  0.00    -0.267 NA 
HETATM    2  C   UNL     1      -8.275  10.103  64.444  1.00  0.00    -0.165 A  
HETATM    3  H1  UNL     1      -9.308   9.864  62.652  1.00  0.00     0.000 HD 
HETATM    4  H2  UNL     1     -10.017  10.958  63.824  1.00  0.00     0.000 HD 
HETATM    5  N   UNL     1      -8.225  10.683  65.617  1.00  0.00    -0.162 NA 
HETATM    6  C   UNL     1      -7.090  10.270  66.307  1.00  0.00    -0.117 A  
HETATM    7  S   UNL     1      -6.995   9.016  64.101  1.00  0.00    -0.095 SA 
HETATM    8  C   UNL     1      -6.304   9.357  65.630  1.00  0.00    -0.068 A  
ENDROOT
BRANCH   6   9
HETATM    9  C   UNL     1      -6.844  10.810  67.673  1.00  0.00    -0.073 C  
BRANCH   9  10
HETATM   10  C   UNL     1      -7.449  12.181  67.923  1.00  0.00    -0.117 C  
HETATM   11  N   UNL     1      -6.543  13.196  68.195  1.00  0.00    -0.093 N  
HETATM   12  O   UNL     1      -8.662  12.328  67.765  1.00  0.00    -0.157 OA 
HETATM   13  H   UNL     1      -5.563  12.930  68.283  1.00  0.00     0.000 HD 
BRANCH  11  14
HETATM   14  C   UNL     1      -6.855  14.561  68.359  1.00  0.00    -0.104 A  
HETATM   15  C   UNL     1      -7.719  15.027  69.350  1.00  0.00    -0.190 A  
HETATM   16  C   UNL     1      -8.090  16.372  69.403  1.00  0.00    -0.003 A  
HETATM   17  C   UNL     1      -7.592  17.286  68.471  1.00  0.00    -0.251 A  
HETATM   18  C   UNL     1      -6.299  15.483  67.467  1.00  0.00    -0.165 A  
HETATM   19  C   UNL     1      -6.675  16.833  67.513  1.00  0.00    -0.173 A  
BRANCH  17  20
HETATM   20  C   UNL     1      -8.078  18.720  68.469  1.00  0.00    -0.379 C  
BRANCH  20  21
HETATM   21  C   UNL     1      -9.565  18.900  68.821  1.00  0.00    -0.382 C  
BRANCH  21  22
HETATM   22  N   UNL     1     -10.410  18.738  67.641  1.00  0.00    -0.397 NA 
HETATM   23  H   UNL     1      -9.904  18.984  66.790  1.00  0.00     0.000 HD 
BRANCH  22  24
HETATM   24  C   UNL     1     -10.985  17.391  67.544  1.00  0.00    -0.089 C  
BRANCH  24  25
HETATM   25  C   UNL     1     -10.249  16.489  66.520  1.00  0.00    -0.300 C  
HETATM   26  O   UNL     1      -9.862  17.270  65.378  1.00  0.00    -0.445 OA 
HETATM   27  H   UNL     1      -9.411  16.716  64.751  1.00  0.00     0.000 HD 
BRANCH  25  28
HETATM   28  C   UNL     1     -11.002  15.251  66.069  1.00  0.00    -0.317 A  
HETATM   29  C   UNL     1     -11.299  15.060  64.712  1.00  0.00    -0.409 A  
HETATM   30  C   UNL     1     -12.057  13.961  64.295  1.00  0.00    -0.477 A  
HETATM   31  C   UNL     1     -12.521  13.037  65.229  1.00  0.00    -0.555 A  
HETATM   32  C   UNL     1     -12.215  13.200  66.577  1.00  0.00    -0.358 A  
HETATM   33  C   UNL     1     -11.461  14.298  66.994  1.00  0.00    -0.377 A  
ENDBRANCH  25  28
ENDBRANCH  24  25
ENDBRANCH  22  24
ENDBRANCH  21  22
ENDBRANCH  20  21
ENDBRANCH  17  20
ENDBRANCH  11  14
ENDBRANCH   9  10
ENDBRANCH   6   9
TORSDOF 9
ENDMDL
MODEL      243
REMARK 921   NORMALIZED FREE ENERGY PREDICTED BY IDOCK:   -3.29 KCAL/MOL
REMARK 922        TOTAL FREE ENERGY PREDICTED BY IDOCK:   -7.47 KCAL/MOL
REMARK 923 INTER-LIGAND FREE ENERGY PREDICTED BY IDOCK:   -6.23 KCAL/MOL
REMARK 924 INTRA-LIGAND FREE ENERGY PREDICTED BY IDOCK:   -1.24 KCAL/MOL
REMARK 927      BINDING AFFINITY PREDICTED BY RF-SCORE:    0.00 PKD
ROOT
HETATM    1  N   UNL     1      -9.232  11.467  63.862  1.00  0.00    -0.419 NA 
HETATM    2  C   UNL     1     -10.433  12.066  63.803  1.00  0.00    -0.429 A  
HETATM    3  H1  UNL     1      -9.089  10.485  63.625  1.00  0.00     0.000 HD 
HETATM    4  H2  UNL     1      -8.428  12.018  64.157  1.00  0.00     0.000 HD 
HETATM    5  N   UNL     1     -10.617  13.326  64.108  1.00  0.00    -0.383 NA 
HETATM    6  C   UNL     1     -11.956  13.667  63.949  1.00  0.00    -0.408 A  
HETATM    7  S   UNL     1     -11.832  11.218  63.288  1.00  0.00     0.832 SA 
HETATM    8  C   UNL     1     -12.764  12.638  63.504  1.00  0.00    -0.183 A  
ENDROOT
BRANCH   6   9
HETATM    9  C   UNL     1     -12.380  15.065  64.240  1.00  0.00    -0.247 C  
BRANCH   9  10
HETATM   10  C   UNL     1     -11.325  15.907  64.937  1.00  0.00    -0.256 C  
HETATM   11  N   UNL     1     -10.817  15.377  66.113  1.00  0.00    -0.323 N  
HETATM   12  O   UNL     1     -10.918  16.925  64.377  1.00  0.00    -1.016 OA 
HETATM   13  H   UNL     1     -11.241  14.514  66.455  1.00  0.00     0.000 HD 
BRANCH  11  14
HETATM   14  C   UNL     1      -9.766  15.921  66.880  1.00  0.00    -0.230 A  
HETATM   15  C   UNL     1      -8.631  16.497  66.310  1.00  0.00    -0.367 A  
HETATM   16  C   UNL     1      -7.564  16.918  67.105  1.00  0.00    -0.210 A  
HETATM   17  C   UNL     1      -7.615  16.785  68.495  1.00  0.00    -0.217 A  
HETATM   18  C   UNL     1      -9.852  15.850  68.274  1.00  0.00    -0.217 A  
HETATM   19  C   UNL     1      -8.780  16.265  69.076  1.00  0.00    -0.246 A  
BRANCH  17  20
HETATM   20  C   UNL     1      -6.414  17.147  69.344  1.00  0.00    -0.233 C  
BRANCH  20  21
HETATM   21  C   UNL     1      -5.510  15.962  69.725  1.00  0.00    -0.127 C  
BRANCH  21  22
HETATM   22  N   UNL     1      -6.241  14.699  69.663  1.00  0.00    -0.122 NA 
HETATM   23  H   UNL     1      -6.861  14.672  68.853  1.00  0.00     0.000 HD 
BRANCH  22  24
HETATM   24  C   UNL     1      -5.349  13.534  69.686  1.00  0.00    -0.088 C  
BRANCH  24  25
HETATM   25  C   UNL     1      -5.682  12.492  68.587  1.00  0.00    -0.054 C  
HETATM   26  O   UNL     1      -5.402  13.049  67.293  1.00  0.00    -0.331 OA 
HETATM   27  H   UNL     1      -5.606  12.410  66.620  1.00  0.00     0.000 HD 
BRANCH  25  28
HETATM   28  C   UNL     1      -7.092  11.932  68.614  1.00  0.00    -0.102 A  
HETATM   29  C   UNL     1      -8.121  12.572  67.907  1.00  0.00    -0.163 A  
HETATM   30  C   UNL     1      -9.437  12.107  67.985  1.00  0.00    -0.201 A  
HETATM   31  C   UNL     1      -9.740  10.994  68.766  1.00  0.00    -0.199 A  
HETATM   32  C   UNL     1      -8.727  10.333  69.455  1.00  0.00    -0.168 A  
HETATM   33  C   UNL     1      -7.413  10.799  69.379  1.00  0.00    -0.124 A  
ENDBRANCH  25  28
ENDBRANCH  24  25
ENDBRANCH  22  24
ENDBRANCH  21  22
ENDBRANCH  20  21
ENDBRANCH  17  20
ENDBRANCH  11  14
ENDBRANCH   9  10
ENDBRANCH   6   9
TORSDOF 9
ENDMDL
MODEL      244
REMARK 921   NORMALIZED FREE ENERGY PREDICTED BY IDOCK:   -3.28 KCAL/MOL
REMARK 922        TOTAL FREE ENERGY PREDICTED BY IDOCK:   -7.45 KCAL/MOL
REMARK 923 INTER-LIGAND FREE ENERGY PREDICTED BY IDOCK:   -7.00 KCAL/MOL
REMARK 924 INTRA-LIGAND FREE ENERGY PREDICTED BY IDOCK:   -0.45 KCAL/MOL
REMARK 927      BINDING AFFINITY PREDICTED BY RF-SCORE:    0.00 PKD
ROOT
HETATM    1  N   UNL     1     -13.270  12.385  64.569  1.00  0.00    -0.771 NA 
HETATM    2  C   UNL     1     -12.390  13.196  65.180  1.00  0.00    -0.473 A  
HETATM    3  H1  UNL     1     -13.633  12.566  63.632  1.00  0.00     0.000 HD 
HETATM    4  H2  UNL     1     -13.589  11.553  65.062  1.00  0.00     0.000 HD 
HETATM    5  N   UNL     1     -11.925  12.964  66.382  1.00  0.00    -0.414 NA 
HETATM    6  C   UNL     1     -11.033  13.966  66.751  1.00  0.00    -0.299 A  
HETATM    7  S   UNL     1     -11.780  14.600  64.408  1.00  0.00    -0.297 SA 
HETATM    8  C   UNL     1     -10.831  14.940  65.793  1.00  0.00    -0.339 A  
ENDROOT
BRANCH   6   9
HETATM    9  C   UNL     1     -10.381  13.889  68.089  1.00  0.00    -0.247 C  
BRANCH   9  10
HETATM   10  C   UNL     1     -10.075  12.477  68.556  1.00  0.00    -0.181 C  
HETATM   11  N   UNL     1     -10.845  12.016  69.613  1.00  0.00    -0.444 N  
HETATM   12  O   UNL     1      -9.263  11.807  67.917  1.00  0.00    -0.168 OA 
HETATM   13  H   UNL     1     -11.492  12.679  70.040  1.00  0.00     0.000 HD 
BRANCH  11  14
HETATM   14  C   UNL     1     -10.814  10.713  70.152  1.00  0.00    -0.157 A  
HETATM   15  C   UNL     1     -11.960  10.043  70.582  1.00  0.00    -0.401 A  
HETATM   16  C   UNL     1     -11.869   8.803  71.215  1.00  0.00    -0.358 A  
HETATM   17  C   UNL     1     -10.628   8.196  71.421  1.00  0.00    -0.269 A  
HETATM   18  C   UNL     1      -9.575  10.079  70.292  1.00  0.00    -0.075 A  
HETATM   19  C   UNL     1      -9.481   8.836  70.934  1.00  0.00    -0.269 A  
BRANCH  17  20
HETATM   20  C   UNL     1     -10.528   6.901  72.200  1.00  0.00    -0.230 C  
BRANCH  20  21
HETATM   21  C   UNL     1     -11.356   5.736  71.629  1.00  0.00    -0.148 C  
BRANCH  21  22
HETATM   22  N   UNL     1     -10.492   4.668  71.132  1.00  0.00    -0.072 NA 
HETATM   23  H   UNL     1     -10.961   3.764  71.181  1.00  0.00     0.000 HD 
BRANCH  22  24
HETATM   24  C   UNL     1      -9.995   4.935  69.777  1.00  0.00    -0.244 C  
BRANCH  24  25
HETATM   25  C   UNL     1      -9.176   3.758  69.188  1.00  0.00    -0.160 C  
HETATM   26  O   UNL     1      -7.876   3.722  69.798  1.00  0.00    -0.051 OA 
HETATM   27  H   UNL     1      -7.373   3.001  69.437  1.00  0.00     0.000 HD 
BRANCH  25  28
HETATM   28  C   UNL     1      -9.039   3.740  67.677  1.00  0.00    -0.188 A  
HETATM   29  C   UNL     1      -9.867   4.547  66.882  1.00  0.00    -0.238 A  
HETATM   30  C   UNL     1      -9.800   4.482  65.487  1.00  0.00    -0.219 A  
HETATM   31  C   UNL     1      -8.900   3.616  64.870  1.00  0.00    -0.121 A  
HETATM   32  C   UNL     1      -8.055   2.826  65.644  1.00  0.00    -0.087 A  
HETATM   33  C   UNL     1      -8.123   2.888  67.037  1.00  0.00    -0.079 A  
ENDBRANCH  25  28
ENDBRANCH  24  25
ENDBRANCH  22  24
ENDBRANCH  21  22
ENDBRANCH  20  21
ENDBRANCH  17  20
ENDBRANCH  11  14
ENDBRANCH   9  10
ENDBRANCH   6   9
TORSDOF 9
ENDMDL
MODEL      245
REMARK 921   NORMALIZED FREE ENERGY PREDICTED BY IDOCK:   -3.27 KCAL/MOL
REMARK 922        TOTAL FREE ENERGY PREDICTED BY IDOCK:   -7.43 KCAL/MOL
REMARK 923 INTER-LIGAND FREE ENERGY PREDICTED BY IDOCK:   -5.50 KCAL/MOL
REMARK 924 INTRA-LIGAND FREE ENERGY PREDICTED BY IDOCK:   -1.93 KCAL/MOL
REMARK 927      BINDING AFFINITY PREDICTED BY RF-SCORE:    0.00 PKD
ROOT
HETATM    1  N   UNL     1     -12.063  11.759  63.297  1.00  0.00    -0.893 NA 
HETATM    2  C   UNL     1     -11.093  11.649  64.219  1.00  0.00    -0.338 A  
HETATM    3  H1  UNL     1     -11.983  11.369  62.358  1.00  0.00     0.000 HD 
HETATM    4  H2  UNL     1     -12.918  12.254  63.547  1.00  0.00     0.000 HD 
HETATM    5  N   UNL     1     -11.196  12.150  65.425  1.00  0.00    -0.324 NA 
HETATM    6  C   UNL     1     -10.044  11.878  66.156  1.00  0.00    -0.228 A  
HETATM    7  S   UNL     1      -9.636  10.806  63.890  1.00  0.00    -0.320 SA 
HETATM    8  C   UNL     1      -9.087  11.150  65.475  1.00  0.00    -0.195 A  
ENDROOT
BRANCH   6   9
HETATM    9  C   UNL     1      -9.957  12.358  67.564  1.00  0.00    -0.196 C  
BRANCH   9  10
HETATM   10  C   UNL     1      -9.701  11.262  68.584  1.00  0.00    -0.195 C  
HETATM   11  N   UNL     1     -10.826  10.766  69.226  1.00  0.00    -0.227 N  
HETATM   12  O   UNL     1      -8.559  10.816  68.697  1.00  0.00    -0.136 OA 
HETATM   13  H   UNL     1     -11.715  11.224  69.024  1.00  0.00     0.000 HD 
BRANCH  11  14
HETATM   14  C   UNL     1     -10.853   9.686  70.132  1.00  0.00    -0.280 A  
HETATM   15  C   UNL     1     -10.649   8.363  69.742  1.00  0.00    -0.221 A  
HETATM   16  C   UNL     1     -10.799   7.316  70.652  1.00  0.00    -0.261 A  
HETATM   17  C   UNL     1     -11.145   7.571  71.982  1.00  0.00    -0.288 A  
HETATM   18  C   UNL     1     -11.130   9.953  71.477  1.00  0.00    -0.068 A  
HETATM   19  C   UNL     1     -11.289   8.903  72.392  1.00  0.00    -0.173 A  
BRANCH  17  20
HETATM   20  C   UNL     1     -11.408   6.426  72.938  1.00  0.00    -0.169 C  
BRANCH  20  21
HETATM   21  C   UNL     1     -10.974   5.042  72.425  1.00  0.00    -0.132 C  
BRANCH  21  22
HETATM   22  N   UNL     1      -9.924   4.473  73.267  1.00  0.00    -0.137 NA 
HETATM   23  H   UNL     1     -10.193   3.554  73.619  1.00  0.00     0.000 HD 
BRANCH  22  24
HETATM   24  C   UNL     1      -8.627   4.418  72.582  1.00  0.00    -0.109 C  
BRANCH  24  25
HETATM   25  C   UNL     1      -7.670   5.563  73.003  1.00  0.00    -0.097 C  
HETATM   26  O   UNL     1      -8.250   6.304  74.088  1.00  0.00    -0.114 OA 
HETATM   27  H   UNL     1      -7.664   7.006  74.345  1.00  0.00     0.000 HD 
BRANCH  25  28
HETATM   28  C   UNL     1      -7.249   6.512  71.896  1.00  0.00    -0.086 A  
HETATM   29  C   UNL     1      -6.773   7.795  72.207  1.00  0.00    -0.060 A  
HETATM   30  C   UNL     1      -6.453   8.702  71.193  1.00  0.00    -0.055 A  
HETATM   31  C   UNL     1      -6.598   8.337  69.856  1.00  0.00    -0.039 A  
HETATM   32  C   UNL     1      -7.046   7.060  69.530  1.00  0.00    -0.071 A  
HETATM   33  C   UNL     1      -7.369   6.154  70.543  1.00  0.00    -0.085 A  
ENDBRANCH  25  28
ENDBRANCH  24  25
ENDBRANCH  22  24
ENDBRANCH  21  22
ENDBRANCH  20  21
ENDBRANCH  17  20
ENDBRANCH  11  14
ENDBRANCH   9  10
ENDBRANCH   6   9
TORSDOF 9
ENDMDL
MODEL      246
REMARK 921   NORMALIZED FREE ENERGY PREDICTED BY IDOCK:   -3.24 KCAL/MOL
REMARK 922        TOTAL FREE ENERGY PREDICTED BY IDOCK:   -7.39 KCAL/MOL
REMARK 923 INTER-LIGAND FREE ENERGY PREDICTED BY IDOCK:   -6.21 KCAL/MOL
REMARK 924 INTRA-LIGAND FREE ENERGY PREDICTED BY IDOCK:   -1.18 KCAL/MOL
REMARK 927      BINDING AFFINITY PREDICTED BY RF-SCORE:    0.00 PKD
ROOT
HETATM    1  N   UNL     1     -11.871  14.662  65.463  1.00  0.00    -0.328 NA 
HETATM    2  C   UNL     1     -11.656  14.526  66.782  1.00  0.00    -0.376 A  
HETATM    3  H1  UNL     1     -11.491  15.434  64.915  1.00  0.00     0.000 HD 
HETATM    4  H2  UNL     1     -12.439  13.962  64.988  1.00  0.00     0.000 HD 
HETATM    5  N   UNL     1     -12.144  13.535  67.485  1.00  0.00    -0.338 NA 
HETATM    6  C   UNL     1     -11.753  13.654  68.815  1.00  0.00    -0.348 A  
HETATM    7  S   UNL     1     -10.687  15.643  67.650  1.00  0.00    -0.306 SA 
HETATM    8  C   UNL     1     -10.951  14.745  69.085  1.00  0.00    -0.267 A  
ENDROOT
BRANCH   6   9
HETATM    9  C   UNL     1     -12.200  12.619  69.789  1.00  0.00    -0.209 C  
BRANCH   9  10
HETATM   10  C   UNL     1     -11.747  11.208  69.455  1.00  0.00    -0.335 C  
HETATM   11  N   UNL     1     -10.774  11.108  68.472  1.00  0.00    -0.188 N  
HETATM   12  O   UNL     1     -12.176  10.274  70.134  1.00  0.00    -0.249 OA 
HETATM   13  H   UNL     1     -10.500  11.970  68.000  1.00  0.00     0.000 HD 
BRANCH  11  14
HETATM   14  C   UNL     1     -10.129   9.922  68.064  1.00  0.00    -0.171 A  
HETATM   15  C   UNL     1     -10.733   8.975  67.239  1.00  0.00    -0.222 A  
HETATM   16  C   UNL     1     -10.101   7.763  66.956  1.00  0.00    -0.343 A  
HETATM   17  C   UNL     1      -8.839   7.476  67.483  1.00  0.00    -0.127 A  
HETATM   18  C   UNL     1      -8.836   9.671  68.537  1.00  0.00    -0.124 A  
HETATM   19  C   UNL     1      -8.202   8.452  68.261  1.00  0.00    -0.124 A  
BRANCH  17  20
HETATM   20  C   UNL     1      -8.205   6.120  67.258  1.00  0.00    -0.106 C  
BRANCH  20  21
HETATM   21  C   UNL     1      -9.189   4.936  67.265  1.00  0.00    -0.124 C  
BRANCH  21  22
HETATM   22  N   UNL     1      -9.553   4.561  68.629  1.00  0.00    -0.158 NA 
HETATM   23  H   UNL     1      -9.997   3.643  68.652  1.00  0.00     0.000 HD 
BRANCH  22  24
HETATM   24  C   UNL     1      -8.412   4.621  69.550  1.00  0.00    -0.078 C  
BRANCH  24  25
HETATM   25  C   UNL     1      -8.743   5.342  70.882  1.00  0.00    -0.132 C  
HETATM   26  O   UNL     1      -7.525   5.690  71.558  1.00  0.00    -0.091 OA 
HETATM   27  H   UNL     1      -7.729   6.132  72.374  1.00  0.00     0.000 HD 
BRANCH  25  28
HETATM   28  C   UNL     1      -9.663   4.592  71.827  1.00  0.00    -0.235 A  
HETATM   29  C   UNL     1     -10.346   5.279  72.842  1.00  0.00    -0.235 A  
HETATM   30  C   UNL     1     -11.138   4.587  73.764  1.00  0.00    -0.330 A  
HETATM   31  C   UNL     1     -11.261   3.202  73.679  1.00  0.00    -0.288 A  
HETATM   32  C   UNL     1     -10.609   2.508  72.664  1.00  0.00    -0.156 A  
HETATM   33  C   UNL     1      -9.816   3.198  71.745  1.00  0.00    -0.229 A  
ENDBRANCH  25  28
ENDBRANCH  24  25
ENDBRANCH  22  24
ENDBRANCH  21  22
ENDBRANCH  20  21
ENDBRANCH  17  20
ENDBRANCH  11  14
ENDBRANCH   9  10
ENDBRANCH   6   9
TORSDOF 9
ENDMDL
MODEL      247
REMARK 921   NORMALIZED FREE ENERGY PREDICTED BY IDOCK:   -3.24 KCAL/MOL
REMARK 922        TOTAL FREE ENERGY PREDICTED BY IDOCK:   -7.39 KCAL/MOL
REMARK 923 INTER-LIGAND FREE ENERGY PREDICTED BY IDOCK:   -6.14 KCAL/MOL
REMARK 924 INTRA-LIGAND FREE ENERGY PREDICTED BY IDOCK:   -1.25 KCAL/MOL
REMARK 927      BINDING AFFINITY PREDICTED BY RF-SCORE:    0.00 PKD
ROOT
HETATM    1  N   UNL     1     -10.012   8.167  66.160  1.00  0.00    -0.467 NA 
HETATM    2  C   UNL     1      -9.384   7.474  67.124  1.00  0.00    -0.142 A  
HETATM    3  H1  UNL     1     -10.458   7.723  65.357  1.00  0.00     0.000 HD 
HETATM    4  H2  UNL     1     -10.044   9.183  66.234  1.00  0.00     0.000 HD 
HETATM    5  N   UNL     1      -8.811   8.044  68.154  1.00  0.00    -0.132 NA 
HETATM    6  C   UNL     1      -8.249   7.080  68.984  1.00  0.00    -0.125 A  
HETATM    7  S   UNL     1      -9.312   5.761  67.091  1.00  0.00    -0.119 SA 
HETATM    8  C   UNL     1      -8.429   5.777  68.559  1.00  0.00    -0.110 A  
ENDROOT
BRANCH   6   9
HETATM    9  C   UNL     1      -7.549   7.519  70.223  1.00  0.00    -0.090 C  
BRANCH   9  10
HETATM   10  C   UNL     1      -7.539   9.023  70.437  1.00  0.00    -0.100 C  
HETATM   11  N   UNL     1      -6.677   9.739  69.621  1.00  0.00    -0.049 N  
HETATM   12  O   UNL     1      -8.353   9.512  71.222  1.00  0.00    -0.265 OA 
HETATM   13  H   UNL     1      -6.068   9.201  69.005  1.00  0.00     0.000 HD 
BRANCH  11  14
HETATM   14  C   UNL     1      -6.567  11.143  69.565  1.00  0.00    -0.126 A  
HETATM   15  C   UNL     1      -5.779  11.878  70.451  1.00  0.00    -0.163 A  
HETATM   16  C   UNL     1      -5.791  13.274  70.432  1.00  0.00    -0.161 A  
HETATM   17  C   UNL     1      -6.583  13.968  69.514  1.00  0.00    -0.115 A  
HETATM   18  C   UNL     1      -7.307  11.832  68.598  1.00  0.00    -0.115 A  
HETATM   19  C   UNL     1      -7.327  13.233  68.581  1.00  0.00    -0.101 A  
BRANCH  17  20
HETATM   20  C   UNL     1      -6.671  15.479  69.567  1.00  0.00    -0.179 C  
BRANCH  20  21
HETATM   21  C   UNL     1      -7.390  16.128  68.371  1.00  0.00    -0.140 C  
BRANCH  21  22
HETATM   22  N   UNL     1      -7.976  17.413  68.741  1.00  0.00    -0.266 NA 
HETATM   23  H   UNL     1      -7.612  18.165  68.155  1.00  0.00     0.000 HD 
BRANCH  22  24
HETATM   24  C   UNL     1      -9.443  17.387  68.718  1.00  0.00    -0.256 C  
BRANCH  24  25
HETATM   25  C   UNL     1     -10.029  17.460  67.284  1.00  0.00    -0.302 C  
HETATM   26  O   UNL     1     -11.027  18.492  67.222  1.00  0.00    -0.365 OA 
HETATM   27  H   UNL     1     -11.386  18.536  66.344  1.00  0.00     0.000 HD 
BRANCH  25  28
HETATM   28  C   UNL     1     -10.593  16.163  66.735  1.00  0.00    -0.277 A  
HETATM   29  C   UNL     1     -10.425  15.837  65.380  1.00  0.00    -0.438 A  
HETATM   30  C   UNL     1     -11.003  14.681  64.848  1.00  0.00    -0.419 A  
HETATM   31  C   UNL     1     -11.751  13.834  65.663  1.00  0.00    -0.360 A  
HETATM   32  C   UNL     1     -11.907  14.130  67.014  1.00  0.00    -0.458 A  
HETATM   33  C   UNL     1     -11.332  15.286  67.545  1.00  0.00    -0.300 A  
ENDBRANCH  25  28
ENDBRANCH  24  25
ENDBRANCH  22  24
ENDBRANCH  21  22
ENDBRANCH  20  21
ENDBRANCH  17  20
ENDBRANCH  11  14
ENDBRANCH   9  10
ENDBRANCH   6   9
TORSDOF 9
ENDMDL
MODEL      248
REMARK 921   NORMALIZED FREE ENERGY PREDICTED BY IDOCK:   -3.24 KCAL/MOL
REMARK 922        TOTAL FREE ENERGY PREDICTED BY IDOCK:   -7.38 KCAL/MOL
REMARK 923 INTER-LIGAND FREE ENERGY PREDICTED BY IDOCK:   -6.06 KCAL/MOL
REMARK 924 INTRA-LIGAND FREE ENERGY PREDICTED BY IDOCK:   -1.33 KCAL/MOL
REMARK 927      BINDING AFFINITY PREDICTED BY RF-SCORE:    0.00 PKD
ROOT
HETATM    1  N   UNL     1      -6.728   5.457  74.473  1.00  0.00    -0.075 NA 
HETATM    2  C   UNL     1      -7.807   5.646  73.695  1.00  0.00    -0.105 A  
HETATM    3  H1  UNL     1      -6.718   5.672  75.470  1.00  0.00     0.000 HD 
HETATM    4  H2  UNL     1      -5.882   5.082  74.047  1.00  0.00     0.000 HD 
HETATM    5  N   UNL     1      -7.820   5.370  72.416  1.00  0.00    -0.101 NA 
HETATM    6  C   UNL     1      -9.069   5.661  71.876  1.00  0.00    -0.138 A  
HETATM    7  S   UNL     1      -9.280   6.244  74.338  1.00  0.00    -0.193 SA 
HETATM    8  C   UNL     1      -9.991   6.145  72.783  1.00  0.00    -0.172 A  
ENDROOT
BRANCH   6   9
HETATM    9  C   UNL     1      -9.299   5.413  70.425  1.00  0.00    -0.203 C  
BRANCH   9  10
HETATM   10  C   UNL     1      -9.050   6.620  69.536  1.00  0.00    -0.144 C  
HETATM   11  N   UNL     1     -10.143   7.447  69.328  1.00  0.00    -0.181 N  
HETATM   12  O   UNL     1      -7.900   6.844  69.155  1.00  0.00    -0.107 OA 
HETATM   13  H   UNL     1     -11.035   7.143  69.717  1.00  0.00     0.000 HD 
BRANCH  11  14
HETATM   14  C   UNL     1     -10.132   8.671  68.628  1.00  0.00    -0.190 A  
HETATM   15  C   UNL     1      -9.903   9.898  69.249  1.00  0.00    -0.217 A  
HETATM   16  C   UNL     1     -10.017  11.094  68.539  1.00  0.00    -0.204 A  
HETATM   17  C   UNL     1     -10.350  11.088  67.182  1.00  0.00    -0.259 A  
HETATM   18  C   UNL     1     -10.397   8.655  67.254  1.00  0.00    -0.366 A  
HETATM   19  C   UNL     1     -10.519   9.854  66.539  1.00  0.00    -0.213 A  
BRANCH  17  20
HETATM   20  C   UNL     1     -10.574  12.391  66.442  1.00  0.00    -0.271 C  
BRANCH  20  21
HETATM   21  C   UNL     1     -12.034  12.877  66.415  1.00  0.00    -0.395 C  
BRANCH  21  22
HETATM   22  N   UNL     1     -12.160  14.204  67.012  1.00  0.00    -0.496 NA 
HETATM   23  H   UNL     1     -13.045  14.640  66.754  1.00  0.00     0.000 HD 
BRANCH  22  24
HETATM   24  C   UNL     1     -11.986  14.180  68.470  1.00  0.00    -0.332 C  
BRANCH  24  25
HETATM   25  C   UNL     1     -11.057  15.308  68.988  1.00  0.00    -0.260 C  
HETATM   26  O   UNL     1     -11.724  16.574  68.874  1.00  0.00    -0.185 OA 
HETATM   27  H   UNL     1     -11.154  17.265  69.192  1.00  0.00     0.000 HD 
BRANCH  25  28
HETATM   28  C   UNL     1      -9.687  15.384  68.340  1.00  0.00    -0.211 A  
HETATM   29  C   UNL     1      -8.599  14.701  68.904  1.00  0.00    -0.131 A  
HETATM   30  C   UNL     1      -7.318  14.824  68.358  1.00  0.00    -0.116 A  
HETATM   31  C   UNL     1      -7.110  15.627  67.238  1.00  0.00    -0.242 A  
HETATM   32  C   UNL     1      -8.182  16.293  66.653  1.00  0.00    -0.316 A  
HETATM   33  C   UNL     1      -9.461  16.172  67.200  1.00  0.00    -0.231 A  
ENDBRANCH  25  28
ENDBRANCH  24  25
ENDBRANCH  22  24
ENDBRANCH  21  22
ENDBRANCH  20  21
ENDBRANCH  17  20
ENDBRANCH  11  14
ENDBRANCH   9  10
ENDBRANCH   6   9
TORSDOF 9
ENDMDL
MODEL      249
REMARK 921   NORMALIZED FREE ENERGY PREDICTED BY IDOCK:   -3.22 KCAL/MOL
REMARK 922        TOTAL FREE ENERGY PREDICTED BY IDOCK:   -7.36 KCAL/MOL
REMARK 923 INTER-LIGAND FREE ENERGY PREDICTED BY IDOCK:   -6.48 KCAL/MOL
REMARK 924 INTRA-LIGAND FREE ENERGY PREDICTED BY IDOCK:   -0.88 KCAL/MOL
REMARK 927      BINDING AFFINITY PREDICTED BY RF-SCORE:    0.00 PKD
ROOT
HETATM    1  N   UNL     1     -10.176  10.391  66.017  1.00  0.00    -0.243 NA 
HETATM    2  C   UNL     1      -8.967   9.997  66.450  1.00  0.00    -0.144 A  
HETATM    3  H1  UNL     1     -10.830   9.763  65.551  1.00  0.00     0.000 HD 
HETATM    4  H2  UNL     1     -10.452  11.362  66.160  1.00  0.00     0.000 HD 
HETATM    5  N   UNL     1      -8.127  10.804  67.049  1.00  0.00    -0.120 NA 
HETATM    6  C   UNL     1      -6.964  10.120  67.387  1.00  0.00    -0.082 A  
HETATM    7  S   UNL     1      -8.438   8.376  66.276  1.00  0.00    -0.134 SA 
HETATM    8  C   UNL     1      -6.962   8.782  67.043  1.00  0.00    -0.074 A  
ENDROOT
BRANCH   6   9
HETATM    9  C   UNL     1      -5.874  10.857  68.085  1.00  0.00    -0.046 C  
BRANCH   9  10
HETATM   10  C   UNL     1      -6.263  12.247  68.561  1.00  0.00    -0.057 C  
HETATM   11  N   UNL     1      -6.297  13.228  67.581  1.00  0.00    -0.158 N  
HETATM   12  O   UNL     1      -6.621  12.391  69.731  1.00  0.00    -0.075 OA 
HETATM   13  H   UNL     1      -5.986  12.961  66.647  1.00  0.00     0.000 HD 
BRANCH  11  14
HETATM   14  C   UNL     1      -6.723  14.560  67.759  1.00  0.00    -0.174 A  
HETATM   15  C   UNL     1      -6.109  15.440  68.650  1.00  0.00    -0.096 A  
HETATM   16  C   UNL     1      -6.636  16.712  68.879  1.00  0.00    -0.178 A  
HETATM   17  C   UNL     1      -7.786  17.139  68.209  1.00  0.00    -0.220 A  
HETATM   18  C   UNL     1      -7.833  15.007  67.034  1.00  0.00    -0.164 A  
HETATM   19  C   UNL     1      -8.369  16.281  67.267  1.00  0.00    -0.203 A  
BRANCH  17  20
HETATM   20  C   UNL     1      -8.411  18.478  68.538  1.00  0.00    -0.354 C  
BRANCH  20  21
HETATM   21  C   UNL     1      -9.771  18.740  67.867  1.00  0.00    -0.329 C  
BRANCH  21  22
HETATM   22  N   UNL     1     -10.874  18.333  68.733  1.00  0.00    -0.130 NA 
HETATM   23  H   UNL     1     -11.624  17.899  68.194  1.00  0.00     0.000 HD 
BRANCH  22  24
HETATM   24  C   UNL     1     -10.434  17.458  69.827  1.00  0.00     0.268 C  
BRANCH  24  25
HETATM   25  C   UNL     1     -10.971  16.009  69.699  1.00  0.00    -0.326 C  
HETATM   26  O   UNL     1     -11.741  15.884  68.494  1.00  0.00    -0.383 OA 
HETATM   27  H   UNL     1     -12.071  14.996  68.416  1.00  0.00     0.000 HD 
BRANCH  25  28
HETATM   28  C   UNL     1     -11.774  15.497  70.881  1.00  0.00    -0.413 A  
HETATM   29  C   UNL     1     -12.562  14.343  70.753  1.00  0.00    -0.426 A  
HETATM   30  C   UNL     1     -13.362  13.905  71.813  1.00  0.00    -0.461 A  
HETATM   31  C   UNL     1     -13.381  14.611  73.014  1.00  0.00    -0.527 A  
HETATM   32  C   UNL     1     -12.587  15.744  73.165  1.00  0.00    -0.607 A  
HETATM   33  C   UNL     1     -11.789  16.184  72.106  1.00  0.00    -0.626 A  
ENDBRANCH  25  28
ENDBRANCH  24  25
ENDBRANCH  22  24
ENDBRANCH  21  22
ENDBRANCH  20  21
ENDBRANCH  17  20
ENDBRANCH  11  14
ENDBRANCH   9  10
ENDBRANCH   6   9
TORSDOF 9
ENDMDL
MODEL      250
REMARK 921   NORMALIZED FREE ENERGY PREDICTED BY IDOCK:   -3.21 KCAL/MOL
REMARK 922        TOTAL FREE ENERGY PREDICTED BY IDOCK:   -7.34 KCAL/MOL
REMARK 923 INTER-LIGAND FREE ENERGY PREDICTED BY IDOCK:   -6.91 KCAL/MOL
REMARK 924 INTRA-LIGAND FREE ENERGY PREDICTED BY IDOCK:   -0.43 KCAL/MOL
REMARK 927      BINDING AFFINITY PREDICTED BY RF-SCORE:    0.00 PKD
ROOT
HETATM    1  N   UNL     1      -6.073   6.116  70.186  1.00  0.00    -0.029 NA 
HETATM    2  C   UNL     1      -7.059   6.646  70.928  1.00  0.00    -0.069 A  
HETATM    3  H1  UNL     1      -5.096   6.116  70.479  1.00  0.00     0.000 HD 
HETATM    4  H2  UNL     1      -6.311   5.695  69.289  1.00  0.00     0.000 HD 
HETATM    5  N   UNL     1      -8.313   6.646  70.551  1.00  0.00    -0.128 NA 
HETATM    6  C   UNL     1      -9.104   7.256  71.519  1.00  0.00    -0.140 A  
HETATM    7  S   UNL     1      -6.747   7.347  72.462  1.00  0.00    -0.060 SA 
HETATM    8  C   UNL     1      -8.415   7.696  72.633  1.00  0.00    -0.126 A  
ENDROOT
BRANCH   6   9
HETATM    9  C   UNL     1     -10.572   7.356  71.288  1.00  0.00    -0.231 C  
BRANCH   9  10
HETATM   10  C   UNL     1     -11.018   8.662  70.652  1.00  0.00    -0.240 C  
HETATM   11  N   UNL     1     -10.375   9.003  69.471  1.00  0.00    -0.204 N  
HETATM   12  O   UNL     1     -11.971   9.265  71.148  1.00  0.00    -0.293 OA 
HETATM   13  H   UNL     1      -9.610   8.401  69.169  1.00  0.00     0.000 HD 
BRANCH  11  14
HETATM   14  C   UNL     1     -10.684  10.107  68.651  1.00  0.00    -0.222 A  
HETATM   15  C   UNL     1     -11.420  11.204  69.100  1.00  0.00    -0.366 A  
HETATM   16  C   UNL     1     -11.801  12.219  68.221  1.00  0.00    -0.367 A  
HETATM   17  C   UNL     1     -11.442  12.167  66.872  1.00  0.00    -0.414 A  
HETATM   18  C   UNL     1     -10.262  10.084  67.317  1.00  0.00    -0.275 A  
HETATM   19  C   UNL     1     -10.650  11.099  66.431  1.00  0.00    -0.315 A  
BRANCH  17  20
HETATM   20  C   UNL     1     -11.947  13.218  65.904  1.00  0.00    -0.466 C  
BRANCH  20  21
HETATM   21  C   UNL     1     -10.861  14.147  65.334  1.00  0.00    -0.337 C  
BRANCH  21  22
HETATM   22  N   UNL     1     -11.039  15.518  65.803  1.00  0.00    -0.268 NA 
HETATM   23  H   UNL     1     -11.693  15.557  66.586  1.00  0.00     0.000 HD 
BRANCH  22  24
HETATM   24  C   UNL     1      -9.766  16.163  66.145  1.00  0.00    -0.323 C  
BRANCH  24  25
HETATM   25  C   UNL     1      -9.801  16.888  67.514  1.00  0.00    -0.260 C  
HETATM   26  O   UNL     1     -10.671  18.028  67.436  1.00  0.00    -0.390 OA 
HETATM   27  H   UNL     1     -10.692  18.472  68.275  1.00  0.00     0.000 HD 
BRANCH  25  28
HETATM   28  C   UNL     1      -8.453  17.304  68.075  1.00  0.00    -0.229 A  
HETATM   29  C   UNL     1      -7.876  18.526  67.696  1.00  0.00    -0.245 A  
HETATM   30  C   UNL     1      -6.603  18.884  68.149  1.00  0.00    -0.242 A  
HETATM   31  C   UNL     1      -5.894  18.030  68.991  1.00  0.00    -0.211 A  
HETATM   32  C   UNL     1      -6.462  16.826  69.395  1.00  0.00    -0.229 A  
HETATM   33  C   UNL     1      -7.732  16.466  68.941  1.00  0.00    -0.230 A  
ENDBRANCH  25  28
ENDBRANCH  24  25
ENDBRANCH  22  24
ENDBRANCH  21  22
ENDBRANCH  20  21
ENDBRANCH  17  20
ENDBRANCH  11  14
ENDBRANCH   9  10
ENDBRANCH   6   9
TORSDOF 9
ENDMDL
MODEL      251
REMARK 921   NORMALIZED FREE ENERGY PREDICTED BY IDOCK:   -3.19 KCAL/MOL
REMARK 922        TOTAL FREE ENERGY PREDICTED BY IDOCK:   -7.31 KCAL/MOL
REMARK 923 INTER-LIGAND FREE ENERGY PREDICTED BY IDOCK:   -6.98 KCAL/MOL
REMARK 924 INTRA-LIGAND FREE ENERGY PREDICTED BY IDOCK:   -0.33 KCAL/MOL
REMARK 927      BINDING AFFINITY PREDICTED BY RF-SCORE:    0.00 PKD
ROOT
HETATM    1  N   UNL     1      -8.488   3.561  74.566  1.00  0.00    -0.083 NA 
HETATM    2  C   UNL     1      -9.095   4.083  73.488  1.00  0.00    -0.102 A  
HETATM    3  H1  UNL     1      -7.648   2.986  74.505  1.00  0.00     0.000 HD 
HETATM    4  H2  UNL     1      -8.884   3.748  75.486  1.00  0.00     0.000 HD 
HETATM    5  N   UNL     1     -10.174   4.822  73.565  1.00  0.00    -0.164 NA 
HETATM    6  C   UNL     1     -10.572   5.223  72.294  1.00  0.00    -0.222 A  
HETATM    7  S   UNL     1      -8.476   3.842  71.907  1.00  0.00    -0.100 SA 
HETATM    8  C   UNL     1      -9.758   4.782  71.269  1.00  0.00    -0.178 A  
ENDROOT
BRANCH   6   9
HETATM    9  C   UNL     1     -11.783   6.081  72.159  1.00  0.00    -0.335 C  
BRANCH   9  10
HETATM   10  C   UNL     1     -11.762   7.007  70.955  1.00  0.00    -0.333 C  
HETATM   11  N   UNL     1     -11.522   8.345  71.233  1.00  0.00    -0.271 N  
HETATM   12  O   UNL     1     -11.846   6.514  69.830  1.00  0.00    -0.345 OA 
HETATM   13  H   UNL     1     -11.459   8.610  72.215  1.00  0.00     0.000 HD 
BRANCH  11  14
HETATM   14  C   UNL     1     -11.358   9.371  70.280  1.00  0.00    -0.220 A  
HETATM   15  C   UNL     1     -12.249  10.435  70.150  1.00  0.00    -0.305 A  
HETATM   16  C   UNL     1     -12.111  11.364  69.117  1.00  0.00    -0.331 A  
HETATM   17  C   UNL     1     -11.066  11.257  68.196  1.00  0.00    -0.319 A  
HETATM   18  C   UNL     1     -10.270   9.298  69.403  1.00  0.00    -0.214 A  
HETATM   19  C   UNL     1     -10.132  10.225  68.361  1.00  0.00    -0.178 A  
BRANCH  17  20
HETATM   20  C   UNL     1     -10.982  12.205  67.019  1.00  0.00    -0.319 C  
BRANCH  20  21
HETATM   21  C   UNL     1      -9.553  12.608  66.613  1.00  0.00    -0.249 C  
BRANCH  21  22
HETATM   22  N   UNL     1      -9.439  14.054  66.446  1.00  0.00    -0.378 NA 
HETATM   23  H   UNL     1     -10.117  14.401  65.767  1.00  0.00     0.000 HD 
BRANCH  22  24
HETATM   24  C   UNL     1      -9.551  14.775  67.720  1.00  0.00    -0.209 C  
BRANCH  24  25
HETATM   25  C   UNL     1      -8.260  15.545  68.098  1.00  0.00    -0.144 C  
HETATM   26  O   UNL     1      -7.791  15.104  69.381  1.00  0.00    -0.196 OA 
HETATM   27  H   UNL     1      -7.000  15.576  69.612  1.00  0.00     0.000 HD 
BRANCH  25  28
HETATM   28  C   UNL     1      -8.366  17.059  68.079  1.00  0.00    -0.211 A  
HETATM   29  C   UNL     1      -9.572  17.688  68.425  1.00  0.00    -0.310 A  
HETATM   30  C   UNL     1      -9.701  19.077  68.340  1.00  0.00    -0.442 A  
HETATM   31  C   UNL     1      -8.627  19.855  67.913  1.00  0.00    -0.341 A  
HETATM   32  C   UNL     1      -7.417  19.249  67.589  1.00  0.00    -0.271 A  
HETATM   33  C   UNL     1      -7.287  17.862  67.671  1.00  0.00    -0.211 A  
ENDBRANCH  25  28
ENDBRANCH  24  25
ENDBRANCH  22  24
ENDBRANCH  21  22
ENDBRANCH  20  21
ENDBRANCH  17  20
ENDBRANCH  11  14
ENDBRANCH   9  10
ENDBRANCH   6   9
TORSDOF 9
ENDMDL
MODEL      252
REMARK 921   NORMALIZED FREE ENERGY PREDICTED BY IDOCK:   -3.19 KCAL/MOL
REMARK 922        TOTAL FREE ENERGY PREDICTED BY IDOCK:   -7.31 KCAL/MOL
REMARK 923 INTER-LIGAND FREE ENERGY PREDICTED BY IDOCK:   -6.89 KCAL/MOL
REMARK 924 INTRA-LIGAND FREE ENERGY PREDICTED BY IDOCK:   -0.41 KCAL/MOL
REMARK 927      BINDING AFFINITY PREDICTED BY RF-SCORE:    0.00 PKD
ROOT
HETATM    1  N   UNL     1     -12.137  15.783  68.813  1.00  0.00    -0.545 NA 
HETATM    2  C   UNL     1     -11.584  14.844  68.028  1.00  0.00    -0.341 A  
HETATM    3  H1  UNL     1     -11.992  16.782  68.670  1.00  0.00     0.000 HD 
HETATM    4  H2  UNL     1     -12.728  15.483  69.587  1.00  0.00     0.000 HD 
HETATM    5  N   UNL     1     -11.769  13.561  68.212  1.00  0.00    -0.339 NA 
HETATM    6  C   UNL     1     -11.080  12.834  67.247  1.00  0.00    -0.276 A  
HETATM    7  S   UNL     1     -10.602  15.264  66.687  1.00  0.00    -0.307 SA 
HETATM    8  C   UNL     1     -10.389  13.603  66.330  1.00  0.00    -0.286 A  
ENDROOT
BRANCH   6   9
HETATM    9  C   UNL     1     -11.162  11.347  67.274  1.00  0.00    -0.370 C  
BRANCH   9  10
HETATM   10  C   UNL     1     -10.571  10.709  68.519  1.00  0.00    -0.200 C  
HETATM   11  N   UNL     1     -11.486  10.137  69.391  1.00  0.00    -0.417 N  
HETATM   12  O   UNL     1      -9.346  10.643  68.624  1.00  0.00    -0.161 OA 
HETATM   13  H   UNL     1     -12.474  10.257  69.171  1.00  0.00     0.000 HD 
BRANCH  11  14
HETATM   14  C   UNL     1     -11.173   9.404  70.554  1.00  0.00    -0.275 A  
HETATM   15  C   UNL     1      -9.910   9.422  71.145  1.00  0.00    -0.287 A  
HETATM   16  C   UNL     1      -9.613   8.591  72.227  1.00  0.00    -0.377 A  
HETATM   17  C   UNL     1     -10.581   7.732  72.753  1.00  0.00    -0.401 A  
HETATM   18  C   UNL     1     -12.166   8.598  71.121  1.00  0.00    -0.272 A  
HETATM   19  C   UNL     1     -11.869   7.757  72.202  1.00  0.00    -0.370 A  
BRANCH  17  20
HETATM   20  C   UNL     1     -10.223   6.760  73.858  1.00  0.00    -0.396 C  
BRANCH  20  21
HETATM   21  C   UNL     1      -8.813   6.152  73.753  1.00  0.00    -0.123 C  
BRANCH  21  22
HETATM   22  N   UNL     1      -8.874   4.728  73.436  1.00  0.00    -0.106 NA 
HETATM   23  H   UNL     1      -8.874   4.162  74.284  1.00  0.00     0.000 HD 
BRANCH  22  24
HETATM   24  C   UNL     1     -10.017   4.395  72.577  1.00  0.00    -0.169 C  
BRANCH  24  25
HETATM   25  C   UNL     1      -9.743   3.188  71.643  1.00  0.00    -0.164 C  
HETATM   26  O   UNL     1      -9.011   2.180  72.358  1.00  0.00    -0.068 OA 
HETATM   27  H   UNL     1      -8.844   1.440  71.786  1.00  0.00     0.000 HD 
BRANCH  25  28
HETATM   28  C   UNL     1      -9.040   3.509  70.338  1.00  0.00    -0.197 A  
HETATM   29  C   UNL     1      -7.639   3.579  70.288  1.00  0.00    -0.044 A  
HETATM   30  C   UNL     1      -6.985   3.947  69.109  1.00  0.00    -0.046 A  
HETATM   31  C   UNL     1      -7.721   4.244  67.964  1.00  0.00    -0.075 A  
HETATM   32  C   UNL     1      -9.110   4.156  67.990  1.00  0.00    -0.172 A  
HETATM   33  C   UNL     1      -9.764   3.792  69.168  1.00  0.00    -0.107 A  
ENDBRANCH  25  28
ENDBRANCH  24  25
ENDBRANCH  22  24
ENDBRANCH  21  22
ENDBRANCH  20  21
ENDBRANCH  17  20
ENDBRANCH  11  14
ENDBRANCH   9  10
ENDBRANCH   6   9
TORSDOF 9
ENDMDL
MODEL      253
REMARK 921   NORMALIZED FREE ENERGY PREDICTED BY IDOCK:   -3.15 KCAL/MOL
REMARK 922        TOTAL FREE ENERGY PREDICTED BY IDOCK:   -7.25 KCAL/MOL
REMARK 923 INTER-LIGAND FREE ENERGY PREDICTED BY IDOCK:   -5.24 KCAL/MOL
REMARK 924 INTRA-LIGAND FREE ENERGY PREDICTED BY IDOCK:   -2.01 KCAL/MOL
REMARK 927      BINDING AFFINITY PREDICTED BY RF-SCORE:    0.00 PKD
ROOT
HETATM    1  N   UNL     1     -12.138  11.964  67.565  1.00  0.00    -0.528 NA 
HETATM    2  C   UNL     1     -10.928  12.513  67.759  1.00  0.00    -0.234 A  
HETATM    3  H1  UNL     1     -12.970  12.514  67.354  1.00  0.00     0.000 HD 
HETATM    4  H2  UNL     1     -12.228  10.951  67.631  1.00  0.00     0.000 HD 
HETATM    5  N   UNL     1      -9.859  11.807  68.030  1.00  0.00    -0.178 NA 
HETATM    6  C   UNL     1      -8.756  12.642  68.174  1.00  0.00    -0.190 A  
HETATM    7  S   UNL     1     -10.684  14.206  67.637  1.00  0.00    -0.260 SA 
HETATM    8  C   UNL     1      -9.022  13.985  67.990  1.00  0.00    -0.182 A  
ENDROOT
BRANCH   6   9
HETATM    9  C   UNL     1      -7.431  12.035  68.481  1.00  0.00    -0.117 C  
BRANCH   9  10
HETATM   10  C   UNL     1      -7.447  11.048  69.636  1.00  0.00     0.039 C  
HETATM   11  N   UNL     1      -8.351  10.003  69.519  1.00  0.00    -0.159 N  
HETATM   12  O   UNL     1      -6.605  11.170  70.527  1.00  0.00    -0.273 OA 
HETATM   13  H   UNL     1      -8.981  10.022  68.717  1.00  0.00     0.000 HD 
BRANCH  11  14
HETATM   14  C   UNL     1      -8.478   8.916  70.408  1.00  0.00    -0.166 A  
HETATM   15  C   UNL     1      -7.402   8.110  70.781  1.00  0.00    -0.058 A  
HETATM   16  C   UNL     1      -7.596   6.976  71.571  1.00  0.00    -0.089 A  
HETATM   17  C   UNL     1      -8.873   6.629  72.020  1.00  0.00    -0.135 A  
HETATM   18  C   UNL     1      -9.748   8.614  70.912  1.00  0.00    -0.254 A  
HETATM   19  C   UNL     1      -9.946   7.471  71.700  1.00  0.00    -0.200 A  
BRANCH  17  20
HETATM   20  C   UNL     1      -9.091   5.343  72.788  1.00  0.00    -0.133 C  
BRANCH  20  21
HETATM   21  C   UNL     1      -8.833   4.057  71.984  1.00  0.00    -0.109 C  
BRANCH  21  22
HETATM   22  N   UNL     1      -9.693   3.989  70.806  1.00  0.00    -0.192 NA 
HETATM   23  H   UNL     1     -10.425   4.699  70.844  1.00  0.00     0.000 HD 
BRANCH  22  24
HETATM   24  C   UNL     1      -8.935   4.076  69.553  1.00  0.00    -0.103 C  
BRANCH  24  25
HETATM   25  C   UNL     1      -9.828   4.380  68.323  1.00  0.00    -0.064 C  
HETATM   26  O   UNL     1      -9.629   3.371  67.320  1.00  0.00    -0.288 OA 
HETATM   27  H   UNL     1     -10.177   3.557  66.567  1.00  0.00     0.000 HD 
BRANCH  25  28
HETATM   28  C   UNL     1      -9.659   5.758  67.709  1.00  0.00    -0.121 A  
HETATM   29  C   UNL     1      -8.385   6.219  67.347  1.00  0.00    -0.109 A  
HETATM   30  C   UNL     1      -8.210   7.514  66.850  1.00  0.00    -0.124 A  
HETATM   31  C   UNL     1      -9.307   8.361  66.703  1.00  0.00    -0.245 A  
HETATM   32  C   UNL     1     -10.580   7.911  67.035  1.00  0.00    -0.381 A  
HETATM   33  C   UNL     1     -10.755   6.618  67.534  1.00  0.00    -0.387 A  
ENDBRANCH  25  28
ENDBRANCH  24  25
ENDBRANCH  22  24
ENDBRANCH  21  22
ENDBRANCH  20  21
ENDBRANCH  17  20
ENDBRANCH  11  14
ENDBRANCH   9  10
ENDBRANCH   6   9
TORSDOF 9
ENDMDL
MODEL      254
REMARK 921   NORMALIZED FREE ENERGY PREDICTED BY IDOCK:   -3.14 KCAL/MOL
REMARK 922        TOTAL FREE ENERGY PREDICTED BY IDOCK:   -7.24 KCAL/MOL
REMARK 923 INTER-LIGAND FREE ENERGY PREDICTED BY IDOCK:   -5.92 KCAL/MOL
REMARK 924 INTRA-LIGAND FREE ENERGY PREDICTED BY IDOCK:   -1.32 KCAL/MOL
REMARK 927      BINDING AFFINITY PREDICTED BY RF-SCORE:    0.00 PKD
ROOT
HETATM    1  N   UNL     1     -10.235  18.855  68.361  1.00  0.00    -0.385 NA 
HETATM    2  C   UNL     1      -9.766  17.597  68.371  1.00  0.00    -0.321 A  
HETATM    3  H1  UNL     1      -9.647  19.665  68.158  1.00  0.00     0.000 HD 
HETATM    4  H2  UNL     1     -11.221  19.009  68.565  1.00  0.00     0.000 HD 
HETATM    5  N   UNL     1     -10.520  16.558  68.632  1.00  0.00    -0.284 NA 
HETATM    6  C   UNL     1      -9.766  15.391  68.566  1.00  0.00    -0.204 A  
HETATM    7  S   UNL     1      -8.127  17.249  68.009  1.00  0.00    -0.228 SA 
HETATM    8  C   UNL     1      -8.438  15.580  68.234  1.00  0.00    -0.156 A  
ENDROOT
BRANCH   6   9
HETATM    9  C   UNL     1     -10.438  14.087  68.825  1.00  0.00    -0.238 C  
BRANCH   9  10
HETATM   10  C   UNL     1     -10.136  13.011  67.796  1.00  0.00    -0.229 C  
HETATM   11  N   UNL     1      -9.534  11.862  68.289  1.00  0.00    -0.194 N  
HETATM   12  O   UNL     1     -10.531  13.173  66.641  1.00  0.00    -0.271 OA 
HETATM   13  H   UNL     1      -9.273  11.862  69.275  1.00  0.00     0.000 HD 
BRANCH  11  14
HETATM   14  C   UNL     1      -9.251  10.695  67.550  1.00  0.00    -0.143 A  
HETATM   15  C   UNL     1      -7.973  10.379  67.092  1.00  0.00    -0.115 A  
HETATM   16  C   UNL     1      -7.760   9.274  66.266  1.00  0.00    -0.096 A  
HETATM   17  C   UNL     1      -8.823   8.450  65.890  1.00  0.00    -0.212 A  
HETATM   18  C   UNL     1     -10.308   9.834  67.235  1.00  0.00    -0.308 A  
HETATM   19  C   UNL     1     -10.099   8.728  66.399  1.00  0.00    -0.313 A  
BRANCH  17  20
HETATM   20  C   UNL     1      -8.604   7.315  64.911  1.00  0.00     0.151 C  
BRANCH  20  21
HETATM   21  C   UNL     1      -8.397   5.934  65.557  1.00  0.00    -0.145 C  
BRANCH  21  22
HETATM   22  N   UNL     1      -9.597   5.110  65.439  1.00  0.00    -0.343 NA 
HETATM   23  H   UNL     1      -9.367   4.167  65.126  1.00  0.00     0.000 HD 
BRANCH  22  24
HETATM   24  C   UNL     1     -10.379   5.079  66.682  1.00  0.00    -0.270 C  
BRANCH  24  25
HETATM   25  C   UNL     1      -9.521   4.751  67.931  1.00  0.00    -0.144 C  
HETATM   26  O   UNL     1      -9.716   3.378  68.304  1.00  0.00    -0.129 OA 
HETATM   27  H   UNL     1      -9.190   3.178  69.070  1.00  0.00     0.000 HD 
BRANCH  25  28
HETATM   28  C   UNL     1      -9.737   5.650  69.134  1.00  0.00    -0.193 A  
HETATM   29  C   UNL     1     -10.246   5.120  70.330  1.00  0.00    -0.342 A  
HETATM   30  C   UNL     1     -10.518   5.953  71.419  1.00  0.00    -0.291 A  
HETATM   31  C   UNL     1     -10.280   7.323  71.330  1.00  0.00    -0.198 A  
HETATM   32  C   UNL     1      -9.753   7.860  70.160  1.00  0.00    -0.179 A  
HETATM   33  C   UNL     1      -9.484   7.030  69.070  1.00  0.00    -0.138 A  
ENDBRANCH  25  28
ENDBRANCH  24  25
ENDBRANCH  22  24
ENDBRANCH  21  22
ENDBRANCH  20  21
ENDBRANCH  17  20
ENDBRANCH  11  14
ENDBRANCH   9  10
ENDBRANCH   6   9
TORSDOF 9
ENDMDL
MODEL      255
REMARK 921   NORMALIZED FREE ENERGY PREDICTED BY IDOCK:   -3.13 KCAL/MOL
REMARK 922        TOTAL FREE ENERGY PREDICTED BY IDOCK:   -7.22 KCAL/MOL
REMARK 923 INTER-LIGAND FREE ENERGY PREDICTED BY IDOCK:   -5.43 KCAL/MOL
REMARK 924 INTRA-LIGAND FREE ENERGY PREDICTED BY IDOCK:   -1.80 KCAL/MOL
REMARK 927      BINDING AFFINITY PREDICTED BY RF-SCORE:    0.00 PKD
ROOT
HETATM    1  N   UNL     1     -11.861  14.664  65.465  1.00  0.00    -0.328 NA 
HETATM    2  C   UNL     1     -11.627  14.599  66.786  1.00  0.00    -0.360 A  
HETATM    3  H1  UNL     1     -11.484  15.402  64.871  1.00  0.00     0.000 HD 
HETATM    4  H2  UNL     1     -12.441  13.943  65.037  1.00  0.00     0.000 HD 
HETATM    5  N   UNL     1     -12.111  13.652  67.549  1.00  0.00    -0.355 NA 
HETATM    6  C   UNL     1     -11.700  13.840  68.865  1.00  0.00    -0.336 A  
HETATM    7  S   UNL     1     -10.638  15.754  67.578  1.00  0.00    -0.313 SA 
HETATM    8  C   UNL     1     -10.887  14.939  69.064  1.00  0.00    -0.245 A  
ENDROOT
BRANCH   6   9
HETATM    9  C   UNL     1     -12.139  12.863  69.901  1.00  0.00    -0.335 C  
BRANCH   9  10
HETATM   10  C   UNL     1     -11.696  11.433  69.641  1.00  0.00    -0.345 C  
HETATM   11  N   UNL     1     -10.711  11.277  68.678  1.00  0.00    -0.194 N  
HETATM   12  O   UNL     1     -12.146  10.537  70.356  1.00  0.00    -0.280 OA 
HETATM   13  H   UNL     1     -10.421  12.113  68.171  1.00  0.00     0.000 HD 
BRANCH  11  14
HETATM   14  C   UNL     1     -10.072  10.067  68.336  1.00  0.00    -0.165 A  
HETATM   15  C   UNL     1     -10.661   9.104  67.518  1.00  0.00    -0.317 A  
HETATM   16  C   UNL     1     -10.041   7.872  67.301  1.00  0.00    -0.307 A  
HETATM   17  C   UNL     1      -8.808   7.580  67.889  1.00  0.00    -0.126 A  
HETATM   18  C   UNL     1      -8.806   9.809  68.871  1.00  0.00    -0.140 A  
HETATM   19  C   UNL     1      -8.184   8.570  68.662  1.00  0.00    -0.122 A  
BRANCH  17  20
HETATM   20  C   UNL     1      -8.191   6.206  67.735  1.00  0.00    -0.117 C  
BRANCH  20  21
HETATM   21  C   UNL     1      -9.201   5.046  67.680  1.00  0.00    -0.120 C  
BRANCH  21  22
HETATM   22  N   UNL     1      -9.612   4.640  69.021  1.00  0.00    -0.159 NA 
HETATM   23  H   UNL     1     -10.181   3.793  68.991  1.00  0.00     0.000 HD 
BRANCH  22  24
HETATM   24  C   UNL     1      -8.471   4.478  69.931  1.00  0.00    -0.065 C  
BRANCH  24  25
HETATM   25  C   UNL     1      -8.712   5.110  71.326  1.00  0.00    -0.128 C  
HETATM   26  O   UNL     1      -9.934   5.865  71.310  1.00  0.00    -0.179 OA 
HETATM   27  H   UNL     1     -10.081   6.252  72.165  1.00  0.00     0.000 HD 
BRANCH  25  28
HETATM   28  C   UNL     1      -7.582   5.968  71.866  1.00  0.00    -0.097 A  
HETATM   29  C   UNL     1      -7.537   6.301  73.228  1.00  0.00    -0.095 A  
HETATM   30  C   UNL     1      -6.542   7.150  73.721  1.00  0.00    -0.065 A  
HETATM   31  C   UNL     1      -5.578   7.672  72.861  1.00  0.00    -0.043 A  
HETATM   32  C   UNL     1      -5.595   7.332  71.512  1.00  0.00    -0.036 A  
HETATM   33  C   UNL     1      -6.590   6.486  71.018  1.00  0.00    -0.053 A  
ENDBRANCH  25  28
ENDBRANCH  24  25
ENDBRANCH  22  24
ENDBRANCH  21  22
ENDBRANCH  20  21
ENDBRANCH  17  20
ENDBRANCH  11  14
ENDBRANCH   9  10
ENDBRANCH   6   9
TORSDOF 9
ENDMDL
MODEL      256
REMARK 921   NORMALIZED FREE ENERGY PREDICTED BY IDOCK:   -3.12 KCAL/MOL
REMARK 922        TOTAL FREE ENERGY PREDICTED BY IDOCK:   -7.21 KCAL/MOL
REMARK 923 INTER-LIGAND FREE ENERGY PREDICTED BY IDOCK:   -5.64 KCAL/MOL
REMARK 924 INTRA-LIGAND FREE ENERGY PREDICTED BY IDOCK:   -1.57 KCAL/MOL
REMARK 927      BINDING AFFINITY PREDICTED BY RF-SCORE:    0.00 PKD
ROOT
HETATM    1  N   UNL     1     -11.175  16.716  69.585  1.00  0.00    -0.344 NA 
HETATM    2  C   UNL     1     -10.268  17.067  68.658  1.00  0.00    -0.321 A  
HETATM    3  H1  UNL     1     -11.952  17.318  69.856  1.00  0.00     0.000 HD 
HETATM    4  H2  UNL     1     -11.082  15.808  70.037  1.00  0.00     0.000 HD 
HETATM    5  N   UNL     1      -9.270  16.295  68.310  1.00  0.00    -0.193 NA 
HETATM    6  C   UNL     1      -8.502  16.916  67.330  1.00  0.00    -0.190 A  
HETATM    7  S   UNL     1     -10.369  18.564  67.828  1.00  0.00    -0.405 SA 
HETATM    8  C   UNL     1      -8.959  18.162  66.944  1.00  0.00    -0.271 A  
ENDROOT
BRANCH   6   9
HETATM    9  C   UNL     1      -7.313  16.201  66.788  1.00  0.00    -0.220 C  
BRANCH   9  10
HETATM   10  C   UNL     1      -6.991  14.896  67.496  1.00  0.00    -0.176 C  
HETATM   11  N   UNL     1      -7.735  13.797  67.096  1.00  0.00    -0.366 N  
HETATM   12  O   UNL     1      -6.042  14.870  68.281  1.00  0.00    -0.102 OA 
HETATM   13  H   UNL     1      -8.484  13.964  66.424  1.00  0.00     0.000 HD 
BRANCH  11  14
HETATM   14  C   UNL     1      -7.550  12.469  67.533  1.00  0.00    -0.156 A  
HETATM   15  C   UNL     1      -6.426  11.712  67.205  1.00  0.00    -0.137 A  
HETATM   16  C   UNL     1      -6.340  10.366  67.562  1.00  0.00    -0.058 A  
HETATM   17  C   UNL     1      -7.373   9.748  68.271  1.00  0.00    -0.079 A  
HETATM   18  C   UNL     1      -8.556  11.876  68.303  1.00  0.00    -0.162 A  
HETATM   19  C   UNL     1      -8.476  10.522  68.657  1.00  0.00    -0.138 A  
BRANCH  17  20
HETATM   20  C   UNL     1      -7.320   8.263  68.565  1.00  0.00    -0.093 C  
BRANCH  20  21
HETATM   21  C   UNL     1      -7.237   7.360  67.321  1.00  0.00    -0.093 C  
BRANCH  21  22
HETATM   22  N   UNL     1      -7.986   6.122  67.517  1.00  0.00    -0.105 NA 
HETATM   23  H   UNL     1      -7.638   5.382  66.907  1.00  0.00     0.000 HD 
BRANCH  22  24
HETATM   24  C   UNL     1      -7.998   5.691  68.920  1.00  0.00    -0.097 C  
BRANCH  24  25
HETATM   25  C   UNL     1      -9.429   5.562  69.503  1.00  0.00    -0.141 C  
HETATM   26  O   UNL     1     -10.366   5.333  68.439  1.00  0.00    -0.164 OA 
HETATM   27  H   UNL     1     -11.243   5.254  68.796  1.00  0.00     0.000 HD 
BRANCH  25  28
HETATM   28  C   UNL     1      -9.898   6.721  70.364  1.00  0.00    -0.186 A  
HETATM   29  C   UNL     1     -11.069   7.419  70.031  1.00  0.00    -0.238 A  
HETATM   30  C   UNL     1     -11.469   8.534  70.775  1.00  0.00    -0.281 A  
HETATM   31  C   UNL     1     -10.708   8.960  71.861  1.00  0.00    -0.426 A  
HETATM   32  C   UNL     1      -9.557   8.264  72.218  1.00  0.00    -0.355 A  
HETATM   33  C   UNL     1      -9.155   7.153  71.474  1.00  0.00    -0.143 A  
ENDBRANCH  25  28
ENDBRANCH  24  25
ENDBRANCH  22  24
ENDBRANCH  21  22
ENDBRANCH  20  21
ENDBRANCH  17  20
ENDBRANCH  11  14
ENDBRANCH   9  10
ENDBRANCH   6   9
TORSDOF 9
ENDMDL
MODEL      257
REMARK 921   NORMALIZED FREE ENERGY PREDICTED BY IDOCK:   -3.10 KCAL/MOL
REMARK 922        TOTAL FREE ENERGY PREDICTED BY IDOCK:   -7.18 KCAL/MOL
REMARK 923 INTER-LIGAND FREE ENERGY PREDICTED BY IDOCK:   -6.40 KCAL/MOL
REMARK 924 INTRA-LIGAND FREE ENERGY PREDICTED BY IDOCK:   -0.78 KCAL/MOL
REMARK 927      BINDING AFFINITY PREDICTED BY RF-SCORE:    0.00 PKD
ROOT
HETATM    1  N   UNL     1     -11.429   2.371  73.701  1.00  0.00    -0.220 NA 
HETATM    2  C   UNL     1     -10.892   3.573  73.436  1.00  0.00    -0.216 A  
HETATM    3  H1  UNL     1     -10.911   1.619  74.156  1.00  0.00     0.000 HD 
HETATM    4  H2  UNL     1     -12.398   2.202  73.434  1.00  0.00     0.000 HD 
HETATM    5  N   UNL     1     -11.557   4.538  72.852  1.00  0.00    -0.040 NA 
HETATM    6  C   UNL     1     -10.748   5.662  72.715  1.00  0.00    -0.242 A  
HETATM    7  S   UNL     1      -9.278   3.949  73.879  1.00  0.00    -0.091 SA 
HETATM    8  C   UNL     1      -9.472   5.520  73.224  1.00  0.00    -0.145 A  
ENDROOT
BRANCH   6   9
HETATM    9  C   UNL     1     -11.317   6.881  72.075  1.00  0.00    -0.301 C  
BRANCH   9  10
HETATM   10  C   UNL     1     -10.298   7.971  71.788  1.00  0.00    -0.217 C  
HETATM   11  N   UNL     1      -9.933   8.115  70.458  1.00  0.00    -0.186 N  
HETATM   12  O   UNL     1      -9.951   8.711  72.710  1.00  0.00    -0.202 OA 
HETATM   13  H   UNL     1     -10.311   7.436  69.797  1.00  0.00     0.000 HD 
BRANCH  11  14
HETATM   14  C   UNL     1      -9.087   9.114  69.936  1.00  0.00    -0.178 A  
HETATM   15  C   UNL     1      -7.740   9.223  70.280  1.00  0.00    -0.133 A  
HETATM   16  C   UNL     1      -6.969  10.296  69.830  1.00  0.00    -0.142 A  
HETATM   17  C   UNL     1      -7.528  11.282  69.012  1.00  0.00    -0.116 A  
HETATM   18  C   UNL     1      -9.633  10.059  69.061  1.00  0.00    -0.200 A  
HETATM   19  C   UNL     1      -8.864  11.142  68.613  1.00  0.00    -0.155 A  
BRANCH  17  20
HETATM   20  C   UNL     1      -6.716  12.497  68.613  1.00  0.00    -0.087 C  
BRANCH  20  21
HETATM   21  C   UNL     1      -7.541  13.671  68.057  1.00  0.00    -0.139 C  
BRANCH  21  22
HETATM   22  N   UNL     1      -8.251  14.370  69.125  1.00  0.00    -0.349 NA 
HETATM   23  H   UNL     1      -7.599  14.798  69.782  1.00  0.00     0.000 HD 
BRANCH  22  24
HETATM   24  C   UNL     1      -9.207  15.357  68.609  1.00  0.00    -0.199 C  
BRANCH  24  25
HETATM   25  C   UNL     1      -9.213  15.445  67.061  1.00  0.00    -0.225 C  
HETATM   26  O   UNL     1      -9.118  16.819  66.654  1.00  0.00    -0.222 OA 
HETATM   27  H   UNL     1      -9.122  16.872  65.705  1.00  0.00     0.000 HD 
BRANCH  25  28
HETATM   28  C   UNL     1     -10.388  14.780  66.367  1.00  0.00    -0.297 A  
HETATM   29  C   UNL     1     -10.806  15.225  65.103  1.00  0.00    -0.441 A  
HETATM   30  C   UNL     1     -11.932  14.669  64.489  1.00  0.00    -0.473 A  
HETATM   31  C   UNL     1     -12.650  13.659  65.126  1.00  0.00    -0.474 A  
HETATM   32  C   UNL     1     -12.234  13.191  66.369  1.00  0.00    -0.396 A  
HETATM   33  C   UNL     1     -11.111  13.747  66.985  1.00  0.00    -0.313 A  
ENDBRANCH  25  28
ENDBRANCH  24  25
ENDBRANCH  22  24
ENDBRANCH  21  22
ENDBRANCH  20  21
ENDBRANCH  17  20
ENDBRANCH  11  14
ENDBRANCH   9  10
ENDBRANCH   6   9
TORSDOF 9
ENDMDL
MODEL      258
REMARK 921   NORMALIZED FREE ENERGY PREDICTED BY IDOCK:   -3.08 KCAL/MOL
REMARK 922        TOTAL FREE ENERGY PREDICTED BY IDOCK:   -7.15 KCAL/MOL
REMARK 923 INTER-LIGAND FREE ENERGY PREDICTED BY IDOCK:   -5.13 KCAL/MOL
REMARK 924 INTRA-LIGAND FREE ENERGY PREDICTED BY IDOCK:   -2.02 KCAL/MOL
REMARK 927      BINDING AFFINITY PREDICTED BY RF-SCORE:    0.00 PKD
ROOT
HETATM    1  N   UNL     1     -12.970  12.194  63.711  1.00  0.00    -0.766 NA 
HETATM    2  C   UNL     1     -12.362  12.908  64.673  1.00  0.00    -0.439 A  
HETATM    3  H1  UNL     1     -13.094  12.539  62.759  1.00  0.00     0.000 HD 
HETATM    4  H2  UNL     1     -13.323  11.266  63.942  1.00  0.00     0.000 HD 
HETATM    5  N   UNL     1     -12.203  12.465  65.895  1.00  0.00    -0.632 NA 
HETATM    6  C   UNL     1     -11.539  13.415  66.665  1.00  0.00    -0.362 A  
HETATM    7  S   UNL     1     -11.714  14.463  64.359  1.00  0.00    -0.337 SA 
HETATM    8  C   UNL     1     -11.193  14.568  65.987  1.00  0.00    -0.337 A  
ENDROOT
BRANCH   6   9
HETATM    9  C   UNL     1     -11.250  13.106  68.094  1.00  0.00    -0.304 C  
BRANCH   9  10
HETATM   10  C   UNL     1     -10.520  11.792  68.315  1.00  0.00    -0.206 C  
HETATM   11  N   UNL     1      -9.156  11.895  68.540  1.00  0.00    -0.319 N  
HETATM   12  O   UNL     1     -11.182  10.756  68.390  1.00  0.00    -0.243 OA 
HETATM   13  H   UNL     1      -8.741  12.824  68.460  1.00  0.00     0.000 HD 
BRANCH  11  14
HETATM   14  C   UNL     1      -8.289  10.832  68.867  1.00  0.00    -0.147 A  
HETATM   15  C   UNL     1      -7.581  10.108  67.909  1.00  0.00    -0.089 A  
HETATM   16  C   UNL     1      -6.826   8.991  68.269  1.00  0.00    -0.065 A  
HETATM   17  C   UNL     1      -6.750   8.580  69.602  1.00  0.00    -0.040 A  
HETATM   18  C   UNL     1      -8.161  10.468  70.212  1.00  0.00     0.769 A  
HETATM   19  C   UNL     1      -7.410   9.342  70.576  1.00  0.00    -0.138 A  
BRANCH  17  20
HETATM   20  C   UNL     1      -6.016   7.308  69.972  1.00  0.00    -0.024 C  
BRANCH  20  21
HETATM   21  C   UNL     1      -6.625   6.527  71.149  1.00  0.00    -0.054 C  
BRANCH  21  22
HETATM   22  N   UNL     1      -6.653   5.094  70.875  1.00  0.00    -0.034 NA 
HETATM   23  H   UNL     1      -6.185   4.568  71.614  1.00  0.00     0.000 HD 
BRANCH  22  24
HETATM   24  C   UNL     1      -8.014   4.593  70.651  1.00  0.00    -0.068 C  
BRANCH  24  25
HETATM   25  C   UNL     1      -9.082   5.717  70.650  1.00  0.00    -0.150 C  
HETATM   26  O   UNL     1     -10.252   5.272  71.354  1.00  0.00    -0.198 OA 
HETATM   27  H   UNL     1     -10.906   5.961  71.353  1.00  0.00     0.000 HD 
BRANCH  25  28
HETATM   28  C   UNL     1      -9.473   6.256  69.286  1.00  0.00    -0.142 A  
HETATM   29  C   UNL     1     -10.616   7.056  69.143  1.00  0.00    -0.235 A  
HETATM   30  C   UNL     1     -11.026   7.495  67.881  1.00  0.00    -0.027 A  
HETATM   31  C   UNL     1     -10.295   7.146  66.747  1.00  0.00    -0.297 A  
HETATM   32  C   UNL     1      -9.145   6.373  66.874  1.00  0.00    -0.138 A  
HETATM   33  C   UNL     1      -8.737   5.931  68.135  1.00  0.00    -0.111 A  
ENDBRANCH  25  28
ENDBRANCH  24  25
ENDBRANCH  22  24
ENDBRANCH  21  22
ENDBRANCH  20  21
ENDBRANCH  17  20
ENDBRANCH  11  14
ENDBRANCH   9  10
ENDBRANCH   6   9
TORSDOF 9
ENDMDL
MODEL      259
REMARK 921   NORMALIZED FREE ENERGY PREDICTED BY IDOCK:   -3.08 KCAL/MOL
REMARK 922        TOTAL FREE ENERGY PREDICTED BY IDOCK:   -7.15 KCAL/MOL
REMARK 923 INTER-LIGAND FREE ENERGY PREDICTED BY IDOCK:   -5.75 KCAL/MOL
REMARK 924 INTRA-LIGAND FREE ENERGY PREDICTED BY IDOCK:   -1.40 KCAL/MOL
REMARK 927      BINDING AFFINITY PREDICTED BY RF-SCORE:    0.00 PKD
ROOT
HETATM    1  N   UNL     1     -10.628  15.027  70.462  1.00  0.00    -0.524 NA 
HETATM    2  C   UNL     1     -10.593  14.982  69.120  1.00  0.00    -0.251 A  
HETATM    3  H1  UNL     1     -10.874  15.869  70.983  1.00  0.00     0.000 HD 
HETATM    4  H2  UNL     1     -10.399  14.181  70.983  1.00  0.00     0.000 HD 
HETATM    5  N   UNL     1     -10.278  13.902  68.451  1.00  0.00    -0.239 NA 
HETATM    6  C   UNL     1     -10.331  14.153  67.084  1.00  0.00    -0.265 A  
HETATM    7  S   UNL     1     -10.994  16.351  68.169  1.00  0.00    -0.312 SA 
HETATM    8  C   UNL     1     -10.708  15.439  66.748  1.00  0.00    -0.310 A  
ENDROOT
BRANCH   6   9
HETATM    9  C   UNL     1     -10.010  13.047  66.138  1.00  0.00    -0.278 C  
BRANCH   9  10
HETATM   10  C   UNL     1      -9.653  11.733  66.810  1.00  0.00    -0.200 C  
HETATM   11  N   UNL     1     -10.724  10.996  67.292  1.00  0.00    -0.249 N  
HETATM   12  O   UNL     1      -8.479  11.359  66.789  1.00  0.00    -0.154 OA 
HETATM   13  H   UNL     1     -11.648  11.424  67.229  1.00  0.00     0.000 HD 
BRANCH  11  14
HETATM   14  C   UNL     1     -10.653   9.707  67.860  1.00  0.00    -0.255 A  
HETATM   15  C   UNL     1     -10.797   9.472  69.227  1.00  0.00    -0.211 A  
HETATM   16  C   UNL     1     -10.603   8.196  69.758  1.00  0.00    -0.231 A  
HETATM   17  C   UNL     1     -10.274   7.120  68.930  1.00  0.00    -0.188 A  
HETATM   18  C   UNL     1     -10.393   8.621  67.017  1.00  0.00    -0.368 A  
HETATM   19  C   UNL     1     -10.190   7.340  67.549  1.00  0.00    -0.284 A  
BRANCH  17  20
HETATM   20  C   UNL     1      -9.963   5.762  69.525  1.00  0.00    -0.250 C  
BRANCH  20  21
HETATM   21  C   UNL     1      -8.497   5.316  69.387  1.00  0.00    -0.094 C  
BRANCH  21  22
HETATM   22  N   UNL     1      -8.401   3.870  69.206  1.00  0.00    -0.060 NA 
HETATM   23  H   UNL     1      -8.318   3.392  70.103  1.00  0.00     0.000 HD 
BRANCH  22  24
HETATM   24  C   UNL     1      -9.515   3.329  68.419  1.00  0.00    -0.144 C  
BRANCH  24  25
HETATM   25  C   UNL     1      -9.050   2.409  67.261  1.00  0.00    -0.150 C  
HETATM   26  O   UNL     1      -7.814   1.770  67.618  1.00  0.00    -0.058 OA 
HETATM   27  H   UNL     1      -7.529   1.206  66.908  1.00  0.00     0.000 HD 
BRANCH  25  28
HETATM   28  C   UNL     1      -8.914   3.074  65.903  1.00  0.00    -0.145 A  
HETATM   29  C   UNL     1      -8.546   2.318  64.780  1.00  0.00    -0.099 A  
HETATM   30  C   UNL     1      -8.346   2.934  63.541  1.00  0.00    -0.086 A  
HETATM   31  C   UNL     1      -8.518   4.310  63.408  1.00  0.00    -0.104 A  
HETATM   32  C   UNL     1      -8.906   5.070  64.507  1.00  0.00    -0.099 A  
HETATM   33  C   UNL     1      -9.103   4.456  65.745  1.00  0.00    -0.135 A  
ENDBRANCH  25  28
ENDBRANCH  24  25
ENDBRANCH  22  24
ENDBRANCH  21  22
ENDBRANCH  20  21
ENDBRANCH  17  20
ENDBRANCH  11  14
ENDBRANCH   9  10
ENDBRANCH   6   9
TORSDOF 9
ENDMDL
MODEL      260
REMARK 921   NORMALIZED FREE ENERGY PREDICTED BY IDOCK:   -3.08 KCAL/MOL
REMARK 922        TOTAL FREE ENERGY PREDICTED BY IDOCK:   -7.14 KCAL/MOL
REMARK 923 INTER-LIGAND FREE ENERGY PREDICTED BY IDOCK:   -6.90 KCAL/MOL
REMARK 924 INTRA-LIGAND FREE ENERGY PREDICTED BY IDOCK:   -0.24 KCAL/MOL
REMARK 927      BINDING AFFINITY PREDICTED BY RF-SCORE:    0.00 PKD
ROOT
HETATM    1  N   UNL     1     -10.111  18.457  69.379  1.00  0.00    -0.268 NA 
HETATM    2  C   UNL     1     -10.273  18.377  68.048  1.00  0.00    -0.381 A  
HETATM    3  H1  UNL     1     -10.148  19.339  69.891  1.00  0.00     0.000 HD 
HETATM    4  H2  UNL     1      -9.943  17.599  69.902  1.00  0.00     0.000 HD 
HETATM    5  N   UNL     1     -10.225  17.246  67.392  1.00  0.00    -0.316 NA 
HETATM    6  C   UNL     1     -10.432  17.470  66.035  1.00  0.00    -0.274 A  
HETATM    7  S   UNL     1     -10.590  19.770  67.100  1.00  0.00    -0.410 SA 
HETATM    8  C   UNL     1     -10.651  18.791  65.696  1.00  0.00    -0.154 A  
ENDROOT
BRANCH   6   9
HETATM    9  C   UNL     1     -10.422  16.306  65.105  1.00  0.00    -0.254 C  
BRANCH   9  10
HETATM   10  C   UNL     1     -10.886  15.002  65.729  1.00  0.00    -0.350 C  
HETATM   11  N   UNL     1     -10.114  13.888  65.436  1.00  0.00    -0.457 N  
HETATM   12  O   UNL     1     -11.828  15.030  66.523  1.00  0.00    -0.215 OA 
HETATM   13  H   UNL     1      -9.352  14.015  64.770  1.00  0.00     0.000 HD 
BRANCH  11  14
HETATM   14  C   UNL     1     -10.285  12.597  65.975  1.00  0.00    -0.272 A  
HETATM   15  C   UNL     1     -10.184  12.325  67.339  1.00  0.00    -0.213 A  
HETATM   16  C   UNL     1     -10.246  11.014  67.815  1.00  0.00    -0.210 A  
HETATM   17  C   UNL     1     -10.425   9.943  66.935  1.00  0.00    -0.284 A  
HETATM   18  C   UNL     1     -10.535  11.536  65.097  1.00  0.00    -0.340 A  
HETATM   19  C   UNL     1     -10.590  10.218  65.571  1.00  0.00    -0.025 A  
BRANCH  17  20
HETATM   20  C   UNL     1     -10.387   8.518  67.446  1.00  0.00    -0.356 C  
BRANCH  20  21
HETATM   21  C   UNL     1      -9.367   7.606  66.742  1.00  0.00    -0.172 C  
BRANCH  21  22
HETATM   22  N   UNL     1      -8.342   7.142  67.674  1.00  0.00    -0.117 NA 
HETATM   23  H   UNL     1      -7.700   7.896  67.918  1.00  0.00     0.000 HD 
BRANCH  22  24
HETATM   24  C   UNL     1      -8.917   6.526  68.876  1.00  0.00    -0.128 C  
BRANCH  24  25
HETATM   25  C   UNL     1      -8.624   7.330  70.169  1.00  0.00    -0.140 C  
HETATM   26  O   UNL     1      -7.204   7.438  70.360  1.00  0.00    -0.066 OA 
HETATM   27  H   UNL     1      -7.025   7.931  71.152  1.00  0.00     0.000 HD 
BRANCH  25  28
HETATM   28  C   UNL     1      -9.277   6.805  71.435  1.00  0.00    -0.153 A  
HETATM   29  C   UNL     1      -9.385   5.424  71.653  1.00  0.00    -0.173 A  
HETATM   30  C   UNL     1     -10.051   4.930  72.780  1.00  0.00    -0.215 A  
HETATM   31  C   UNL     1     -10.610   5.811  73.703  1.00  0.00    -0.302 A  
HETATM   32  C   UNL     1     -10.490   7.184  73.513  1.00  0.00    -0.422 A  
HETATM   33  C   UNL     1      -9.829   7.678  72.387  1.00  0.00    -0.235 A  
ENDBRANCH  25  28
ENDBRANCH  24  25
ENDBRANCH  22  24
ENDBRANCH  21  22
ENDBRANCH  20  21
ENDBRANCH  17  20
ENDBRANCH  11  14
ENDBRANCH   9  10
ENDBRANCH   6   9
TORSDOF 9
ENDMDL
MODEL      261
REMARK 921   NORMALIZED FREE ENERGY PREDICTED BY IDOCK:   -3.07 KCAL/MOL
REMARK 922        TOTAL FREE ENERGY PREDICTED BY IDOCK:   -7.13 KCAL/MOL
REMARK 923 INTER-LIGAND FREE ENERGY PREDICTED BY IDOCK:   -6.01 KCAL/MOL
REMARK 924 INTRA-LIGAND FREE ENERGY PREDICTED BY IDOCK:   -1.12 KCAL/MOL
REMARK 927      BINDING AFFINITY PREDICTED BY RF-SCORE:    0.00 PKD
ROOT
HETATM    1  N   UNL     1     -13.214  13.759  65.326  1.00  0.00    -0.702 NA 
HETATM    2  C   UNL     1     -12.059  14.310  65.735  1.00  0.00    -0.405 A  
HETATM    3  H1  UNL     1     -13.615  13.930  64.403  1.00  0.00     0.000 HD 
HETATM    4  H2  UNL     1     -13.713  13.144  65.967  1.00  0.00     0.000 HD 
HETATM    5  N   UNL     1     -11.545  14.091  66.919  1.00  0.00    -0.365 NA 
HETATM    6  C   UNL     1     -10.348  14.786  67.057  1.00  0.00    -0.255 A  
HETATM    7  S   UNL     1     -11.142  15.332  64.708  1.00  0.00    -0.352 SA 
HETATM    8  C   UNL     1      -9.973  15.515  65.945  1.00  0.00    -0.349 A  
ENDROOT
BRANCH   6   9
HETATM    9  C   UNL     1      -9.594  14.669  68.337  1.00  0.00    -0.217 C  
BRANCH   9  10
HETATM   10  C   UNL     1      -8.845  13.358  68.504  1.00  0.00    -0.068 C  
HETATM   11  N   UNL     1      -9.620  12.211  68.431  1.00  0.00    -0.268 N  
HETATM   12  O   UNL     1      -7.616  13.387  68.582  1.00  0.00    -0.126 OA 
HETATM   13  H   UNL     1     -10.629  12.337  68.352  1.00  0.00     0.000 HD 
BRANCH  11  14
HETATM   14  C   UNL     1      -9.141  10.885  68.457  1.00  0.00    -0.173 A  
HETATM   15  C   UNL     1      -9.265  10.055  69.570  1.00  0.00    -0.238 A  
HETATM   16  C   UNL     1      -8.673   8.791  69.591  1.00  0.00    -0.136 A  
HETATM   17  C   UNL     1      -7.953   8.322  68.490  1.00  0.00    -0.122 A  
HETATM   18  C   UNL     1      -8.481  10.394  67.325  1.00  0.00    -0.122 A  
HETATM   19  C   UNL     1      -7.879   9.128  67.346  1.00  0.00    -0.099 A  
BRANCH  17  20
HETATM   20  C   UNL     1      -7.226   6.995  68.558  1.00  0.00    -0.091 C  
BRANCH  20  21
HETATM   21  C   UNL     1      -8.044   5.840  69.163  1.00  0.00    -0.101 C  
BRANCH  21  22
HETATM   22  N   UNL     1      -8.373   4.840  68.151  1.00  0.00    -0.098 NA 
HETATM   23  H   UNL     1      -8.117   3.903  68.463  1.00  0.00     0.000 HD 
BRANCH  22  24
HETATM   24  C   UNL     1      -9.784   4.895  67.748  1.00  0.00    -0.157 C  
BRANCH  24  25
HETATM   25  C   UNL     1      -9.977   5.347  66.278  1.00  0.00    -0.170 C  
HETATM   26  O   UNL     1     -11.379   5.463  65.988  1.00  0.00    -0.773 OA 
HETATM   27  H   UNL     1     -11.498   5.740  65.087  1.00  0.00     0.000 HD 
BRANCH  25  28
HETATM   28  C   UNL     1      -9.303   4.484  65.227  1.00  0.00    -0.160 A  
HETATM   29  C   UNL     1      -8.395   5.053  64.321  1.00  0.00    -0.136 A  
HETATM   30  C   UNL     1      -7.825   4.282  63.304  1.00  0.00    -0.075 A  
HETATM   31  C   UNL     1      -8.150   2.933  63.183  1.00  0.00    -0.073 A  
HETATM   32  C   UNL     1      -9.030   2.347  64.088  1.00  0.00    -0.103 A  
HETATM   33  C   UNL     1      -9.602   3.117  65.103  1.00  0.00    -0.076 A  
ENDBRANCH  25  28
ENDBRANCH  24  25
ENDBRANCH  22  24
ENDBRANCH  21  22
ENDBRANCH  20  21
ENDBRANCH  17  20
ENDBRANCH  11  14
ENDBRANCH   9  10
ENDBRANCH   6   9
TORSDOF 9
ENDMDL
MODEL      262
REMARK 921   NORMALIZED FREE ENERGY PREDICTED BY IDOCK:   -3.04 KCAL/MOL
REMARK 922        TOTAL FREE ENERGY PREDICTED BY IDOCK:   -7.09 KCAL/MOL
REMARK 923 INTER-LIGAND FREE ENERGY PREDICTED BY IDOCK:   -6.02 KCAL/MOL
REMARK 924 INTRA-LIGAND FREE ENERGY PREDICTED BY IDOCK:   -1.07 KCAL/MOL
REMARK 927      BINDING AFFINITY PREDICTED BY RF-SCORE:    0.00 PKD
ROOT
HETATM    1  N   UNL     1     -14.410  14.737  71.421  1.00  0.00    -0.557 NA 
HETATM    2  C   UNL     1     -13.208  15.152  70.989  1.00  0.00    -0.450 A  
HETATM    3  H1  UNL     1     -14.726  14.854  72.384  1.00  0.00     0.000 HD 
HETATM    4  H2  UNL     1     -15.036  14.284  70.756  1.00  0.00     0.000 HD 
HETATM    5  N   UNL     1     -12.804  15.001  69.753  1.00  0.00    -0.012 NA 
HETATM    6  C   UNL     1     -11.526  15.529  69.599  1.00  0.00    -0.329 A  
HETATM    7  S   UNL     1     -12.108  15.949  72.036  1.00  0.00    -0.545 SA 
HETATM    8  C   UNL     1     -10.993  16.091  70.744  1.00  0.00    -0.203 A  
ENDROOT
BRANCH   6   9
HETATM    9  C   UNL     1     -10.879  15.465  68.259  1.00  0.00    -0.269 C  
BRANCH   9  10
HETATM   10  C   UNL     1     -10.240  14.125  67.936  1.00  0.00    -0.235 C  
HETATM   11  N   UNL     1     -11.117  13.059  67.806  1.00  0.00    -0.252 N  
HETATM   12  O   UNL     1      -9.030  14.088  67.707  1.00  0.00    -0.170 OA 
HETATM   13  H   UNL     1     -12.099  13.238  68.013  1.00  0.00     0.000 HD 
BRANCH  11  14
HETATM   14  C   UNL     1     -10.774  11.749  67.414  1.00  0.00    -0.236 A  
HETATM   15  C   UNL     1     -11.062  10.625  68.188  1.00  0.00    -0.343 A  
HETATM   16  C   UNL     1     -10.601   9.361  67.817  1.00  0.00    -0.317 A  
HETATM   17  C   UNL     1      -9.851   9.190  66.651  1.00  0.00    -0.307 A  
HETATM   18  C   UNL     1     -10.083  11.573  66.210  1.00  0.00    -0.261 A  
HETATM   19  C   UNL     1      -9.612  10.306  65.838  1.00  0.00    -0.263 A  
BRANCH  17  20
HETATM   20  C   UNL     1      -9.266   7.835  66.308  1.00  0.00    -0.217 C  
BRANCH  20  21
HETATM   21  C   UNL     1      -8.391   7.810  65.043  1.00  0.00    -0.086 C  
BRANCH  21  22
HETATM   22  N   UNL     1      -8.045   6.442  64.667  1.00  0.00    -0.172 NA 
HETATM   23  H   UNL     1      -7.916   6.358  63.659  1.00  0.00     0.000 HD 
BRANCH  22  24
HETATM   24  C   UNL     1      -6.872   5.941  65.394  1.00  0.00    -0.055 C  
BRANCH  24  25
HETATM   25  C   UNL     1      -7.078   4.518  65.973  1.00  0.00    -0.071 C  
HETATM   26  O   UNL     1      -7.568   3.644  64.944  1.00  0.00    -0.075 OA 
HETATM   27  H   UNL     1      -7.694   2.772  65.299  1.00  0.00     0.000 HD 
BRANCH  25  28
HETATM   28  C   UNL     1      -7.969   4.426  67.198  1.00  0.00    -0.101 A  
HETATM   29  C   UNL     1      -8.954   3.431  67.282  1.00  0.00    -0.172 A  
HETATM   30  C   UNL     1      -9.829   3.383  68.372  1.00  0.00     0.138 A  
HETATM   31  C   UNL     1      -9.726   4.326  69.393  1.00  0.00    -0.257 A  
HETATM   32  C   UNL     1      -8.739   5.305  69.336  1.00  0.00    -0.109 A  
HETATM   33  C   UNL     1      -7.867   5.355  68.246  1.00  0.00    -0.088 A  
ENDBRANCH  25  28
ENDBRANCH  24  25
ENDBRANCH  22  24
ENDBRANCH  21  22
ENDBRANCH  20  21
ENDBRANCH  17  20
ENDBRANCH  11  14
ENDBRANCH   9  10
ENDBRANCH   6   9
TORSDOF 9
ENDMDL
MODEL      263
REMARK 921   NORMALIZED FREE ENERGY PREDICTED BY IDOCK:   -3.04 KCAL/MOL
REMARK 922        TOTAL FREE ENERGY PREDICTED BY IDOCK:   -7.08 KCAL/MOL
REMARK 923 INTER-LIGAND FREE ENERGY PREDICTED BY IDOCK:   -6.69 KCAL/MOL
REMARK 924 INTRA-LIGAND FREE ENERGY PREDICTED BY IDOCK:   -0.38 KCAL/MOL
REMARK 927      BINDING AFFINITY PREDICTED BY RF-SCORE:    0.00 PKD
ROOT
HETATM    1  N   UNL     1     -13.544  13.763  72.678  1.00  0.00    -0.689 NA 
HETATM    2  C   UNL     1     -12.988  13.061  71.677  1.00  0.00    -0.321 A  
HETATM    3  H1  UNL     1     -14.018  13.324  73.468  1.00  0.00     0.000 HD 
HETATM    4  H2  UNL     1     -13.491  14.780  72.648  1.00  0.00     0.000 HD 
HETATM    5  N   UNL     1     -12.380  13.625  70.664  1.00  0.00    -0.361 NA 
HETATM    6  C   UNL     1     -11.902  12.653  69.791  1.00  0.00    -0.309 A  
HETATM    7  S   UNL     1     -13.007  11.347  71.668  1.00  0.00    -0.327 SA 
HETATM    8  C   UNL     1     -12.152  11.352  70.184  1.00  0.00    -0.357 A  
ENDROOT
BRANCH   6   9
HETATM    9  C   UNL     1     -11.170  13.084  68.567  1.00  0.00    -0.309 C  
BRANCH   9  10
HETATM   10  C   UNL     1     -10.848  11.957  67.600  1.00  0.00    -0.227 C  
HETATM   11  N   UNL     1      -9.686  11.251  67.869  1.00  0.00    -0.173 N  
HETATM   12  O   UNL     1     -11.671  11.677  66.727  1.00  0.00    -0.541 OA 
HETATM   13  H   UNL     1      -9.105  11.588  68.636  1.00  0.00     0.000 HD 
BRANCH  11  14
HETATM   14  C   UNL     1      -9.234  10.108  67.178  1.00  0.00    -0.138 A  
HETATM   15  C   UNL     1      -8.134  10.125  66.321  1.00  0.00    -0.124 A  
HETATM   16  C   UNL     1      -7.794   9.000  65.569  1.00  0.00    -0.096 A  
HETATM   17  C   UNL     1      -8.541   7.823  65.667  1.00  0.00    -0.147 A  
HETATM   18  C   UNL     1      -9.943   8.912  67.333  1.00  0.00    -0.267 A  
HETATM   19  C   UNL     1      -9.608   7.783  66.574  1.00  0.00    -0.270 A  
BRANCH  17  20
HETATM   20  C   UNL     1      -8.230   6.641  64.773  1.00  0.00    -0.064 C  
BRANCH  20  21
HETATM   21  C   UNL     1      -8.942   5.333  65.159  1.00  0.00    -0.101 C  
BRANCH  21  22
HETATM   22  N   UNL     1      -7.990   4.337  65.644  1.00  0.00    -0.094 NA 
HETATM   23  H   UNL     1      -7.071   4.471  65.222  1.00  0.00     0.000 HD 
BRANCH  22  24
HETATM   24  C   UNL     1      -7.902   4.315  67.109  1.00  0.00    -0.096 C  
BRANCH  24  25
HETATM   25  C   UNL     1      -9.068   3.542  67.776  1.00  0.00    -0.159 C  
HETATM   26  O   UNL     1     -10.270   3.725  67.011  1.00  0.00    -0.182 OA 
HETATM   27  H   UNL     1     -10.985   3.251  67.420  1.00  0.00     0.000 HD 
BRANCH  25  28
HETATM   28  C   UNL     1      -9.329   3.870  69.235  1.00  0.00    -0.242 A  
HETATM   29  C   UNL     1      -9.432   2.840  70.183  1.00  0.00    -0.177 A  
HETATM   30  C   UNL     1      -9.746   3.127  71.515  1.00  0.00    -0.226 A  
HETATM   31  C   UNL     1      -9.954   4.445  71.917  1.00  0.00    -0.258 A  
HETATM   32  C   UNL     1      -9.831   5.479  70.994  1.00  0.00    -0.238 A  
HETATM   33  C   UNL     1      -9.521   5.193  69.662  1.00  0.00    -0.203 A  
ENDBRANCH  25  28
ENDBRANCH  24  25
ENDBRANCH  22  24
ENDBRANCH  21  22
ENDBRANCH  20  21
ENDBRANCH  17  20
ENDBRANCH  11  14
ENDBRANCH   9  10
ENDBRANCH   6   9
TORSDOF 9
ENDMDL
MODEL      264
REMARK 921   NORMALIZED FREE ENERGY PREDICTED BY IDOCK:   -3.03 KCAL/MOL
REMARK 922        TOTAL FREE ENERGY PREDICTED BY IDOCK:   -7.07 KCAL/MOL
REMARK 923 INTER-LIGAND FREE ENERGY PREDICTED BY IDOCK:   -6.20 KCAL/MOL
REMARK 924 INTRA-LIGAND FREE ENERGY PREDICTED BY IDOCK:   -0.87 KCAL/MOL
REMARK 927      BINDING AFFINITY PREDICTED BY RF-SCORE:    0.00 PKD
ROOT
HETATM    1  N   UNL     1     -10.730  14.993  70.717  1.00  0.00    -0.540 NA 
HETATM    2  C   UNL     1     -10.548  15.060  69.388  1.00  0.00    -0.256 A  
HETATM    3  H1  UNL     1     -10.956  15.808  71.288  1.00  0.00     0.000 HD 
HETATM    4  H2  UNL     1     -10.639  14.087  71.176  1.00  0.00     0.000 HD 
HETATM    5  N   UNL     1     -10.258  14.014  68.655  1.00  0.00    -0.239 NA 
HETATM    6  C   UNL     1     -10.134  14.385  67.320  1.00  0.00    -0.251 A  
HETATM    7  S   UNL     1     -10.713  16.538  68.536  1.00  0.00    -0.352 SA 
HETATM    8  C   UNL     1     -10.352  15.726  67.072  1.00  0.00    -0.292 A  
ENDROOT
BRANCH   6   9
HETATM    9  C   UNL     1      -9.810  13.337  66.312  1.00  0.00    -0.288 C  
BRANCH   9  10
HETATM   10  C   UNL     1      -9.526  11.967  66.902  1.00  0.00    -0.199 C  
HETATM   11  N   UNL     1     -10.638  11.167  67.122  1.00  0.00    -0.231 N  
HETATM   12  O   UNL     1      -8.354  11.616  67.042  1.00  0.00    -0.156 OA 
HETATM   13  H   UNL     1     -11.551  11.585  66.948  1.00  0.00     0.000 HD 
BRANCH  11  14
HETATM   14  C   UNL     1     -10.619   9.829  67.565  1.00  0.00    -0.275 A  
HETATM   15  C   UNL     1     -10.899   9.461  68.881  1.00  0.00    -0.151 A  
HETATM   16  C   UNL     1     -10.755   8.138  69.301  1.00  0.00    -0.141 A  
HETATM   17  C   UNL     1     -10.340   7.147  68.408  1.00  0.00    -0.220 A  
HETATM   18  C   UNL     1     -10.271   8.829  66.650  1.00  0.00    -0.340 A  
HETATM   19  C   UNL     1     -10.119   7.501  67.071  1.00  0.00    -0.332 A  
BRANCH  17  20
HETATM   20  C   UNL     1     -10.086   5.735  68.895  1.00  0.00    -0.242 C  
BRANCH  20  21
HETATM   21  C   UNL     1     -10.782   5.371  70.218  1.00  0.00    -0.216 C  
BRANCH  21  22
HETATM   22  N   UNL     1     -10.010   4.383  70.966  1.00  0.00    -0.192 NA 
HETATM   23  H   UNL     1     -10.283   3.434  70.711  1.00  0.00     0.000 HD 
BRANCH  22  24
HETATM   24  C   UNL     1      -8.562   4.575  70.819  1.00  0.00    -0.092 C  
BRANCH  24  25
HETATM   25  C   UNL     1      -7.803   4.530  72.169  1.00  0.00    -0.095 C  
HETATM   26  O   UNL     1      -8.238   3.393  72.931  1.00  0.00    -0.078 OA 
HETATM   27  H   UNL     1      -7.772   3.365  73.758  1.00  0.00     0.000 HD 
BRANCH  25  28
HETATM   28  C   UNL     1      -7.892   5.785  73.019  1.00  0.00    -0.104 A  
HETATM   29  C   UNL     1      -9.096   6.501  73.099  1.00  0.00    -0.137 A  
HETATM   30  C   UNL     1      -9.167   7.697  73.818  1.00  0.00    -0.333 A  
HETATM   31  C   UNL     1      -8.039   8.190  74.470  1.00  0.00    -0.265 A  
HETATM   32  C   UNL     1      -6.844   7.480  74.420  1.00  0.00    -0.110 A  
HETATM   33  C   UNL     1      -6.770   6.286  73.700  1.00  0.00    -0.075 A  
ENDBRANCH  25  28
ENDBRANCH  24  25
ENDBRANCH  22  24
ENDBRANCH  21  22
ENDBRANCH  20  21
ENDBRANCH  17  20
ENDBRANCH  11  14
ENDBRANCH   9  10
ENDBRANCH   6   9
TORSDOF 9
ENDMDL
MODEL      265
REMARK 921   NORMALIZED FREE ENERGY PREDICTED BY IDOCK:   -3.02 KCAL/MOL
REMARK 922        TOTAL FREE ENERGY PREDICTED BY IDOCK:   -7.06 KCAL/MOL
REMARK 923 INTER-LIGAND FREE ENERGY PREDICTED BY IDOCK:   -4.98 KCAL/MOL
REMARK 924 INTRA-LIGAND FREE ENERGY PREDICTED BY IDOCK:   -2.07 KCAL/MOL
REMARK 927      BINDING AFFINITY PREDICTED BY RF-SCORE:    0.00 PKD
ROOT
HETATM    1  N   UNL     1     -11.352  15.490  72.860  1.00  0.00    -0.164 NA 
HETATM    2  C   UNL     1     -12.329  14.648  72.485  1.00  0.00    -0.254 A  
HETATM    3  H1  UNL     1     -11.471  16.503  72.883  1.00  0.00     0.000 HD 
HETATM    4  H2  UNL     1     -10.451  15.100  73.134  1.00  0.00     0.000 HD 
HETATM    5  N   UNL     1     -12.177  13.349  72.456  1.00  0.00     0.674 NA 
HETATM    6  C   UNL     1     -13.354  12.738  72.034  1.00  0.00    -0.466 A  
HETATM    7  S   UNL     1     -13.882  15.222  72.040  1.00  0.00    -0.565 SA 
HETATM    8  C   UNL     1     -14.391  13.609  71.766  1.00  0.00     0.077 A  
ENDROOT
BRANCH   6   9
HETATM    9  C   UNL     1     -13.396  11.252  71.935  1.00  0.00    -0.413 C  
BRANCH   9  10
HETATM   10  C   UNL     1     -12.266  10.646  71.121  1.00  0.00    -0.374 C  
HETATM   11  N   UNL     1     -12.042  11.227  69.881  1.00  0.00    -0.332 N  
HETATM   12  O   UNL     1     -11.566   9.775  71.639  1.00  0.00    -0.375 OA 
HETATM   13  H   UNL     1     -12.695  11.952  69.585  1.00  0.00     0.000 HD 
BRANCH  11  14
HETATM   14  C   UNL     1     -10.994  10.907  68.995  1.00  0.00    -0.235 A  
HETATM   15  C   UNL     1     -11.212  10.371  67.726  1.00  0.00    -0.309 A  
HETATM   16  C   UNL     1     -10.142   9.961  66.928  1.00  0.00    -0.285 A  
HETATM   17  C   UNL     1      -8.826  10.091  67.378  1.00  0.00    -0.132 A  
HETATM   18  C   UNL     1      -9.677  11.104  69.421  1.00  0.00     0.145 A  
HETATM   19  C   UNL     1      -8.601  10.687  68.626  1.00  0.00    -0.144 A  
BRANCH  17  20
HETATM   20  C   UNL     1      -7.677   9.549  66.552  1.00  0.00    -0.097 C  
BRANCH  20  21
HETATM   21  C   UNL     1      -7.401   8.047  66.736  1.00  0.00    -0.089 C  
BRANCH  21  22
HETATM   22  N   UNL     1      -6.517   7.807  67.873  1.00  0.00    -0.050 NA 
HETATM   23  H   UNL     1      -6.261   8.682  68.331  1.00  0.00     0.000 HD 
BRANCH  22  24
HETATM   24  C   UNL     1      -7.087   6.855  68.834  1.00  0.00    -0.089 C  
BRANCH  24  25
HETATM   25  C   UNL     1      -7.720   7.544  70.070  1.00  0.00    -0.094 C  
HETATM   26  O   UNL     1      -6.834   7.429  71.194  1.00  0.00    -0.050 OA 
HETATM   27  H   UNL     1      -7.222   7.851  71.951  1.00  0.00     0.000 HD 
BRANCH  25  28
HETATM   28  C   UNL     1      -9.108   7.065  70.454  1.00  0.00    -0.156 A  
HETATM   29  C   UNL     1      -9.294   6.291  71.609  1.00  0.00    -0.153 A  
HETATM   30  C   UNL     1     -10.556   5.784  71.932  1.00  0.00    -0.285 A  
HETATM   31  C   UNL     1     -11.648   6.047  71.107  1.00  0.00    -0.167 A  
HETATM   32  C   UNL     1     -11.485   6.833  69.971  1.00  0.00    -0.390 A  
HETATM   33  C   UNL     1     -10.224   7.338  69.646  1.00  0.00    -0.214 A  
ENDBRANCH  25  28
ENDBRANCH  24  25
ENDBRANCH  22  24
ENDBRANCH  21  22
ENDBRANCH  20  21
ENDBRANCH  17  20
ENDBRANCH  11  14
ENDBRANCH   9  10
ENDBRANCH   6   9
TORSDOF 9
ENDMDL
MODEL      266
REMARK 921   NORMALIZED FREE ENERGY PREDICTED BY IDOCK:   -2.98 KCAL/MOL
REMARK 922        TOTAL FREE ENERGY PREDICTED BY IDOCK:   -6.99 KCAL/MOL
REMARK 923 INTER-LIGAND FREE ENERGY PREDICTED BY IDOCK:   -4.80 KCAL/MOL
REMARK 924 INTRA-LIGAND FREE ENERGY PREDICTED BY IDOCK:   -2.19 KCAL/MOL
REMARK 927      BINDING AFFINITY PREDICTED BY RF-SCORE:    0.00 PKD
ROOT
HETATM    1  N   UNL     1      -5.562   6.345  71.056  1.00  0.00    -0.025 NA 
HETATM    2  C   UNL     1      -6.685   7.023  71.343  1.00  0.00    -0.052 A  
HETATM    3  H1  UNL     1      -4.719   6.400  71.627  1.00  0.00     0.000 HD 
HETATM    4  H2  UNL     1      -5.552   5.748  70.230  1.00  0.00     0.000 HD 
HETATM    5  N   UNL     1      -7.767   6.952  70.609  1.00  0.00    -0.094 NA 
HETATM    6  C   UNL     1      -8.767   7.753  71.151  1.00  0.00    -0.135 A  
HETATM    7  S   UNL     1      -6.796   8.024  72.730  1.00  0.00    -0.088 SA 
HETATM    8  C   UNL     1      -8.412   8.411  72.313  1.00  0.00    -0.177 A  
ENDROOT
BRANCH   6   9
HETATM    9  C   UNL     1     -10.090   7.812  70.469  1.00  0.00    -0.192 C  
BRANCH   9  10
HETATM   10  C   UNL     1     -10.555   9.216  70.125  1.00  0.00    -0.228 C  
HETATM   11  N   UNL     1      -9.845   9.853  69.119  1.00  0.00    -0.187 N  
HETATM   12  O   UNL     1     -11.573   9.649  70.666  1.00  0.00    -0.270 OA 
HETATM   13  H   UNL     1      -9.028   9.368  68.749  1.00  0.00     0.000 HD 
BRANCH  11  14
HETATM   14  C   UNL     1     -10.150  11.112  68.560  1.00  0.00    -0.201 A  
HETATM   15  C   UNL     1     -10.413  12.241  69.334  1.00  0.00     0.279 A  
HETATM   16  C   UNL     1     -10.824  13.436  68.742  1.00  0.00    -0.275 A  
HETATM   17  C   UNL     1     -10.968  13.533  67.356  1.00  0.00    -0.286 A  
HETATM   18  C   UNL     1     -10.224  11.222  67.168  1.00  0.00    -0.235 A  
HETATM   19  C   UNL     1     -10.643  12.419  66.570  1.00  0.00    -0.261 A  
BRANCH  17  20
HETATM   20  C   UNL     1     -11.513  14.799  66.728  1.00  0.00    -0.343 C  
BRANCH  20  21
HETATM   21  C   UNL     1     -10.455  15.705  66.075  1.00  0.00    -0.331 C  
BRANCH  21  22
HETATM   22  N   UNL     1     -10.068  16.794  66.968  1.00  0.00    -0.270 NA 
HETATM   23  H   UNL     1     -10.501  16.688  67.886  1.00  0.00     0.000 HD 
BRANCH  22  24
HETATM   24  C   UNL     1      -8.611  16.932  67.083  1.00  0.00    -0.197 C  
BRANCH  24  25
HETATM   25  C   UNL     1      -8.074  16.546  68.485  1.00  0.00    -0.218 C  
HETATM   26  O   UNL     1      -7.098  17.510  68.911  1.00  0.00    -0.241 OA 
HETATM   27  H   UNL     1      -6.768  17.274  69.770  1.00  0.00     0.000 HD 
BRANCH  25  28
HETATM   28  C   UNL     1      -7.505  15.145  68.611  1.00  0.00    -0.124 A  
HETATM   29  C   UNL     1      -6.931  14.721  69.820  1.00  0.00    -0.158 A  
HETATM   30  C   UNL     1      -6.339  13.459  69.923  1.00  0.00    -0.060 A  
HETATM   31  C   UNL     1      -6.317  12.604  68.824  1.00  0.00    -0.080 A  
HETATM   32  C   UNL     1      -6.903  13.000  67.625  1.00  0.00    -0.155 A  
HETATM   33  C   UNL     1      -7.493  14.261  67.520  1.00  0.00    -0.201 A  
ENDBRANCH  25  28
ENDBRANCH  24  25
ENDBRANCH  22  24
ENDBRANCH  21  22
ENDBRANCH  20  21
ENDBRANCH  17  20
ENDBRANCH  11  14
ENDBRANCH   9  10
ENDBRANCH   6   9
TORSDOF 9
ENDMDL
MODEL      267
REMARK 921   NORMALIZED FREE ENERGY PREDICTED BY IDOCK:   -2.98 KCAL/MOL
REMARK 922        TOTAL FREE ENERGY PREDICTED BY IDOCK:   -6.99 KCAL/MOL
REMARK 923 INTER-LIGAND FREE ENERGY PREDICTED BY IDOCK:   -5.44 KCAL/MOL
REMARK 924 INTRA-LIGAND FREE ENERGY PREDICTED BY IDOCK:   -1.55 KCAL/MOL
REMARK 927      BINDING AFFINITY PREDICTED BY RF-SCORE:    0.00 PKD
ROOT
HETATM    1  N   UNL     1     -13.214  11.278  72.355  1.00  0.00    -0.422 NA 
HETATM    2  C   UNL     1     -13.035   9.992  72.010  1.00  0.00    -0.416 A  
HETATM    3  H1  UNL     1     -14.135  11.689  72.509  1.00  0.00     0.000 HD 
HETATM    4  H2  UNL     1     -12.392  11.870  72.466  1.00  0.00     0.000 HD 
HETATM    5  N   UNL     1     -11.854   9.465  71.812  1.00  0.00    -0.384 NA 
HETATM    6  C   UNL     1     -11.979   8.121  71.474  1.00  0.00    -0.298 A  
HETATM    7  S   UNL     1     -14.363   8.921  71.832  1.00  0.00    -0.231 SA 
HETATM    8  C   UNL     1     -13.279   7.654  71.440  1.00  0.00    -0.289 A  
ENDROOT
BRANCH   6   9
HETATM    9  C   UNL     1     -10.745   7.329  71.209  1.00  0.00    -0.243 C  
BRANCH   9  10
HETATM   10  C   UNL     1     -10.402   7.178  69.737  1.00  0.00    -0.214 C  
HETATM   11  N   UNL     1      -9.798   5.981  69.383  1.00  0.00    -0.157 N  
HETATM   12  O   UNL     1     -10.768   8.054  68.953  1.00  0.00    -0.175 OA 
HETATM   13  H   UNL     1      -9.563   5.338  70.139  1.00  0.00     0.000 HD 
BRANCH  11  14
HETATM   14  C   UNL     1      -9.479   5.571  68.072  1.00  0.00    -0.114 A  
HETATM   15  C   UNL     1     -10.445   5.187  67.142  1.00  0.00    -0.224 A  
HETATM   16  C   UNL     1     -10.077   4.679  65.895  1.00  0.00    -0.280 A  
HETATM   17  C   UNL     1      -8.730   4.556  65.544  1.00  0.00    -0.127 A  
HETATM   18  C   UNL     1      -8.132   5.517  67.700  1.00  0.00    -0.101 A  
HETATM   19  C   UNL     1      -7.759   5.000  66.452  1.00  0.00    -0.092 A  
BRANCH  17  20
HETATM   20  C   UNL     1      -8.335   3.908  64.233  1.00  0.00    -0.091 C  
BRANCH  20  21
HETATM   21  C   UNL     1      -8.639   4.747  62.980  1.00  0.00    -0.120 C  
BRANCH  21  22
HETATM   22  N   UNL     1      -7.697   5.855  62.844  1.00  0.00    -0.081 NA 
HETATM   23  H   UNL     1      -6.983   5.647  62.146  1.00  0.00     0.000 HD 
BRANCH  22  24
HETATM   24  C   UNL     1      -8.368   7.128  62.553  1.00  0.00     0.023 C  
BRANCH  24  25
HETATM   25  C   UNL     1      -7.606   8.357  63.111  1.00  0.00    -0.121 C  
HETATM   26  O   UNL     1      -6.281   7.966  63.506  1.00  0.00    -0.061 OA 
HETATM   27  H   UNL     1      -5.815   8.720  63.848  1.00  0.00     0.000 HD 
BRANCH  25  28
HETATM   28  C   UNL     1      -8.287   9.097  64.247  1.00  0.00    -0.178 A  
HETATM   29  C   UNL     1      -9.074  10.228  63.982  1.00  0.00    -0.283 A  
HETATM   30  C   UNL     1      -9.645  10.959  65.028  1.00  0.00    -0.299 A  
HETATM   31  C   UNL     1      -9.442  10.566  66.349  1.00  0.00    -0.208 A  
HETATM   32  C   UNL     1      -8.685   9.433  66.627  1.00  0.00    -0.143 A  
HETATM   33  C   UNL     1      -8.111   8.703  65.584  1.00  0.00    -0.110 A  
ENDBRANCH  25  28
ENDBRANCH  24  25
ENDBRANCH  22  24
ENDBRANCH  21  22
ENDBRANCH  20  21
ENDBRANCH  17  20
ENDBRANCH  11  14
ENDBRANCH   9  10
ENDBRANCH   6   9
TORSDOF 9
ENDMDL
MODEL      268
REMARK 921   NORMALIZED FREE ENERGY PREDICTED BY IDOCK:   -2.96 KCAL/MOL
REMARK 922        TOTAL FREE ENERGY PREDICTED BY IDOCK:   -6.97 KCAL/MOL
REMARK 923 INTER-LIGAND FREE ENERGY PREDICTED BY IDOCK:   -6.16 KCAL/MOL
REMARK 924 INTRA-LIGAND FREE ENERGY PREDICTED BY IDOCK:   -0.80 KCAL/MOL
REMARK 927      BINDING AFFINITY PREDICTED BY RF-SCORE:    0.00 PKD
ROOT
HETATM    1  N   UNL     1     -13.028   7.840  72.361  1.00  0.00    -0.516 NA 
HETATM    2  C   UNL     1     -11.975   7.366  71.675  1.00  0.00    -0.307 A  
HETATM    3  H1  UNL     1     -13.402   7.381  73.192  1.00  0.00     0.000 HD 
HETATM    4  H2  UNL     1     -13.473   8.698  72.037  1.00  0.00     0.000 HD 
HETATM    5  N   UNL     1     -11.496   7.955  70.609  1.00  0.00    -0.267 NA 
HETATM    6  C   UNL     1     -10.408   7.242  70.116  1.00  0.00    -0.212 A  
HETATM    7  S   UNL     1     -11.150   5.947  72.170  1.00  0.00    -0.285 SA 
HETATM    8  C   UNL     1     -10.076   6.117  70.847  1.00  0.00    -0.192 A  
ENDROOT
BRANCH   6   9
HETATM    9  C   UNL     1      -9.708   7.748  68.902  1.00  0.00    -0.160 C  
BRANCH   9  10
HETATM   10  C   UNL     1      -8.948   9.046  69.112  1.00  0.00    -0.140 C  
HETATM   11  N   UNL     1      -8.764   9.823  67.979  1.00  0.00    -0.119 N  
HETATM   12  O   UNL     1      -8.648   9.374  70.261  1.00  0.00    -0.184 OA 
HETATM   13  H   UNL     1      -9.078   9.430  67.091  1.00  0.00     0.000 HD 
BRANCH  11  14
HETATM   14  C   UNL     1      -8.181  11.106  67.941  1.00  0.00    -0.121 A  
HETATM   15  C   UNL     1      -6.826  11.318  67.690  1.00  0.00    -0.077 A  
HETATM   16  C   UNL     1      -6.271  12.595  67.778  1.00  0.00    -0.131 A  
HETATM   17  C   UNL     1      -7.065  13.697  68.106  1.00  0.00    -0.118 A  
HETATM   18  C   UNL     1      -8.994  12.215  68.202  1.00  0.00    -0.195 A  
HETATM   19  C   UNL     1      -8.439  13.498  68.298  1.00  0.00    -0.168 A  
BRANCH  17  20
HETATM   20  C   UNL     1      -6.438  15.062  68.302  1.00  0.00    -0.119 C  
BRANCH  20  21
HETATM   21  C   UNL     1      -7.087  15.920  69.402  1.00  0.00    -0.215 C  
BRANCH  21  22
HETATM   22  N   UNL     1      -6.103  16.785  70.046  1.00  0.00    -0.201 NA 
HETATM   23  H   UNL     1      -5.366  16.237  70.489  1.00  0.00     0.000 HD 
BRANCH  22  24
HETATM   24  C   UNL     1      -5.541  17.778  69.123  1.00  0.00    -0.195 C  
BRANCH  24  25
HETATM   25  C   UNL     1      -6.273  19.144  69.182  1.00  0.00    -0.270 C  
HETATM   26  O   UNL     1      -6.741  19.384  70.518  1.00  0.00     0.099 OA 
HETATM   27  H   UNL     1      -7.189  20.221  70.554  1.00  0.00     0.000 HD 
BRANCH  25  28
HETATM   28  C   UNL     1      -7.411  19.327  68.195  1.00  0.00    -0.316 A  
HETATM   29  C   UNL     1      -7.164  19.869  66.924  1.00  0.00    -0.257 A  
HETATM   30  C   UNL     1      -8.215  20.110  66.035  1.00  0.00    -0.200 A  
HETATM   31  C   UNL     1      -9.525  19.807  66.402  1.00  0.00    -0.496 A  
HETATM   32  C   UNL     1      -9.784  19.247  67.649  1.00  0.00    -0.412 A  
HETATM   33  C   UNL     1      -8.734  19.008  68.539  1.00  0.00    -0.392 A  
ENDBRANCH  25  28
ENDBRANCH  24  25
ENDBRANCH  22  24
ENDBRANCH  21  22
ENDBRANCH  20  21
ENDBRANCH  17  20
ENDBRANCH  11  14
ENDBRANCH   9  10
ENDBRANCH   6   9
TORSDOF 9
ENDMDL
MODEL      269
REMARK 921   NORMALIZED FREE ENERGY PREDICTED BY IDOCK:   -2.91 KCAL/MOL
REMARK 922        TOTAL FREE ENERGY PREDICTED BY IDOCK:   -6.88 KCAL/MOL
REMARK 923 INTER-LIGAND FREE ENERGY PREDICTED BY IDOCK:   -7.30 KCAL/MOL
REMARK 924 INTRA-LIGAND FREE ENERGY PREDICTED BY IDOCK:    0.42 KCAL/MOL
REMARK 927      BINDING AFFINITY PREDICTED BY RF-SCORE:    0.00 PKD
ROOT
HETATM    1  N   UNL     1     -10.080   4.502  64.153  1.00  0.00    -0.381 NA 
HETATM    2  C   UNL     1      -8.852   5.011  63.963  1.00  0.00    -0.039 A  
HETATM    3  H1  UNL     1     -10.263   3.706  64.765  1.00  0.00     0.000 HD 
HETATM    4  H2  UNL     1     -10.865   4.929  63.664  1.00  0.00     0.000 HD 
HETATM    5  N   UNL     1      -8.618   6.032  63.177  1.00  0.00     0.127 NA 
HETATM    6  C   UNL     1      -7.261   6.338  63.182  1.00  0.00    -0.057 A  
HETATM    7  S   UNL     1      -7.482   4.370  64.771  1.00  0.00    -0.073 SA 
HETATM    8  C   UNL     1      -6.491   5.534  64.000  1.00  0.00    -0.033 A  
ENDROOT
BRANCH   6   9
HETATM    9  C   UNL     1      -6.779   7.478  62.353  1.00  0.00    -0.071 C  
BRANCH   9  10
HETATM   10  C   UNL     1      -7.306   8.835  62.788  1.00  0.00    -0.098 C  
HETATM   11  N   UNL     1      -8.645   8.872  63.146  1.00  0.00    -0.374 N  
HETATM   12  O   UNL     1      -6.510   9.769  62.900  1.00  0.00    -0.102 OA 
HETATM   13  H   UNL     1      -9.184   8.016  63.014  1.00  0.00     0.000 HD 
BRANCH  11  14
HETATM   14  C   UNL     1      -9.330   9.985  63.674  1.00  0.00    -0.253 A  
HETATM   15  C   UNL     1      -9.631  11.119  62.920  1.00  0.00    -0.373 A  
HETATM   16  C   UNL     1     -10.206  12.243  63.514  1.00  0.00    -0.410 A  
HETATM   17  C   UNL     1     -10.507  12.254  64.879  1.00  0.00    -0.321 A  
HETATM   18  C   UNL     1      -9.693   9.963  65.025  1.00  0.00    -0.359 A  
HETATM   19  C   UNL     1     -10.264  11.094  65.627  1.00  0.00    -0.310 A  
BRANCH  17  20
HETATM   20  C   UNL     1     -11.034  13.511  65.538  1.00  0.00    -0.295 C  
BRANCH  20  21
HETATM   21  C   UNL     1     -12.117  13.278  66.605  1.00  0.00    -0.361 C  
BRANCH  21  22
HETATM   22  N   UNL     1     -12.276  14.449  67.462  1.00  0.00    -0.619 NA 
HETATM   23  H   UNL     1     -12.676  14.193  68.365  1.00  0.00     0.000 HD 
BRANCH  22  24
HETATM   24  C   UNL     1     -11.021  15.192  67.631  1.00  0.00    -0.308 C  
BRANCH  24  25
HETATM   25  C   UNL     1     -10.874  16.371  66.635  1.00  0.00    -0.086 C  
HETATM   26  O   UNL     1     -10.162  15.932  65.468  1.00  0.00    -0.347 OA 
HETATM   27  H   UNL     1     -10.072  16.655  64.858  1.00  0.00     0.000 HD 
BRANCH  25  28
HETATM   28  C   UNL     1     -10.232  17.629  67.191  1.00  0.00    -0.342 A  
HETATM   29  C   UNL     1      -8.957  17.573  67.775  1.00  0.00    -0.245 A  
HETATM   30  C   UNL     1      -8.388  18.710  68.355  1.00  0.00    -0.362 A  
HETATM   31  C   UNL     1      -9.083  19.918  68.354  1.00  0.00    -0.280 A  
HETATM   32  C   UNL     1     -10.337  19.996  67.758  1.00  0.00    -0.506 A  
HETATM   33  C   UNL     1     -10.908  18.860  67.180  1.00  0.00    -0.425 A  
ENDBRANCH  25  28
ENDBRANCH  24  25
ENDBRANCH  22  24
ENDBRANCH  21  22
ENDBRANCH  20  21
ENDBRANCH  17  20
ENDBRANCH  11  14
ENDBRANCH   9  10
ENDBRANCH   6   9
TORSDOF 9
ENDMDL
MODEL      270
REMARK 921   NORMALIZED FREE ENERGY PREDICTED BY IDOCK:   -2.86 KCAL/MOL
REMARK 922        TOTAL FREE ENERGY PREDICTED BY IDOCK:   -6.82 KCAL/MOL
REMARK 923 INTER-LIGAND FREE ENERGY PREDICTED BY IDOCK:   -5.74 KCAL/MOL
REMARK 924 INTRA-LIGAND FREE ENERGY PREDICTED BY IDOCK:   -1.08 KCAL/MOL
REMARK 927      BINDING AFFINITY PREDICTED BY RF-SCORE:    0.00 PKD
ROOT
HETATM    1  N   UNL     1      -9.058   8.868  62.988  1.00  0.00    -0.417 NA 
HETATM    2  C   UNL     1      -7.936   9.417  63.482  1.00  0.00    -0.141 A  
HETATM    3  H1  UNL     1      -9.225   8.751  61.988  1.00  0.00     0.000 HD 
HETATM    4  H2  UNL     1      -9.775   8.555  63.641  1.00  0.00     0.000 HD 
HETATM    5  N   UNL     1      -7.722   9.568  64.764  1.00  0.00    -0.114 NA 
HETATM    6  C   UNL     1      -6.480  10.157  64.977  1.00  0.00    -0.126 A  
HETATM    7  S   UNL     1      -6.669   9.942  62.453  1.00  0.00    -0.115 SA 
HETATM    8  C   UNL     1      -5.766  10.428  63.825  1.00  0.00    -0.135 A  
ENDROOT
BRANCH   6   9
HETATM    9  C   UNL     1      -6.037  10.414  66.376  1.00  0.00    -0.081 C  
BRANCH   9  10
HETATM   10  C   UNL     1      -7.171  10.550  67.377  1.00  0.00    -0.092 C  
HETATM   11  N   UNL     1      -8.349  11.085  66.879  1.00  0.00    -0.133 N  
HETATM   12  O   UNL     1      -7.017  10.088  68.509  1.00  0.00    -0.065 OA 
HETATM   13  H   UNL     1      -8.337  11.415  65.914  1.00  0.00     0.000 HD 
BRANCH  11  14
HETATM   14  C   UNL     1      -9.562  11.215  67.585  1.00  0.00    -0.170 A  
HETATM   15  C   UNL     1      -9.948  12.396  68.220  1.00  0.00    -0.224 A  
HETATM   16  C   UNL     1     -11.101  12.444  69.004  1.00  0.00    -0.288 A  
HETATM   17  C   UNL     1     -11.905  11.312  69.162  1.00  0.00    -0.423 A  
HETATM   18  C   UNL     1     -10.399  10.098  67.682  1.00  0.00    -0.265 A  
HETATM   19  C   UNL     1     -11.554  10.141  68.476  1.00  0.00     0.013 A  
BRANCH  17  20
HETATM   20  C   UNL     1     -13.096  11.342  70.097  1.00  0.00     0.300 C  
BRANCH  20  21
HETATM   21  C   UNL     1     -12.802  10.875  71.534  1.00  0.00    -0.454 C  
BRANCH  21  22
HETATM   22  N   UNL     1     -13.595   9.697  71.878  1.00  0.00    -0.385 NA 
HETATM   23  H   UNL     1     -14.093   9.338  71.064  1.00  0.00     0.000 HD 
BRANCH  22  24
HETATM   24  C   UNL     1     -12.789   8.646  72.511  1.00  0.00    -0.292 C  
BRANCH  24  25
HETATM   25  C   UNL     1     -11.652   8.119  71.598  1.00  0.00    -0.279 C  
HETATM   26  O   UNL     1     -12.207   7.283  70.571  1.00  0.00    -0.544 OA 
HETATM   27  H   UNL     1     -11.510   6.960  70.011  1.00  0.00     0.000 HD 
BRANCH  25  28
HETATM   28  C   UNL     1     -10.523   7.391  72.303  1.00  0.00    -0.260 A  
HETATM   29  C   UNL     1     -10.513   5.990  72.361  1.00  0.00    -0.234 A  
HETATM   30  C   UNL     1      -9.517   5.313  73.072  1.00  0.00    -0.150 A  
HETATM   31  C   UNL     1      -8.516   6.027  73.727  1.00  0.00    -0.117 A  
HETATM   32  C   UNL     1      -8.498   7.417  73.659  1.00  0.00    -0.202 A  
HETATM   33  C   UNL     1      -9.494   8.094  72.952  1.00  0.00    -0.345 A  
ENDBRANCH  25  28
ENDBRANCH  24  25
ENDBRANCH  22  24
ENDBRANCH  21  22
ENDBRANCH  20  21
ENDBRANCH  17  20
ENDBRANCH  11  14
ENDBRANCH   9  10
ENDBRANCH   6   9
TORSDOF 9
ENDMDL
MODEL      271
REMARK 921   NORMALIZED FREE ENERGY PREDICTED BY IDOCK:   -2.82 KCAL/MOL
REMARK 922        TOTAL FREE ENERGY PREDICTED BY IDOCK:   -6.74 KCAL/MOL
REMARK 923 INTER-LIGAND FREE ENERGY PREDICTED BY IDOCK:   -4.88 KCAL/MOL
REMARK 924 INTRA-LIGAND FREE ENERGY PREDICTED BY IDOCK:   -1.86 KCAL/MOL
REMARK 927      BINDING AFFINITY PREDICTED BY RF-SCORE:    0.00 PKD
ROOT
HETATM    1  N   UNL     1     -10.942  15.287  73.003  1.00  0.00     0.612 NA 
HETATM    2  C   UNL     1     -12.087  14.690  72.633  1.00  0.00    -0.123 A  
HETATM    3  H1  UNL     1     -10.777  16.288  72.892  1.00  0.00     0.000 HD 
HETATM    4  H2  UNL     1     -10.205  14.715  73.412  1.00  0.00     0.000 HD 
HETATM    5  N   UNL     1     -12.299  13.406  72.776  1.00  0.00     0.463 NA 
HETATM    6  C   UNL     1     -13.569  13.076  72.312  1.00  0.00    -0.547 A  
HETATM    7  S   UNL     1     -13.388  15.585  71.965  1.00  0.00    -0.477 SA 
HETATM    8  C   UNL     1     -14.304  14.144  71.836  1.00  0.00    -0.455 A  
ENDROOT
BRANCH   6   9
HETATM    9  C   UNL     1     -14.014  11.656  72.389  1.00  0.00     0.596 C  
BRANCH   9  10
HETATM   10  C   UNL     1     -13.099  10.674  71.678  1.00  0.00    -0.450 C  
HETATM   11  N   UNL     1     -12.379  11.189  70.611  1.00  0.00    -0.368 N  
HETATM   12  O   UNL     1     -12.971   9.542  72.147  1.00  0.00    -0.396 OA 
HETATM   13  H   UNL     1     -12.578  12.152  70.340  1.00  0.00     0.000 HD 
BRANCH  11  14
HETATM   14  C   UNL     1     -11.399  10.503  69.866  1.00  0.00    -0.309 A  
HETATM   15  C   UNL     1     -11.373  10.493  68.472  1.00  0.00    -0.320 A  
HETATM   16  C   UNL     1     -10.454   9.706  67.777  1.00  0.00    -0.309 A  
HETATM   17  C   UNL     1      -9.527   8.918  68.463  1.00  0.00    -0.152 A  
HETATM   18  C   UNL     1     -10.428   9.771  70.558  1.00  0.00    -0.366 A  
HETATM   19  C   UNL     1      -9.508   8.974  69.863  1.00  0.00    -0.186 A  
BRANCH  17  20
HETATM   20  C   UNL     1      -8.602   7.988  67.706  1.00  0.00    -0.128 C  
BRANCH  20  21
HETATM   21  C   UNL     1      -9.108   6.542  67.571  1.00  0.00    -0.115 C  
BRANCH  21  22
HETATM   22  N   UNL     1      -8.547   5.686  68.613  1.00  0.00    -0.104 NA 
HETATM   23  H   UNL     1      -8.041   6.236  69.307  1.00  0.00     0.000 HD 
BRANCH  22  24
HETATM   24  C   UNL     1      -9.564   4.839  69.249  1.00  0.00    -0.173 C  
BRANCH  24  25
HETATM   25  C   UNL     1      -9.240   4.510  70.728  1.00  0.00    -0.139 C  
HETATM   26  O   UNL     1     -10.104   3.460  71.190  1.00  0.00    -0.070 OA 
HETATM   27  H   UNL     1      -9.906   3.258  72.097  1.00  0.00     0.000 HD 
BRANCH  25  28
HETATM   28  C   UNL     1      -9.290   5.681  71.692  1.00  0.00    -0.164 A  
HETATM   29  C   UNL     1      -8.102   6.252  72.173  1.00  0.00    -0.109 A  
HETATM   30  C   UNL     1      -8.137   7.282  73.117  1.00  0.00    -0.123 A  
HETATM   31  C   UNL     1      -9.359   7.759  73.587  1.00  0.00    -0.336 A  
HETATM   32  C   UNL     1     -10.547   7.220  73.102  1.00  0.00    -0.400 A  
HETATM   33  C   UNL     1     -10.513   6.189  72.161  1.00  0.00    -0.237 A  
ENDBRANCH  25  28
ENDBRANCH  24  25
ENDBRANCH  22  24
ENDBRANCH  21  22
ENDBRANCH  20  21
ENDBRANCH  17  20
ENDBRANCH  11  14
ENDBRANCH   9  10
ENDBRANCH   6   9
TORSDOF 9
ENDMDL
MODEL      272
REMARK 921   NORMALIZED FREE ENERGY PREDICTED BY IDOCK:   -2.78 KCAL/MOL
REMARK 922        TOTAL FREE ENERGY PREDICTED BY IDOCK:   -6.69 KCAL/MOL
REMARK 923 INTER-LIGAND FREE ENERGY PREDICTED BY IDOCK:   -6.27 KCAL/MOL
REMARK 924 INTRA-LIGAND FREE ENERGY PREDICTED BY IDOCK:   -0.42 KCAL/MOL
REMARK 927      BINDING AFFINITY PREDICTED BY RF-SCORE:    0.00 PKD
ROOT
HETATM    1  N   UNL     1     -10.010  18.429  69.309  1.00  0.00    -0.256 NA 
HETATM    2  C   UNL     1     -10.220  18.324  67.987  1.00  0.00    -0.385 A  
HETATM    3  H1  UNL     1      -9.992  19.323  69.800  1.00  0.00     0.000 HD 
HETATM    4  H2  UNL     1      -9.860  17.576  69.847  1.00  0.00     0.000 HD 
HETATM    5  N   UNL     1     -10.243  17.177  67.357  1.00  0.00    -0.312 NA 
HETATM    6  C   UNL     1     -10.486  17.378  66.002  1.00  0.00    -0.276 A  
HETATM    7  S   UNL     1     -10.510  19.707  67.015  1.00  0.00    -0.486 SA 
HETATM    8  C   UNL     1     -10.660  18.699  65.638  1.00  0.00    -0.132 A  
ENDROOT
BRANCH   6   9
HETATM    9  C   UNL     1     -10.556  16.193  65.102  1.00  0.00    -0.366 C  
BRANCH   9  10
HETATM   10  C   UNL     1     -10.909  14.893  65.804  1.00  0.00    -0.339 C  
HETATM   11  N   UNL     1     -10.003  13.857  65.636  1.00  0.00    -0.439 N  
HETATM   12  O   UNL     1     -11.890  14.871  66.547  1.00  0.00    -0.279 OA 
HETATM   13  H   UNL     1      -9.223  14.021  64.999  1.00  0.00     0.000 HD 
BRANCH  11  14
HETATM   14  C   UNL     1     -10.061  12.597  66.266  1.00  0.00    -0.253 A  
HETATM   15  C   UNL     1      -9.834  12.420  67.630  1.00  0.00    -0.198 A  
HETATM   16  C   UNL     1      -9.788  11.142  68.189  1.00  0.00    -0.188 A  
HETATM   17  C   UNL     1      -9.981  10.009  67.396  1.00  0.00    -0.242 A  
HETATM   18  C   UNL     1     -10.325  11.471  65.479  1.00  0.00    -0.322 A  
HETATM   19  C   UNL     1     -10.271  10.185  66.036  1.00  0.00    -0.288 A  
BRANCH  17  20
HETATM   20  C   UNL     1      -9.826   8.623  67.987  1.00  0.00    -0.201 C  
BRANCH  20  21
HETATM   21  C   UNL     1      -8.522   7.899  67.607  1.00  0.00    -0.127 C  
BRANCH  21  22
HETATM   22  N   UNL     1      -7.659   7.721  68.771  1.00  0.00    -0.099 NA 
HETATM   23  H   UNL     1      -7.974   8.295  69.554  1.00  0.00     0.000 HD 
BRANCH  22  24
HETATM   24  C   UNL     1      -7.533   6.313  69.164  1.00  0.00    -0.094 C  
BRANCH  24  25
HETATM   25  C   UNL     1      -8.601   5.873  70.198  1.00  0.00    -0.134 C  
HETATM   26  O   UNL     1      -8.537   6.726  71.352  1.00  0.00    -0.123 OA 
HETATM   27  H   UNL     1      -9.192   6.456  71.985  1.00  0.00     0.000 HD 
BRANCH  25  28
HETATM   28  C   UNL     1      -8.545   4.418  70.627  1.00  0.00    -0.110 A  
HETATM   29  C   UNL     1      -9.715   3.752  71.022  1.00  0.00    -0.248 A  
HETATM   30  C   UNL     1      -9.663   2.435  71.489  1.00  0.00    -0.225 A  
HETATM   31  C   UNL     1      -8.443   1.767  71.562  1.00  0.00    -0.070 A  
HETATM   32  C   UNL     1      -7.276   2.405  71.152  1.00  0.00    -0.033 A  
HETATM   33  C   UNL     1      -7.327   3.721  70.688  1.00  0.00    -0.041 A  
ENDBRANCH  25  28
ENDBRANCH  24  25
ENDBRANCH  22  24
ENDBRANCH  21  22
ENDBRANCH  20  21
ENDBRANCH  17  20
ENDBRANCH  11  14
ENDBRANCH   9  10
ENDBRANCH   6   9
TORSDOF 9
ENDMDL
MODEL      273
REMARK 921   NORMALIZED FREE ENERGY PREDICTED BY IDOCK:   -2.76 KCAL/MOL
REMARK 922        TOTAL FREE ENERGY PREDICTED BY IDOCK:   -6.66 KCAL/MOL
REMARK 923 INTER-LIGAND FREE ENERGY PREDICTED BY IDOCK:   -4.60 KCAL/MOL
REMARK 924 INTRA-LIGAND FREE ENERGY PREDICTED BY IDOCK:   -2.06 KCAL/MOL
REMARK 927      BINDING AFFINITY PREDICTED BY RF-SCORE:    0.00 PKD
ROOT
HETATM    1  N   UNL     1     -13.068  11.180  71.686  1.00  0.00    -0.457 NA 
HETATM    2  C   UNL     1     -12.867   9.852  71.677  1.00  0.00    -0.436 A  
HETATM    3  H1  UNL     1     -13.990  11.602  71.573  1.00  0.00     0.000 HD 
HETATM    4  H2  UNL     1     -12.264  11.793  71.809  1.00  0.00     0.000 HD 
HETATM    5  N   UNL     1     -11.684   9.310  71.822  1.00  0.00    -0.380 NA 
HETATM    6  C   UNL     1     -11.783   7.923  71.777  1.00  0.00    -0.287 A  
HETATM    7  S   UNL     1     -14.169   8.750  71.505  1.00  0.00    -0.201 SA 
HETATM    8  C   UNL     1     -13.068   7.442  71.612  1.00  0.00    -0.364 A  
ENDROOT
BRANCH   6   9
HETATM    9  C   UNL     1     -10.545   7.109  71.927  1.00  0.00    -0.238 C  
BRANCH   9  10
HETATM   10  C   UNL     1     -10.056   6.469  70.639  1.00  0.00    -0.185 C  
HETATM   11  N   UNL     1      -9.330   5.297  70.790  1.00  0.00    -0.154 N  
HETATM   12  O   UNL     1     -10.415   6.955  69.566  1.00  0.00    -0.205 OA 
HETATM   13  H   UNL     1      -9.117   5.003  71.743  1.00  0.00     0.000 HD 
BRANCH  11  14
HETATM   14  C   UNL     1      -8.861   4.474  69.746  1.00  0.00    -0.086 A  
HETATM   15  C   UNL     1      -9.640   3.480  69.154  1.00  0.00    -0.149 A  
HETATM   16  C   UNL     1      -9.097   2.614  68.205  1.00  0.00    -0.229 A  
HETATM   17  C   UNL     1      -7.761   2.732  67.813  1.00  0.00    -0.060 A  
HETATM   18  C   UNL     1      -7.543   4.642  69.307  1.00  0.00    -0.056 A  
HETATM   19  C   UNL     1      -6.993   3.769  68.358  1.00  0.00    -0.051 A  
BRANCH  17  20
HETATM   20  C   UNL     1      -7.150   1.725  66.861  1.00  0.00    -0.047 C  
BRANCH  20  21
HETATM   21  C   UNL     1      -7.931   1.516  65.552  1.00  0.00    -0.073 C  
BRANCH  21  22
HETATM   22  N   UNL     1      -7.798   2.670  64.668  1.00  0.00    -0.077 NA 
HETATM   23  H   UNL     1      -7.181   2.464  63.882  1.00  0.00     0.000 HD 
BRANCH  22  24
HETATM   24  C   UNL     1      -9.097   3.171  64.202  1.00  0.00    -0.109 C  
BRANCH  24  25
HETATM   25  C   UNL     1      -9.092   4.693  63.907  1.00  0.00    -0.078 C  
HETATM   26  O   UNL     1      -8.522   4.932  62.611  1.00  0.00    -0.100 OA 
HETATM   27  H   UNL     1      -8.519   5.865  62.431  1.00  0.00     0.000 HD 
BRANCH  25  28
HETATM   28  C   UNL     1      -8.403   5.563  64.943  1.00  0.00    -0.142 A  
HETATM   29  C   UNL     1      -9.151   6.175  65.961  1.00  0.00    -0.136 A  
HETATM   30  C   UNL     1      -8.538   7.037  66.874  1.00  0.00    -0.120 A  
HETATM   31  C   UNL     1      -7.171   7.294  66.787  1.00  0.00    -0.083 A  
HETATM   32  C   UNL     1      -6.412   6.675  65.798  1.00  0.00    -0.046 A  
HETATM   33  C   UNL     1      -7.023   5.816  64.883  1.00  0.00    -0.052 A  
ENDBRANCH  25  28
ENDBRANCH  24  25
ENDBRANCH  22  24
ENDBRANCH  21  22
ENDBRANCH  20  21
ENDBRANCH  17  20
ENDBRANCH  11  14
ENDBRANCH   9  10
ENDBRANCH   6   9
TORSDOF 9
ENDMDL
MODEL      274
REMARK 921   NORMALIZED FREE ENERGY PREDICTED BY IDOCK:   -2.73 KCAL/MOL
REMARK 922        TOTAL FREE ENERGY PREDICTED BY IDOCK:   -6.61 KCAL/MOL
REMARK 923 INTER-LIGAND FREE ENERGY PREDICTED BY IDOCK:   -6.02 KCAL/MOL
REMARK 924 INTRA-LIGAND FREE ENERGY PREDICTED BY IDOCK:   -0.59 KCAL/MOL
REMARK 927      BINDING AFFINITY PREDICTED BY RF-SCORE:    0.00 PKD
ROOT
HETATM    1  N   UNL     1     -10.386  20.249  65.671  1.00  0.00    -0.435 NA 
HETATM    2  C   UNL     1      -9.756  19.427  66.526  1.00  0.00    -0.375 A  
HETATM    3  H1  UNL     1     -11.162  20.851  65.949  1.00  0.00     0.000 HD 
HETATM    4  H2  UNL     1     -10.076  20.273  64.701  1.00  0.00     0.000 HD 
HETATM    5  N   UNL     1      -8.761  18.654  66.168  1.00  0.00    -0.485 NA 
HETATM    6  C   UNL     1      -8.307  17.922  67.260  1.00  0.00    -0.225 A  
HETATM    7  S   UNL     1     -10.196  19.348  68.181  1.00  0.00    -0.429 SA 
HETATM    8  C   UNL     1      -8.975  18.177  68.443  1.00  0.00    -0.293 A  
ENDROOT
BRANCH   6   9
HETATM    9  C   UNL     1      -7.169  16.980  67.070  1.00  0.00    -0.224 C  
BRANCH   9  10
HETATM   10  C   UNL     1      -7.576  15.520  66.964  1.00  0.00    -0.193 C  
HETATM   11  N   UNL     1      -6.734  14.616  67.594  1.00  0.00    -0.178 N  
HETATM   12  O   UNL     1      -8.654  15.245  66.435  1.00  0.00    -0.276 OA 
HETATM   13  H   UNL     1      -5.878  14.988  68.005  1.00  0.00     0.000 HD 
BRANCH  11  14
HETATM   14  C   UNL     1      -6.954  13.229  67.717  1.00  0.00    -0.153 A  
HETATM   15  C   UNL     1      -7.810  12.678  68.671  1.00  0.00    -0.043 A  
HETATM   16  C   UNL     1      -7.908  11.296  68.834  1.00  0.00    -0.114 A  
HETATM   17  C   UNL     1      -7.160  10.429  68.033  1.00  0.00    -0.082 A  
HETATM   18  C   UNL     1      -6.256  12.365  66.867  1.00  0.00     0.175 A  
HETATM   19  C   UNL     1      -6.346  10.976  67.032  1.00  0.00    -0.088 A  
BRANCH  17  20
HETATM   20  C   UNL     1      -7.191   8.935  68.284  1.00  0.00    -0.079 C  
BRANCH  20  21
HETATM   21  C   UNL     1      -8.439   8.431  69.030  1.00  0.00    -0.123 C  
BRANCH  21  22
HETATM   22  N   UNL     1      -8.098   7.367  69.971  1.00  0.00    -0.126 NA 
HETATM   23  H   UNL     1      -7.111   7.119  69.903  1.00  0.00     0.000 HD 
BRANCH  22  24
HETATM   24  C   UNL     1      -8.467   7.701  71.352  1.00  0.00    -0.115 C  
BRANCH  24  25
HETATM   25  C   UNL     1      -9.900   7.244  71.725  1.00  0.00    -0.160 C  
HETATM   26  O   UNL     1     -10.282   6.131  70.902  1.00  0.00    -0.190 OA 
HETATM   27  H   UNL     1     -11.160   5.850  71.131  1.00  0.00     0.000 HD 
BRANCH  25  28
HETATM   28  C   UNL     1     -10.971   8.318  71.672  1.00  0.00    -0.327 A  
HETATM   29  C   UNL     1     -11.858   8.485  72.745  1.00  0.00    -0.158 A  
HETATM   30  C   UNL     1     -12.894   9.421  72.675  1.00  0.00    -0.178 A  
HETATM   31  C   UNL     1     -13.052  10.205  71.534  1.00  0.00    -0.529 A  
HETATM   32  C   UNL     1     -12.166  10.068  70.470  1.00  0.00    -0.308 A  
HETATM   33  C   UNL     1     -11.133   9.131  70.538  1.00  0.00    -0.308 A  
ENDBRANCH  25  28
ENDBRANCH  24  25
ENDBRANCH  22  24
ENDBRANCH  21  22
ENDBRANCH  20  21
ENDBRANCH  17  20
ENDBRANCH  11  14
ENDBRANCH   9  10
ENDBRANCH   6   9
TORSDOF 9
ENDMDL
MODEL      275
REMARK 921   NORMALIZED FREE ENERGY PREDICTED BY IDOCK:   -2.73 KCAL/MOL
REMARK 922        TOTAL FREE ENERGY PREDICTED BY IDOCK:   -6.61 KCAL/MOL
REMARK 923 INTER-LIGAND FREE ENERGY PREDICTED BY IDOCK:   -5.97 KCAL/MOL
REMARK 924 INTRA-LIGAND FREE ENERGY PREDICTED BY IDOCK:   -0.64 KCAL/MOL
REMARK 927      BINDING AFFINITY PREDICTED BY RF-SCORE:    0.00 PKD
ROOT
HETATM    1  N   UNL     1     -10.351  20.275  65.457  1.00  0.00    -0.389 NA 
HETATM    2  C   UNL     1      -9.999  19.219  66.208  1.00  0.00    -0.413 A  
HETATM    3  H1  UNL     1     -10.969  21.015  65.793  1.00  0.00     0.000 HD 
HETATM    4  H2  UNL     1      -9.985  20.341  64.508  1.00  0.00     0.000 HD 
HETATM    5  N   UNL     1      -9.207  18.270  65.777  1.00  0.00    -0.340 NA 
HETATM    6  C   UNL     1      -9.017  17.316  66.771  1.00  0.00    -0.250 A  
HETATM    7  S   UNL     1     -10.546  19.049  67.824  1.00  0.00    -0.363 SA 
HETATM    8  C   UNL     1      -9.672  17.582  67.958  1.00  0.00    -0.287 A  
ENDROOT
BRANCH   6   9
HETATM    9  C   UNL     1      -8.139  16.147  66.486  1.00  0.00    -0.331 C  
BRANCH   9  10
HETATM   10  C   UNL     1      -8.876  14.823  66.372  1.00  0.00    -0.117 C  
HETATM   11  N   UNL     1      -8.267  13.743  66.992  1.00  0.00    -0.379 N  
HETATM   12  O   UNL     1      -9.990  14.812  65.847  1.00  0.00    -0.291 OA 
HETATM   13  H   UNL     1      -7.347  13.901  67.402  1.00  0.00     0.000 HD 
BRANCH  11  14
HETATM   14  C   UNL     1      -8.805  12.444  67.107  1.00  0.00    -0.197 A  
HETATM   15  C   UNL     1      -9.648  12.062  68.151  1.00  0.00    -0.200 A  
HETATM   16  C   UNL     1     -10.062  10.737  68.289  1.00  0.00    -0.187 A  
HETATM   17  C   UNL     1      -9.654   9.763  67.374  1.00  0.00    -0.187 A  
HETATM   18  C   UNL     1      -8.450  11.489  66.149  1.00  0.00    -0.060 A  
HETATM   19  C   UNL     1      -8.859  10.155  66.289  1.00  0.00    -0.163 A  
BRANCH  17  20
HETATM   20  C   UNL     1     -10.021   8.309  67.588  1.00  0.00    -0.245 C  
BRANCH  20  21
HETATM   21  C   UNL     1     -11.124   8.067  68.634  1.00  0.00     0.354 C  
BRANCH  21  22
HETATM   22  N   UNL     1     -10.739   7.019  69.574  1.00  0.00    -0.234 NA 
HETATM   23  H   UNL     1      -9.744   6.806  69.501  1.00  0.00     0.000 HD 
BRANCH  22  24
HETATM   24  C   UNL     1     -11.109   7.343  70.957  1.00  0.00    -0.258 C  
BRANCH  24  25
HETATM   25  C   UNL     1      -9.948   7.133  71.962  1.00  0.00    -0.162 C  
HETATM   26  O   UNL     1      -8.701   7.481  71.339  1.00  0.00    -0.123 OA 
HETATM   27  H   UNL     1      -7.989   7.352  71.956  1.00  0.00     0.000 HD 
BRANCH  25  28
HETATM   28  C   UNL     1      -9.850   5.750  72.578  1.00  0.00    -0.182 A  
HETATM   29  C   UNL     1      -9.916   4.608  71.765  1.00  0.00    -0.260 A  
HETATM   30  C   UNL     1      -9.901   3.329  72.330  1.00  0.00    -0.226 A  
HETATM   31  C   UNL     1      -9.814   3.176  73.712  1.00  0.00    -0.151 A  
HETATM   32  C   UNL     1      -9.723   4.297  74.530  1.00  0.00    -0.162 A  
HETATM   33  C   UNL     1      -9.741   5.575  73.967  1.00  0.00    -0.166 A  
ENDBRANCH  25  28
ENDBRANCH  24  25
ENDBRANCH  22  24
ENDBRANCH  21  22
ENDBRANCH  20  21
ENDBRANCH  17  20
ENDBRANCH  11  14
ENDBRANCH   9  10
ENDBRANCH   6   9
TORSDOF 9
ENDMDL
MODEL      276
REMARK 921   NORMALIZED FREE ENERGY PREDICTED BY IDOCK:   -2.70 KCAL/MOL
REMARK 922        TOTAL FREE ENERGY PREDICTED BY IDOCK:   -6.56 KCAL/MOL
REMARK 923 INTER-LIGAND FREE ENERGY PREDICTED BY IDOCK:   -4.77 KCAL/MOL
REMARK 924 INTRA-LIGAND FREE ENERGY PREDICTED BY IDOCK:   -1.79 KCAL/MOL
REMARK 927      BINDING AFFINITY PREDICTED BY RF-SCORE:    0.00 PKD
ROOT
HETATM    1  N   UNL     1     -13.333  11.162  72.088  1.00  0.00    -0.577 NA 
HETATM    2  C   UNL     1     -12.836   9.926  71.921  1.00  0.00    -0.429 A  
HETATM    3  H1  UNL     1     -14.327  11.348  72.222  1.00  0.00     0.000 HD 
HETATM    4  H2  UNL     1     -12.688  11.951  72.079  1.00  0.00     0.000 HD 
HETATM    5  N   UNL     1     -11.561   9.688  71.749  1.00  0.00    -0.336 NA 
HETATM    6  C   UNL     1     -11.343   8.321  71.609  1.00  0.00    -0.272 A  
HETATM    7  S   UNL     1     -13.849   8.543  71.953  1.00  0.00    -0.435 SA 
HETATM    8  C   UNL     1     -12.482   7.544  71.698  1.00  0.00    -0.342 A  
ENDROOT
BRANCH   6   9
HETATM    9  C   UNL     1      -9.950   7.833  71.407  1.00  0.00    -0.207 C  
BRANCH   9  10
HETATM   10  C   UNL     1      -9.644   7.382  69.989  1.00  0.00    -0.168 C  
HETATM   11  N   UNL     1      -9.879   6.041  69.723  1.00  0.00    -0.160 N  
HETATM   12  O   UNL     1      -9.321   8.230  69.157  1.00  0.00    -0.151 OA 
HETATM   13  H   UNL     1     -10.158   5.454  70.509  1.00  0.00     0.000 HD 
BRANCH  11  14
HETATM   14  C   UNL     1      -9.766   5.415  68.464  1.00  0.00    -0.137 A  
HETATM   15  C   UNL     1     -10.640   5.673  67.408  1.00  0.00    -0.312 A  
HETATM   16  C   UNL     1     -10.562   4.946  66.220  1.00  0.00    -0.307 A  
HETATM   17  C   UNL     1      -9.595   3.951  66.055  1.00  0.00    -0.189 A  
HETATM   18  C   UNL     1      -8.753   4.469  68.279  1.00  0.00    -0.113 A  
HETATM   19  C   UNL     1      -8.676   3.732  67.089  1.00  0.00    -0.122 A  
BRANCH  17  20
HETATM   20  C   UNL     1      -9.582   3.095  64.805  1.00  0.00    -0.136 C  
BRANCH  20  21
HETATM   21  C   UNL     1      -8.914   3.747  63.582  1.00  0.00    -0.103 C  
BRANCH  21  22
HETATM   22  N   UNL     1      -7.460   3.628  63.648  1.00  0.00    -0.058 NA 
HETATM   23  H   UNL     1      -7.097   3.111  62.847  1.00  0.00     0.000 HD 
BRANCH  22  24
HETATM   24  C   UNL     1      -6.797   4.930  63.783  1.00  0.00    -0.047 C  
BRANCH  24  25
HETATM   25  C   UNL     1      -5.586   4.898  64.749  1.00  0.00    -0.014 C  
HETATM   26  O   UNL     1      -5.307   3.541  65.130  1.00  0.00    -0.009 OA 
HETATM   27  H   UNL     1      -4.565   3.522  65.722  1.00  0.00     0.000 HD 
BRANCH  25  28
HETATM   28  C   UNL     1      -5.705   5.768  65.987  1.00  0.00    -0.013 A  
HETATM   29  C   UNL     1      -6.115   7.105  65.874  1.00  0.00    -0.037 A  
HETATM   30  C   UNL     1      -6.157   7.935  66.998  1.00  0.00    -0.053 A  
HETATM   31  C   UNL     1      -5.795   7.438  68.249  1.00  0.00    -0.027 A  
HETATM   32  C   UNL     1      -5.409   6.108  68.382  1.00  0.00    -0.007 A  
HETATM   33  C   UNL     1      -5.364   5.279  67.259  1.00  0.00    -0.012 A  
ENDBRANCH  25  28
ENDBRANCH  24  25
ENDBRANCH  22  24
ENDBRANCH  21  22
ENDBRANCH  20  21
ENDBRANCH  17  20
ENDBRANCH  11  14
ENDBRANCH   9  10
ENDBRANCH   6   9
TORSDOF 9
ENDMDL
MODEL      277
REMARK 921   NORMALIZED FREE ENERGY PREDICTED BY IDOCK:   -2.63 KCAL/MOL
REMARK 922        TOTAL FREE ENERGY PREDICTED BY IDOCK:   -6.46 KCAL/MOL
REMARK 923 INTER-LIGAND FREE ENERGY PREDICTED BY IDOCK:   -4.48 KCAL/MOL
REMARK 924 INTRA-LIGAND FREE ENERGY PREDICTED BY IDOCK:   -1.99 KCAL/MOL
REMARK 927      BINDING AFFINITY PREDICTED BY RF-SCORE:    0.00 PKD
ROOT
HETATM    1  N   UNL     1     -10.092  14.737  67.461  1.00  0.00    -0.224 NA 
HETATM    2  C   UNL     1      -8.963  14.652  68.185  1.00  0.00    -0.179 A  
HETATM    3  H1  UNL     1     -10.572  15.619  67.284  1.00  0.00     0.000 HD 
HETATM    4  H2  UNL     1     -10.486  13.882  67.072  1.00  0.00     0.000 HD 
HETATM    5  N   UNL     1      -8.347  13.520  68.413  1.00  0.00    -0.156 NA 
HETATM    6  C   UNL     1      -7.209  13.741  69.183  1.00  0.00    -0.016 A  
HETATM    7  S   UNL     1      -8.219  16.047  68.849  1.00  0.00    -0.234 SA 
HETATM    8  C   UNL     1      -6.983  15.064  69.511  1.00  0.00    -0.187 A  
ENDROOT
BRANCH   6   9
HETATM    9  C   UNL     1      -6.356  12.577  69.553  1.00  0.00    -0.112 C  
BRANCH   9  10
HETATM   10  C   UNL     1      -6.933  11.228  69.161  1.00  0.00    -0.114 C  
HETATM   11  N   UNL     1      -7.704  10.601  70.128  1.00  0.00    -0.227 N  
HETATM   12  O   UNL     1      -6.777  10.834  68.004  1.00  0.00    -0.063 OA 
HETATM   13  H   UNL     1      -7.758  11.051  71.041  1.00  0.00     0.000 HD 
BRANCH  11  14
HETATM   14  C   UNL     1      -8.422   9.399  69.963  1.00  0.00    -0.190 A  
HETATM   15  C   UNL     1      -9.605   9.121  70.646  1.00  0.00    -0.312 A  
HETATM   16  C   UNL     1     -10.218   7.872  70.540  1.00  0.00    -0.198 A  
HETATM   17  C   UNL     1      -9.667   6.873  69.733  1.00  0.00    -0.166 A  
HETATM   18  C   UNL     1      -7.904   8.428  69.099  1.00  0.00    -0.105 A  
HETATM   19  C   UNL     1      -8.513   7.170  68.995  1.00  0.00    -0.129 A  
BRANCH  17  20
HETATM   20  C   UNL     1     -10.279   5.488  69.703  1.00  0.00    -0.336 C  
BRANCH  20  21
HETATM   21  C   UNL     1      -9.289   4.338  69.954  1.00  0.00    -0.162 C  
BRANCH  21  22
HETATM   22  N   UNL     1      -9.802   3.410  70.958  1.00  0.00    -0.136 NA 
HETATM   23  H   UNL     1      -9.156   2.633  71.105  1.00  0.00     0.000 HD 
BRANCH  22  24
HETATM   24  C   UNL     1     -10.123   4.077  72.225  1.00  0.00    -0.170 C  
BRANCH  24  25
HETATM   25  C   UNL     1      -8.885   4.278  73.137  1.00  0.00    -0.099 C  
HETATM   26  O   UNL     1      -9.142   3.712  74.432  1.00  0.00    -0.086 OA 
HETATM   27  H   UNL     1      -8.383   3.835  74.990  1.00  0.00     0.000 HD 
BRANCH  25  28
HETATM   28  C   UNL     1      -8.399   5.708  73.284  1.00  0.00    -0.117 A  
HETATM   29  C   UNL     1      -7.209   6.117  72.664  1.00  0.00    -0.085 A  
HETATM   30  C   UNL     1      -6.714   7.411  72.855  1.00  0.00    -0.064 A  
HETATM   31  C   UNL     1      -7.405   8.313  73.661  1.00  0.00    -0.174 A  
HETATM   32  C   UNL     1      -8.600   7.930  74.264  1.00  0.00    -0.247 A  
HETATM   33  C   UNL     1      -9.093   6.637  74.077  1.00  0.00    -0.190 A  
ENDBRANCH  25  28
ENDBRANCH  24  25
ENDBRANCH  22  24
ENDBRANCH  21  22
ENDBRANCH  20  21
ENDBRANCH  17  20
ENDBRANCH  11  14
ENDBRANCH   9  10
ENDBRANCH   6   9
TORSDOF 9
ENDMDL
MODEL      278
REMARK 921   NORMALIZED FREE ENERGY PREDICTED BY IDOCK:   -2.58 KCAL/MOL
REMARK 922        TOTAL FREE ENERGY PREDICTED BY IDOCK:   -6.37 KCAL/MOL
REMARK 923 INTER-LIGAND FREE ENERGY PREDICTED BY IDOCK:   -4.99 KCAL/MOL
REMARK 924 INTRA-LIGAND FREE ENERGY PREDICTED BY IDOCK:   -1.39 KCAL/MOL
REMARK 927      BINDING AFFINITY PREDICTED BY RF-SCORE:    0.00 PKD
ROOT
HETATM    1  N   UNL     1      -9.379  15.663  66.965  1.00  0.00    -0.219 NA 
HETATM    2  C   UNL     1      -8.310  15.627  67.777  1.00  0.00    -0.148 A  
HETATM    3  H1  UNL     1      -9.645  16.492  66.433  1.00  0.00     0.000 HD 
HETATM    4  H2  UNL     1      -9.952  14.825  66.877  1.00  0.00     0.000 HD 
HETATM    5  N   UNL     1      -7.970  14.564  68.460  1.00  0.00    -0.136 NA 
HETATM    6  C   UNL     1      -6.823  14.819  69.205  1.00  0.00    -0.133 A  
HETATM    7  S   UNL     1      -7.277  16.984  67.957  1.00  0.00    -0.172 SA 
HETATM    8  C   UNL     1      -6.306  16.091  69.049  1.00  0.00    -0.140 A  
ENDROOT
BRANCH   6   9
HETATM    9  C   UNL     1      -6.261  13.732  70.054  1.00  0.00    -0.120 C  
BRANCH   9  10
HETATM   10  C   UNL     1      -6.418  12.338  69.472  1.00  0.00    -0.094 C  
HETATM   11  N   UNL     1      -6.481  11.306  70.396  1.00  0.00    -0.241 N  
HETATM   12  O   UNL     1      -6.586  12.221  68.257  1.00  0.00    -0.051 OA 
HETATM   13  H   UNL     1      -6.339  11.552  71.376  1.00  0.00     0.000 HD 
BRANCH  11  14
HETATM   14  C   UNL     1      -6.723   9.948  70.104  1.00  0.00    -0.112 A  
HETATM   15  C   UNL     1      -7.187   9.039  71.055  1.00  0.00    -0.114 A  
HETATM   16  C   UNL     1      -7.301   7.681  70.752  1.00  0.00    -0.067 A  
HETATM   17  C   UNL     1      -6.967   7.203  69.483  1.00  0.00    -0.058 A  
HETATM   18  C   UNL     1      -6.454   9.486  68.812  1.00  0.00    -0.047 A  
HETATM   19  C   UNL     1      -6.561   8.122  68.506  1.00  0.00    -0.058 A  
BRANCH  17  20
HETATM   20  C   UNL     1      -6.995   5.716  69.193  1.00  0.00    -0.063 C  
BRANCH  20  21
HETATM   21  C   UNL     1      -8.280   4.995  69.634  1.00  0.00    -0.088 C  
BRANCH  21  22
HETATM   22  N   UNL     1      -9.045   4.526  68.481  1.00  0.00    -0.113 NA 
HETATM   23  H   UNL     1      -9.857   3.984  68.775  1.00  0.00     0.000 HD 
BRANCH  22  24
HETATM   24  C   UNL     1      -9.436   5.622  67.587  1.00  0.00    -0.115 C  
BRANCH  24  25
HETATM   25  C   UNL     1     -10.789   6.270  67.976  1.00  0.00    -0.326 C  
HETATM   26  O   UNL     1     -11.493   6.670  66.790  1.00  0.00    -0.776 OA 
HETATM   27  H   UNL     1     -12.323   7.067  67.029  1.00  0.00     0.000 HD 
BRANCH  25  28
HETATM   28  C   UNL     1     -10.709   7.435  68.946  1.00  0.00    -0.152 A  
HETATM   29  C   UNL     1     -11.045   7.254  70.297  1.00  0.00    -0.289 A  
HETATM   30  C   UNL     1     -11.045   8.337  71.182  1.00  0.00    -0.289 A  
HETATM   31  C   UNL     1     -10.704   9.610  70.730  1.00  0.00    -0.401 A  
HETATM   32  C   UNL     1     -10.346   9.801  69.400  1.00  0.00    -0.232 A  
HETATM   33  C   UNL     1     -10.348   8.722  68.514  1.00  0.00    -0.231 A  
ENDBRANCH  25  28
ENDBRANCH  24  25
ENDBRANCH  22  24
ENDBRANCH  21  22
ENDBRANCH  20  21
ENDBRANCH  17  20
ENDBRANCH  11  14
ENDBRANCH   9  10
ENDBRANCH   6   9
TORSDOF 9
ENDMDL
MODEL      279
REMARK 921   NORMALIZED FREE ENERGY PREDICTED BY IDOCK:   -2.56 KCAL/MOL
REMARK 922        TOTAL FREE ENERGY PREDICTED BY IDOCK:   -6.35 KCAL/MOL
REMARK 923 INTER-LIGAND FREE ENERGY PREDICTED BY IDOCK:   -5.20 KCAL/MOL
REMARK 924 INTRA-LIGAND FREE ENERGY PREDICTED BY IDOCK:   -1.15 KCAL/MOL
REMARK 927      BINDING AFFINITY PREDICTED BY RF-SCORE:    0.00 PKD
ROOT
HETATM    1  N   UNL     1      -6.231  18.032  69.699  1.00  0.00    -0.234 NA 
HETATM    2  C   UNL     1      -6.414  16.992  68.869  1.00  0.00    -0.189 A  
HETATM    3  H1  UNL     1      -6.883  18.814  69.761  1.00  0.00     0.000 HD 
HETATM    4  H2  UNL     1      -5.403  18.040  70.294  1.00  0.00     0.000 HD 
HETATM    5  N   UNL     1      -5.577  15.988  68.790  1.00  0.00    -0.106 NA 
HETATM    6  C   UNL     1      -6.027  15.062  67.854  1.00  0.00    -0.148 A  
HETATM    7  S   UNL     1      -7.794  16.886  67.858  1.00  0.00    -0.179 SA 
HETATM    8  C   UNL     1      -7.225  15.389  67.249  1.00  0.00    -0.194 A  
ENDROOT
BRANCH   6   9
HETATM    9  C   UNL     1      -5.218  13.834  67.613  1.00  0.00     0.058 C  
BRANCH   9  10
HETATM   10  C   UNL     1      -5.992  12.536  67.760  1.00  0.00    -0.119 C  
HETATM   11  N   UNL     1      -5.382  11.410  67.228  1.00  0.00    -0.054 N  
HETATM   12  O   UNL     1      -7.032  12.541  68.420  1.00  0.00    -0.081 OA 
HETATM   13  H   UNL     1      -4.511  11.553  66.717  1.00  0.00     0.000 HD 
BRANCH  11  14
HETATM   14  C   UNL     1      -5.855  10.086  67.330  1.00  0.00    -0.050 A  
HETATM   15  C   UNL     1      -6.405   9.392  66.252  1.00  0.00    -0.069 A  
HETATM   16  C   UNL     1      -6.966   8.126  66.426  1.00  0.00    -0.067 A  
HETATM   17  C   UNL     1      -6.979   7.518  67.684  1.00  0.00    -0.080 A  
HETATM   18  C   UNL     1      -5.802   9.454  68.577  1.00  0.00    -0.041 A  
HETATM   19  C   UNL     1      -6.372   8.186  68.756  1.00  0.00    -0.045 A  
BRANCH  17  20
HETATM   20  C   UNL     1      -7.682   6.192  67.887  1.00  0.00    -0.102 C  
BRANCH  20  21
HETATM   21  C   UNL     1      -9.131   6.142  67.372  1.00  0.00    -0.110 C  
BRANCH  21  22
HETATM   22  N   UNL     1      -9.941   7.200  67.970  1.00  0.00    -0.152 NA 
HETATM   23  H   UNL     1      -9.395   7.750  68.634  1.00  0.00     0.000 HD 
BRANCH  22  24
HETATM   24  C   UNL     1     -10.571   8.060  66.962  1.00  0.00    -0.294 C  
BRANCH  24  25
HETATM   25  C   UNL     1     -10.452   9.570  67.292  1.00  0.00    -0.262 C  
HETATM   26  O   UNL     1     -11.453   9.935  68.255  1.00  0.00    -0.532 OA 
HETATM   27  H   UNL     1     -11.379  10.860  68.457  1.00  0.00     0.000 HD 
BRANCH  25  28
HETATM   28  C   UNL     1     -10.512  10.512  66.103  1.00  0.00    -0.237 A  
HETATM   29  C   UNL     1      -9.947  10.136  64.875  1.00  0.00    -0.358 A  
HETATM   30  C   UNL     1      -9.931  11.026  63.796  1.00  0.00    -0.404 A  
HETATM   31  C   UNL     1     -10.484  12.297  63.929  1.00  0.00    -0.458 A  
HETATM   32  C   UNL     1     -11.069  12.677  65.133  1.00  0.00    -0.329 A  
HETATM   33  C   UNL     1     -11.083  11.790  66.212  1.00  0.00    -0.364 A  
ENDBRANCH  25  28
ENDBRANCH  24  25
ENDBRANCH  22  24
ENDBRANCH  21  22
ENDBRANCH  20  21
ENDBRANCH  17  20
ENDBRANCH  11  14
ENDBRANCH   9  10
ENDBRANCH   6   9
TORSDOF 9
ENDMDL
MODEL      280
REMARK 921   NORMALIZED FREE ENERGY PREDICTED BY IDOCK:   -2.56 KCAL/MOL
REMARK 922        TOTAL FREE ENERGY PREDICTED BY IDOCK:   -6.35 KCAL/MOL
REMARK 923 INTER-LIGAND FREE ENERGY PREDICTED BY IDOCK:   -5.80 KCAL/MOL
REMARK 924 INTRA-LIGAND FREE ENERGY PREDICTED BY IDOCK:   -0.54 KCAL/MOL
REMARK 927      BINDING AFFINITY PREDICTED BY RF-SCORE:    0.00 PKD
ROOT
HETATM    1  N   UNL     1     -13.833  12.815  72.750  1.00  0.00    -0.655 NA 
HETATM    2  C   UNL     1     -13.190  12.378  71.655  1.00  0.00    -0.269 A  
HETATM    3  H1  UNL     1     -14.163  12.190  73.486  1.00  0.00     0.000 HD 
HETATM    4  H2  UNL     1     -13.999  13.815  72.850  1.00  0.00     0.000 HD 
HETATM    5  N   UNL     1     -12.768  13.180  70.710  1.00  0.00    -0.235 NA 
HETATM    6  C   UNL     1     -12.137  12.449  69.708  1.00  0.00    -0.223 A  
HETATM    7  S   UNL     1     -12.844  10.715  71.424  1.00  0.00    -0.469 SA 
HETATM    8  C   UNL     1     -12.085  11.087  69.934  1.00  0.00    -0.361 A  
ENDROOT
BRANCH   6   9
HETATM    9  C   UNL     1     -11.575  13.175  68.535  1.00  0.00    -0.361 C  
BRANCH   9  10
HETATM   10  C   UNL     1     -11.072  12.271  67.422  1.00  0.00    -0.282 C  
HETATM   11  N   UNL     1      -9.969  11.492  67.735  1.00  0.00    -0.180 N  
HETATM   12  O   UNL     1     -11.721  12.206  66.377  1.00  0.00    -0.489 OA 
HETATM   13  H   UNL     1      -9.539  11.642  68.648  1.00  0.00     0.000 HD 
BRANCH  11  14
HETATM   14  C   UNL     1      -9.388  10.510  66.907  1.00  0.00    -0.159 A  
HETATM   15  C   UNL     1      -8.388  10.797  65.977  1.00  0.00    -0.163 A  
HETATM   16  C   UNL     1      -7.924   9.817  65.098  1.00  0.00    -0.129 A  
HETATM   17  C   UNL     1      -8.442   8.520  65.138  1.00  0.00    -0.193 A  
HETATM   18  C   UNL     1      -9.860   9.196  66.998  1.00  0.00    -0.267 A  
HETATM   19  C   UNL     1      -9.401   8.212  66.112  1.00  0.00    -0.232 A  
BRANCH  17  20
HETATM   20  C   UNL     1      -8.010   7.491  64.114  1.00  0.00    -0.098 C  
BRANCH  20  21
HETATM   21  C   UNL     1      -8.114   6.029  64.582  1.00  0.00    -0.132 C  
BRANCH  21  22
HETATM   22  N   UNL     1      -7.109   5.194  63.931  1.00  0.00    -0.048 NA 
HETATM   23  H   UNL     1      -6.185   5.624  63.979  1.00  0.00     0.000 HD 
BRANCH  22  24
HETATM   24  C   UNL     1      -7.084   3.827  64.467  1.00  0.00    -0.058 C  
BRANCH  24  25
HETATM   25  C   UNL     1      -6.526   3.752  65.911  1.00  0.00    -0.033 C  
HETATM   26  O   UNL     1      -5.443   2.809  65.962  1.00  0.00    -0.015 OA 
HETATM   27  H   UNL     1      -5.101   2.764  66.848  1.00  0.00     0.000 HD 
BRANCH  25  28
HETATM   28  C   UNL     1      -7.540   3.433  66.995  1.00  0.00    -0.079 A  
HETATM   29  C   UNL     1      -7.892   2.102  67.264  1.00  0.00    -0.065 A  
HETATM   30  C   UNL     1      -8.878   1.803  68.209  1.00  0.00    -0.137 A  
HETATM   31  C   UNL     1      -9.520   2.829  68.899  1.00  0.00    -0.171 A  
HETATM   32  C   UNL     1      -9.165   4.153  68.661  1.00  0.00    -0.203 A  
HETATM   33  C   UNL     1      -8.182   4.453  67.716  1.00  0.00    -0.098 A  
ENDBRANCH  25  28
ENDBRANCH  24  25
ENDBRANCH  22  24
ENDBRANCH  21  22
ENDBRANCH  20  21
ENDBRANCH  17  20
ENDBRANCH  11  14
ENDBRANCH   9  10
ENDBRANCH   6   9
TORSDOF 9
ENDMDL
MODEL      281
REMARK 921   NORMALIZED FREE ENERGY PREDICTED BY IDOCK:   -2.51 KCAL/MOL
REMARK 922        TOTAL FREE ENERGY PREDICTED BY IDOCK:   -6.27 KCAL/MOL
REMARK 923 INTER-LIGAND FREE ENERGY PREDICTED BY IDOCK:   -4.00 KCAL/MOL
REMARK 924 INTRA-LIGAND FREE ENERGY PREDICTED BY IDOCK:   -2.27 KCAL/MOL
REMARK 927      BINDING AFFINITY PREDICTED BY RF-SCORE:    0.00 PKD
ROOT
HETATM    1  N   UNL     1      -9.404  13.160  67.436  1.00  0.00    -0.205 NA 
HETATM    2  C   UNL     1      -8.162  12.667  67.306  1.00  0.00    -0.184 A  
HETATM    3  H1  UNL     1      -9.601  14.060  67.874  1.00  0.00     0.000 HD 
HETATM    4  H2  UNL     1     -10.186  12.610  67.082  1.00  0.00     0.000 HD 
HETATM    5  N   UNL     1      -7.910  11.512  66.744  1.00  0.00    -0.158 NA 
HETATM    6  C   UNL     1      -6.540  11.267  66.746  1.00  0.00    -0.140 A  
HETATM    7  S   UNL     1      -6.790  13.542  67.847  1.00  0.00    -0.167 SA 
HETATM    8  C   UNL     1      -5.776  12.272  67.307  1.00  0.00    -0.131 A  
ENDROOT
BRANCH   6   9
HETATM    9  C   UNL     1      -6.036  10.001  66.144  1.00  0.00    -0.074 C  
BRANCH   9  10
HETATM   10  C   UNL     1      -6.691   8.744  66.692  1.00  0.00    -0.072 C  
HETATM   11  N   UNL     1      -7.058   8.793  68.028  1.00  0.00    -0.078 N  
HETATM   12  O   UNL     1      -6.948   7.825  65.913  1.00  0.00    -0.059 OA 
HETATM   13  H   UNL     1      -6.792   9.627  68.552  1.00  0.00     0.000 HD 
BRANCH  11  14
HETATM   14  C   UNL     1      -7.766   7.795  68.728  1.00  0.00    -0.113 A  
HETATM   15  C   UNL     1      -7.153   6.658  69.254  1.00  0.00    -0.084 A  
HETATM   16  C   UNL     1      -7.910   5.641  69.838  1.00  0.00    -0.087 A  
HETATM   17  C   UNL     1      -9.301   5.745  69.921  1.00  0.00    -0.177 A  
HETATM   18  C   UNL     1      -9.150   7.937  68.872  1.00  0.00    -0.141 A  
HETATM   19  C   UNL     1      -9.914   6.914  69.451  1.00  0.00    -0.166 A  
BRANCH  17  20
HETATM   20  C   UNL     1     -10.124   4.594  70.460  1.00  0.00    -0.263 C  
BRANCH  20  21
HETATM   21  C   UNL     1     -10.729   4.828  71.856  1.00  0.00    -0.009 C  
BRANCH  21  22
HETATM   22  N   UNL     1      -9.750   5.420  72.763  1.00  0.00    -0.149 NA 
HETATM   23  H   UNL     1      -8.994   5.869  72.246  1.00  0.00     0.000 HD 
BRANCH  22  24
HETATM   24  C   UNL     1     -10.363   6.350  73.719  1.00  0.00    -0.311 C  
BRANCH  24  25
HETATM   25  C   UNL     1      -9.900   7.817  73.521  1.00  0.00    -0.234 C  
HETATM   26  O   UNL     1     -10.594   8.396  72.405  1.00  0.00    -0.316 OA 
HETATM   27  H   UNL     1     -10.310   9.295  72.284  1.00  0.00     0.000 HD 
BRANCH  25  28
HETATM   28  C   UNL     1      -8.405   8.021  73.363  1.00  0.00    -0.278 A  
HETATM   29  C   UNL     1      -7.526   7.628  74.384  1.00  0.00    -0.172 A  
HETATM   30  C   UNL     1      -6.155   7.880  74.280  1.00  0.00    -0.090 A  
HETATM   31  C   UNL     1      -5.644   8.521  73.154  1.00  0.00    -0.070 A  
HETATM   32  C   UNL     1      -6.499   8.895  72.122  1.00  0.00    -0.010 A  
HETATM   33  C   UNL     1      -7.869   8.647  72.226  1.00  0.00    -0.062 A  
ENDBRANCH  25  28
ENDBRANCH  24  25
ENDBRANCH  22  24
ENDBRANCH  21  22
ENDBRANCH  20  21
ENDBRANCH  17  20
ENDBRANCH  11  14
ENDBRANCH   9  10
ENDBRANCH   6   9
TORSDOF 9
ENDMDL
MODEL      282
REMARK 921   NORMALIZED FREE ENERGY PREDICTED BY IDOCK:   -2.49 KCAL/MOL
REMARK 922        TOTAL FREE ENERGY PREDICTED BY IDOCK:   -6.25 KCAL/MOL
REMARK 923 INTER-LIGAND FREE ENERGY PREDICTED BY IDOCK:   -5.43 KCAL/MOL
REMARK 924 INTRA-LIGAND FREE ENERGY PREDICTED BY IDOCK:   -0.82 KCAL/MOL
REMARK 927      BINDING AFFINITY PREDICTED BY RF-SCORE:    0.00 PKD
ROOT
HETATM    1  N   UNL     1     -13.861  13.004  72.528  1.00  0.00    -0.693 NA 
HETATM    2  C   UNL     1     -13.071  12.715  71.481  1.00  0.00    -0.278 A  
HETATM    3  H1  UNL     1     -14.337  12.289  73.079  1.00  0.00     0.000 HD 
HETATM    4  H2  UNL     1     -13.991  13.982  72.785  1.00  0.00     0.000 HD 
HETATM    5  N   UNL     1     -12.461  13.632  70.774  1.00  0.00    -0.359 NA 
HETATM    6  C   UNL     1     -11.713  13.039  69.762  1.00  0.00    -0.276 A  
HETATM    7  S   UNL     1     -12.777  11.095  71.003  1.00  0.00    -0.350 SA 
HETATM    8  C   UNL     1     -11.767  11.658  69.739  1.00  0.00    -0.352 A  
ENDROOT
BRANCH   6   9
HETATM    9  C   UNL     1     -10.932  13.911  68.841  1.00  0.00    -0.290 C  
BRANCH   9  10
HETATM   10  C   UNL     1     -10.092  13.155  67.826  1.00  0.00    -0.226 C  
HETATM   11  N   UNL     1      -8.988  12.490  68.337  1.00  0.00    -0.316 N  
HETATM   12  O   UNL     1     -10.491  13.088  66.662  1.00  0.00    -0.260 OA 
HETATM   13  H   UNL     1      -8.784  12.624  69.328  1.00  0.00     0.000 HD 
BRANCH  11  14
HETATM   14  C   UNL     1      -8.122  11.645  67.613  1.00  0.00    -0.140 A  
HETATM   15  C   UNL     1      -6.826  12.016  67.254  1.00  0.00    -0.150 A  
HETATM   16  C   UNL     1      -6.046  11.195  66.438  1.00  0.00    -0.137 A  
HETATM   17  C   UNL     1      -6.542   9.974  65.972  1.00  0.00    -0.095 A  
HETATM   18  C   UNL     1      -8.597  10.393  67.208  1.00  0.00    -0.126 A  
HETATM   19  C   UNL     1      -7.819   9.570  66.382  1.00  0.00    -0.097 A  
BRANCH  17  20
HETATM   20  C   UNL     1      -5.731   9.138  65.003  1.00  0.00    -0.058 C  
BRANCH  20  21
HETATM   21  C   UNL     1      -5.980   7.622  65.093  1.00  0.00    -0.038 C  
BRANCH  21  22
HETATM   22  N   UNL     1      -5.292   7.041  66.242  1.00  0.00    -0.022 NA 
HETATM   23  H   UNL     1      -4.952   7.767  66.873  1.00  0.00     0.000 HD 
BRANCH  22  24
HETATM   24  C   UNL     1      -6.124   6.066  66.958  1.00  0.00    -0.025 C  
BRANCH  24  25
HETATM   25  C   UNL     1      -7.088   6.723  67.978  1.00  0.00    -0.085 C  
HETATM   26  O   UNL     1      -6.339   7.523  68.906  1.00  0.00    -0.037 OA 
HETATM   27  H   UNL     1      -6.931   7.925  69.531  1.00  0.00     0.000 HD 
BRANCH  25  28
HETATM   28  C   UNL     1      -7.999   5.772  68.732  1.00  0.00    -0.101 A  
HETATM   29  C   UNL     1      -8.030   4.409  68.400  1.00  0.00    -0.078 A  
HETATM   30  C   UNL     1      -8.918   3.539  69.038  1.00  0.00    -0.182 A  
HETATM   31  C   UNL     1      -9.783   4.019  70.020  1.00  0.00    -0.264 A  
HETATM   32  C   UNL     1      -9.748   5.363  70.378  1.00  0.00    -0.254 A  
HETATM   33  C   UNL     1      -8.863   6.233  69.739  1.00  0.00    -0.140 A  
ENDBRANCH  25  28
ENDBRANCH  24  25
ENDBRANCH  22  24
ENDBRANCH  21  22
ENDBRANCH  20  21
ENDBRANCH  17  20
ENDBRANCH  11  14
ENDBRANCH   9  10
ENDBRANCH   6   9
TORSDOF 9
ENDMDL
MODEL      283
REMARK 921   NORMALIZED FREE ENERGY PREDICTED BY IDOCK:   -2.45 KCAL/MOL
REMARK 922        TOTAL FREE ENERGY PREDICTED BY IDOCK:   -6.19 KCAL/MOL
REMARK 923 INTER-LIGAND FREE ENERGY PREDICTED BY IDOCK:   -5.40 KCAL/MOL
REMARK 924 INTRA-LIGAND FREE ENERGY PREDICTED BY IDOCK:   -0.79 KCAL/MOL
REMARK 927      BINDING AFFINITY PREDICTED BY RF-SCORE:    0.00 PKD
ROOT
HETATM    1  N   UNL     1     -13.157  12.247  63.897  1.00  0.00    -0.761 NA 
HETATM    2  C   UNL     1     -12.418  12.858  64.838  1.00  0.00    -0.478 A  
HETATM    3  H1  UNL     1     -13.294  12.633  62.963  1.00  0.00     0.000 HD 
HETATM    4  H2  UNL     1     -13.601  11.359  64.127  1.00  0.00     0.000 HD 
HETATM    5  N   UNL     1     -12.242  12.363  66.038  1.00  0.00    -0.624 NA 
HETATM    6  C   UNL     1     -11.431  13.207  66.789  1.00  0.00    -0.343 A  
HETATM    7  S   UNL     1     -11.613  14.338  64.523  1.00  0.00    -0.366 SA 
HETATM    8  C   UNL     1     -10.993  14.333  66.119  1.00  0.00    -0.313 A  
ENDROOT
BRANCH   6   9
HETATM    9  C   UNL     1     -11.100  12.824  68.191  1.00  0.00    -0.288 C  
BRANCH   9  10
HETATM   10  C   UNL     1     -10.571  11.409  68.345  1.00  0.00    -0.202 C  
HETATM   11  N   UNL     1      -9.935  10.882  67.231  1.00  0.00    -0.182 N  
HETATM   12  O   UNL     1     -10.638  10.871  69.451  1.00  0.00    -0.220 OA 
HETATM   13  H   UNL     1      -9.942  11.448  66.382  1.00  0.00     0.000 HD 
BRANCH  11  14
HETATM   14  C   UNL     1      -9.278   9.636  67.165  1.00  0.00    -0.134 A  
HETATM   15  C   UNL     1      -9.495   8.718  66.138  1.00  0.00    -0.315 A  
HETATM   16  C   UNL     1      -8.912   7.451  66.174  1.00  0.00    -0.182 A  
HETATM   17  C   UNL     1      -8.085   7.076  67.237  1.00  0.00    -0.115 A  
HETATM   18  C   UNL     1      -8.396   9.293  68.195  1.00  0.00    -0.120 A  
HETATM   19  C   UNL     1      -7.815   8.018  68.239  1.00  0.00    -0.123 A  
BRANCH  17  20
HETATM   20  C   UNL     1      -7.541   5.666  67.323  1.00  0.00    -0.089 C  
BRANCH  20  21
HETATM   21  C   UNL     1      -7.217   5.184  68.748  1.00  0.00    -0.062 C  
BRANCH  21  22
HETATM   22  N   UNL     1      -7.975   3.982  69.084  1.00  0.00    -0.056 NA 
HETATM   23  H   UNL     1      -7.939   3.300  68.325  1.00  0.00     0.000 HD 
BRANCH  22  24
HETATM   24  C   UNL     1      -7.543   3.384  70.353  1.00  0.00    -0.044 C  
BRANCH  24  25
HETATM   25  C   UNL     1      -6.229   3.999  70.898  1.00  0.00    -0.018 C  
HETATM   26  O   UNL     1      -5.286   2.953  71.180  1.00  0.00    -0.004 OA 
HETATM   27  H   UNL     1      -4.481   3.330  71.514  1.00  0.00     0.000 HD 
BRANCH  25  28
HETATM   28  C   UNL     1      -6.375   4.904  72.108  1.00  0.00    -0.034 A  
HETATM   29  C   UNL     1      -5.237   5.413  72.751  1.00  0.00    -0.017 A  
HETATM   30  C   UNL     1      -5.359   6.186  73.909  1.00  0.00    -0.040 A  
HETATM   31  C   UNL     1      -6.619   6.464  74.435  1.00  0.00    -0.077 A  
HETATM   32  C   UNL     1      -7.759   5.987  73.796  1.00  0.00    -0.095 A  
HETATM   33  C   UNL     1      -7.638   5.212  72.640  1.00  0.00    -0.097 A  
ENDBRANCH  25  28
ENDBRANCH  24  25
ENDBRANCH  22  24
ENDBRANCH  21  22
ENDBRANCH  20  21
ENDBRANCH  17  20
ENDBRANCH  11  14
ENDBRANCH   9  10
ENDBRANCH   6   9
TORSDOF 9
ENDMDL
MODEL      284
REMARK 921   NORMALIZED FREE ENERGY PREDICTED BY IDOCK:   -2.44 KCAL/MOL
REMARK 922        TOTAL FREE ENERGY PREDICTED BY IDOCK:   -6.16 KCAL/MOL
REMARK 923 INTER-LIGAND FREE ENERGY PREDICTED BY IDOCK:   -4.83 KCAL/MOL
REMARK 924 INTRA-LIGAND FREE ENERGY PREDICTED BY IDOCK:   -1.34 KCAL/MOL
REMARK 927      BINDING AFFINITY PREDICTED BY RF-SCORE:    0.00 PKD
ROOT
HETATM    1  N   UNL     1      -5.997  17.621  69.476  1.00  0.00    -0.232 NA 
HETATM    2  C   UNL     1      -6.285  16.506  68.786  1.00  0.00    -0.138 A  
HETATM    3  H1  UNL     1      -6.606  18.440  69.487  1.00  0.00     0.000 HD 
HETATM    4  H2  UNL     1      -5.132  17.652  70.013  1.00  0.00     0.000 HD 
HETATM    5  N   UNL     1      -5.503  15.456  68.771  1.00  0.00    -0.092 NA 
HETATM    6  C   UNL     1      -6.059  14.456  67.979  1.00  0.00    -0.150 A  
HETATM    7  S   UNL     1      -7.735  16.362  67.882  1.00  0.00    -0.156 SA 
HETATM    8  C   UNL     1      -7.279  14.778  67.416  1.00  0.00    -0.173 A  
ENDROOT
BRANCH   6   9
HETATM    9  C   UNL     1      -5.327  13.167  67.831  1.00  0.00    -0.112 C  
BRANCH   9  10
HETATM   10  C   UNL     1      -6.221  11.940  67.796  1.00  0.00    -0.070 C  
HETATM   11  N   UNL     1      -6.191  11.209  66.618  1.00  0.00    -0.122 N  
HETATM   12  O   UNL     1      -6.817  11.615  68.824  1.00  0.00    -0.076 OA 
HETATM   13  H   UNL     1      -5.641  11.592  65.849  1.00  0.00     0.000 HD 
BRANCH  11  14
HETATM   14  C   UNL     1      -6.853   9.987  66.385  1.00  0.00    -0.093 A  
HETATM   15  C   UNL     1      -8.098   9.904  65.762  1.00  0.00    -0.123 A  
HETATM   16  C   UNL     1      -8.768   8.685  65.657  1.00  0.00    -0.214 A  
HETATM   17  C   UNL     1      -8.200   7.513  66.163  1.00  0.00    -0.125 A  
HETATM   18  C   UNL     1      -6.248   8.807  66.831  1.00  0.00    -0.059 A  
HETATM   19  C   UNL     1      -6.922   7.581  66.734  1.00  0.00    -0.078 A  
BRANCH  17  20
HETATM   20  C   UNL     1      -8.976   6.213  66.140  1.00  0.00    -0.164 C  
BRANCH  20  21
HETATM   21  C   UNL     1     -10.277   6.221  66.963  1.00  0.00    -0.201 C  
BRANCH  21  22
HETATM   22  N   UNL     1     -10.067   6.825  68.276  1.00  0.00    -0.154 NA 
HETATM   23  H   UNL     1      -9.090   7.085  68.409  1.00  0.00     0.000 HD 
BRANCH  22  24
HETATM   24  C   UNL     1     -10.956   7.969  68.513  1.00  0.00     0.219 C  
BRANCH  24  25
HETATM   25  C   UNL     1     -10.207   9.220  69.040  1.00  0.00    -0.206 C  
HETATM   26  O   UNL     1     -10.062   9.131  70.466  1.00  0.00    -0.201 OA 
HETATM   27  H   UNL     1      -9.603   9.898  70.789  1.00  0.00     0.000 HD 
BRANCH  25  28
HETATM   28  C   UNL     1     -10.814  10.560  68.665  1.00  0.00    -0.276 A  
HETATM   29  C   UNL     1     -10.834  10.977  67.326  1.00  0.00    -0.335 A  
HETATM   30  C   UNL     1     -11.324  12.239  66.980  1.00  0.00    -0.395 A  
HETATM   31  C   UNL     1     -11.804  13.098  67.966  1.00  0.00    -0.398 A  
HETATM   32  C   UNL     1     -11.814  12.690  69.296  1.00  0.00    -0.358 A  
HETATM   33  C   UNL     1     -11.322  11.430  69.643  1.00  0.00    -0.347 A  
ENDBRANCH  25  28
ENDBRANCH  24  25
ENDBRANCH  22  24
ENDBRANCH  21  22
ENDBRANCH  20  21
ENDBRANCH  17  20
ENDBRANCH  11  14
ENDBRANCH   9  10
ENDBRANCH   6   9
TORSDOF 9
ENDMDL
MODEL      285
REMARK 921   NORMALIZED FREE ENERGY PREDICTED BY IDOCK:   -2.42 KCAL/MOL
REMARK 922        TOTAL FREE ENERGY PREDICTED BY IDOCK:   -6.14 KCAL/MOL
REMARK 923 INTER-LIGAND FREE ENERGY PREDICTED BY IDOCK:   -5.12 KCAL/MOL
REMARK 924 INTRA-LIGAND FREE ENERGY PREDICTED BY IDOCK:   -1.03 KCAL/MOL
REMARK 927      BINDING AFFINITY PREDICTED BY RF-SCORE:    0.00 PKD
ROOT
HETATM    1  N   UNL     1     -12.051  11.857  67.624  1.00  0.00    -0.528 NA 
HETATM    2  C   UNL     1     -10.762  11.795  67.253  1.00  0.00    -0.237 A  
HETATM    3  H1  UNL     1     -12.403  12.541  68.295  1.00  0.00     0.000 HD 
HETATM    4  H2  UNL     1     -12.707  11.191  67.218  1.00  0.00     0.000 HD 
HETATM    5  N   UNL     1     -10.310  10.918  66.393  1.00  0.00    -0.245 NA 
HETATM    6  C   UNL     1      -8.943  11.095  66.200  1.00  0.00    -0.195 A  
HETATM    7  S   UNL     1      -9.600  12.898  67.865  1.00  0.00    -0.220 SA 
HETATM    8  C   UNL     1      -8.390  12.135  66.923  1.00  0.00    -0.151 A  
ENDROOT
BRANCH   6   9
HETATM    9  C   UNL     1      -8.229  10.198  65.250  1.00  0.00    -0.157 C  
BRANCH   9  10
HETATM   10  C   UNL     1      -7.749   8.893  65.862  1.00  0.00    -0.098 C  
HETATM   11  N   UNL     1      -8.210   8.626  67.142  1.00  0.00    -0.107 N  
HETATM   12  O   UNL     1      -7.087   8.123  65.165  1.00  0.00    -0.065 OA 
HETATM   13  H   UNL     1      -8.764   9.352  67.596  1.00  0.00     0.000 HD 
BRANCH  11  14
HETATM   14  C   UNL     1      -7.985   7.441  67.872  1.00  0.00    -0.119 A  
HETATM   15  C   UNL     1      -6.852   7.240  68.661  1.00  0.00    -0.076 A  
HETATM   16  C   UNL     1      -6.613   6.009  69.272  1.00  0.00    -0.051 A  
HETATM   17  C   UNL     1      -7.513   4.951  69.120  1.00  0.00    -0.053 A  
HETATM   18  C   UNL     1      -8.924   6.409  67.773  1.00  0.00    -0.113 A  
HETATM   19  C   UNL     1      -8.683   5.168  68.380  1.00  0.00    -0.104 A  
BRANCH  17  20
HETATM   20  C   UNL     1      -7.197   3.587  69.699  1.00  0.00    -0.042 C  
BRANCH  20  21
HETATM   21  C   UNL     1      -7.751   3.341  71.114  1.00  0.00    -0.050 C  
BRANCH  21  22
HETATM   22  N   UNL     1      -8.414   4.533  71.636  1.00  0.00    -0.105 NA 
HETATM   23  H   UNL     1      -9.418   4.503  71.459  1.00  0.00     0.000 HD 
BRANCH  22  24
HETATM   24  C   UNL     1      -8.133   4.751  73.060  1.00  0.00    -0.101 C  
BRANCH  24  25
HETATM   25  C   UNL     1      -9.397   5.123  73.878  1.00  0.00    -0.128 C  
HETATM   26  O   UNL     1     -10.095   3.927  74.259  1.00  0.00    -0.137 OA 
HETATM   27  H   UNL     1     -10.869   4.155  74.760  1.00  0.00     0.000 HD 
BRANCH  25  28
HETATM   28  C   UNL     1     -10.355   6.090  73.208  1.00  0.00    -0.238 A  
HETATM   29  C   UNL     1     -11.517   5.614  72.583  1.00  0.00    -0.339 A  
HETATM   30  C   UNL     1     -12.368   6.488  71.899  1.00  0.00    -0.339 A  
HETATM   31  C   UNL     1     -12.072   7.848  71.838  1.00  0.00    -0.352 A  
HETATM   32  C   UNL     1     -10.936   8.339  72.473  1.00  0.00    -0.424 A  
HETATM   33  C   UNL     1     -10.084   7.467  73.153  1.00  0.00    -0.342 A  
ENDBRANCH  25  28
ENDBRANCH  24  25
ENDBRANCH  22  24
ENDBRANCH  21  22
ENDBRANCH  20  21
ENDBRANCH  17  20
ENDBRANCH  11  14
ENDBRANCH   9  10
ENDBRANCH   6   9
TORSDOF 9
ENDMDL
MODEL      286
REMARK 921   NORMALIZED FREE ENERGY PREDICTED BY IDOCK:   -2.34 KCAL/MOL
REMARK 922        TOTAL FREE ENERGY PREDICTED BY IDOCK:   -6.01 KCAL/MOL
REMARK 923 INTER-LIGAND FREE ENERGY PREDICTED BY IDOCK:   -5.33 KCAL/MOL
REMARK 924 INTRA-LIGAND FREE ENERGY PREDICTED BY IDOCK:   -0.68 KCAL/MOL
REMARK 927      BINDING AFFINITY PREDICTED BY RF-SCORE:    0.00 PKD
ROOT
HETATM    1  N   UNL     1      -6.230  18.064  69.708  1.00  0.00    -0.210 NA 
HETATM    2  C   UNL     1      -6.418  16.941  68.995  1.00  0.00    -0.202 A  
HETATM    3  H1  UNL     1      -6.857  18.867  69.654  1.00  0.00     0.000 HD 
HETATM    4  H2  UNL     1      -5.424  18.116  70.330  1.00  0.00     0.000 HD 
HETATM    5  N   UNL     1      -5.613  15.911  69.063  1.00  0.00    -0.107 NA 
HETATM    6  C   UNL     1      -6.060  14.897  68.222  1.00  0.00    -0.122 A  
HETATM    7  S   UNL     1      -7.764  16.761  67.949  1.00  0.00    -0.175 SA 
HETATM    8  C   UNL     1      -7.225  15.188  67.537  1.00  0.00    -0.200 A  
ENDROOT
BRANCH   6   9
HETATM    9  C   UNL     1      -5.286  13.627  68.153  1.00  0.00    -0.108 C  
BRANCH   9  10
HETATM   10  C   UNL     1      -6.086  12.386  68.511  1.00  0.00    -0.056 C  
HETATM   11  N   UNL     1      -5.497  11.176  68.175  1.00  0.00    -0.043 N  
HETATM   12  O   UNL     1      -7.126  12.520  69.157  1.00  0.00    -0.074 OA 
HETATM   13  H   UNL     1      -4.624  11.215  67.651  1.00  0.00     0.000 HD 
BRANCH  11  14
HETATM   14  C   UNL     1      -5.997   9.896  68.493  1.00  0.00    -0.042 A  
HETATM   15  C   UNL     1      -6.555   9.042  67.542  1.00  0.00    -0.065 A  
HETATM   16  C   UNL     1      -7.142   7.834  67.921  1.00  0.00    -0.086 A  
HETATM   17  C   UNL     1      -7.173   7.445  69.263  1.00  0.00    -0.080 A  
HETATM   18  C   UNL     1      -5.962   9.481  69.829  1.00  0.00    -0.036 A  
HETATM   19  C   UNL     1      -6.558   8.272  70.213  1.00  0.00    -0.036 A  
BRANCH  17  20
HETATM   20  C   UNL     1      -7.903   6.185  69.679  1.00  0.00    -0.103 C  
BRANCH  20  21
HETATM   21  C   UNL     1      -9.336   6.058  69.135  1.00  0.00    -0.125 C  
BRANCH  21  22
HETATM   22  N   UNL     1     -10.318   6.122  70.214  1.00  0.00    -0.201 NA 
HETATM   23  H   UNL     1      -9.861   6.172  71.124  1.00  0.00     0.000 HD 
BRANCH  22  24
HETATM   24  C   UNL     1     -11.270   7.226  70.038  1.00  0.00    -0.209 C  
BRANCH  24  25
HETATM   25  C   UNL     1     -11.566   7.988  71.355  1.00  0.00    -0.267 C  
HETATM   26  O   UNL     1     -12.564   7.283  72.109  1.00  0.00    -0.469 OA 
HETATM   27  H   UNL     1     -12.745   7.750  72.916  1.00  0.00     0.000 HD 
BRANCH  25  28
HETATM   28  C   UNL     1     -11.967   9.443  71.200  1.00  0.00    -0.413 A  
HETATM   29  C   UNL     1     -11.531  10.182  70.090  1.00  0.00    -0.368 A  
HETATM   30  C   UNL     1     -11.833  11.542  69.975  1.00  0.00    -0.435 A  
HETATM   31  C   UNL     1     -12.580  12.179  70.965  1.00  0.00    -0.359 A  
HETATM   32  C   UNL     1     -13.040  11.455  72.060  1.00  0.00    -0.423 A  
HETATM   33  C   UNL     1     -12.736  10.097  72.177  1.00  0.00    -0.316 A  
ENDBRANCH  25  28
ENDBRANCH  24  25
ENDBRANCH  22  24
ENDBRANCH  21  22
ENDBRANCH  20  21
ENDBRANCH  17  20
ENDBRANCH  11  14
ENDBRANCH   9  10
ENDBRANCH   6   9
TORSDOF 9
ENDMDL
MODEL      287
REMARK 921   NORMALIZED FREE ENERGY PREDICTED BY IDOCK:   -2.33 KCAL/MOL
REMARK 922        TOTAL FREE ENERGY PREDICTED BY IDOCK:   -5.99 KCAL/MOL
REMARK 923 INTER-LIGAND FREE ENERGY PREDICTED BY IDOCK:   -5.69 KCAL/MOL
REMARK 924 INTRA-LIGAND FREE ENERGY PREDICTED BY IDOCK:   -0.30 KCAL/MOL
REMARK 927      BINDING AFFINITY PREDICTED BY RF-SCORE:    0.00 PKD
ROOT
HETATM    1  N   UNL     1     -10.876   2.793  73.573  1.00  0.00    -0.184 NA 
HETATM    2  C   UNL     1     -10.420   4.006  73.222  1.00  0.00    -0.177 A  
HETATM    3  H1  UNL     1     -10.369   2.170  74.202  1.00  0.00     0.000 HD 
HETATM    4  H2  UNL     1     -11.769   2.481  73.194  1.00  0.00     0.000 HD 
HETATM    5  N   UNL     1     -11.070   4.806  72.415  1.00  0.00    -0.055 NA 
HETATM    6  C   UNL     1     -10.360   5.990  72.239  1.00  0.00    -0.192 A  
HETATM    7  S   UNL     1      -8.942   4.619  73.839  1.00  0.00    -0.105 SA 
HETATM    8  C   UNL     1      -9.175   6.061  72.945  1.00  0.00    -0.134 A  
ENDROOT
BRANCH   6   9
HETATM    9  C   UNL     1     -10.931   7.045  71.356  1.00  0.00    -0.266 C  
BRANCH   9  10
HETATM   10  C   UNL     1     -10.054   8.276  71.203  1.00  0.00    -0.191 C  
HETATM   11  N   UNL     1      -9.313   8.342  70.033  1.00  0.00    -0.158 N  
HETATM   12  O   UNL     1     -10.134   9.166  72.051  1.00  0.00    -0.279 OA 
HETATM   13  H   UNL     1      -9.353   7.534  69.412  1.00  0.00     0.000 HD 
BRANCH  11  14
HETATM   14  C   UNL     1      -8.509   9.426  69.624  1.00  0.00    -0.164 A  
HETATM   15  C   UNL     1      -7.265   9.704  70.189  1.00  0.00    -0.128 A  
HETATM   16  C   UNL     1      -6.557  10.853  69.834  1.00  0.00    -0.148 A  
HETATM   17  C   UNL     1      -7.073  11.746  68.892  1.00  0.00    -0.114 A  
HETATM   18  C   UNL     1      -8.998  10.279  68.629  1.00  0.00    -0.144 A  
HETATM   19  C   UNL     1      -8.293  11.438  68.276  1.00  0.00    -0.152 A  
BRANCH  17  20
HETATM   20  C   UNL     1      -6.350  13.042  68.589  1.00  0.00    -0.083 C  
BRANCH  20  21
HETATM   21  C   UNL     1      -7.267  14.250  68.331  1.00  0.00    -0.113 C  
BRANCH  21  22
HETATM   22  N   UNL     1      -7.781  14.799  69.582  1.00  0.00    -0.386 NA 
HETATM   23  H   UNL     1      -7.046  14.858  70.288  1.00  0.00     0.000 HD 
BRANCH  22  24
HETATM   24  C   UNL     1      -8.438  16.098  69.395  1.00  0.00    -0.091 C  
BRANCH  24  25
HETATM   25  C   UNL     1      -8.112  16.753  68.028  1.00  0.00    -0.187 C  
HETATM   26  O   UNL     1      -6.717  17.091  67.975  1.00  0.00    -0.144 OA 
HETATM   27  H   UNL     1      -6.517  17.492  67.137  1.00  0.00     0.000 HD 
BRANCH  25  28
HETATM   28  C   UNL     1      -8.951  17.962  67.658  1.00  0.00    -0.250 A  
HETATM   29  C   UNL     1      -8.657  18.698  66.500  1.00  0.00    -0.307 A  
HETATM   30  C   UNL     1      -9.377  19.856  66.190  1.00  0.00    -0.442 A  
HETATM   31  C   UNL     1     -10.403  20.288  67.029  1.00  0.00    -0.421 A  
HETATM   32  C   UNL     1     -10.722  19.556  68.168  1.00  0.00    -0.265 A  
HETATM   33  C   UNL     1     -10.002  18.401  68.480  1.00  0.00    -0.415 A  
ENDBRANCH  25  28
ENDBRANCH  24  25
ENDBRANCH  22  24
ENDBRANCH  21  22
ENDBRANCH  20  21
ENDBRANCH  17  20
ENDBRANCH  11  14
ENDBRANCH   9  10
ENDBRANCH   6   9
TORSDOF 9
ENDMDL
MODEL      288
REMARK 921   NORMALIZED FREE ENERGY PREDICTED BY IDOCK:   -2.25 KCAL/MOL
REMARK 922        TOTAL FREE ENERGY PREDICTED BY IDOCK:   -5.87 KCAL/MOL
REMARK 923 INTER-LIGAND FREE ENERGY PREDICTED BY IDOCK:   -4.61 KCAL/MOL
REMARK 924 INTRA-LIGAND FREE ENERGY PREDICTED BY IDOCK:   -1.27 KCAL/MOL
REMARK 927      BINDING AFFINITY PREDICTED BY RF-SCORE:    0.00 PKD
ROOT
HETATM    1  N   UNL     1     -13.518  10.992  71.775  1.00  0.00    -0.256 NA 
HETATM    2  C   UNL     1     -13.119   9.718  71.628  1.00  0.00    -0.419 A  
HETATM    3  H1  UNL     1     -14.495  11.279  71.708  1.00  0.00     0.000 HD 
HETATM    4  H2  UNL     1     -12.813  11.704  71.961  1.00  0.00     0.000 HD 
HETATM    5  N   UNL     1     -11.866   9.349  71.713  1.00  0.00    -0.384 NA 
HETATM    6  C   UNL     1     -11.756   7.975  71.524  1.00  0.00    -0.284 A  
HETATM    7  S   UNL     1     -14.244   8.455  71.342  1.00  0.00    -0.253 SA 
HETATM    8  C   UNL     1     -12.957   7.325  71.311  1.00  0.00    -0.328 A  
ENDROOT
BRANCH   6   9
HETATM    9  C   UNL     1     -10.407   7.347  71.588  1.00  0.00    -0.215 C  
BRANCH   9  10
HETATM   10  C   UNL     1      -9.747   7.143  70.235  1.00  0.00    -0.175 C  
HETATM   11  N   UNL     1      -9.052   8.236  69.737  1.00  0.00    -0.146 N  
HETATM   12  O   UNL     1      -9.774   6.021  69.728  1.00  0.00    -0.152 OA 
HETATM   13  H   UNL     1      -9.105   9.102  70.272  1.00  0.00     0.000 HD 
BRANCH  11  14
HETATM   14  C   UNL     1      -8.280   8.257  68.558  1.00  0.00    -0.131 A  
HETATM   15  C   UNL     1      -6.892   8.116  68.557  1.00  0.00    -0.068 A  
HETATM   16  C   UNL     1      -6.158   8.259  67.379  1.00  0.00    -0.052 A  
HETATM   17  C   UNL     1      -6.798   8.534  66.168  1.00  0.00    -0.072 A  
HETATM   18  C   UNL     1      -8.933   8.463  67.337  1.00  0.00    -0.143 A  
HETATM   19  C   UNL     1      -8.197   8.615  66.154  1.00  0.00    -0.121 A  
BRANCH  17  20
HETATM   20  C   UNL     1      -5.988   8.792  64.914  1.00  0.00    -0.063 C  
BRANCH  20  21
HETATM   21  C   UNL     1      -5.409   7.532  64.248  1.00  0.00    -0.029 C  
BRANCH  21  22
HETATM   22  N   UNL     1      -6.419   6.846  63.448  1.00  0.00    -0.043 NA 
HETATM   23  H   UNL     1      -6.231   6.949  62.450  1.00  0.00     0.000 HD 
BRANCH  22  24
HETATM   24  C   UNL     1      -6.560   5.432  63.816  1.00  0.00    -0.033 C  
BRANCH  24  25
HETATM   25  C   UNL     1      -8.037   4.978  63.932  1.00  0.00    -0.119 C  
HETATM   26  O   UNL     1      -8.906   6.073  63.604  1.00  0.00    -0.301 OA 
HETATM   27  H   UNL     1      -9.812   5.795  63.675  1.00  0.00     0.000 HD 
BRANCH  25  28
HETATM   28  C   UNL     1      -8.441   4.379  65.266  1.00  0.00    -0.121 A  
HETATM   29  C   UNL     1      -9.599   4.826  65.920  1.00  0.00    -0.188 A  
HETATM   30  C   UNL     1      -9.940   4.334  67.184  1.00  0.00    -0.152 A  
HETATM   31  C   UNL     1      -9.131   3.386  67.806  1.00  0.00    -0.204 A  
HETATM   32  C   UNL     1      -7.992   2.914  67.161  1.00  0.00    -0.075 A  
HETATM   33  C   UNL     1      -7.649   3.407  65.900  1.00  0.00    -0.081 A  
ENDBRANCH  25  28
ENDBRANCH  24  25
ENDBRANCH  22  24
ENDBRANCH  21  22
ENDBRANCH  20  21
ENDBRANCH  17  20
ENDBRANCH  11  14
ENDBRANCH   9  10
ENDBRANCH   6   9
TORSDOF 9
ENDMDL
MODEL      289
REMARK 921   NORMALIZED FREE ENERGY PREDICTED BY IDOCK:   -2.19 KCAL/MOL
REMARK 922        TOTAL FREE ENERGY PREDICTED BY IDOCK:   -5.79 KCAL/MOL
REMARK 923 INTER-LIGAND FREE ENERGY PREDICTED BY IDOCK:   -4.78 KCAL/MOL
REMARK 924 INTRA-LIGAND FREE ENERGY PREDICTED BY IDOCK:   -1.01 KCAL/MOL
REMARK 927      BINDING AFFINITY PREDICTED BY RF-SCORE:    0.00 PKD
ROOT
HETATM    1  N   UNL     1     -11.042  15.641  69.628  1.00  0.00    -0.272 NA 
HETATM    2  C   UNL     1      -9.834  15.963  69.138  1.00  0.00    -0.247 A  
HETATM    3  H1  UNL     1     -11.872  16.217  69.483  1.00  0.00     0.000 HD 
HETATM    4  H2  UNL     1     -11.135  14.783  70.170  1.00  0.00     0.000 HD 
HETATM    5  N   UNL     1      -8.770  15.224  69.324  1.00  0.00    -0.237 NA 
HETATM    6  C   UNL     1      -7.669  15.802  68.699  1.00  0.00    -0.153 A  
HETATM    7  S   UNL     1      -9.599  17.373  68.191  1.00  0.00    -0.299 SA 
HETATM    8  C   UNL     1      -7.940  16.979  68.029  1.00  0.00    -0.195 A  
ENDROOT
BRANCH   6   9
HETATM    9  C   UNL     1      -6.351  15.113  68.785  1.00  0.00    -0.082 C  
BRANCH   9  10
HETATM   10  C   UNL     1      -6.359  13.847  69.624  1.00  0.00    -0.123 C  
HETATM   11  N   UNL     1      -6.823  12.707  68.985  1.00  0.00    -0.139 N  
HETATM   12  O   UNL     1      -5.866  13.883  70.752  1.00  0.00    -0.177 OA 
HETATM   13  H   UNL     1      -7.192  12.823  68.040  1.00  0.00     0.000 HD 
BRANCH  11  14
HETATM   14  C   UNL     1      -6.832  11.404  69.521  1.00  0.00    -0.097 A  
HETATM   15  C   UNL     1      -5.848  10.935  70.391  1.00  0.00    -0.128 A  
HETATM   16  C   UNL     1      -5.833   9.602  70.805  1.00  0.00    -0.072 A  
HETATM   17  C   UNL     1      -6.814   8.708  70.367  1.00  0.00    -0.042 A  
HETATM   18  C   UNL     1      -7.855  10.532  69.135  1.00  0.00    -0.138 A  
HETATM   19  C   UNL     1      -7.839   9.190  69.543  1.00  0.00    -0.082 A  
BRANCH  17  20
HETATM   20  C   UNL     1      -6.732   7.241  70.735  1.00  0.00    -0.048 C  
BRANCH  20  21
HETATM   21  C   UNL     1      -6.661   6.276  69.538  1.00  0.00    -0.048 C  
BRANCH  21  22
HETATM   22  N   UNL     1      -7.515   5.110  69.748  1.00  0.00    -0.060 NA 
HETATM   23  H   UNL     1      -7.133   4.286  69.283  1.00  0.00     0.000 HD 
BRANCH  22  24
HETATM   24  C   UNL     1      -7.763   4.847  71.171  1.00  0.00    -0.083 C  
BRANCH  24  25
HETATM   25  C   UNL     1      -9.244   4.508  71.476  1.00  0.00    -0.135 C  
HETATM   26  O   UNL     1      -9.861   3.943  70.309  1.00  0.00    -0.198 OA 
HETATM   27  H   UNL     1     -10.769   3.735  70.497  1.00  0.00     0.000 HD 
BRANCH  25  28
HETATM   28  C   UNL     1     -10.088   5.653  72.005  1.00  0.00    -0.230 A  
HETATM   29  C   UNL     1     -11.173   6.135  71.256  1.00  0.00    -0.348 A  
HETATM   30  C   UNL     1     -11.911   7.237  71.699  1.00  0.00    -0.330 A  
HETATM   31  C   UNL     1     -11.578   7.867  72.896  1.00  0.00    -0.303 A  
HETATM   32  C   UNL     1     -10.520   7.387  73.662  1.00  0.00    -0.350 A  
HETATM   33  C   UNL     1      -9.780   6.288  73.219  1.00  0.00    -0.168 A  
ENDBRANCH  25  28
ENDBRANCH  24  25
ENDBRANCH  22  24
ENDBRANCH  21  22
ENDBRANCH  20  21
ENDBRANCH  17  20
ENDBRANCH  11  14
ENDBRANCH   9  10
ENDBRANCH   6   9
TORSDOF 9
ENDMDL
MODEL      290
REMARK 921   NORMALIZED FREE ENERGY PREDICTED BY IDOCK:   -2.19 KCAL/MOL
REMARK 922        TOTAL FREE ENERGY PREDICTED BY IDOCK:   -5.78 KCAL/MOL
REMARK 923 INTER-LIGAND FREE ENERGY PREDICTED BY IDOCK:   -4.83 KCAL/MOL
REMARK 924 INTRA-LIGAND FREE ENERGY PREDICTED BY IDOCK:   -0.95 KCAL/MOL
REMARK 927      BINDING AFFINITY PREDICTED BY RF-SCORE:    0.00 PKD
ROOT
HETATM    1  N   UNL     1     -11.045  15.320  72.936  1.00  0.00     0.189 NA 
HETATM    2  C   UNL     1     -12.139  14.634  72.565  1.00  0.00    -0.147 A  
HETATM    3  H1  UNL     1     -11.063  16.317  73.155  1.00  0.00     0.000 HD 
HETATM    4  H2  UNL     1     -10.158  14.824  73.001  1.00  0.00     0.000 HD 
HETATM    5  N   UNL     1     -12.116  13.356  72.283  1.00  0.00     0.786 NA 
HETATM    6  C   UNL     1     -13.390  12.919  71.937  1.00  0.00    -0.435 A  
HETATM    7  S   UNL     1     -13.675  15.388  72.460  1.00  0.00    -0.569 SA 
HETATM    8  C   UNL     1     -14.367  13.895  71.982  1.00  0.00    -0.388 A  
ENDROOT
BRANCH   6   9
HETATM    9  C   UNL     1     -13.586  11.485  71.584  1.00  0.00     0.128 C  
BRANCH   9  10
HETATM   10  C   UNL     1     -12.477  10.892  70.732  1.00  0.00    -0.394 C  
HETATM   11  N   UNL     1     -11.906  11.754  69.807  1.00  0.00    -0.332 N  
HETATM   12  O   UNL     1     -12.087   9.751  70.982  1.00  0.00    -0.304 OA 
HETATM   13  H   UNL     1     -12.324  12.680  69.718  1.00  0.00     0.000 HD 
BRANCH  11  14
HETATM   14  C   UNL     1     -10.802  11.466  68.980  1.00  0.00    -0.219 A  
HETATM   15  C   UNL     1     -10.564  12.126  67.775  1.00  0.00    -0.229 A  
HETATM   16  C   UNL     1      -9.525  11.728  66.933  1.00  0.00    -0.200 A  
HETATM   17  C   UNL     1      -8.687  10.667  67.285  1.00  0.00    -0.129 A  
HETATM   18  C   UNL     1      -9.924  10.449  69.372  1.00  0.00    -0.240 A  
HETATM   19  C   UNL     1      -8.883  10.043  68.525  1.00  0.00    -0.120 A  
BRANCH  17  20
HETATM   20  C   UNL     1      -7.628  10.174  66.322  1.00  0.00    -0.111 C  
BRANCH  20  21
HETATM   21  C   UNL     1      -8.117   9.132  65.300  1.00  0.00    -0.124 C  
BRANCH  21  22
HETATM   22  N   UNL     1      -7.594   7.804  65.608  1.00  0.00    -0.081 NA 
HETATM   23  H   UNL     1      -7.717   7.580  66.596  1.00  0.00     0.000 HD 
BRANCH  22  24
HETATM   24  C   UNL     1      -8.173   6.762  64.753  1.00  0.00    -0.052 C  
BRANCH  24  25
HETATM   25  C   UNL     1      -8.561   5.481  65.535  1.00  0.00    -0.150 C  
HETATM   26  O   UNL     1      -9.342   4.618  64.693  1.00  0.00    -0.212 OA 
HETATM   27  H   UNL     1      -9.580   3.833  65.172  1.00  0.00     0.000 HD 
BRANCH  25  28
HETATM   28  C   UNL     1      -9.279   5.704  66.853  1.00  0.00    -0.120 A  
HETATM   29  C   UNL     1      -8.971   4.912  67.969  1.00  0.00    -0.121 A  
HETATM   30  C   UNL     1      -9.678   5.060  69.166  1.00  0.00    -0.243 A  
HETATM   31  C   UNL     1     -10.697   6.005  69.264  1.00  0.00    -0.401 A  
HETATM   32  C   UNL     1     -10.999   6.815  68.174  1.00  0.00    -0.277 A  
HETATM   33  C   UNL     1     -10.296   6.666  66.977  1.00  0.00    -0.330 A  
ENDBRANCH  25  28
ENDBRANCH  24  25
ENDBRANCH  22  24
ENDBRANCH  21  22
ENDBRANCH  20  21
ENDBRANCH  17  20
ENDBRANCH  11  14
ENDBRANCH   9  10
ENDBRANCH   6   9
TORSDOF 9
ENDMDL
MODEL      291
REMARK 921   NORMALIZED FREE ENERGY PREDICTED BY IDOCK:   -2.12 KCAL/MOL
REMARK 922        TOTAL FREE ENERGY PREDICTED BY IDOCK:   -5.68 KCAL/MOL
REMARK 923 INTER-LIGAND FREE ENERGY PREDICTED BY IDOCK:   -4.33 KCAL/MOL
REMARK 924 INTRA-LIGAND FREE ENERGY PREDICTED BY IDOCK:   -1.35 KCAL/MOL
REMARK 927      BINDING AFFINITY PREDICTED BY RF-SCORE:    0.00 PKD
ROOT
HETATM    1  N   UNL     1      -7.122  16.000  69.395  1.00  0.00    -0.219 NA 
HETATM    2  C   UNL     1      -7.368  14.751  68.966  1.00  0.00    -0.139 A  
HETATM    3  H1  UNL     1      -7.835  16.728  69.421  1.00  0.00     0.000 HD 
HETATM    4  H2  UNL     1      -6.179  16.230  69.707  1.00  0.00     0.000 HD 
HETATM    5  N   UNL     1      -6.452  13.816  68.932  1.00  0.00    -0.094 NA 
HETATM    6  C   UNL     1      -6.995  12.630  68.450  1.00  0.00    -0.094 A  
HETATM    7  S   UNL     1      -8.932  14.273  68.452  1.00  0.00    -0.184 SA 
HETATM    8  C   UNL     1      -8.340  12.696  68.140  1.00  0.00    -0.175 A  
ENDROOT
BRANCH   6   9
HETATM    9  C   UNL     1      -6.118  11.431  68.336  1.00  0.00    -0.045 C  
BRANCH   9  10
HETATM   10  C   UNL     1      -6.490  10.292  69.269  1.00  0.00    -0.049 C  
HETATM   11  N   UNL     1      -5.835   9.091  69.040  1.00  0.00    -0.039 N  
HETATM   12  O   UNL     1      -7.245  10.526  70.213  1.00  0.00    -0.226 OA 
HETATM   13  H   UNL     1      -5.223   9.045  68.225  1.00  0.00     0.000 HD 
BRANCH  11  14
HETATM   14  C   UNL     1      -5.938   7.929  69.830  1.00  0.00    -0.023 A  
HETATM   15  C   UNL     1      -6.594   6.775  69.402  1.00  0.00    -0.048 A  
HETATM   16  C   UNL     1      -6.772   5.690  70.261  1.00  0.00    -0.048 A  
HETATM   17  C   UNL     1      -6.284   5.729  71.570  1.00  0.00    -0.043 A  
HETATM   18  C   UNL     1      -5.386   7.946  71.116  1.00  0.00    -0.030 A  
HETATM   19  C   UNL     1      -5.570   6.861  71.984  1.00  0.00    -0.037 A  
BRANCH  17  20
HETATM   20  C   UNL     1      -6.571   4.593  72.529  1.00  0.00    -0.046 C  
BRANCH  20  21
HETATM   21  C   UNL     1      -7.963   4.634  73.183  1.00  0.00    -0.100 C  
BRANCH  21  22
HETATM   22  N   UNL     1      -8.407   6.010  73.394  1.00  0.00    -0.117 NA 
HETATM   23  H   UNL     1      -7.684   6.675  73.119  1.00  0.00     0.000 HD 
BRANCH  22  24
HETATM   24  C   UNL     1      -9.676   6.298  72.716  1.00  0.00    -0.158 C  
BRANCH  24  25
HETATM   25  C   UNL     1     -10.138   7.767  72.891  1.00  0.00    -0.301 C  
HETATM   26  O   UNL     1     -11.271   7.816  73.772  1.00  0.00    -0.362 OA 
HETATM   27  H   UNL     1     -11.554   8.716  73.880  1.00  0.00     0.000 HD 
BRANCH  25  28
HETATM   28  C   UNL     1     -10.447   8.520  71.610  1.00  0.00    -0.345 A  
HETATM   29  C   UNL     1      -9.844   8.137  70.402  1.00  0.00    -0.188 A  
HETATM   30  C   UNL     1     -10.064   8.869  69.232  1.00  0.00    -0.205 A  
HETATM   31  C   UNL     1     -10.893   9.988  69.252  1.00  0.00    -0.261 A  
HETATM   32  C   UNL     1     -11.517  10.367  70.436  1.00  0.00    -0.420 A  
HETATM   33  C   UNL     1     -11.296   9.639  71.607  1.00  0.00    -0.336 A  
ENDBRANCH  25  28
ENDBRANCH  24  25
ENDBRANCH  22  24
ENDBRANCH  21  22
ENDBRANCH  20  21
ENDBRANCH  17  20
ENDBRANCH  11  14
ENDBRANCH   9  10
ENDBRANCH   6   9
TORSDOF 9
ENDMDL
MODEL      292
REMARK 921   NORMALIZED FREE ENERGY PREDICTED BY IDOCK:   -2.11 KCAL/MOL
REMARK 922        TOTAL FREE ENERGY PREDICTED BY IDOCK:   -5.67 KCAL/MOL
REMARK 923 INTER-LIGAND FREE ENERGY PREDICTED BY IDOCK:   -4.56 KCAL/MOL
REMARK 924 INTRA-LIGAND FREE ENERGY PREDICTED BY IDOCK:   -1.11 KCAL/MOL
REMARK 927      BINDING AFFINITY PREDICTED BY RF-SCORE:    0.00 PKD
ROOT
HETATM    1  N   UNL     1     -10.224  15.469  66.399  1.00  0.00    -0.277 NA 
HETATM    2  C   UNL     1      -9.091  15.555  67.115  1.00  0.00    -0.217 A  
HETATM    3  H1  UNL     1     -10.731  16.287  66.060  1.00  0.00     0.000 HD 
HETATM    4  H2  UNL     1     -10.595  14.544  66.185  1.00  0.00     0.000 HD 
HETATM    5  N   UNL     1      -8.441  14.505  67.549  1.00  0.00    -0.177 NA 
HETATM    6  C   UNL     1      -7.308  14.901  68.252  1.00  0.00    -0.109 A  
HETATM    7  S   UNL     1      -8.385  17.072  67.492  1.00  0.00    -0.190 SA 
HETATM    8  C   UNL     1      -7.118  16.268  68.318  1.00  0.00    -0.136 A  
ENDROOT
BRANCH   6   9
HETATM    9  C   UNL     1      -6.419  13.854  68.830  1.00  0.00    -0.098 C  
BRANCH   9  10
HETATM   10  C   UNL     1      -6.677  12.453  68.301  1.00  0.00    -0.070 C  
HETATM   11  N   UNL     1      -7.443  11.635  69.118  1.00  0.00    -0.302 N  
HETATM   12  O   UNL     1      -6.294  12.172  67.165  1.00  0.00    -0.147 OA 
HETATM   13  H   UNL     1      -7.703  12.006  70.032  1.00  0.00     0.000 HD 
BRANCH  11  14
HETATM   14  C   UNL     1      -7.895  10.339  68.800  1.00  0.00    -0.106 A  
HETATM   15  C   UNL     1      -9.142   9.852  69.193  1.00  0.00    -0.175 A  
HETATM   16  C   UNL     1      -9.500   8.524  68.956  1.00  0.00    -0.150 A  
HETATM   17  C   UNL     1      -8.622   7.653  68.306  1.00  0.00    -0.124 A  
HETATM   18  C   UNL     1      -7.040   9.491  68.087  1.00  0.00    -0.079 A  
HETATM   19  C   UNL     1      -7.394   8.155  67.855  1.00  0.00    -0.096 A  
BRANCH  17  20
HETATM   20  C   UNL     1      -8.974   6.189  68.145  1.00  0.00    -0.114 C  
BRANCH  20  21
HETATM   21  C   UNL     1      -8.220   5.235  69.087  1.00  0.00    -0.092 C  
BRANCH  21  22
HETATM   22  N   UNL     1      -8.869   3.928  69.146  1.00  0.00    -0.093 NA 
HETATM   23  H   UNL     1      -8.201   3.196  69.390  1.00  0.00     0.000 HD 
BRANCH  22  24
HETATM   24  C   UNL     1     -10.022   3.917  70.054  1.00  0.00     0.076 C  
BRANCH  24  25
HETATM   25  C   UNL     1      -9.633   4.173  71.533  1.00  0.00    -0.168 C  
HETATM   26  O   UNL     1     -10.339   3.256  72.384  1.00  0.00    -0.152 OA 
HETATM   27  H   UNL     1     -10.100   3.413  73.290  1.00  0.00     0.000 HD 
BRANCH  25  28
HETATM   28  C   UNL     1      -9.828   5.593  72.030  1.00  0.00    -0.197 A  
HETATM   29  C   UNL     1     -11.118   6.081  72.290  1.00  0.00    -0.324 A  
HETATM   30  C   UNL     1     -11.313   7.410  72.677  1.00  0.00    -0.360 A  
HETATM   31  C   UNL     1     -10.223   8.266  72.815  1.00  0.00    -0.325 A  
HETATM   32  C   UNL     1      -8.935   7.791  72.584  1.00  0.00    -0.224 A  
HETATM   33  C   UNL     1      -8.739   6.465  72.195  1.00  0.00    -0.132 A  
ENDBRANCH  25  28
ENDBRANCH  24  25
ENDBRANCH  22  24
ENDBRANCH  21  22
ENDBRANCH  20  21
ENDBRANCH  17  20
ENDBRANCH  11  14
ENDBRANCH   9  10
ENDBRANCH   6   9
TORSDOF 9
ENDMDL
MODEL      293
REMARK 921   NORMALIZED FREE ENERGY PREDICTED BY IDOCK:   -2.02 KCAL/MOL
REMARK 922        TOTAL FREE ENERGY PREDICTED BY IDOCK:   -5.53 KCAL/MOL
REMARK 923 INTER-LIGAND FREE ENERGY PREDICTED BY IDOCK:   -6.32 KCAL/MOL
REMARK 924 INTRA-LIGAND FREE ENERGY PREDICTED BY IDOCK:    0.79 KCAL/MOL
REMARK 927      BINDING AFFINITY PREDICTED BY RF-SCORE:    0.00 PKD
ROOT
HETATM    1  N   UNL     1     -10.318  13.183  64.347  1.00  0.00    -0.530 NA 
HETATM    2  C   UNL     1     -10.686  12.804  65.582  1.00  0.00    -0.273 A  
HETATM    3  H1  UNL     1      -9.928  12.536  63.661  1.00  0.00     0.000 HD 
HETATM    4  H2  UNL     1     -10.433  14.160  64.083  1.00  0.00     0.000 HD 
HETATM    5  N   UNL     1     -11.186  13.634  66.462  1.00  0.00    -0.305 NA 
HETATM    6  C   UNL     1     -11.477  12.961  67.644  1.00  0.00    -0.334 A  
HETATM    7  S   UNL     1     -10.553  11.174  66.095  1.00  0.00    -0.221 SA 
HETATM    8  C   UNL     1     -11.197  11.609  67.621  1.00  0.00    -0.281 A  
ENDROOT
BRANCH   6   9
HETATM    9  C   UNL     1     -12.063  13.726  68.781  1.00  0.00    -0.344 C  
BRANCH   9  10
HETATM   10  C   UNL     1     -11.593  15.168  68.874  1.00  0.00    -0.341 C  
HETATM   11  N   UNL     1     -10.869  15.633  67.786  1.00  0.00    -0.301 N  
HETATM   12  O   UNL     1     -11.966  15.849  69.830  1.00  0.00    -0.332 OA 
HETATM   13  H   UNL     1     -10.644  14.958  67.056  1.00  0.00     0.000 HD 
BRANCH  11  14
HETATM   14  C   UNL     1     -10.416  16.955  67.599  1.00  0.00    -0.332 A  
HETATM   15  C   UNL     1     -10.251  17.530  66.339  1.00  0.00    -0.354 A  
HETATM   16  C   UNL     1      -9.691  18.800  66.198  1.00  0.00    -0.280 A  
HETATM   17  C   UNL     1      -9.294  19.533  67.319  1.00  0.00    -0.403 A  
HETATM   18  C   UNL     1     -10.086  17.712  68.729  1.00  0.00    -0.377 A  
HETATM   19  C   UNL     1      -9.516  18.985  68.590  1.00  0.00    -0.457 A  
BRANCH  17  20
HETATM   20  C   UNL     1      -8.592  20.865  67.155  1.00  0.00    -0.109 C  
BRANCH  20  21
HETATM   21  C   UNL     1      -7.647  21.245  68.308  1.00  0.00     1.070 C  
BRANCH  21  22
HETATM   22  N   UNL     1      -6.302  20.722  68.084  1.00  0.00    -0.314 NA 
HETATM   23  H   UNL     1      -5.705  20.885  68.895  1.00  0.00     0.000 HD 
BRANCH  22  24
HETATM   24  C   UNL     1      -6.309  19.303  67.708  1.00  0.00    -0.209 C  
BRANCH  24  25
HETATM   25  C   UNL     1      -6.456  18.353  68.924  1.00  0.00    -0.239 C  
HETATM   26  O   UNL     1      -5.202  18.258  69.617  1.00  0.00    -0.183 OA 
HETATM   27  H   UNL     1      -5.293  17.676  70.362  1.00  0.00     0.000 HD 
BRANCH  25  28
HETATM   28  C   UNL     1      -6.984  16.964  68.616  1.00  0.00    -0.191 A  
HETATM   29  C   UNL     1      -7.254  16.064  69.658  1.00  0.00    -0.070 A  
HETATM   30  C   UNL     1      -7.669  14.758  69.381  1.00  0.00    -0.104 A  
HETATM   31  C   UNL     1      -7.826  14.337  68.062  1.00  0.00    -0.143 A  
HETATM   32  C   UNL     1      -7.585  15.225  67.018  1.00  0.00    -0.161 A  
HETATM   33  C   UNL     1      -7.167  16.529  67.293  1.00  0.00    -0.202 A  
ENDBRANCH  25  28
ENDBRANCH  24  25
ENDBRANCH  22  24
ENDBRANCH  21  22
ENDBRANCH  20  21
ENDBRANCH  17  20
ENDBRANCH  11  14
ENDBRANCH   9  10
ENDBRANCH   6   9
TORSDOF 9
ENDMDL
MODEL      294
REMARK 921   NORMALIZED FREE ENERGY PREDICTED BY IDOCK:   -0.91 KCAL/MOL
REMARK 922        TOTAL FREE ENERGY PREDICTED BY IDOCK:   -3.84 KCAL/MOL
REMARK 923 INTER-LIGAND FREE ENERGY PREDICTED BY IDOCK:   -4.40 KCAL/MOL
REMARK 924 INTRA-LIGAND FREE ENERGY PREDICTED BY IDOCK:    0.56 KCAL/MOL
REMARK 927      BINDING AFFINITY PREDICTED BY RF-SCORE:    0.00 PKD
ROOT
HETATM    1  N   UNL     1     -13.374  12.072  62.537  1.00  0.00     0.423 NA 
HETATM    2  C   UNL     1     -12.796  12.793  63.512  1.00  0.00     0.061 A  
HETATM    3  H1  UNL     1     -13.589  11.080  62.633  1.00  0.00     0.000 HD 
HETATM    4  H2  UNL     1     -13.608  12.538  61.661  1.00  0.00     0.000 HD 
HETATM    5  N   UNL     1     -12.520  14.066  63.389  1.00  0.00    -0.758 NA 
HETATM    6  C   UNL     1     -11.932  14.544  64.556  1.00  0.00    -0.468 A  
HETATM    7  S   UNL     1     -12.398  12.093  65.026  1.00  0.00     0.056 SA 
HETATM    8  C   UNL     1     -11.791  13.603  65.557  1.00  0.00    -0.362 A  
ENDROOT
BRANCH   6   9
HETATM    9  C   UNL     1     -11.543  15.981  64.628  1.00  0.00    -0.169 C  
BRANCH   9  10
HETATM   10  C   UNL     1     -10.205  16.234  65.301  1.00  0.00    -0.123 C  
HETATM   11  N   UNL     1     -10.049  17.488  65.872  1.00  0.00    -0.237 N  
HETATM   12  O   UNL     1      -9.405  15.301  65.392  1.00  0.00    -0.140 OA 
HETATM   13  H   UNL     1     -10.803  18.159  65.729  1.00  0.00     0.000 HD 
BRANCH  11  14
HETATM   14  C   UNL     1      -8.943  17.918  66.633  1.00  0.00    -0.268 A  
HETATM   15  C   UNL     1      -7.807  18.492  66.063  1.00  0.00    -0.182 A  
HETATM   16  C   UNL     1      -6.689  18.796  66.842  1.00  0.00    -0.207 A  
HETATM   17  C   UNL     1      -6.688  18.544  68.217  1.00  0.00    -0.233 A  
HETATM   18  C   UNL     1      -8.974  17.729  68.019  1.00  0.00    -0.263 A  
HETATM   19  C   UNL     1      -7.851  18.026  68.803  1.00  0.00    -0.267 A  
BRANCH  17  20
HETATM   20  C   UNL     1      -5.437  18.779  69.038  1.00  0.00    -0.204 C  
BRANCH  20  21
HETATM   21  C   UNL     1      -5.274  17.846  70.250  1.00  0.00    -0.246 C  
BRANCH  21  22
HETATM   22  N   UNL     1      -6.238  16.749  70.205  1.00  0.00     0.034 NA 
HETATM   23  H   UNL     1      -6.868  16.846  69.409  1.00  0.00     0.000 HD 
BRANCH  22  24
HETATM   24  C   UNL     1      -5.589  15.433  70.210  1.00  0.00    -0.142 C  
BRANCH  24  25
HETATM   25  C   UNL     1      -5.761  14.667  68.873  1.00  0.00    -0.086 C  
HETATM   26  O   UNL     1      -7.029  14.998  68.286  1.00  0.00    -0.103 OA 
HETATM   27  H   UNL     1      -7.134  14.528  67.467  1.00  0.00     0.000 HD 
BRANCH  25  28
HETATM   28  C   UNL     1      -5.606  13.159  68.952  1.00  0.00    -0.073 A  
HETATM   29  C   UNL     1      -5.246  12.425  67.812  1.00  0.00    -0.089 A  
HETATM   30  C   UNL     1      -5.173  11.029  67.856  1.00  0.00    -0.039 A  
HETATM   31  C   UNL     1      -5.453  10.351  69.040  1.00  0.00    -0.041 A  
HETATM   32  C   UNL     1      -5.788  11.066  70.186  1.00  0.00    -0.117 A  
HETATM   33  C   UNL     1      -5.864  12.459  70.142  1.00  0.00    -0.163 A  
ENDBRANCH  25  28
ENDBRANCH  24  25
ENDBRANCH  22  24
ENDBRANCH  21  22
ENDBRANCH  20  21
ENDBRANCH  17  20
ENDBRANCH  11  14
ENDBRANCH   9  10
ENDBRANCH   6   9
TORSDOF 9
ENDMDL
MODEL      295
REMARK 921   NORMALIZED FREE ENERGY PREDICTED BY IDOCK:   -0.50 KCAL/MOL
REMARK 922        TOTAL FREE ENERGY PREDICTED BY IDOCK:   -3.21 KCAL/MOL
REMARK 923 INTER-LIGAND FREE ENERGY PREDICTED BY IDOCK:   -3.50 KCAL/MOL
REMARK 924 INTRA-LIGAND FREE ENERGY PREDICTED BY IDOCK:    0.29 KCAL/MOL
REMARK 927      BINDING AFFINITY PREDICTED BY RF-SCORE:    0.00 PKD
ROOT
HETATM    1  N   UNL     1     -10.607  10.848  64.192  1.00  0.00    -0.441 NA 
HETATM    2  C   UNL     1     -11.377  11.948  64.194  1.00  0.00    -0.380 A  
HETATM    3  H1  UNL     1     -10.958   9.925  63.934  1.00  0.00     0.000 HD 
HETATM    4  H2  UNL     1      -9.628  10.938  64.461  1.00  0.00     0.000 HD 
HETATM    5  N   UNL     1     -10.927  13.132  64.525  1.00  0.00    -0.352 NA 
HETATM    6  C   UNL     1     -11.945  14.076  64.429  1.00  0.00    -0.454 A  
HETATM    7  S   UNL     1     -13.026  11.888  63.726  1.00  0.00     0.072 SA 
HETATM    8  C   UNL     1     -13.159  13.572  64.003  1.00  0.00     0.888 A  
ENDROOT
BRANCH   6   9
HETATM    9  C   UNL     1     -11.640  15.496  64.759  1.00  0.00    -0.256 C  
BRANCH   9  10
HETATM   10  C   UNL     1     -10.354  15.695  65.542  1.00  0.00    -0.396 C  
HETATM   11  N   UNL     1     -10.354  15.188  66.833  1.00  0.00    -0.267 N  
HETATM   12  O   UNL     1      -9.381  16.182  64.965  1.00  0.00     0.111 OA 
HETATM   13  H   UNL     1     -11.231  14.798  67.178  1.00  0.00     0.000 HD 
BRANCH  11  14
HETATM   14  C   UNL     1      -9.251  15.163  67.711  1.00  0.00    -0.180 A  
HETATM   15  C   UNL     1      -8.043  15.800  67.431  1.00  0.00    -0.193 A  
HETATM   16  C   UNL     1      -6.941  15.652  68.275  1.00  0.00    -0.117 A  
HETATM   17  C   UNL     1      -7.028  14.871  69.430  1.00  0.00    -0.170 A  
HETATM   18  C   UNL     1      -9.365  14.437  68.902  1.00  0.00    -0.096 A  
HETATM   19  C   UNL     1      -8.259  14.280  69.748  1.00  0.00     0.694 A  
BRANCH  17  20
HETATM   20  C   UNL     1      -5.802  14.629  70.285  1.00  0.00    -0.146 C  
BRANCH  20  21
HETATM   21  C   UNL     1      -5.241  13.198  70.222  1.00  0.00    -0.104 C  
BRANCH  21  22
HETATM   22  N   UNL     1      -6.032  12.284  71.041  1.00  0.00    -0.526 NA 
HETATM   23  H   UNL     1      -7.012  12.566  71.066  1.00  0.00     0.000 HD 
BRANCH  22  24
HETATM   24  C   UNL     1      -5.894  10.886  70.613  1.00  0.00    -0.107 C  
BRANCH  24  25
HETATM   25  C   UNL     1      -6.272  10.667  69.126  1.00  0.00    -0.043 C  
HETATM   26  O   UNL     1      -6.093  11.891  68.396  1.00  0.00    -0.049 OA 
HETATM   27  H   UNL     1      -6.324  11.757  67.485  1.00  0.00     0.000 HD 
BRANCH  25  28
HETATM   28  C   UNL     1      -7.662  10.113  68.872  1.00  0.00    -0.093 A  
HETATM   29  C   UNL     1      -8.468   9.708  69.947  1.00  0.00    -0.211 A  
HETATM   30  C   UNL     1      -9.719   9.128  69.720  1.00  0.00    -0.191 A  
HETATM   31  C   UNL     1     -10.183   8.950  68.418  1.00  0.00    -0.231 A  
HETATM   32  C   UNL     1      -9.405   9.367  67.342  1.00  0.00    -0.151 A  
HETATM   33  C   UNL     1      -8.154   9.945  67.568  1.00  0.00    -0.110 A  
ENDBRANCH  25  28
ENDBRANCH  24  25
ENDBRANCH  22  24
ENDBRANCH  21  22
ENDBRANCH  20  21
ENDBRANCH  17  20
ENDBRANCH  11  14
ENDBRANCH   9  10
ENDBRANCH   6   9
TORSDOF 9
ENDMDL
MODEL      296
REMARK 921   NORMALIZED FREE ENERGY PREDICTED BY IDOCK:   -0.19 KCAL/MOL
REMARK 922        TOTAL FREE ENERGY PREDICTED BY IDOCK:   -2.73 KCAL/MOL
REMARK 923 INTER-LIGAND FREE ENERGY PREDICTED BY IDOCK:   -1.57 KCAL/MOL
REMARK 924 INTRA-LIGAND FREE ENERGY PREDICTED BY IDOCK:   -1.16 KCAL/MOL
REMARK 927      BINDING AFFINITY PREDICTED BY RF-SCORE:    0.00 PKD
ROOT
HETATM    1  N   UNL     1      -5.601  18.899  70.046  1.00  0.00    -0.227 NA 
HETATM    2  C   UNL     1      -6.073  17.777  69.479  1.00  0.00    -0.248 A  
HETATM    3  H1  UNL     1      -6.207  19.637  70.406  1.00  0.00     0.000 HD 
HETATM    4  H2  UNL     1      -4.592  19.020  70.119  1.00  0.00     0.000 HD 
HETATM    5  N   UNL     1      -5.296  16.831  69.016  1.00  0.00    -0.131 NA 
HETATM    6  C   UNL     1      -6.062  15.794  68.494  1.00  0.00    -0.102 A  
HETATM    7  S   UNL     1      -7.757  17.483  69.345  1.00  0.00     0.400 SA 
HETATM    8  C   UNL     1      -7.427  15.980  68.592  1.00  0.00    -0.166 A  
ENDROOT
BRANCH   6   9
HETATM    9  C   UNL     1      -5.368  14.608  67.918  1.00  0.00    -0.086 C  
BRANCH   9  10
HETATM   10  C   UNL     1      -6.179  13.324  67.965  1.00  0.00    -0.129 C  
HETATM   11  N   UNL     1      -7.321  13.308  67.179  1.00  0.00    -0.364 N  
HETATM   12  O   UNL     1      -5.728  12.365  68.591  1.00  0.00    -0.053 OA 
HETATM   13  H   UNL     1      -7.568  14.175  66.701  1.00  0.00     0.000 HD 
BRANCH  11  14
HETATM   14  C   UNL     1      -8.174  12.203  66.982  1.00  0.00    -0.164 A  
HETATM   15  C   UNL     1      -8.953  11.654  68.001  1.00  0.00    -0.176 A  
HETATM   16  C   UNL     1      -9.693  10.490  67.789  1.00  0.00    -0.180 A  
HETATM   17  C   UNL     1      -9.681   9.853  66.546  1.00  0.00    -0.260 A  
HETATM   18  C   UNL     1      -8.213  11.610  65.716  1.00  0.00     0.346 A  
HETATM   19  C   UNL     1      -8.949  10.436  65.502  1.00  0.00    -0.199 A  
BRANCH  17  20
HETATM   20  C   UNL     1     -10.401   8.535  66.353  1.00  0.00    -0.081 C  
BRANCH  20  21
HETATM   21  C   UNL     1      -9.580   7.288  66.727  1.00  0.00    -0.185 C  
BRANCH  21  22
HETATM   22  N   UNL     1      -8.169   7.467  66.395  1.00  0.00    -0.117 NA 
HETATM   23  H   UNL     1      -7.982   8.420  66.083  1.00  0.00     0.000 HD 
BRANCH  22  24
HETATM   24  C   UNL     1      -7.282   7.090  67.503  1.00  0.00    -0.090 C  
BRANCH  24  25
HETATM   25  C   UNL     1      -6.766   8.309  68.309  1.00  0.00    -0.065 C  
HETATM   26  O   UNL     1      -5.345   8.206  68.485  1.00  0.00    -0.030 OA 
HETATM   27  H   UNL     1      -5.029   8.953  68.979  1.00  0.00     0.000 HD 
BRANCH  25  28
HETATM   28  C   UNL     1      -7.437   8.546  69.650  1.00  0.00    -0.075 A  
HETATM   29  C   UNL     1      -8.655   7.919  69.951  1.00  0.00    -0.139 A  
HETATM   30  C   UNL     1      -9.318   8.188  71.152  1.00  0.00    -0.187 A  
HETATM   31  C   UNL     1      -8.769   9.082  72.069  1.00  0.00     0.143 A  
HETATM   32  C   UNL     1      -7.550   9.695  71.796  1.00  0.00     1.103 A  
HETATM   33  C   UNL     1      -6.889   9.429  70.595  1.00  0.00    -0.104 A  
ENDBRANCH  25  28
ENDBRANCH  24  25
ENDBRANCH  22  24
ENDBRANCH  21  22
ENDBRANCH  20  21
ENDBRANCH  17  20
ENDBRANCH  11  14
ENDBRANCH   9  10
ENDBRANCH   6   9
TORSDOF 9
ENDMDL
MODEL      297
REMARK 921   NORMALIZED FREE ENERGY PREDICTED BY IDOCK:    0.26 KCAL/MOL
REMARK 922        TOTAL FREE ENERGY PREDICTED BY IDOCK:   -2.05 KCAL/MOL
REMARK 923 INTER-LIGAND FREE ENERGY PREDICTED BY IDOCK:   -3.38 KCAL/MOL
REMARK 924 INTRA-LIGAND FREE ENERGY PREDICTED BY IDOCK:    1.33 KCAL/MOL
REMARK 927      BINDING AFFINITY PREDICTED BY RF-SCORE:    0.00 PKD
ROOT
HETATM    1  N   UNL     1     -13.488  12.210  62.520  1.00  0.00     0.762 NA 
HETATM    2  C   UNL     1     -12.626  12.515  63.504  1.00  0.00    -0.367 A  
HETATM    3  H1  UNL     1     -13.909  11.287  62.418  1.00  0.00     0.000 HD 
HETATM    4  H2  UNL     1     -13.731  12.934  61.845  1.00  0.00     0.000 HD 
HETATM    5  N   UNL     1     -12.085  13.700  63.635  1.00  0.00    -0.551 NA 
HETATM    6  C   UNL     1     -11.242  13.722  64.742  1.00  0.00    -0.366 A  
HETATM    7  S   UNL     1     -12.187  11.365  64.698  1.00  0.00     0.997 SA 
HETATM    8  C   UNL     1     -11.179  12.533  65.442  1.00  0.00    -0.307 A  
ENDROOT
BRANCH   6   9
HETATM    9  C   UNL     1     -10.526  14.986  65.075  1.00  0.00    -0.415 C  
BRANCH   9  10
HETATM   10  C   UNL     1      -9.422  14.827  66.105  1.00  0.00    -0.292 C  
HETATM   11  N   UNL     1      -9.051  15.986  66.771  1.00  0.00    -0.225 N  
HETATM   12  O   UNL     1      -9.010  13.694  66.359  1.00  0.00    -0.122 OA 
HETATM   13  H   UNL     1      -9.487  16.855  66.465  1.00  0.00     0.000 HD 
BRANCH  11  14
HETATM   14  C   UNL     1      -8.127  16.071  67.832  1.00  0.00    -0.141 A  
HETATM   15  C   UNL     1      -7.000  16.891  67.792  1.00  0.00    -0.156 A  
HETATM   16  C   UNL     1      -6.052  16.856  68.816  1.00  0.00    -0.153 A  
HETATM   17  C   UNL     1      -6.217  16.007  69.913  1.00  0.00    -0.154 A  
HETATM   18  C   UNL     1      -8.334  15.270  68.961  1.00  0.00    -0.215 A  
HETATM   19  C   UNL     1      -7.380  15.228  69.987  1.00  0.00     0.036 A  
BRANCH  17  20
HETATM   20  C   UNL     1      -5.135  15.897  70.967  1.00  0.00    -0.162 C  
BRANCH  20  21
HETATM   21  C   UNL     1      -5.168  14.601  71.795  1.00  0.00    -0.142 C  
BRANCH  21  22
HETATM   22  N   UNL     1      -5.913  13.552  71.104  1.00  0.00    -0.510 NA 
HETATM   23  H   UNL     1      -6.144  13.831  70.151  1.00  0.00     0.000 HD 
BRANCH  22  24
HETATM   24  C   UNL     1      -5.211  12.262  71.122  1.00  0.00    -0.130 C  
BRANCH  24  25
HETATM   25  C   UNL     1      -5.796  11.239  70.115  1.00  0.00    -0.133 C  
HETATM   26  O   UNL     1      -7.109  11.656  69.711  1.00  0.00    -0.348 OA 
HETATM   27  H   UNL     1      -7.467  11.028  69.093  1.00  0.00     0.000 HD 
BRANCH  25  28
HETATM   28  C   UNL     1      -5.834   9.797  70.587  1.00  0.00    -0.072 A  
HETATM   29  C   UNL     1      -5.393   9.463  71.876  1.00  0.00    -0.076 A  
HETATM   30  C   UNL     1      -5.354   8.129  72.293  1.00  0.00    -0.036 A  
HETATM   31  C   UNL     1      -5.760   7.114  71.430  1.00  0.00    -0.036 A  
HETATM   32  C   UNL     1      -6.223   7.430  70.156  1.00  0.00    -0.027 A  
HETATM   33  C   UNL     1      -6.259   8.762  69.738  1.00  0.00    -0.035 A  
ENDBRANCH  25  28
ENDBRANCH  24  25
ENDBRANCH  22  24
ENDBRANCH  21  22
ENDBRANCH  20  21
ENDBRANCH  17  20
ENDBRANCH  11  14
ENDBRANCH   9  10
ENDBRANCH   6   9
TORSDOF 9
ENDMDL
MODEL      298
REMARK 921   NORMALIZED FREE ENERGY PREDICTED BY IDOCK:    0.44 KCAL/MOL
REMARK 922        TOTAL FREE ENERGY PREDICTED BY IDOCK:   -1.78 KCAL/MOL
REMARK 923 INTER-LIGAND FREE ENERGY PREDICTED BY IDOCK:   -1.78 KCAL/MOL
REMARK 924 INTRA-LIGAND FREE ENERGY PREDICTED BY IDOCK:   -0.00 KCAL/MOL
REMARK 927      BINDING AFFINITY PREDICTED BY RF-SCORE:    0.00 PKD
ROOT
HETATM    1  N   UNL     1     -11.860  14.322  63.454  1.00  0.00    -0.466 NA 
HETATM    2  C   UNL     1     -11.687  13.611  64.580  1.00  0.00    -0.400 A  
HETATM    3  H1  UNL     1     -12.774  14.470  63.024  1.00  0.00     0.000 HD 
HETATM    4  H2  UNL     1     -11.041  14.733  63.007  1.00  0.00     0.000 HD 
HETATM    5  N   UNL     1     -10.515  13.421  65.130  1.00  0.00    -0.330 NA 
HETATM    6  C   UNL     1     -10.645  12.654  66.283  1.00  0.00    -0.252 A  
HETATM    7  S   UNL     1     -13.016  12.912  65.409  1.00  0.00     0.510 SA 
HETATM    8  C   UNL     1     -11.942  12.289  66.589  1.00  0.00    -0.182 A  
ENDROOT
BRANCH   6   9
HETATM    9  C   UNL     1      -9.423  12.326  67.069  1.00  0.00    -0.204 C  
BRANCH   9  10
HETATM   10  C   UNL     1      -8.332  13.380  67.000  1.00  0.00    -0.075 C  
HETATM   11  N   UNL     1      -8.763  14.671  66.734  1.00  0.00    -0.359 N  
HETATM   12  O   UNL     1      -7.179  13.056  67.286  1.00  0.00    -0.138 OA 
HETATM   13  H   UNL     1      -9.754  14.797  66.529  1.00  0.00     0.000 HD 
BRANCH  11  14
HETATM   14  C   UNL     1      -7.955  15.827  66.720  1.00  0.00    -0.238 A  
HETATM   15  C   UNL     1      -8.184  16.903  65.863  1.00  0.00     0.013 A  
HETATM   16  C   UNL     1      -7.292  17.974  65.803  1.00  0.00    -0.161 A  
HETATM   17  C   UNL     1      -6.152  18.000  66.612  1.00  0.00    -0.201 A  
HETATM   18  C   UNL     1      -6.854  15.879  67.582  1.00  0.00    -0.191 A  
HETATM   19  C   UNL     1      -5.952  16.950  67.519  1.00  0.00    -0.165 A  
BRANCH  17  20
HETATM   20  C   UNL     1      -5.135  19.112  66.467  1.00  0.00    -0.154 C  
BRANCH  20  21
HETATM   21  C   UNL     1      -5.407  20.354  67.334  1.00  0.00    -0.173 C  
BRANCH  21  22
HETATM   22  N   UNL     1      -5.392  20.019  68.756  1.00  0.00    -0.200 NA 
HETATM   23  H   UNL     1      -4.503  20.277  69.185  1.00  0.00     0.000 HD 
BRANCH  22  24
HETATM   24  C   UNL     1      -6.521  20.611  69.482  1.00  0.00     0.079 C  
BRANCH  24  25
HETATM   25  C   UNL     1      -7.527  19.555  70.006  1.00  0.00     0.418 C  
HETATM   26  O   UNL     1      -6.914  18.256  69.994  1.00  0.00     0.280 OA 
HETATM   27  H   UNL     1      -7.531  17.609  70.316  1.00  0.00     0.000 HD 
BRANCH  25  28
HETATM   28  C   UNL     1      -8.863  19.502  69.289  1.00  0.00    -0.001 A  
HETATM   29  C   UNL     1      -9.170  18.424  68.445  1.00  0.00    -0.341 A  
HETATM   30  C   UNL     1     -10.367  18.402  67.722  1.00  0.00    -0.428 A  
HETATM   31  C   UNL     1     -11.273  19.454  67.838  1.00  0.00     0.246 A  
HETATM   32  C   UNL     1     -10.995  20.519  68.689  1.00  0.00     0.865 A  
HETATM   33  C   UNL     1      -9.798  20.543  69.409  1.00  0.00     0.472 A  
ENDBRANCH  25  28
ENDBRANCH  24  25
ENDBRANCH  22  24
ENDBRANCH  21  22
ENDBRANCH  20  21
ENDBRANCH  17  20
ENDBRANCH  11  14
ENDBRANCH   9  10
ENDBRANCH   6   9
TORSDOF 9
ENDMDL
MODEL      299
REMARK 921   NORMALIZED FREE ENERGY PREDICTED BY IDOCK:    0.78 KCAL/MOL
REMARK 922        TOTAL FREE ENERGY PREDICTED BY IDOCK:   -1.26 KCAL/MOL
REMARK 923 INTER-LIGAND FREE ENERGY PREDICTED BY IDOCK:   -1.83 KCAL/MOL
REMARK 924 INTRA-LIGAND FREE ENERGY PREDICTED BY IDOCK:    0.58 KCAL/MOL
REMARK 927      BINDING AFFINITY PREDICTED BY RF-SCORE:    0.00 PKD
ROOT
HETATM    1  N   UNL     1     -12.680  14.412  62.714  1.00  0.00     0.191 NA 
HETATM    2  C   UNL     1     -12.157  13.531  63.582  1.00  0.00    -0.400 A  
HETATM    3  H1  UNL     1     -13.583  14.274  62.258  1.00  0.00     0.000 HD 
HETATM    4  H2  UNL     1     -12.152  15.257  62.499  1.00  0.00     0.000 HD 
HETATM    5  N   UNL     1     -10.998  13.709  64.166  1.00  0.00    -0.284 NA 
HETATM    6  C   UNL     1     -10.720  12.640  65.012  1.00  0.00    -0.293 A  
HETATM    7  S   UNL     1     -12.994  12.101  64.019  1.00  0.00     0.009 SA 
HETATM    8  C   UNL     1     -11.703  11.670  65.058  1.00  0.00    -0.002 A  
ENDROOT
BRANCH   6   9
HETATM    9  C   UNL     1      -9.444  12.647  65.781  1.00  0.00    -0.043 C  
BRANCH   9  10
HETATM   10  C   UNL     1      -8.898  14.034  66.074  1.00  0.00     0.540 C  
HETATM   11  N   UNL     1      -9.640  15.090  65.568  1.00  0.00    -0.450 N  
HETATM   12  O   UNL     1      -7.918  14.138  66.814  1.00  0.00     0.063 OA 
HETATM   13  H   UNL     1     -10.440  14.855  64.980  1.00  0.00     0.000 HD 
BRANCH  11  14
HETATM   14  C   UNL     1      -9.391  16.459  65.793  1.00  0.00    -0.117 A  
HETATM   15  C   UNL     1     -10.401  17.421  65.818  1.00  0.00    -0.226 A  
HETATM   16  C   UNL     1     -10.096  18.778  65.928  1.00  0.00    -0.223 A  
HETATM   17  C   UNL     1      -8.770  19.205  66.030  1.00  0.00    -0.104 A  
HETATM   18  C   UNL     1      -8.066  16.875  65.966  1.00  0.00    -0.164 A  
HETATM   19  C   UNL     1      -7.756  18.238  66.069  1.00  0.00    -0.200 A  
BRANCH  17  20
HETATM   20  C   UNL     1      -8.440  20.684  66.044  1.00  0.00     0.330 C  
BRANCH  20  21
HETATM   21  C   UNL     1      -7.831  21.198  67.360  1.00  0.00     0.088 C  
BRANCH  21  22
HETATM   22  N   UNL     1      -6.411  20.868  67.449  1.00  0.00    -0.290 NA 
HETATM   23  H   UNL     1      -5.857  21.456  66.826  1.00  0.00     0.000 HD 
BRANCH  22  24
HETATM   24  C   UNL     1      -5.906  20.934  68.826  1.00  0.00    -0.323 C  
BRANCH  24  25
HETATM   25  C   UNL     1      -6.145  19.627  69.623  1.00  0.00    -0.304 C  
HETATM   26  O   UNL     1      -5.138  18.661  69.282  1.00  0.00    -0.185 OA 
HETATM   27  H   UNL     1      -5.285  17.860  69.771  1.00  0.00     0.000 HD 
BRANCH  25  28
HETATM   28  C   UNL     1      -7.524  19.008  69.480  1.00  0.00     0.035 A  
HETATM   29  C   UNL     1      -8.671  19.811  69.568  1.00  0.00     0.377 A  
HETATM   30  C   UNL     1      -9.946  19.241  69.512  1.00  0.00    -0.032 A  
HETATM   31  C   UNL     1     -10.090  17.863  69.360  1.00  0.00     0.005 A  
HETATM   32  C   UNL     1      -8.963  17.056  69.247  1.00  0.00     0.078 A  
HETATM   33  C   UNL     1      -7.689  17.624  69.306  1.00  0.00     0.095 A  
ENDBRANCH  25  28
ENDBRANCH  24  25
ENDBRANCH  22  24
ENDBRANCH  21  22
ENDBRANCH  20  21
ENDBRANCH  17  20
ENDBRANCH  11  14
ENDBRANCH   9  10
ENDBRANCH   6   9
TORSDOF 9
ENDMDL
MODEL      300
REMARK 921   NORMALIZED FREE ENERGY PREDICTED BY IDOCK:    2.43 KCAL/MOL
REMARK 922        TOTAL FREE ENERGY PREDICTED BY IDOCK:    1.26 KCAL/MOL
REMARK 923 INTER-LIGAND FREE ENERGY PREDICTED BY IDOCK:   -0.44 KCAL/MOL
REMARK 924 INTRA-LIGAND FREE ENERGY PREDICTED BY IDOCK:    1.69 KCAL/MOL
REMARK 927      BINDING AFFINITY PREDICTED BY RF-SCORE:    0.00 PKD
ROOT
HETATM    1  N   UNL     1     -13.067  14.287  62.344  1.00  0.00     2.021 NA 
HETATM    2  C   UNL     1     -12.395  14.410  63.500  1.00  0.00     0.431 A  
HETATM    3  H1  UNL     1     -13.745  13.544  62.172  1.00  0.00     0.000 HD 
HETATM    4  H2  UNL     1     -12.893  14.967  61.605  1.00  0.00     0.000 HD 
HETATM    5  N   UNL     1     -11.525  15.363  63.721  1.00  0.00     0.195 NA 
HETATM    6  C   UNL     1     -10.994  15.240  65.001  1.00  0.00    -0.437 A  
HETATM    7  S   UNL     1     -12.652  13.326  64.804  1.00  0.00    -0.290 SA 
HETATM    8  C   UNL     1     -11.498  14.183  65.735  1.00  0.00    -0.327 A  
ENDROOT
BRANCH   6   9
HETATM    9  C   UNL     1      -9.983  16.234  65.458  1.00  0.00    -0.217 C  
BRANCH   9  10
HETATM   10  C   UNL     1      -9.075  15.738  66.570  1.00  0.00    -0.293 C  
HETATM   11  N   UNL     1      -8.596  16.713  67.432  1.00  0.00    -0.187 N  
HETATM   12  O   UNL     1      -8.913  14.525  66.702  1.00  0.00    -0.252 OA 
HETATM   13  H   UNL     1      -8.822  17.682  67.208  1.00  0.00     0.000 HD 
BRANCH  11  14
HETATM   14  C   UNL     1      -7.824  16.487  68.590  1.00  0.00    -0.226 A  
HETATM   15  C   UNL     1      -6.948  17.436  69.115  1.00  0.00    -0.209 A  
HETATM   16  C   UNL     1      -6.118  17.126  70.194  1.00  0.00    -0.020 A  
HETATM   17  C   UNL     1      -6.157  15.860  70.783  1.00  0.00     0.354 A  
HETATM   18  C   UNL     1      -7.918  15.241  69.219  1.00  0.00    -0.223 A  
HETATM   19  C   UNL     1      -7.081  14.924  70.298  1.00  0.00     0.162 A  
BRANCH  17  20
HETATM   20  C   UNL     1      -5.183  15.497  71.884  1.00  0.00     0.058 C  
BRANCH  20  21
HETATM   21  C   UNL     1      -5.132  14.000  72.235  1.00  0.00    -0.199 C  
BRANCH  21  22
HETATM   22  N   UNL     1      -6.143  13.249  71.496  1.00  0.00    -0.459 NA 
HETATM   23  H   UNL     1      -6.307  13.660  70.576  1.00  0.00     0.000 HD 
BRANCH  22  24
HETATM   24  C   UNL     1      -5.813  11.823  71.386  1.00  0.00     0.624 C  
BRANCH  24  25
HETATM   25  C   UNL     1      -5.920  11.284  69.937  1.00  0.00    -0.117 C  
HETATM   26  O   UNL     1      -5.662  12.346  69.006  1.00  0.00    -0.062 OA 
HETATM   27  H   UNL     1      -5.728  12.016  68.118  1.00  0.00     0.000 HD 
BRANCH  25  28
HETATM   28  C   UNL     1      -7.225  10.594  69.584  1.00  0.00    -0.139 A  
HETATM   29  C   UNL     1      -7.420   9.243  69.910  1.00  0.00    -0.085 A  
HETATM   30  C   UNL     1      -8.588   8.579  69.524  1.00  0.00    -0.131 A  
HETATM   31  C   UNL     1      -9.577   9.257  68.814  1.00  0.00    -0.157 A  
HETATM   32  C   UNL     1      -9.409  10.603  68.504  1.00  0.00    -0.170 A  
HETATM   33  C   UNL     1      -8.242  11.266  68.887  1.00  0.00    -0.079 A  
ENDBRANCH  25  28
ENDBRANCH  24  25
ENDBRANCH  22  24
ENDBRANCH  21  22
ENDBRANCH  20  21
ENDBRANCH  17  20
ENDBRANCH  11  14
ENDBRANCH   9  10
ENDBRANCH   6   9
TORSDOF 9
ENDMDL
MODEL      301
REMARK 921   NORMALIZED FREE ENERGY PREDICTED BY IDOCK:    3.10 KCAL/MOL
REMARK 922        TOTAL FREE ENERGY PREDICTED BY IDOCK:    2.28 KCAL/MOL
REMARK 923 INTER-LIGAND FREE ENERGY PREDICTED BY IDOCK:   -0.54 KCAL/MOL
REMARK 924 INTRA-LIGAND FREE ENERGY PREDICTED BY IDOCK:    2.82 KCAL/MOL
REMARK 927      BINDING AFFINITY PREDICTED BY RF-SCORE:    0.00 PKD
ROOT
HETATM    1  N   UNL     1      -8.916   4.886  68.010  1.00  0.00    -0.107 NA 
HETATM    2  C   UNL     1      -9.630   5.610  68.887  1.00  0.00    -0.131 A  
HETATM    3  H1  UNL     1      -9.292   4.071  67.526  1.00  0.00     0.000 HD 
HETATM    4  H2  UNL     1      -7.954   5.163  67.820  1.00  0.00     0.000 HD 
HETATM    5  N   UNL     1      -9.147   6.656  69.509  1.00  0.00    -0.144 NA 
HETATM    6  C   UNL     1     -10.113   7.204  70.346  1.00  0.00    -0.191 A  
HETATM    7  S   UNL     1     -11.265   5.229  69.240  1.00  0.00     1.681 SA 
HETATM    8  C   UNL     1     -11.332   6.554  70.324  1.00  0.00    -0.395 A  
ENDROOT
BRANCH   6   9
HETATM    9  C   UNL     1      -9.767   8.412  71.147  1.00  0.00    -0.236 C  
BRANCH   9  10
HETATM   10  C   UNL     1     -10.207   9.725  70.520  1.00  0.00    -0.255 C  
HETATM   11  N   UNL     1     -11.303  10.334  71.112  1.00  0.00    -0.265 N  
HETATM   12  O   UNL     1      -9.517  10.209  69.622  1.00  0.00    -0.222 OA 
HETATM   13  H   UNL     1     -11.771   9.821  71.860  1.00  0.00     0.000 HD 
BRANCH  11  14
HETATM   14  C   UNL     1     -11.830  11.597  70.774  1.00  0.00    -0.015 A  
HETATM   15  C   UNL     1     -11.474  12.281  69.611  1.00  0.00    -0.285 A  
HETATM   16  C   UNL     1     -11.931  13.578  69.375  1.00  0.00    -0.383 A  
HETATM   17  C   UNL     1     -12.768  14.218  70.292  1.00  0.00    -0.305 A  
HETATM   18  C   UNL     1     -12.724  12.205  71.662  1.00  0.00    -0.314 A  
HETATM   19  C   UNL     1     -13.178  13.511  71.431  1.00  0.00    -0.348 A  
BRANCH  17  20
HETATM   20  C   UNL     1     -13.175  15.662  70.081  1.00  0.00     0.377 C  
BRANCH  20  21
HETATM   21  C   UNL     1     -12.243  16.468  69.160  1.00  0.00     0.922 C  
BRANCH  21  22
HETATM   22  N   UNL     1     -11.675  15.624  68.113  1.00  0.00    -0.364 NA 
HETATM   23  H   UNL     1     -11.710  16.090  67.206  1.00  0.00     0.000 HD 
BRANCH  22  24
HETATM   24  C   UNL     1     -10.312  15.181  68.429  1.00  0.00    -0.229 C  
BRANCH  24  25
HETATM   25  C   UNL     1      -9.240  15.802  67.496  1.00  0.00    -0.204 C  
HETATM   26  O   UNL     1      -8.404  14.764  66.962  1.00  0.00    -0.206 OA 
HETATM   27  H   UNL     1      -7.748  15.145  66.390  1.00  0.00     0.000 HD 
BRANCH  25  28
HETATM   28  C   UNL     1      -8.382  16.892  68.111  1.00  0.00    -0.212 A  
HETATM   29  C   UNL     1      -8.472  17.173  69.483  1.00  0.00     0.579 A  
HETATM   30  C   UNL     1      -7.740  18.223  70.045  1.00  0.00     1.468 A  
HETATM   31  C   UNL     1      -6.906  19.002  69.245  1.00  0.00    -0.318 A  
HETATM   32  C   UNL     1      -6.787  18.721  67.887  1.00  0.00    -0.226 A  
HETATM   33  C   UNL     1      -7.520  17.674  67.325  1.00  0.00    -0.210 A  
ENDBRANCH  25  28
ENDBRANCH  24  25
ENDBRANCH  22  24
ENDBRANCH  21  22
ENDBRANCH  20  21
ENDBRANCH  17  20
ENDBRANCH  11  14
ENDBRANCH   9  10
ENDBRANCH   6   9
TORSDOF 9
ENDMDL
MODEL      302
REMARK 921   NORMALIZED FREE ENERGY PREDICTED BY IDOCK:    8.14 KCAL/MOL
REMARK 922        TOTAL FREE ENERGY PREDICTED BY IDOCK:    9.98 KCAL/MOL
REMARK 923 INTER-LIGAND FREE ENERGY PREDICTED BY IDOCK:   10.76 KCAL/MOL
REMARK 924 INTRA-LIGAND FREE ENERGY PREDICTED BY IDOCK:   -0.78 KCAL/MOL
REMARK 927      BINDING AFFINITY PREDICTED BY RF-SCORE:    0.00 PKD
ROOT
HETATM    1  N   UNL     1     -12.072  18.396  67.665  1.00  0.00     2.301 NA 
HETATM    2  C   UNL     1     -11.356  17.259  67.655  1.00  0.00     0.357 A  
HETATM    3  H1  UNL     1     -11.681  19.301  67.400  1.00  0.00     0.000 HD 
HETATM    4  H2  UNL     1     -13.050  18.353  67.949  1.00  0.00     0.000 HD 
HETATM    5  N   UNL     1     -11.858  16.099  67.994  1.00  0.00     0.045 NA 
HETATM    6  C   UNL     1     -10.889  15.107  67.882  1.00  0.00    -0.291 A  
HETATM    7  S   UNL     1      -9.715  17.240  67.160  1.00  0.00    -0.268 SA 
HETATM    8  C   UNL     1      -9.659  15.551  67.437  1.00  0.00    -0.213 A  
ENDROOT
BRANCH   6   9
HETATM    9  C   UNL     1     -11.256  13.703  68.218  1.00  0.00    -0.302 C  
BRANCH   9  10
HETATM   10  C   UNL     1     -10.226  12.669  67.798  1.00  0.00    -0.222 C  
HETATM   11  N   UNL     1      -9.784  11.821  68.803  1.00  0.00    -0.384 N  
HETATM   12  O   UNL     1      -9.936  12.576  66.605  1.00  0.00    -0.226 OA 
HETATM   13  H   UNL     1     -10.120  12.007  69.748  1.00  0.00     0.000 HD 
BRANCH  11  14
HETATM   14  C   UNL     1      -8.912  10.726  68.637  1.00  0.00    -0.162 A  
HETATM   15  C   UNL     1      -7.533  10.818  68.827  1.00  0.00    -0.109 A  
HETATM   16  C   UNL     1      -6.696   9.740  68.539  1.00  0.00    -0.052 A  
HETATM   17  C   UNL     1      -7.222   8.535  68.066  1.00  0.00    -0.087 A  
HETATM   18  C   UNL     1      -9.451   9.501  68.231  1.00  0.00    -0.143 A  
HETATM   19  C   UNL     1      -8.612   8.418  67.934  1.00  0.00    -0.131 A  
BRANCH  17  20
HETATM   20  C   UNL     1      -6.300   7.404  67.657  1.00  0.00    -0.052 C  
BRANCH  20  21
HETATM   21  C   UNL     1      -6.450   6.116  68.484  1.00  0.00    -0.053 C  
BRANCH  21  22
HETATM   22  N   UNL     1      -7.066   5.051  67.697  1.00  0.00    -0.065 NA 
HETATM   23  H   UNL     1      -6.560   4.172  67.808  1.00  0.00     0.000 HD 
BRANCH  22  24
HETATM   24  C   UNL     1      -8.492   4.883  68.001  1.00  0.00    -0.103 C  
BRANCH  24  25
HETATM   25  C   UNL     1      -8.746   4.013  69.258  1.00  0.00    -0.082 C  
HETATM   26  O   UNL     1      -8.934   2.643  68.868  1.00  0.00    -0.093 OA 
HETATM   27  H   UNL     1      -9.089   2.110  69.639  1.00  0.00     0.000 HD 
BRANCH  25  28
HETATM   28  C   UNL     1      -9.891   4.458  70.149  1.00  0.00    -0.288 A  
HETATM   29  C   UNL     1     -10.986   3.609  70.370  1.00  0.00     3.381 A  
HETATM   30  C   UNL     1     -12.080   4.038  71.128  1.00  0.00     7.250 A  
HETATM   31  C   UNL     1     -12.089   5.318  71.679  1.00  0.00     1.310 A  
HETATM   32  C   UNL     1     -11.001   6.163  71.490  1.00  0.00    -0.328 A  
HETATM   33  C   UNL     1      -9.910   5.737  70.730  1.00  0.00    -0.235 A  
ENDBRANCH  25  28
ENDBRANCH  24  25
ENDBRANCH  22  24
ENDBRANCH  21  22
ENDBRANCH  20  21
ENDBRANCH  17  20
ENDBRANCH  11  14
ENDBRANCH   9  10
ENDBRANCH   6   9
TORSDOF 9
ENDMDL
MODEL      303
REMARK 921   NORMALIZED FREE ENERGY PREDICTED BY IDOCK:    9.18 KCAL/MOL
REMARK 922        TOTAL FREE ENERGY PREDICTED BY IDOCK:   11.57 KCAL/MOL
REMARK 923 INTER-LIGAND FREE ENERGY PREDICTED BY IDOCK:    7.46 KCAL/MOL
REMARK 924 INTRA-LIGAND FREE ENERGY PREDICTED BY IDOCK:    4.11 KCAL/MOL
REMARK 927      BINDING AFFINITY PREDICTED BY RF-SCORE:    0.00 PKD
ROOT
HETATM    1  N   UNL     1     -12.255  11.140  63.455  1.00  0.00    -0.117 NA 
HETATM    2  C   UNL     1     -11.390  10.836  64.437  1.00  0.00     0.913 A  
HETATM    3  H1  UNL     1     -13.173  10.705  63.370  1.00  0.00     0.000 HD 
HETATM    4  H2  UNL     1     -11.981  11.837  62.764  1.00  0.00     0.000 HD 
HETATM    5  N   UNL     1     -10.211  11.395  64.546  1.00  0.00    -0.276 NA 
HETATM    6  C   UNL     1      -9.542  10.890  65.656  1.00  0.00    -0.224 A  
HETATM    7  S   UNL     1     -11.785   9.698  65.656  1.00  0.00     6.134 SA 
HETATM    8  C   UNL     1     -10.254   9.954  66.381  1.00  0.00    -0.222 A  
ENDROOT
BRANCH   6   9
HETATM    9  C   UNL     1      -8.177  11.400  65.966  1.00  0.00     0.017 C  
BRANCH   9  10
HETATM   10  C   UNL     1      -8.119  12.886  66.274  1.00  0.00     0.934 C  
HETATM   11  N   UNL     1      -9.341  13.495  66.519  1.00  0.00    -0.370 N  
HETATM   12  O   UNL     1      -7.017  13.422  66.393  1.00  0.00     1.245 OA 
HETATM   13  H   UNL     1     -10.177  12.924  66.397  1.00  0.00     0.000 HD 
BRANCH  11  14
HETATM   14  C   UNL     1      -9.532  14.833  66.922  1.00  0.00    -0.240 A  
HETATM   15  C   UNL     1     -10.663  15.262  67.616  1.00  0.00    -0.282 A  
HETATM   16  C   UNL     1     -10.864  16.615  67.892  1.00  0.00    -0.321 A  
HETATM   17  C   UNL     1      -9.929  17.572  67.491  1.00  0.00    -0.315 A  
HETATM   18  C   UNL     1      -8.558  15.777  66.580  1.00  0.00    -0.343 A  
HETATM   19  C   UNL     1      -8.761  17.138  66.849  1.00  0.00    -0.254 A  
BRANCH  17  20
HETATM   20  C   UNL     1     -10.202  19.046  67.701  1.00  0.00    -0.478 C  
BRANCH  20  21
HETATM   21  C   UNL     1     -11.519  19.554  67.088  1.00  0.00     0.618 C  
BRANCH  21  22
HETATM   22  N   UNL     1     -11.288  20.707  66.222  1.00  0.00     1.795 NA 
HETATM   23  H   UNL     1     -11.450  21.581  66.722  1.00  0.00     0.000 HD 
BRANCH  22  24
HETATM   24  C   UNL     1      -9.954  20.688  65.609  1.00  0.00     0.504 C  
BRANCH  24  25
HETATM   25  C   UNL     1      -8.842  20.234  66.589  1.00  0.00    -0.233 C  
HETATM   26  O   UNL     1      -8.535  21.301  67.500  1.00  0.00    -0.350 OA 
HETATM   27  H   UNL     1      -7.854  21.022  68.100  1.00  0.00     0.000 HD 
BRANCH  25  28
HETATM   28  C   UNL     1      -7.566  19.720  65.947  1.00  0.00    -0.332 A  
HETATM   29  C   UNL     1      -6.659  18.954  66.694  1.00  0.00    -0.208 A  
HETATM   30  C   UNL     1      -5.447  18.538  66.134  1.00  0.00    -0.187 A  
HETATM   31  C   UNL     1      -5.130  18.878  64.821  1.00  0.00    -0.212 A  
HETATM   32  C   UNL     1      -6.030  19.616  64.059  1.00  0.00    -0.247 A  
HETATM   33  C   UNL     1      -7.239  20.034  64.618  1.00  0.00     0.509 A  
ENDBRANCH  25  28
ENDBRANCH  24  25
ENDBRANCH  22  24
ENDBRANCH  21  22
ENDBRANCH  20  21
ENDBRANCH  17  20
ENDBRANCH  11  14
ENDBRANCH   9  10
ENDBRANCH   6   9
TORSDOF 9
ENDMDL
MODEL      304
REMARK 921   NORMALIZED FREE ENERGY PREDICTED BY IDOCK:   10.04 KCAL/MOL
REMARK 922        TOTAL FREE ENERGY PREDICTED BY IDOCK:   12.87 KCAL/MOL
REMARK 923 INTER-LIGAND FREE ENERGY PREDICTED BY IDOCK:    6.87 KCAL/MOL
REMARK 924 INTRA-LIGAND FREE ENERGY PREDICTED BY IDOCK:    6.00 KCAL/MOL
REMARK 927      BINDING AFFINITY PREDICTED BY RF-SCORE:    0.00 PKD
ROOT
HETATM    1  N   UNL     1      -8.973   5.770  68.456  1.00  0.00    -0.112 NA 
HETATM    2  C   UNL     1      -9.570   6.632  69.296  1.00  0.00    -0.143 A  
HETATM    3  H1  UNL     1      -9.487   5.071  67.920  1.00  0.00     0.000 HD 
HETATM    4  H2  UNL     1      -7.960   5.817  68.350  1.00  0.00     0.000 HD 
HETATM    5  N   UNL     1      -8.911   7.529  69.984  1.00  0.00    -0.143 NA 
HETATM    6  C   UNL     1      -9.789   8.278  70.760  1.00  0.00    -0.179 A  
HETATM    7  S   UNL     1     -11.272   6.639  69.509  1.00  0.00    -0.304 SA 
HETATM    8  C   UNL     1     -11.119   7.931  70.623  1.00  0.00    -0.259 A  
ENDROOT
BRANCH   6   9
HETATM    9  C   UNL     1      -9.241   9.363  71.621  1.00  0.00     0.365 C  
BRANCH   9  10
HETATM   10  C   UNL     1      -9.291  10.746  70.993  1.00  0.00     4.124 C  
HETATM   11  N   UNL     1     -10.559  11.283  70.827  1.00  0.00     1.202 N  
HETATM   12  O   UNL     1      -8.231  11.334  70.776  1.00  0.00     2.838 OA 
HETATM   13  H   UNL     1     -11.350  10.685  71.063  1.00  0.00     0.000 HD 
BRANCH  11  14
HETATM   14  C   UNL     1     -10.853  12.581  70.363  1.00  0.00     1.859 A  
HETATM   15  C   UNL     1     -10.064  13.249  69.427  1.00  0.00     0.590 A  
HETATM   16  C   UNL     1     -10.327  14.576  69.084  1.00  0.00    -0.197 A  
HETATM   17  C   UNL     1     -11.398  15.263  69.661  1.00  0.00    -0.304 A  
HETATM   18  C   UNL     1     -11.967  13.241  70.892  1.00  0.00    -0.090 A  
HETATM   19  C   UNL     1     -12.230  14.576  70.555  1.00  0.00    -0.399 A  
BRANCH  17  20
HETATM   20  C   UNL     1     -11.615  16.732  69.364  1.00  0.00     0.470 C  
BRANCH  20  21
HETATM   21  C   UNL     1     -10.818  17.274  68.164  1.00  0.00    -0.294 C  
BRANCH  21  22
HETATM   22  N   UNL     1     -10.572  16.227  67.177  1.00  0.00    -0.310 NA 
HETATM   23  H   UNL     1     -11.140  16.368  66.341  1.00  0.00     0.000 HD 
BRANCH  22  24
HETATM   24  C   UNL     1      -9.150  16.103  66.835  1.00  0.00    -0.218 C  
BRANCH  24  25
HETATM   25  C   UNL     1      -8.603  17.326  66.056  1.00  0.00    -0.092 C  
HETATM   26  O   UNL     1      -7.203  17.146  65.793  1.00  0.00    -0.216 OA 
HETATM   27  H   UNL     1      -6.868  17.896  65.315  1.00  0.00     0.000 HD 
BRANCH  25  28
HETATM   28  C   UNL     1      -8.838  18.679  66.703  1.00  0.00    -0.305 A  
HETATM   29  C   UNL     1      -7.856  19.679  66.626  1.00  0.00    -0.306 A  
HETATM   30  C   UNL     1      -8.031  20.901  67.281  1.00  0.00    -0.196 A  
HETATM   31  C   UNL     1      -9.191  21.142  68.015  1.00  0.00     0.367 A  
HETATM   32  C   UNL     1     -10.185  20.171  68.080  1.00  0.00    -0.479 A  
HETATM   33  C   UNL     1     -10.009  18.948  67.429  1.00  0.00    -0.392 A  
ENDBRANCH  25  28
ENDBRANCH  24  25
ENDBRANCH  22  24
ENDBRANCH  21  22
ENDBRANCH  20  21
ENDBRANCH  17  20
ENDBRANCH  11  14
ENDBRANCH   9  10
ENDBRANCH   6   9
TORSDOF 9
ENDMDL
MODEL      305
REMARK 921   NORMALIZED FREE ENERGY PREDICTED BY IDOCK:   13.52 KCAL/MOL
REMARK 922        TOTAL FREE ENERGY PREDICTED BY IDOCK:   18.19 KCAL/MOL
REMARK 923 INTER-LIGAND FREE ENERGY PREDICTED BY IDOCK:   13.12 KCAL/MOL
REMARK 924 INTRA-LIGAND FREE ENERGY PREDICTED BY IDOCK:    5.07 KCAL/MOL
REMARK 927      BINDING AFFINITY PREDICTED BY RF-SCORE:    0.00 PKD
ROOT
HETATM    1  N   UNL     1      -8.964   5.777  68.470  1.00  0.00    -0.112 NA 
HETATM    2  C   UNL     1      -9.456   6.705  69.307  1.00  0.00    -0.141 A  
HETATM    3  H1  UNL     1      -9.553   5.103  67.980  1.00  0.00     0.000 HD 
HETATM    4  H2  UNL     1      -7.957   5.744  68.318  1.00  0.00     0.000 HD 
HETATM    5  N   UNL     1      -8.700   7.570  69.935  1.00  0.00    -0.140 NA 
HETATM    6  C   UNL     1      -9.484   8.406  70.724  1.00  0.00    -0.169 A  
HETATM    7  S   UNL     1     -11.140   6.848  69.594  1.00  0.00    -0.237 SA 
HETATM    8  C   UNL     1     -10.841   8.156  70.658  1.00  0.00    -0.233 A  
ENDROOT
BRANCH   6   9
HETATM    9  C   UNL     1      -8.817   9.472  71.524  1.00  0.00     0.670 C  
BRANCH   9  10
HETATM   10  C   UNL     1      -8.749  10.823  70.833  1.00  0.00     3.819 C  
HETATM   11  N   UNL     1      -9.958  11.489  70.700  1.00  0.00     2.804 N  
HETATM   12  O   UNL     1      -7.644  11.281  70.539  1.00  0.00     0.999 OA 
HETATM   13  H   UNL     1     -10.797  10.993  71.001  1.00  0.00     0.000 HD 
BRANCH  11  14
HETATM   14  C   UNL     1     -10.133  12.791  70.188  1.00  0.00     2.839 A  
HETATM   15  C   UNL     1      -9.360  13.307  69.148  1.00  0.00     0.573 A  
HETATM   16  C   UNL     1      -9.490  14.639  68.751  1.00  0.00    -0.199 A  
HETATM   17  C   UNL     1     -10.408  15.484  69.379  1.00  0.00    -0.258 A  
HETATM   18  C   UNL     1     -11.103  13.612  70.773  1.00  0.00     1.244 A  
HETATM   19  C   UNL     1     -11.230  14.952  70.382  1.00  0.00    -0.252 A  
BRANCH  17  20
HETATM   20  C   UNL     1     -10.471  16.953  69.015  1.00  0.00    -0.341 C  
BRANCH  20  21
HETATM   21  C   UNL     1      -9.774  17.323  67.694  1.00  0.00    -0.272 C  
BRANCH  21  22
HETATM   22  N   UNL     1      -9.809  16.210  66.749  1.00  0.00    -0.237 NA 
HETATM   23  H   UNL     1     -10.466  16.392  65.991  1.00  0.00     0.000 HD 
BRANCH  22  24
HETATM   24  C   UNL     1      -8.478  15.876  66.228  1.00  0.00    -0.267 C  
BRANCH  24  25
HETATM   25  C   UNL     1      -8.013  14.450  66.619  1.00  0.00     0.522 C  
HETATM   26  O   UNL     1      -6.724  14.187  66.043  1.00  0.00     3.193 OA 
HETATM   27  H   UNL     1      -6.439  13.313  66.283  1.00  0.00     0.000 HD 
BRANCH  25  28
HETATM   28  C   UNL     1      -8.972  13.325  66.275  1.00  0.00     0.106 A  
HETATM   29  C   UNL     1      -8.480  12.087  65.835  1.00  0.00     0.379 A  
HETATM   30  C   UNL     1      -9.356  11.070  65.445  1.00  0.00    -0.244 A  
HETATM   31  C   UNL     1     -10.734  11.275  65.495  1.00  0.00    -0.283 A  
HETATM   32  C   UNL     1     -11.238  12.489  65.952  1.00  0.00    -0.356 A  
HETATM   33  C   UNL     1     -10.363  13.506  66.339  1.00  0.00    -0.289 A  
ENDBRANCH  25  28
ENDBRANCH  24  25
ENDBRANCH  22  24
ENDBRANCH  21  22
ENDBRANCH  20  21
ENDBRANCH  17  20
ENDBRANCH  11  14
ENDBRANCH   9  10
ENDBRANCH   6   9
TORSDOF 9
ENDMDL
