MODEL        1
REMARK 921   NORMALIZED FREE ENERGY PREDICTED BY IDOCK:   -6.24 KCAL/MOL
REMARK 922        TOTAL FREE ENERGY PREDICTED BY IDOCK:  -12.66 KCAL/MOL
REMARK 923 INTER-LIGAND FREE ENERGY PREDICTED BY IDOCK:  -10.63 KCAL/MOL
REMARK 924 INTRA-LIGAND FREE ENERGY PREDICTED BY IDOCK:   -2.04 KCAL/MOL
REMARK 927      BINDING AFFINITY PREDICTED BY RF-SCORE:    0.00 PKD
ROOT
HETATM    1  C   UNL     1      -7.018  20.369  67.665  1.00  0.00    -0.342 C  
HETATM    2  C   UNL     1      -8.203  20.247  66.717  1.00  0.00    -0.317 C  
ENDROOT
BRANCH   2   3
HETATM    3  C   UNL     1      -9.361  19.532  67.405  1.00  0.00    -0.405 C  
BRANCH   3   4
HETATM    4  C   UNL     1      -8.884  18.479  68.415  1.00  0.00    -0.346 C  
HETATM    5  C   UNL     1      -9.483  17.075  68.158  1.00  0.00    -0.262 C  
HETATM    6  O   UNL     1     -10.906  17.170  68.307  1.00  0.00    -0.369 OA 
HETATM    7  C   UNL     1      -8.960  16.088  69.212  1.00  0.00    -0.228 C  
HETATM    8  C   UNL     1      -9.154  16.604  66.719  1.00  0.00    -0.261 C  
HETATM    9  H   UNL     1     -11.273  16.309  68.149  1.00  0.00     0.000 HD 
BRANCH   8  10
HETATM   10  C   UNL     1      -9.534  15.189  66.385  1.00  0.00    -0.325 C  
HETATM   11  C   UNL     1     -10.701  14.834  65.822  1.00  0.00    -0.333 C  
BRANCH  11  12
HETATM   12  C   UNL     1     -11.130  13.434  65.467  1.00  0.00    -0.296 C  
HETATM   13  C   UNL     1     -11.468  13.330  63.970  1.00  0.00    -0.388 C  
HETATM   14  C   UNL     1     -11.409  11.849  63.647  1.00  0.00    -0.536 C  
HETATM   15  O   UNL     1     -12.760  13.849  63.677  1.00  0.00    -0.754 OA 
HETATM   16  H   UNL     1     -12.969  13.786  62.753  1.00  0.00     0.000 HD 
HETATM   17  C   UNL     1     -10.350  11.367  64.587  1.00  0.00    -0.307 C  
HETATM   18  O   UNL     1      -9.755  10.308  64.421  1.00  0.00    -0.297 OA 
HETATM   19  C   UNL     1     -10.085  12.325  65.731  1.00  0.00    -0.274 C  
BRANCH  19  20
HETATM   20  C   UNL     1     -10.265  11.714  67.126  1.00  0.00    -0.240 C  
BRANCH  20  21
HETATM   21  C   UNL     1     -11.693  11.877  67.650  1.00  0.00    -0.346 C  
BRANCH  21  22
HETATM   22  C   UNL     1     -11.720  12.399  69.082  1.00  0.00    -0.376 C  
BRANCH  22  23
HETATM   23  C   UNL     1     -12.042  13.895  69.098  1.00  0.00    -0.377 C  
BRANCH  23  24
HETATM   24  C   UNL     1     -11.939  14.452  70.514  1.00  0.00    -0.395 C  
BRANCH  24  25
HETATM   25  C   UNL     1     -13.222  15.157  70.945  1.00  0.00    -0.488 C  
BRANCH  25  26
HETATM   26  C   UNL     1     -13.616  14.748  72.345  1.00  0.00    -0.446 C  
HETATM   27  O   UNL     1     -13.878  13.610  72.699  1.00  0.00    -0.715 OA 
BRANCH  26  28
HETATM   28  O   UNL     1     -13.633  15.839  73.159  1.00  0.00    -0.567 OA 
HETATM   29  C   UNL     1     -12.498  15.918  74.021  1.00  0.00    -0.638 C  
ENDBRANCH  26  28
ENDBRANCH  25  26
ENDBRANCH  24  25
ENDBRANCH  23  24
ENDBRANCH  22  23
ENDBRANCH  21  22
ENDBRANCH  20  21
ENDBRANCH  19  20
ENDBRANCH  11  12
ENDBRANCH   8  10
ENDBRANCH   3   4
ENDBRANCH   2   3
TORSDOF 12
ENDMDL
MODEL        2
REMARK 921   NORMALIZED FREE ENERGY PREDICTED BY IDOCK:   -6.07 KCAL/MOL
REMARK 922        TOTAL FREE ENERGY PREDICTED BY IDOCK:  -12.37 KCAL/MOL
REMARK 923 INTER-LIGAND FREE ENERGY PREDICTED BY IDOCK:  -10.55 KCAL/MOL
REMARK 924 INTRA-LIGAND FREE ENERGY PREDICTED BY IDOCK:   -1.82 KCAL/MOL
REMARK 927      BINDING AFFINITY PREDICTED BY RF-SCORE:    0.00 PKD
ROOT
HETATM    1  C   UNL     1     -11.903   7.115  71.776  1.00  0.00    -0.338 C  
HETATM    2  C   UNL     1     -13.194   7.916  71.683  1.00  0.00    -0.367 C  
ENDROOT
BRANCH   2   3
HETATM    3  C   UNL     1     -12.886   9.396  71.476  1.00  0.00    -0.442 C  
BRANCH   3   4
HETATM    4  C   UNL     1     -11.385   9.664  71.309  1.00  0.00    -0.458 C  
HETATM    5  C   UNL     1     -10.980   9.963  69.845  1.00  0.00    -0.281 C  
HETATM    6  O   UNL     1     -11.278   8.801  69.060  1.00  0.00    -0.425 OA 
HETATM    7  C   UNL     1      -9.467  10.214  69.766  1.00  0.00    -0.201 C  
HETATM    8  C   UNL     1     -11.789  11.166  69.297  1.00  0.00    -0.422 C  
HETATM    9  H   UNL     1     -11.030   8.983  68.162  1.00  0.00     0.000 HD 
BRANCH   8  10
HETATM   10  C   UNL     1     -11.385  11.670  67.940  1.00  0.00    -0.369 C  
HETATM   11  C   UNL     1     -11.780  12.845  67.422  1.00  0.00    -0.428 C  
BRANCH  11  12
HETATM   12  C   UNL     1     -11.404  13.395  66.071  1.00  0.00    -0.329 C  
HETATM   13  C   UNL     1     -12.640  13.498  65.161  1.00  0.00    -0.436 C  
HETATM   14  C   UNL     1     -12.251  14.473  64.066  1.00  0.00    -0.262 C  
HETATM   15  O   UNL     1     -12.995  12.240  64.600  1.00  0.00    -0.741 OA 
HETATM   16  H   UNL     1     -13.758  12.303  64.038  1.00  0.00     0.000 HD 
HETATM   17  C   UNL     1     -11.316  15.393  64.784  1.00  0.00    -0.376 C  
HETATM   18  O   UNL     1     -11.041  16.512  64.365  1.00  0.00    -0.894 OA 
HETATM   19  C   UNL     1     -10.775  14.809  66.074  1.00  0.00    -0.314 C  
BRANCH  19  20
HETATM   20  C   UNL     1      -9.246  14.735  66.146  1.00  0.00    -0.237 C  
BRANCH  20  21
HETATM   21  C   UNL     1      -8.665  15.722  67.160  1.00  0.00    -0.228 C  
BRANCH  21  22
HETATM   22  C   UNL     1      -9.725  16.675  67.702  1.00  0.00    -0.250 C  
BRANCH  22  23
HETATM   23  C   UNL     1      -9.975  16.406  69.188  1.00  0.00    -0.273 C  
BRANCH  23  24
HETATM   24  C   UNL     1     -11.370  15.830  69.403  1.00  0.00    -0.348 C  
BRANCH  24  25
HETATM   25  C   UNL     1     -11.431  14.922  70.628  1.00  0.00    -0.313 C  
BRANCH  25  26
HETATM   26  C   UNL     1     -12.536  15.354  71.562  1.00  0.00    -0.394 C  
HETATM   27  O   UNL     1     -12.437  16.213  72.423  1.00  0.00    -0.454 OA 
BRANCH  26  28
HETATM   28  O   UNL     1     -13.667  14.643  71.301  1.00  0.00    -0.385 OA 
HETATM   29  C   UNL     1     -13.902  13.592  72.238  1.00  0.00    -0.581 C  
ENDBRANCH  26  28
ENDBRANCH  25  26
ENDBRANCH  24  25
ENDBRANCH  23  24
ENDBRANCH  22  23
ENDBRANCH  21  22
ENDBRANCH  20  21
ENDBRANCH  19  20
ENDBRANCH  11  12
ENDBRANCH   8  10
ENDBRANCH   3   4
ENDBRANCH   2   3
TORSDOF 12
ENDMDL
MODEL        3
REMARK 921   NORMALIZED FREE ENERGY PREDICTED BY IDOCK:   -6.07 KCAL/MOL
REMARK 922        TOTAL FREE ENERGY PREDICTED BY IDOCK:  -12.37 KCAL/MOL
REMARK 923 INTER-LIGAND FREE ENERGY PREDICTED BY IDOCK:  -10.41 KCAL/MOL
REMARK 924 INTRA-LIGAND FREE ENERGY PREDICTED BY IDOCK:   -1.96 KCAL/MOL
REMARK 927      BINDING AFFINITY PREDICTED BY RF-SCORE:    0.00 PKD
ROOT
HETATM    1  C   UNL     1     -10.142   4.975  69.989  1.00  0.00    -0.342 C  
HETATM    2  C   UNL     1     -11.156   5.982  70.514  1.00  0.00    -0.385 C  
ENDROOT
BRANCH   2   3
HETATM    3  C   UNL     1     -10.446   7.233  71.022  1.00  0.00    -0.226 C  
BRANCH   3   4
HETATM    4  C   UNL     1     -11.397   8.428  71.169  1.00  0.00    -0.310 C  
HETATM    5  C   UNL     1     -10.937   9.673  70.372  1.00  0.00    -0.299 C  
HETATM    6  O   UNL     1      -9.670  10.089  70.900  1.00  0.00    -0.226 OA 
HETATM    7  C   UNL     1     -11.938  10.819  70.577  1.00  0.00    -0.456 C  
HETATM    8  C   UNL     1     -10.769   9.321  68.872  1.00  0.00    -0.182 C  
HETATM    9  H   UNL     1      -9.388  10.853  70.411  1.00  0.00     0.000 HD 
BRANCH   8  10
HETATM   10  C   UNL     1     -10.482  10.473  67.951  1.00  0.00    -0.247 C  
HETATM   11  C   UNL     1     -11.126  10.693  66.793  1.00  0.00    -0.103 C  
BRANCH  11  12
HETATM   12  C   UNL     1     -10.877  11.831  65.837  1.00  0.00    -0.339 C  
HETATM   13  C   UNL     1     -10.322  11.308  64.501  1.00  0.00    -0.322 C  
HETATM   14  C   UNL     1     -10.567  12.423  63.502  1.00  0.00    -0.451 C  
HETATM   15  O   UNL     1      -8.933  11.011  64.580  1.00  0.00    -0.309 OA 
HETATM   16  H   UNL     1      -8.590  10.688  63.755  1.00  0.00     0.000 HD 
HETATM   17  C   UNL     1     -11.828  13.037  64.021  1.00  0.00    -0.445 C  
HETATM   18  O   UNL     1     -12.551  13.743  63.328  1.00  0.00    -0.830 OA 
HETATM   19  C   UNL     1     -12.117  12.678  65.466  1.00  0.00    -0.515 C  
BRANCH  19  20
HETATM   20  C   UNL     1     -12.266  13.882  66.402  1.00  0.00    -0.487 C  
BRANCH  20  21
HETATM   21  C   UNL     1     -10.917  14.504  66.767  1.00  0.00    -0.316 C  
BRANCH  21  22
HETATM   22  C   UNL     1     -10.660  14.471  68.270  1.00  0.00    -0.241 C  
BRANCH  22  23
HETATM   23  C   UNL     1     -11.950  14.141  69.025  1.00  0.00    -0.376 C  
BRANCH  23  24
HETATM   24  C   UNL     1     -11.806  14.472  70.506  1.00  0.00    -0.372 C  
BRANCH  24  25
HETATM   25  C   UNL     1     -13.055  15.148  71.064  1.00  0.00    -0.513 C  
BRANCH  25  26
HETATM   26  C   UNL     1     -13.405  14.591  72.424  1.00  0.00    -0.433 C  
HETATM   27  O   UNL     1     -13.627  13.416  72.669  1.00  0.00    -0.635 OA 
BRANCH  26  28
HETATM   28  O   UNL     1     -13.434  15.595  73.342  1.00  0.00    -0.489 OA 
HETATM   29  C   UNL     1     -12.525  15.397  74.425  1.00  0.00    -0.562 C  
ENDBRANCH  26  28
ENDBRANCH  25  26
ENDBRANCH  24  25
ENDBRANCH  23  24
ENDBRANCH  22  23
ENDBRANCH  21  22
ENDBRANCH  20  21
ENDBRANCH  19  20
ENDBRANCH  11  12
ENDBRANCH   8  10
ENDBRANCH   3   4
ENDBRANCH   2   3
TORSDOF 12
ENDMDL
MODEL        4
REMARK 921   NORMALIZED FREE ENERGY PREDICTED BY IDOCK:   -5.96 KCAL/MOL
REMARK 922        TOTAL FREE ENERGY PREDICTED BY IDOCK:  -12.17 KCAL/MOL
REMARK 923 INTER-LIGAND FREE ENERGY PREDICTED BY IDOCK:  -10.76 KCAL/MOL
REMARK 924 INTRA-LIGAND FREE ENERGY PREDICTED BY IDOCK:   -1.42 KCAL/MOL
REMARK 927      BINDING AFFINITY PREDICTED BY RF-SCORE:    0.00 PKD
ROOT
HETATM    1  C   UNL     1      -8.219  20.367  67.122  1.00  0.00    -0.374 C  
HETATM    2  C   UNL     1      -9.706  20.235  66.824  1.00  0.00    -0.571 C  
ENDROOT
BRANCH   2   3
HETATM    3  C   UNL     1     -10.394  19.420  67.913  1.00  0.00    -0.542 C  
BRANCH   3   4
HETATM    4  C   UNL     1      -9.460  18.379  68.545  1.00  0.00    -0.355 C  
HETATM    5  C   UNL     1      -9.881  16.921  68.242  1.00  0.00    -0.266 C  
HETATM    6  O   UNL     1     -11.178  16.709  68.816  1.00  0.00    -0.308 OA 
HETATM    7  C   UNL     1      -8.900  15.948  68.913  1.00  0.00    -0.225 C  
HETATM    8  C   UNL     1      -9.960  16.689  66.712  1.00  0.00    -0.284 C  
HETATM    9  H   UNL     1     -11.437  15.814  68.630  1.00  0.00     0.000 HD 
BRANCH   8  10
HETATM   10  C   UNL     1     -10.200  15.274  66.270  1.00  0.00    -0.300 C  
HETATM   11  C   UNL     1     -11.402  14.784  65.924  1.00  0.00    -0.331 C  
BRANCH  11  12
HETATM   12  C   UNL     1     -11.696  13.376  65.474  1.00  0.00    -0.366 C  
HETATM   13  C   UNL     1     -11.426  13.218  63.968  1.00  0.00    -0.388 C  
HETATM   14  C   UNL     1     -11.285  11.725  63.741  1.00  0.00    -0.518 C  
HETATM   15  O   UNL     1     -12.488  13.740  63.178  1.00  0.00    -1.089 OA 
HETATM   16  H   UNL     1     -12.321  13.642  62.248  1.00  0.00     0.000 HD 
HETATM   17  C   UNL     1     -10.689  11.267  65.035  1.00  0.00    -0.256 C  
HETATM   18  O   UNL     1     -10.105  10.195  65.148  1.00  0.00    -0.326 OA 
HETATM   19  C   UNL     1     -10.866  12.266  66.161  1.00  0.00    -0.314 C  
BRANCH  19  20
HETATM   20  C   UNL     1     -11.592  11.713  67.393  1.00  0.00    -0.330 C  
BRANCH  20  21
HETATM   21  C   UNL     1     -10.987  12.226  68.701  1.00  0.00    -0.276 C  
BRANCH  21  22
HETATM   22  C   UNL     1     -11.971  12.129  69.862  1.00  0.00    -0.380 C  
BRANCH  22  23
HETATM   23  C   UNL     1     -12.242  10.663  70.210  1.00  0.00    -0.417 C  
BRANCH  23  24
HETATM   24  C   UNL     1     -12.725  10.533  71.650  1.00  0.00    -0.550 C  
BRANCH  24  25
HETATM   25  C   UNL     1     -13.429   9.202  71.898  1.00  0.00    -0.492 C  
BRANCH  25  26
HETATM   26  C   UNL     1     -12.425   8.082  72.042  1.00  0.00    -0.320 C  
HETATM   27  O   UNL     1     -11.474   8.082  72.808  1.00  0.00    -0.402 OA 
BRANCH  26  28
HETATM   28  O   UNL     1     -12.737   7.067  71.191  1.00  0.00    -0.381 OA 
HETATM   29  C   UNL     1     -11.653   6.685  70.345  1.00  0.00    -0.398 C  
ENDBRANCH  26  28
ENDBRANCH  25  26
ENDBRANCH  24  25
ENDBRANCH  23  24
ENDBRANCH  22  23
ENDBRANCH  21  22
ENDBRANCH  20  21
ENDBRANCH  19  20
ENDBRANCH  11  12
ENDBRANCH   8  10
ENDBRANCH   3   4
ENDBRANCH   2   3
TORSDOF 12
ENDMDL
MODEL        5
REMARK 921   NORMALIZED FREE ENERGY PREDICTED BY IDOCK:   -5.90 KCAL/MOL
REMARK 922        TOTAL FREE ENERGY PREDICTED BY IDOCK:  -12.07 KCAL/MOL
REMARK 923 INTER-LIGAND FREE ENERGY PREDICTED BY IDOCK:  -10.16 KCAL/MOL
REMARK 924 INTRA-LIGAND FREE ENERGY PREDICTED BY IDOCK:   -1.91 KCAL/MOL
REMARK 927      BINDING AFFINITY PREDICTED BY RF-SCORE:    0.00 PKD
ROOT
HETATM    1  C   UNL     1     -10.653   7.238  73.214  1.00  0.00    -0.428 C  
HETATM    2  C   UNL     1     -11.896   7.828  72.563  1.00  0.00    -0.354 C  
ENDROOT
BRANCH   2   3
HETATM    3  C   UNL     1     -11.570   9.174  71.923  1.00  0.00    -0.430 C  
BRANCH   3   4
HETATM    4  C   UNL     1     -10.260   9.142  71.125  1.00  0.00    -0.384 C  
HETATM    5  C   UNL     1     -10.472   9.313  69.601  1.00  0.00    -0.224 C  
HETATM    6  O   UNL     1     -11.260   8.206  69.141  1.00  0.00    -0.423 OA 
HETATM    7  C   UNL     1      -9.117   9.264  68.881  1.00  0.00    -0.139 C  
HETATM    8  C   UNL     1     -11.231  10.632  69.307  1.00  0.00    -0.332 C  
HETATM    9  H   UNL     1     -11.390   8.310  68.206  1.00  0.00     0.000 HD 
BRANCH   8  10
HETATM   10  C   UNL     1     -11.365  11.007  67.858  1.00  0.00    -0.381 C  
HETATM   11  C   UNL     1     -10.615  11.939  67.246  1.00  0.00    -0.261 C  
BRANCH  11  12
HETATM   12  C   UNL     1     -10.708  12.350  65.800  1.00  0.00    -0.301 C  
HETATM   13  C   UNL     1     -10.270  11.201  64.877  1.00  0.00    -0.303 C  
HETATM   14  C   UNL     1     -10.846  11.539  63.515  1.00  0.00    -0.473 C  
HETATM   15  O   UNL     1      -8.853  11.090  64.800  1.00  0.00    -0.322 OA 
HETATM   16  H   UNL     1      -8.582  10.379  64.230  1.00  0.00     0.000 HD 
HETATM   17  C   UNL     1     -12.107  12.257  63.879  1.00  0.00    -0.506 C  
HETATM   18  O   UNL     1     -13.034  12.400  63.090  1.00  0.00    -0.602 OA 
HETATM   19  C   UNL     1     -12.118  12.759  65.309  1.00  0.00    -0.505 C  
BRANCH  19  20
HETATM   20  C   UNL     1     -12.338  14.269  65.451  1.00  0.00    -0.421 C  
BRANCH  20  21
HETATM   21  C   UNL     1     -11.061  15.068  65.187  1.00  0.00    -0.408 C  
BRANCH  21  22
HETATM   22  C   UNL     1     -10.825  16.137  66.250  1.00  0.00    -0.135 C  
BRANCH  22  23
HETATM   23  C   UNL     1     -10.471  15.488  67.590  1.00  0.00    -0.279 C  
BRANCH  23  24
HETATM   24  C   UNL     1     -11.649  15.570  68.555  1.00  0.00    -0.379 C  
BRANCH  24  25
HETATM   25  C   UNL     1     -11.351  14.876  69.881  1.00  0.00    -0.311 C  
BRANCH  25  26
HETATM   26  C   UNL     1     -12.608  14.727  70.704  1.00  0.00    -0.354 C  
HETATM   27  O   UNL     1     -13.409  15.619  70.936  1.00  0.00    -0.556 OA 
BRANCH  26  28
HETATM   28  O   UNL     1     -12.722  13.446  71.149  1.00  0.00    -0.348 OA 
HETATM   29  C   UNL     1     -13.614  13.309  72.255  1.00  0.00    -0.605 C  
ENDBRANCH  26  28
ENDBRANCH  25  26
ENDBRANCH  24  25
ENDBRANCH  23  24
ENDBRANCH  22  23
ENDBRANCH  21  22
ENDBRANCH  20  21
ENDBRANCH  19  20
ENDBRANCH  11  12
ENDBRANCH   8  10
ENDBRANCH   3   4
ENDBRANCH   2   3
TORSDOF 12
ENDMDL
MODEL        6
REMARK 921   NORMALIZED FREE ENERGY PREDICTED BY IDOCK:   -5.87 KCAL/MOL
REMARK 922        TOTAL FREE ENERGY PREDICTED BY IDOCK:  -12.03 KCAL/MOL
REMARK 923 INTER-LIGAND FREE ENERGY PREDICTED BY IDOCK:   -9.78 KCAL/MOL
REMARK 924 INTRA-LIGAND FREE ENERGY PREDICTED BY IDOCK:   -2.25 KCAL/MOL
REMARK 927      BINDING AFFINITY PREDICTED BY RF-SCORE:    0.00 PKD
ROOT
HETATM    1  C   UNL     1     -14.395  15.015  71.533  1.00  0.00    -0.651 C  
HETATM    2  C   UNL     1     -13.183  15.301  72.409  1.00  0.00    -0.505 C  
ENDROOT
BRANCH   2   3
HETATM    3  C   UNL     1     -11.898  14.957  71.663  1.00  0.00    -0.429 C  
BRANCH   3   4
HETATM    4  C   UNL     1     -11.559  15.983  70.573  1.00  0.00    -0.383 C  
HETATM    5  C   UNL     1     -11.087  15.332  69.251  1.00  0.00    -0.274 C  
HETATM    6  O   UNL     1      -9.878  14.610  69.523  1.00  0.00    -0.416 OA 
HETATM    7  C   UNL     1     -10.765  16.425  68.220  1.00  0.00    -0.337 C  
HETATM    8  C   UNL     1     -12.158  14.345  68.722  1.00  0.00    -0.276 C  
HETATM    9  H   UNL     1      -9.588  14.210  68.712  1.00  0.00     0.000 HD 
BRANCH   8  10
HETATM   10  C   UNL     1     -11.904  13.760  67.362  1.00  0.00    -0.431 C  
HETATM   11  C   UNL     1     -11.668  12.458  67.131  1.00  0.00    -0.415 C  
BRANCH  11  12
HETATM   12  C   UNL     1     -11.408  11.823  65.789  1.00  0.00    -0.309 C  
HETATM   13  C   UNL     1     -12.138  12.590  64.673  1.00  0.00    -0.428 C  
HETATM   14  C   UNL     1     -11.443  12.184  63.387  1.00  0.00    -0.501 C  
HETATM   15  O   UNL     1     -13.521  12.257  64.614  1.00  0.00    -0.620 OA 
HETATM   16  H   UNL     1     -13.972  12.731  63.925  1.00  0.00     0.000 HD 
HETATM   17  C   UNL     1     -10.039  11.958  63.850  1.00  0.00    -0.370 C  
HETATM   18  O   UNL     1      -9.085  11.950  63.079  1.00  0.00    -0.199 OA 
HETATM   19  C   UNL     1      -9.926  11.767  65.349  1.00  0.00    -0.284 C  
BRANCH  19  20
HETATM   20  C   UNL     1      -9.271  10.448  65.774  1.00  0.00    -0.210 C  
BRANCH  20  21
HETATM   21  C   UNL     1     -10.302   9.358  66.070  1.00  0.00    -0.081 C  
BRANCH  21  22
HETATM   22  C   UNL     1     -10.036   8.665  67.402  1.00  0.00    -0.270 C  
BRANCH  22  23
HETATM   23  C   UNL     1      -9.850   9.700  68.514  1.00  0.00    -0.170 C  
BRANCH  23  24
HETATM   24  C   UNL     1     -10.900   9.513  69.603  1.00  0.00    -0.255 C  
BRANCH  24  25
HETATM   25  C   UNL     1     -11.293  10.837  70.252  1.00  0.00    -0.374 C  
BRANCH  25  26
HETATM   26  C   UNL     1     -12.485  10.657  71.162  1.00  0.00    -0.418 C  
HETATM   27  O   UNL     1     -13.074  11.557  71.738  1.00  0.00    -0.472 OA 
BRANCH  26  28
HETATM   28  O   UNL     1     -12.809   9.338  71.245  1.00  0.00    -0.322 OA 
HETATM   29  C   UNL     1     -13.219   8.938  72.553  1.00  0.00    -0.382 C  
ENDBRANCH  26  28
ENDBRANCH  25  26
ENDBRANCH  24  25
ENDBRANCH  23  24
ENDBRANCH  22  23
ENDBRANCH  21  22
ENDBRANCH  20  21
ENDBRANCH  19  20
ENDBRANCH  11  12
ENDBRANCH   8  10
ENDBRANCH   3   4
ENDBRANCH   2   3
TORSDOF 12
ENDMDL
MODEL        7
REMARK 921   NORMALIZED FREE ENERGY PREDICTED BY IDOCK:   -5.86 KCAL/MOL
REMARK 922        TOTAL FREE ENERGY PREDICTED BY IDOCK:  -12.02 KCAL/MOL
REMARK 923 INTER-LIGAND FREE ENERGY PREDICTED BY IDOCK:  -10.47 KCAL/MOL
REMARK 924 INTRA-LIGAND FREE ENERGY PREDICTED BY IDOCK:   -1.55 KCAL/MOL
REMARK 927      BINDING AFFINITY PREDICTED BY RF-SCORE:    0.00 PKD
ROOT
HETATM    1  C   UNL     1     -10.983   7.381  72.384  1.00  0.00    -0.319 C  
HETATM    2  C   UNL     1     -11.378   6.139  71.596  1.00  0.00    -0.341 C  
ENDROOT
BRANCH   2   3
HETATM    3  C   UNL     1     -11.632   6.497  70.135  1.00  0.00    -0.466 C  
BRANCH   3   4
HETATM    4  C   UNL     1     -10.390   6.293  69.257  1.00  0.00    -0.266 C  
HETATM    5  C   UNL     1     -10.438   7.102  67.939  1.00  0.00    -0.212 C  
HETATM    6  O   UNL     1     -11.560   6.637  67.177  1.00  0.00    -0.749 OA 
HETATM    7  C   UNL     1      -9.165   6.837  67.121  1.00  0.00    -0.145 C  
HETATM    8  C   UNL     1     -10.621   8.612  68.239  1.00  0.00    -0.181 C  
HETATM    9  H   UNL     1     -11.589   7.133  66.368  1.00  0.00     0.000 HD 
BRANCH   8  10
HETATM   10  C   UNL     1     -10.522   9.537  67.059  1.00  0.00    -0.302 C  
HETATM   11  C   UNL     1     -10.687  10.868  67.127  1.00  0.00    -0.320 C  
BRANCH  11  12
HETATM   12  C   UNL     1     -10.599  11.837  65.977  1.00  0.00    -0.302 C  
HETATM   13  C   UNL     1      -9.956  11.169  64.749  1.00  0.00    -0.287 C  
HETATM   14  C   UNL     1     -10.351  12.035  63.568  1.00  0.00    -0.492 C  
HETATM   15  O   UNL     1      -8.539  11.101  64.860  1.00  0.00    -0.373 OA 
HETATM   16  H   UNL     1      -8.142  10.687  64.102  1.00  0.00     0.000 HD 
HETATM   17  C   UNL     1     -11.696  12.539  63.987  1.00  0.00    -0.423 C  
HETATM   18  O   UNL     1     -12.508  12.992  63.188  1.00  0.00    -0.660 OA 
HETATM   19  C   UNL     1     -11.946  12.410  65.477  1.00  0.00    -0.453 C  
BRANCH  19  20
HETATM   20  C   UNL     1     -12.284  13.728  66.181  1.00  0.00    -0.499 C  
BRANCH  20  21
HETATM   21  C   UNL     1     -11.045  14.594  66.417  1.00  0.00    -0.334 C  
BRANCH  21  22
HETATM   22  C   UNL     1     -11.072  15.270  67.783  1.00  0.00    -0.318 C  
BRANCH  22  23
HETATM   23  C   UNL     1     -11.029  14.222  68.898  1.00  0.00    -0.275 C  
BRANCH  23  24
HETATM   24  C   UNL     1     -11.990  14.594  70.022  1.00  0.00    -0.376 C  
BRANCH  24  25
HETATM   25  C   UNL     1     -12.469  13.367  70.793  1.00  0.00    -0.418 C  
BRANCH  25  26
HETATM   26  C   UNL     1     -13.076  13.767  72.117  1.00  0.00    -0.406 C  
HETATM   27  O   UNL     1     -13.918  13.130  72.728  1.00  0.00    -0.657 OA 
BRANCH  26  28
HETATM   28  O   UNL     1     -12.543  14.949  72.533  1.00  0.00    -0.329 OA 
HETATM   29  C   UNL     1     -13.510  15.841  73.086  1.00  0.00    -0.561 C  
ENDBRANCH  26  28
ENDBRANCH  25  26
ENDBRANCH  24  25
ENDBRANCH  23  24
ENDBRANCH  22  23
ENDBRANCH  21  22
ENDBRANCH  20  21
ENDBRANCH  19  20
ENDBRANCH  11  12
ENDBRANCH   8  10
ENDBRANCH   3   4
ENDBRANCH   2   3
TORSDOF 12
ENDMDL
MODEL        8
REMARK 921   NORMALIZED FREE ENERGY PREDICTED BY IDOCK:   -5.79 KCAL/MOL
REMARK 922        TOTAL FREE ENERGY PREDICTED BY IDOCK:  -11.89 KCAL/MOL
REMARK 923 INTER-LIGAND FREE ENERGY PREDICTED BY IDOCK:  -10.68 KCAL/MOL
REMARK 924 INTRA-LIGAND FREE ENERGY PREDICTED BY IDOCK:   -1.22 KCAL/MOL
REMARK 927      BINDING AFFINITY PREDICTED BY RF-SCORE:    0.00 PKD
ROOT
HETATM    1  C   UNL     1      -5.140  18.724  67.682  1.00  0.00    -0.166 C  
HETATM    2  C   UNL     1      -5.127  20.106  67.043  1.00  0.00    -0.159 C  
ENDROOT
BRANCH   2   3
HETATM    3  C   UNL     1      -6.550  20.558  66.732  1.00  0.00    -0.300 C  
BRANCH   3   4
HETATM    4  C   UNL     1      -7.511  20.322  67.905  1.00  0.00    -0.291 C  
HETATM    5  C   UNL     1      -8.874  19.735  67.466  1.00  0.00    -0.326 C  
HETATM    6  O   UNL     1      -9.507  20.690  66.603  1.00  0.00    -0.629 OA 
HETATM    7  C   UNL     1      -9.773  19.536  68.695  1.00  0.00    -0.514 C  
HETATM    8  C   UNL     1      -8.665  18.411  66.688  1.00  0.00    -0.295 C  
HETATM    9  H   UNL     1     -10.344  20.330  66.334  1.00  0.00     0.000 HD 
BRANCH   8  10
HETATM   10  C   UNL     1      -9.911  17.646  66.340  1.00  0.00    -0.315 C  
HETATM   11  C   UNL     1     -10.012  16.307  66.382  1.00  0.00    -0.315 C  
BRANCH  11  12
HETATM   12  C   UNL     1     -11.235  15.494  66.045  1.00  0.00    -0.107 C  
HETATM   13  C   UNL     1     -11.294  15.199  64.536  1.00  0.00    -0.290 C  
HETATM   14  C   UNL     1     -12.242  14.023  64.395  1.00  0.00    -0.457 C  
HETATM   15  O   UNL     1     -11.775  16.314  63.794  1.00  0.00    -1.511 OA 
HETATM   16  H   UNL     1     -11.811  16.132  62.862  1.00  0.00     0.000 HD 
HETATM   17  C   UNL     1     -12.004  13.275  65.668  1.00  0.00    -0.412 C  
HETATM   18  O   UNL     1     -12.309  12.096  65.806  1.00  0.00    -0.564 OA 
HETATM   19  C   UNL     1     -11.335  14.114  66.739  1.00  0.00    -0.353 C  
BRANCH  19  20
HETATM   20  C   UNL     1     -12.119  14.210  68.052  1.00  0.00    -0.303 C  
BRANCH  20  21
HETATM   21  C   UNL     1     -11.407  13.502  69.206  1.00  0.00    -0.317 C  
BRANCH  21  22
HETATM   22  C   UNL     1     -11.993  12.120  69.477  1.00  0.00    -0.338 C  
BRANCH  22  23
HETATM   23  C   UNL     1     -10.927  11.040  69.276  1.00  0.00    -0.305 C  
BRANCH  23  24
HETATM   24  C   UNL     1     -11.093   9.924  70.302  1.00  0.00    -0.368 C  
BRANCH  24  25
HETATM   25  C   UNL     1     -12.136  10.272  71.360  1.00  0.00    -0.457 C  
BRANCH  25  26
HETATM   26  C   UNL     1     -12.610   9.029  72.076  1.00  0.00    -0.394 C  
HETATM   27  O   UNL     1     -11.896   8.255  72.693  1.00  0.00    -0.401 OA 
BRANCH  26  28
HETATM   28  O   UNL     1     -13.957   8.897  71.933  1.00  0.00    -0.407 OA 
HETATM   29  C   UNL     1     -14.389   7.537  71.880  1.00  0.00    -0.381 C  
ENDBRANCH  26  28
ENDBRANCH  25  26
ENDBRANCH  24  25
ENDBRANCH  23  24
ENDBRANCH  22  23
ENDBRANCH  21  22
ENDBRANCH  20  21
ENDBRANCH  19  20
ENDBRANCH  11  12
ENDBRANCH   8  10
ENDBRANCH   3   4
ENDBRANCH   2   3
TORSDOF 12
ENDMDL
MODEL        9
REMARK 921   NORMALIZED FREE ENERGY PREDICTED BY IDOCK:   -5.77 KCAL/MOL
REMARK 922        TOTAL FREE ENERGY PREDICTED BY IDOCK:  -11.86 KCAL/MOL
REMARK 923 INTER-LIGAND FREE ENERGY PREDICTED BY IDOCK:   -9.59 KCAL/MOL
REMARK 924 INTRA-LIGAND FREE ENERGY PREDICTED BY IDOCK:   -2.27 KCAL/MOL
REMARK 927      BINDING AFFINITY PREDICTED BY RF-SCORE:    0.00 PKD
ROOT
HETATM    1  C   UNL     1     -11.032   5.285  72.374  1.00  0.00    -0.273 C  
HETATM    2  C   UNL     1     -10.186   6.047  71.362  1.00  0.00    -0.253 C  
ENDROOT
BRANCH   2   3
HETATM    3  C   UNL     1     -10.918   6.143  70.027  1.00  0.00    -0.441 C  
BRANCH   3   4
HETATM    4  C   UNL     1      -9.975   5.977  68.828  1.00  0.00    -0.186 C  
HETATM    5  C   UNL     1     -10.347   6.883  67.630  1.00  0.00    -0.205 C  
HETATM    6  O   UNL     1     -11.655   6.502  67.180  1.00  0.00    -0.743 OA 
HETATM    7  C   UNL     1      -9.361   6.651  66.477  1.00  0.00    -0.191 C  
HETATM    8  C   UNL     1     -10.376   8.370  68.068  1.00  0.00    -0.270 C  
HETATM    9  H   UNL     1     -11.883   7.058  66.445  1.00  0.00     0.000 HD 
BRANCH   8  10
HETATM   10  C   UNL     1     -10.566   9.378  66.970  1.00  0.00    -0.272 C  
HETATM   11  C   UNL     1      -9.780  10.452  66.786  1.00  0.00    -0.224 C  
BRANCH  11  12
HETATM   12  C   UNL     1      -9.927  11.490  65.704  1.00  0.00    -0.275 C  
HETATM   13  C   UNL     1      -9.682  10.869  64.318  1.00  0.00    -0.294 C  
HETATM   14  C   UNL     1     -10.310  11.834  63.330  1.00  0.00    -0.481 C  
HETATM   15  O   UNL     1      -8.295  10.712  64.041  1.00  0.00    -0.303 OA 
HETATM   16  H   UNL     1      -8.144  10.328  63.185  1.00  0.00     0.000 HD 
HETATM   17  C   UNL     1     -11.456  12.386  64.118  1.00  0.00    -0.381 C  
HETATM   18  O   UNL     1     -12.414  12.938  63.589  1.00  0.00    -0.652 OA 
HETATM   19  C   UNL     1     -11.313  12.171  65.612  1.00  0.00    -0.395 C  
BRANCH  19  20
HETATM   20  C   UNL     1     -11.355  13.457  66.445  1.00  0.00    -0.338 C  
BRANCH  20  21
HETATM   21  C   UNL     1     -12.154  13.284  67.738  1.00  0.00    -0.281 C  
BRANCH  21  22
HETATM   22  C   UNL     1     -11.269  13.379  68.975  1.00  0.00    -0.323 C  
BRANCH  22  23
HETATM   23  C   UNL     1     -11.917  12.646  70.153  1.00  0.00    -0.375 C  
BRANCH  23  24
HETATM   24  C   UNL     1     -11.994  11.149  69.876  1.00  0.00    -0.439 C  
BRANCH  24  25
HETATM   25  C   UNL     1     -12.827  10.417  70.924  1.00  0.00    -0.482 C  
BRANCH  25  26
HETATM   26  C   UNL     1     -11.996   9.381  71.644  1.00  0.00    -0.393 C  
HETATM   27  O   UNL     1     -10.777   9.364  71.691  1.00  0.00    -0.356 OA 
BRANCH  26  28
HETATM   28  O   UNL     1     -12.809   8.466  72.239  1.00  0.00    -0.342 OA 
HETATM   29  C   UNL     1     -14.133   8.454  71.705  1.00  0.00    -0.419 C  
ENDBRANCH  26  28
ENDBRANCH  25  26
ENDBRANCH  24  25
ENDBRANCH  23  24
ENDBRANCH  22  23
ENDBRANCH  21  22
ENDBRANCH  20  21
ENDBRANCH  19  20
ENDBRANCH  11  12
ENDBRANCH   8  10
ENDBRANCH   3   4
ENDBRANCH   2   3
TORSDOF 12
ENDMDL
MODEL       10
REMARK 921   NORMALIZED FREE ENERGY PREDICTED BY IDOCK:   -5.74 KCAL/MOL
REMARK 922        TOTAL FREE ENERGY PREDICTED BY IDOCK:  -11.81 KCAL/MOL
REMARK 923 INTER-LIGAND FREE ENERGY PREDICTED BY IDOCK:  -10.02 KCAL/MOL
REMARK 924 INTRA-LIGAND FREE ENERGY PREDICTED BY IDOCK:   -1.79 KCAL/MOL
REMARK 927      BINDING AFFINITY PREDICTED BY RF-SCORE:    0.00 PKD
ROOT
HETATM    1  C   UNL     1     -14.373  15.018  71.729  1.00  0.00    -0.674 C  
HETATM    2  C   UNL     1     -13.076  14.583  72.398  1.00  0.00    -0.487 C  
ENDROOT
BRANCH   2   3
HETATM    3  C   UNL     1     -11.915  14.679  71.415  1.00  0.00    -0.405 C  
BRANCH   3   4
HETATM    4  C   UNL     1     -12.355  14.452  69.962  1.00  0.00    -0.391 C  
HETATM    5  C   UNL     1     -11.667  13.233  69.302  1.00  0.00    -0.326 C  
HETATM    6  O   UNL     1     -10.256  13.489  69.267  1.00  0.00    -0.428 OA 
HETATM    7  C   UNL     1     -12.158  13.081  67.855  1.00  0.00    -0.234 C  
HETATM    8  C   UNL     1     -11.928  11.951  70.133  1.00  0.00    -0.413 C  
HETATM    9  H   UNL     1      -9.834  12.742  68.862  1.00  0.00     0.000 HD 
BRANCH   8  10
HETATM   10  C   UNL     1     -11.454  10.661  69.524  1.00  0.00    -0.360 C  
HETATM   11  C   UNL     1     -10.866   9.671  70.214  1.00  0.00    -0.339 C  
BRANCH  11  12
HETATM   12  C   UNL     1     -10.375   8.362  69.653  1.00  0.00    -0.218 C  
HETATM   13  C   UNL     1     -11.275   7.201  70.109  1.00  0.00    -0.262 C  
HETATM   14  C   UNL     1     -10.995   6.071  69.137  1.00  0.00    -0.429 C  
HETATM   15  O   UNL     1     -10.982   6.791  71.440  1.00  0.00    -0.232 OA 
HETATM   16  H   UNL     1     -11.539   6.075  71.723  1.00  0.00     0.000 HD 
HETATM   17  C   UNL     1     -10.688   6.813  67.875  1.00  0.00    -0.256 C  
HETATM   18  O   UNL     1     -10.741   6.285  66.771  1.00  0.00    -0.290 OA 
HETATM   19  C   UNL     1     -10.332   8.268  68.109  1.00  0.00    -0.253 C  
BRANCH  19  20
HETATM   20  C   UNL     1      -8.960   8.682  67.566  1.00  0.00    -0.143 C  
BRANCH  20  21
HETATM   21  C   UNL     1      -9.041   9.229  66.140  1.00  0.00    -0.224 C  
BRANCH  21  22
HETATM   22  C   UNL     1      -8.644  10.700  66.069  1.00  0.00    -0.177 C  
BRANCH  22  23
HETATM   23  C   UNL     1      -9.855  11.562  65.705  1.00  0.00    -0.269 C  
BRANCH  23  24
HETATM   24  C   UNL     1     -10.527  11.038  64.441  1.00  0.00    -0.422 C  
BRANCH  24  25
HETATM   25  C   UNL     1     -10.920  12.168  63.492  1.00  0.00    -0.521 C  
BRANCH  25  26
HETATM   26  C   UNL     1     -12.372  12.542  63.675  1.00  0.00    -0.522 C  
HETATM   27  O   UNL     1     -13.254  11.784  64.047  1.00  0.00    -0.527 OA 
BRANCH  26  28
HETATM   28  O   UNL     1     -12.555  13.854  63.365  1.00  0.00    -0.853 OA 
HETATM   29  C   UNL     1     -12.328  14.732  64.467  1.00  0.00    -0.366 C  
ENDBRANCH  26  28
ENDBRANCH  25  26
ENDBRANCH  24  25
ENDBRANCH  23  24
ENDBRANCH  22  23
ENDBRANCH  21  22
ENDBRANCH  20  21
ENDBRANCH  19  20
ENDBRANCH  11  12
ENDBRANCH   8  10
ENDBRANCH   3   4
ENDBRANCH   2   3
TORSDOF 12
ENDMDL
MODEL       11
REMARK 921   NORMALIZED FREE ENERGY PREDICTED BY IDOCK:   -5.72 KCAL/MOL
REMARK 922        TOTAL FREE ENERGY PREDICTED BY IDOCK:  -11.76 KCAL/MOL
REMARK 923 INTER-LIGAND FREE ENERGY PREDICTED BY IDOCK:  -10.09 KCAL/MOL
REMARK 924 INTRA-LIGAND FREE ENERGY PREDICTED BY IDOCK:   -1.67 KCAL/MOL
REMARK 927      BINDING AFFINITY PREDICTED BY RF-SCORE:    0.00 PKD
ROOT
HETATM    1  C   UNL     1     -12.489  15.784  74.565  1.00  0.00    -0.755 C  
HETATM    2  C   UNL     1     -12.152  16.781  73.466  1.00  0.00    -0.269 C  
ENDROOT
BRANCH   2   3
HETATM    3  C   UNL     1     -11.880  16.052  72.154  1.00  0.00    -0.623 C  
BRANCH   3   4
HETATM    4  C   UNL     1     -12.065  14.533  72.278  1.00  0.00    -0.222 C  
HETATM    5  C   UNL     1     -12.612  13.880  70.986  1.00  0.00    -0.371 C  
HETATM    6  O   UNL     1     -13.910  14.432  70.729  1.00  0.00    -0.388 OA 
HETATM    7  C   UNL     1     -12.772  12.367  71.197  1.00  0.00    -0.336 C  
HETATM    8  C   UNL     1     -11.682  14.196  69.787  1.00  0.00    -0.370 C  
HETATM    9  H   UNL     1     -14.246  14.031  69.936  1.00  0.00     0.000 HD 
BRANCH   8  10
HETATM   10  C   UNL     1     -12.002  13.491  68.499  1.00  0.00    -0.379 C  
HETATM   11  C   UNL     1     -11.224  13.527  67.405  1.00  0.00    -0.317 C  
BRANCH  11  12
HETATM   12  C   UNL     1     -11.500  12.840  66.092  1.00  0.00    -0.399 C  
HETATM   13  C   UNL     1     -12.010  13.846  65.046  1.00  0.00    -0.390 C  
HETATM   14  C   UNL     1     -11.791  13.174  63.704  1.00  0.00    -0.549 C  
HETATM   15  O   UNL     1     -13.388  14.150  65.228  1.00  0.00    -0.715 OA 
HETATM   16  H   UNL     1     -13.704  14.772  64.583  1.00  0.00     0.000 HD 
HETATM   17  C   UNL     1     -10.563  12.359  63.960  1.00  0.00    -0.413 C  
HETATM   18  O   UNL     1      -9.855  11.933  63.054  1.00  0.00    -0.385 OA 
HETATM   19  C   UNL     1     -10.286  12.141  65.434  1.00  0.00    -0.301 C  
BRANCH  19  20
HETATM   20  C   UNL     1     -10.200  10.669  65.853  1.00  0.00    -0.314 C  
BRANCH  20  21
HETATM   21  C   UNL     1      -9.030  10.404  66.802  1.00  0.00    -0.153 C  
BRANCH  21  22
HETATM   22  C   UNL     1      -9.413  10.635  68.260  1.00  0.00    -0.161 C  
BRANCH  22  23
HETATM   23  C   UNL     1     -10.779  10.013  68.557  1.00  0.00    -0.264 C  
BRANCH  23  24
HETATM   24  C   UNL     1     -10.670   8.985  69.678  1.00  0.00    -0.228 C  
BRANCH  24  25
HETATM   25  C   UNL     1     -10.816   9.624  71.056  1.00  0.00    -0.412 C  
BRANCH  25  26
HETATM   26  C   UNL     1     -10.756   8.578  72.143  1.00  0.00    -0.356 C  
HETATM   27  O   UNL     1      -9.745   8.234  72.735  1.00  0.00    -0.269 OA 
BRANCH  26  28
HETATM   28  O   UNL     1     -11.999   8.072  72.370  1.00  0.00    -0.345 OA 
HETATM   29  C   UNL     1     -13.017   9.071  72.407  1.00  0.00    -0.405 C  
ENDBRANCH  26  28
ENDBRANCH  25  26
ENDBRANCH  24  25
ENDBRANCH  23  24
ENDBRANCH  22  23
ENDBRANCH  21  22
ENDBRANCH  20  21
ENDBRANCH  19  20
ENDBRANCH  11  12
ENDBRANCH   8  10
ENDBRANCH   3   4
ENDBRANCH   2   3
TORSDOF 12
ENDMDL
MODEL       12
REMARK 921   NORMALIZED FREE ENERGY PREDICTED BY IDOCK:   -5.71 KCAL/MOL
REMARK 922        TOTAL FREE ENERGY PREDICTED BY IDOCK:  -11.75 KCAL/MOL
REMARK 923 INTER-LIGAND FREE ENERGY PREDICTED BY IDOCK:   -9.60 KCAL/MOL
REMARK 924 INTRA-LIGAND FREE ENERGY PREDICTED BY IDOCK:   -2.15 KCAL/MOL
REMARK 927      BINDING AFFINITY PREDICTED BY RF-SCORE:    0.00 PKD
ROOT
HETATM    1  C   UNL     1      -9.297  20.518  67.141  1.00  0.00    -0.513 C  
HETATM    2  C   UNL     1      -9.051  19.632  68.355  1.00  0.00    -0.386 C  
ENDROOT
BRANCH   2   3
HETATM    3  C   UNL     1      -9.938  18.393  68.294  1.00  0.00    -0.394 C  
BRANCH   3   4
HETATM    4  C   UNL     1     -10.657  18.251  66.946  1.00  0.00    -0.356 C  
HETATM    5  C   UNL     1     -10.260  16.969  66.176  1.00  0.00    -0.337 C  
HETATM    6  O   UNL     1      -8.858  17.046  65.886  1.00  0.00    -0.518 OA 
HETATM    7  C   UNL     1     -11.019  16.908  64.843  1.00  0.00    -0.011 C  
HETATM    8  C   UNL     1     -10.528  15.713  67.045  1.00  0.00    -0.303 C  
HETATM    9  H   UNL     1      -8.614  16.260  65.414  1.00  0.00     0.000 HD 
BRANCH   8  10
HETATM   10  C   UNL     1     -10.340  14.387  66.365  1.00  0.00    -0.289 C  
HETATM   11  C   UNL     1     -11.345  13.560  66.031  1.00  0.00    -0.327 C  
BRANCH  11  12
HETATM   12  C   UNL     1     -11.210  12.223  65.349  1.00  0.00    -0.372 C  
HETATM   13  C   UNL     1     -10.771  12.400  63.885  1.00  0.00    -0.426 C  
HETATM   14  C   UNL     1     -10.217  11.051  63.468  1.00  0.00    -0.424 C  
HETATM   15  O   UNL     1     -11.857  12.770  63.044  1.00  0.00    -0.780 OA 
HETATM   16  H   UNL     1     -11.586  12.880  62.140  1.00  0.00     0.000 HD 
HETATM   17  C   UNL     1      -9.641  10.539  64.750  1.00  0.00    -0.285 C  
HETATM   18  O   UNL     1      -8.805   9.643  64.785  1.00  0.00    -0.180 OA 
HETATM   19  C   UNL     1     -10.180  11.252  65.974  1.00  0.00    -0.295 C  
BRANCH  19  20
HETATM   20  C   UNL     1     -10.842  10.332  67.006  1.00  0.00    -0.248 C  
BRANCH  20  21
HETATM   21  C   UNL     1     -10.657  10.838  68.437  1.00  0.00    -0.228 C  
BRANCH  21  22
HETATM   22  C   UNL     1     -11.975  10.885  69.202  1.00  0.00    -0.359 C  
BRANCH  22  23
HETATM   23  C   UNL     1     -11.931  11.977  70.274  1.00  0.00    -0.398 C  
BRANCH  23  24
HETATM   24  C   UNL     1     -11.455  13.297  69.677  1.00  0.00    -0.267 C  
BRANCH  24  25
HETATM   25  C   UNL     1     -12.484  14.409  69.857  1.00  0.00    -0.311 C  
BRANCH  25  26
HETATM   26  C   UNL     1     -12.083  15.336  70.980  1.00  0.00    -0.342 C  
HETATM   27  O   UNL     1     -11.386  16.331  70.859  1.00  0.00    -0.389 OA 
BRANCH  26  28
HETATM   28  O   UNL     1     -12.615  14.900  72.155  1.00  0.00    -0.306 OA 
HETATM   29  C   UNL     1     -13.920  15.420  72.411  1.00  0.00    -0.560 C  
ENDBRANCH  26  28
ENDBRANCH  25  26
ENDBRANCH  24  25
ENDBRANCH  23  24
ENDBRANCH  22  23
ENDBRANCH  21  22
ENDBRANCH  20  21
ENDBRANCH  19  20
ENDBRANCH  11  12
ENDBRANCH   8  10
ENDBRANCH   3   4
ENDBRANCH   2   3
TORSDOF 12
ENDMDL
MODEL       13
REMARK 921   NORMALIZED FREE ENERGY PREDICTED BY IDOCK:   -5.69 KCAL/MOL
REMARK 922        TOTAL FREE ENERGY PREDICTED BY IDOCK:  -11.72 KCAL/MOL
REMARK 923 INTER-LIGAND FREE ENERGY PREDICTED BY IDOCK:  -10.01 KCAL/MOL
REMARK 924 INTRA-LIGAND FREE ENERGY PREDICTED BY IDOCK:   -1.72 KCAL/MOL
REMARK 927      BINDING AFFINITY PREDICTED BY RF-SCORE:    0.00 PKD
ROOT
HETATM    1  C   UNL     1      -9.440   5.401  72.012  1.00  0.00    -0.172 C  
HETATM    2  C   UNL     1     -10.939   5.478  71.757  1.00  0.00    -0.249 C  
ENDROOT
BRANCH   2   3
HETATM    3  C   UNL     1     -11.258   6.643  70.826  1.00  0.00    -0.366 C  
BRANCH   3   4
HETATM    4  C   UNL     1     -10.054   7.569  70.610  1.00  0.00    -0.187 C  
HETATM    5  C   UNL     1     -10.432   8.914  69.944  1.00  0.00    -0.214 C  
HETATM    6  O   UNL     1     -10.967   8.626  68.645  1.00  0.00    -0.440 OA 
HETATM    7  C   UNL     1      -9.174   9.774  69.761  1.00  0.00    -0.248 C  
HETATM    8  C   UNL     1     -11.510   9.647  70.784  1.00  0.00    -0.399 C  
HETATM    9  H   UNL     1     -11.199   9.452  68.236  1.00  0.00     0.000 HD 
BRANCH   8  10
HETATM   10  C   UNL     1     -11.856  11.041  70.342  1.00  0.00    -0.460 C  
HETATM   11  C   UNL     1     -12.443  11.958  71.128  1.00  0.00    -0.365 C  
BRANCH  11  12
HETATM   12  C   UNL     1     -12.809  13.366  70.735  1.00  0.00    -0.221 C  
HETATM   13  C   UNL     1     -13.047  14.236  71.981  1.00  0.00    -0.372 C  
HETATM   14  C   UNL     1     -12.927  15.669  71.499  1.00  0.00    -0.549 C  
HETATM   15  O   UNL     1     -14.333  14.011  72.550  1.00  0.00    -0.626 OA 
HETATM   16  H   UNL     1     -14.480  14.548  73.320  1.00  0.00     0.000 HD 
HETATM   17  C   UNL     1     -11.917  15.545  70.403  1.00  0.00    -0.367 C  
HETATM   18  O   UNL     1     -11.283  16.506  69.980  1.00  0.00    -0.314 OA 
HETATM   19  C   UNL     1     -11.752  14.125  69.899  1.00  0.00    -0.372 C  
BRANCH  19  20
HETATM   20  C   UNL     1     -12.004  13.951  68.397  1.00  0.00    -0.391 C  
BRANCH  20  21
HETATM   21  C   UNL     1     -10.864  13.206  67.700  1.00  0.00    -0.269 C  
BRANCH  21  22
HETATM   22  C   UNL     1      -9.874  14.162  67.042  1.00  0.00    -0.258 C  
BRANCH  22  23
HETATM   23  C   UNL     1     -10.620  15.289  66.322  1.00  0.00    -0.312 C  
BRANCH  23  24
HETATM   24  C   UNL     1     -10.771  14.972  64.839  1.00  0.00    -0.420 C  
BRANCH  24  25
HETATM   25  C   UNL     1     -12.191  14.530  64.492  1.00  0.00    -0.483 C  
BRANCH  25  26
HETATM   26  C   UNL     1     -12.250  13.038  64.271  1.00  0.00    -0.396 C  
HETATM   27  O   UNL     1     -13.211  12.326  64.518  1.00  0.00    -0.799 OA 
BRANCH  26  28
HETATM   28  O   UNL     1     -11.071  12.598  63.751  1.00  0.00    -0.402 OA 
HETATM   29  C   UNL     1     -10.625  11.369  64.324  1.00  0.00    -0.355 C  
ENDBRANCH  26  28
ENDBRANCH  25  26
ENDBRANCH  24  25
ENDBRANCH  23  24
ENDBRANCH  22  23
ENDBRANCH  21  22
ENDBRANCH  20  21
ENDBRANCH  19  20
ENDBRANCH  11  12
ENDBRANCH   8  10
ENDBRANCH   3   4
ENDBRANCH   2   3
TORSDOF 12
ENDMDL
MODEL       14
REMARK 921   NORMALIZED FREE ENERGY PREDICTED BY IDOCK:   -5.68 KCAL/MOL
REMARK 922        TOTAL FREE ENERGY PREDICTED BY IDOCK:  -11.71 KCAL/MOL
REMARK 923 INTER-LIGAND FREE ENERGY PREDICTED BY IDOCK:  -10.06 KCAL/MOL
REMARK 924 INTRA-LIGAND FREE ENERGY PREDICTED BY IDOCK:   -1.65 KCAL/MOL
REMARK 927      BINDING AFFINITY PREDICTED BY RF-SCORE:    0.00 PKD
ROOT
HETATM    1  C   UNL     1     -10.043   6.510  74.261  1.00  0.00    -0.379 C  
HETATM    2  C   UNL     1     -10.892   5.345  73.772  1.00  0.00    -0.282 C  
ENDROOT
BRANCH   2   3
HETATM    3  C   UNL     1     -11.548   5.691  72.439  1.00  0.00    -0.281 C  
BRANCH   3   4
HETATM    4  C   UNL     1     -10.589   6.415  71.484  1.00  0.00    -0.273 C  
HETATM    5  C   UNL     1     -11.272   7.547  70.679  1.00  0.00    -0.268 C  
HETATM    6  O   UNL     1     -12.293   6.953  69.865  1.00  0.00    -0.535 OA 
HETATM    7  C   UNL     1     -10.248   8.212  69.748  1.00  0.00    -0.203 C  
HETATM    8  C   UNL     1     -11.924   8.573  71.640  1.00  0.00    -0.372 C  
HETATM    9  H   UNL     1     -12.712   7.648  69.371  1.00  0.00     0.000 HD 
BRANCH   8  10
HETATM   10  C   UNL     1     -12.485   9.812  71.001  1.00  0.00    -0.414 C  
HETATM   11  C   UNL     1     -12.092  11.061  71.301  1.00  0.00    -0.280 C  
BRANCH  11  12
HETATM   12  C   UNL     1     -12.621  12.333  70.690  1.00  0.00    -0.241 C  
HETATM   13  C   UNL     1     -12.876  13.393  71.775  1.00  0.00    -0.289 C  
HETATM   14  C   UNL     1     -12.929  14.717  71.037  1.00  0.00    -0.423 C  
HETATM   15  O   UNL     1     -14.099  13.164  72.467  1.00  0.00    -0.672 OA 
HETATM   16  H   UNL     1     -14.257  13.818  73.138  1.00  0.00     0.000 HD 
HETATM   17  C   UNL     1     -11.974  14.485  69.910  1.00  0.00    -0.328 C  
HETATM   18  O   UNL     1     -11.466  15.403  69.277  1.00  0.00    -0.288 OA 
HETATM   19  C   UNL     1     -11.694  13.016  69.657  1.00  0.00    -0.364 C  
BRANCH  19  20
HETATM   20  C   UNL     1     -12.010  12.545  68.233  1.00  0.00    -0.274 C  
BRANCH  20  21
HETATM   21  C   UNL     1     -10.964  11.564  67.701  1.00  0.00    -0.296 C  
BRANCH  21  22
HETATM   22  C   UNL     1     -10.450  11.967  66.323  1.00  0.00    -0.273 C  
BRANCH  22  23
HETATM   23  C   UNL     1     -11.622  12.233  65.374  1.00  0.00    -0.412 C  
BRANCH  23  24
HETATM   24  C   UNL     1     -11.398  13.523  64.593  1.00  0.00    -0.375 C  
BRANCH  24  25
HETATM   25  C   UNL     1     -10.725  14.596  65.443  1.00  0.00    -0.382 C  
BRANCH  25  26
HETATM   26  C   UNL     1     -10.849  15.954  64.792  1.00  0.00    -0.324 C  
HETATM   27  O   UNL     1     -11.593  16.225  63.863  1.00  0.00    -0.987 OA 
BRANCH  26  28
HETATM   28  O   UNL     1     -10.009  16.837  65.397  1.00  0.00    -0.572 OA 
HETATM   29  C   UNL     1      -9.313  16.281  66.513  1.00  0.00    -0.271 C  
ENDBRANCH  26  28
ENDBRANCH  25  26
ENDBRANCH  24  25
ENDBRANCH  23  24
ENDBRANCH  22  23
ENDBRANCH  21  22
ENDBRANCH  20  21
ENDBRANCH  19  20
ENDBRANCH  11  12
ENDBRANCH   8  10
ENDBRANCH   3   4
ENDBRANCH   2   3
TORSDOF 12
ENDMDL
MODEL       15
REMARK 921   NORMALIZED FREE ENERGY PREDICTED BY IDOCK:   -5.63 KCAL/MOL
REMARK 922        TOTAL FREE ENERGY PREDICTED BY IDOCK:  -11.61 KCAL/MOL
REMARK 923 INTER-LIGAND FREE ENERGY PREDICTED BY IDOCK:   -9.80 KCAL/MOL
REMARK 924 INTRA-LIGAND FREE ENERGY PREDICTED BY IDOCK:   -1.81 KCAL/MOL
REMARK 927      BINDING AFFINITY PREDICTED BY RF-SCORE:    0.00 PKD
ROOT
HETATM    1  C   UNL     1     -11.916   6.660  71.498  1.00  0.00    -0.402 C  
HETATM    2  C   UNL     1     -13.103   7.608  71.591  1.00  0.00    -0.392 C  
ENDROOT
BRANCH   2   3
HETATM    3  C   UNL     1     -12.628   9.057  71.559  1.00  0.00    -0.400 C  
BRANCH   3   4
HETATM    4  C   UNL     1     -11.110   9.172  71.359  1.00  0.00    -0.415 C  
HETATM    5  C   UNL     1     -10.722   9.764  69.983  1.00  0.00    -0.283 C  
HETATM    6  O   UNL     1     -11.202   8.871  68.968  1.00  0.00    -0.434 OA 
HETATM    7  C   UNL     1      -9.192   9.839  69.864  1.00  0.00    -0.263 C  
HETATM    8  C   UNL     1     -11.380  11.153  69.787  1.00  0.00    -0.354 C  
HETATM    9  H   UNL     1     -10.964   9.233  68.124  1.00  0.00     0.000 HD 
BRANCH   8  10
HETATM   10  C   UNL     1     -10.960  11.917  68.563  1.00  0.00    -0.277 C  
HETATM   11  C   UNL     1     -11.659  11.948  67.416  1.00  0.00    -0.367 C  
BRANCH  11  12
HETATM   12  C   UNL     1     -11.283  12.696  66.163  1.00  0.00    -0.350 C  
HETATM   13  C   UNL     1     -11.627  11.871  64.912  1.00  0.00    -0.226 C  
HETATM   14  C   UNL     1     -11.664  12.870  63.771  1.00  0.00    -0.557 C  
HETATM   15  O   UNL     1     -10.657  10.862  64.654  1.00  0.00    -0.334 OA 
HETATM   16  H   UNL     1     -10.870  10.352  63.881  1.00  0.00     0.000 HD 
HETATM   17  C   UNL     1     -12.145  14.109  64.456  1.00  0.00    -0.468 C  
HETATM   18  O   UNL     1     -12.636  15.051  63.845  1.00  0.00    -0.813 OA 
HETATM   19  C   UNL     1     -11.982  14.061  65.963  1.00  0.00    -0.434 C  
BRANCH  19  20
HETATM   20  C   UNL     1     -11.144  15.204  66.547  1.00  0.00    -0.305 C  
BRANCH  20  21
HETATM   21  C   UNL     1     -11.513  15.509  68.000  1.00  0.00    -0.313 C  
BRANCH  21  22
HETATM   22  C   UNL     1     -10.284  15.568  68.902  1.00  0.00    -0.210 C  
BRANCH  22  23
HETATM   23  C   UNL     1      -9.006  15.590  68.060  1.00  0.00    -0.174 C  
BRANCH  23  24
HETATM   24  C   UNL     1      -8.064  16.688  68.542  1.00  0.00    -0.226 C  
BRANCH  24  25
HETATM   25  C   UNL     1      -8.659  18.079  68.342  1.00  0.00    -0.298 C  
BRANCH  25  26
HETATM   26  C   UNL     1      -8.558  18.504  66.896  1.00  0.00    -0.278 C  
HETATM   27  O   UNL     1      -7.858  17.969  66.051  1.00  0.00    -0.450 OA 
BRANCH  26  28
HETATM   28  O   UNL     1      -9.368  19.574  66.669  1.00  0.00    -0.320 OA 
HETATM   29  C   UNL     1     -10.614  19.223  66.067  1.00  0.00    -0.461 C  
ENDBRANCH  26  28
ENDBRANCH  25  26
ENDBRANCH  24  25
ENDBRANCH  23  24
ENDBRANCH  22  23
ENDBRANCH  21  22
ENDBRANCH  20  21
ENDBRANCH  19  20
ENDBRANCH  11  12
ENDBRANCH   8  10
ENDBRANCH   3   4
ENDBRANCH   2   3
TORSDOF 12
ENDMDL
MODEL       16
REMARK 921   NORMALIZED FREE ENERGY PREDICTED BY IDOCK:   -5.61 KCAL/MOL
REMARK 922        TOTAL FREE ENERGY PREDICTED BY IDOCK:  -11.58 KCAL/MOL
REMARK 923 INTER-LIGAND FREE ENERGY PREDICTED BY IDOCK:   -9.99 KCAL/MOL
REMARK 924 INTRA-LIGAND FREE ENERGY PREDICTED BY IDOCK:   -1.60 KCAL/MOL
REMARK 927      BINDING AFFINITY PREDICTED BY RF-SCORE:    0.00 PKD
ROOT
HETATM    1  C   UNL     1     -11.707   6.510  72.302  1.00  0.00    -0.320 C  
HETATM    2  C   UNL     1     -11.000   5.843  71.130  1.00  0.00    -0.327 C  
ENDROOT
BRANCH   2   3
HETATM    3  C   UNL     1     -11.198   6.660  69.858  1.00  0.00    -0.421 C  
BRANCH   3   4
HETATM    4  C   UNL     1      -9.999   7.567  69.550  1.00  0.00    -0.180 C  
HETATM    5  C   UNL     1     -10.411   8.999  69.131  1.00  0.00    -0.219 C  
HETATM    6  O   UNL     1     -11.171   8.901  67.919  1.00  0.00    -0.450 OA 
HETATM    7  C   UNL     1      -9.156   9.835  68.838  1.00  0.00    -0.148 C  
HETATM    8  C   UNL     1     -11.289   9.650  70.229  1.00  0.00    -0.311 C  
HETATM    9  H   UNL     1     -11.424   9.779  67.662  1.00  0.00     0.000 HD 
BRANCH   8  10
HETATM   10  C   UNL     1     -11.629  11.100  70.029  1.00  0.00    -0.421 C  
HETATM   11  C   UNL     1     -12.396  11.819  70.866  1.00  0.00    -0.420 C  
BRANCH  11  12
HETATM   12  C   UNL     1     -12.765  13.272  70.711  1.00  0.00    -0.284 C  
HETATM   13  C   UNL     1     -12.796  13.974  72.079  1.00  0.00    -0.326 C  
HETATM   14  C   UNL     1     -12.695  15.456  71.771  1.00  0.00    -0.467 C  
HETATM   15  O   UNL     1     -13.996  13.699  72.793  1.00  0.00    -0.725 OA 
HETATM   16  H   UNL     1     -14.015  14.132  73.638  1.00  0.00     0.000 HD 
HETATM   17  C   UNL     1     -11.853  15.461  70.534  1.00  0.00    -0.339 C  
HETATM   18  O   UNL     1     -11.252  16.458  70.151  1.00  0.00    -0.354 OA 
HETATM   19  C   UNL     1     -11.810  14.117  69.835  1.00  0.00    -0.387 C  
BRANCH  19  20
HETATM   20  C   UNL     1     -12.275  14.144  68.375  1.00  0.00    -0.200 C  
BRANCH  20  21
HETATM   21  C   UNL     1     -11.349  13.347  67.456  1.00  0.00    -0.327 C  
BRANCH  21  22
HETATM   22  C   UNL     1      -9.885  13.484  67.861  1.00  0.00    -0.235 C  
BRANCH  22  23
HETATM   23  C   UNL     1      -9.073  14.107  66.722  1.00  0.00    -0.266 C  
BRANCH  23  24
HETATM   24  C   UNL     1      -9.957  14.998  65.857  1.00  0.00    -0.353 C  
BRANCH  24  25
HETATM   25  C   UNL     1      -9.990  16.437  66.366  1.00  0.00    -0.318 C  
BRANCH  25  26
HETATM   26  C   UNL     1     -10.673  17.343  65.369  1.00  0.00    -0.035 C  
HETATM   27  O   UNL     1     -11.306  16.970  64.394  1.00  0.00    -1.140 OA 
BRANCH  26  28
HETATM   28  O   UNL     1     -10.481  18.645  65.718  1.00  0.00    -0.586 OA 
HETATM   29  C   UNL     1     -10.781  18.913  67.088  1.00  0.00    -0.432 C  
ENDBRANCH  26  28
ENDBRANCH  25  26
ENDBRANCH  24  25
ENDBRANCH  23  24
ENDBRANCH  22  23
ENDBRANCH  21  22
ENDBRANCH  20  21
ENDBRANCH  19  20
ENDBRANCH  11  12
ENDBRANCH   8  10
ENDBRANCH   3   4
ENDBRANCH   2   3
TORSDOF 12
ENDMDL
MODEL       17
REMARK 921   NORMALIZED FREE ENERGY PREDICTED BY IDOCK:   -5.59 KCAL/MOL
REMARK 922        TOTAL FREE ENERGY PREDICTED BY IDOCK:  -11.55 KCAL/MOL
REMARK 923 INTER-LIGAND FREE ENERGY PREDICTED BY IDOCK:   -9.78 KCAL/MOL
REMARK 924 INTRA-LIGAND FREE ENERGY PREDICTED BY IDOCK:   -1.76 KCAL/MOL
REMARK 927      BINDING AFFINITY PREDICTED BY RF-SCORE:    0.00 PKD
ROOT
HETATM    1  C   UNL     1     -11.773  12.480  63.565  1.00  0.00    -0.595 C  
HETATM    2  C   UNL     1     -10.495  11.665  63.416  1.00  0.00    -0.482 C  
ENDROOT
BRANCH   2   3
HETATM    3  C   UNL     1     -10.288  10.778  64.639  1.00  0.00    -0.394 C  
BRANCH   3   4
HETATM    4  C   UNL     1      -9.745  11.558  65.844  1.00  0.00    -0.260 C  
HETATM    5  C   UNL     1     -10.266  11.022  67.199  1.00  0.00    -0.206 C  
HETATM    6  O   UNL     1     -11.692  11.181  67.216  1.00  0.00    -0.540 OA 
HETATM    7  C   UNL     1      -9.681  11.859  68.347  1.00  0.00    -0.201 C  
HETATM    8  C   UNL     1      -9.923   9.519  67.353  1.00  0.00    -0.241 C  
HETATM    9  H   UNL     1     -12.012  10.853  68.048  1.00  0.00     0.000 HD 
BRANCH   8  10
HETATM   10  C   UNL     1     -10.227   8.906  68.691  1.00  0.00    -0.221 C  
HETATM   11  C   UNL     1     -10.902   7.757  68.860  1.00  0.00    -0.022 C  
BRANCH  11  12
HETATM   12  C   UNL     1     -11.231   7.101  70.176  1.00  0.00    -0.295 C  
HETATM   13  C   UNL     1     -10.144   6.086  70.566  1.00  0.00    -0.191 C  
HETATM   14  C   UNL     1     -10.317   5.867  72.057  1.00  0.00    -0.250 C  
HETATM   15  O   UNL     1     -10.287   4.856  69.866  1.00  0.00    -0.265 OA 
HETATM   16  H   UNL     1      -9.615   4.228  70.106  1.00  0.00     0.000 HD 
HETATM   17  C   UNL     1     -10.810   7.203  72.514  1.00  0.00    -0.264 C  
HETATM   18  O   UNL     1     -10.751   7.562  73.685  1.00  0.00    -0.343 OA 
HETATM   19  C   UNL     1     -11.358   8.056  71.387  1.00  0.00    -0.292 C  
BRANCH  19  20
HETATM   20  C   UNL     1     -12.809   8.512  71.583  1.00  0.00    -0.366 C  
BRANCH  20  21
HETATM   21  C   UNL     1     -12.910  10.007  71.887  1.00  0.00    -0.524 C  
BRANCH  21  22
HETATM   22  C   UNL     1     -12.150  10.850  70.869  1.00  0.00    -0.455 C  
BRANCH  22  23
HETATM   23  C   UNL     1     -12.654  12.295  70.890  1.00  0.00    -0.334 C  
BRANCH  23  24
HETATM   24  C   UNL     1     -13.372  12.595  72.201  1.00  0.00    -0.570 C  
BRANCH  24  25
HETATM   25  C   UNL     1     -13.947  14.008  72.227  1.00  0.00    -0.651 C  
BRANCH  25  26
HETATM   26  C   UNL     1     -12.863  15.033  71.988  1.00  0.00    -0.333 C  
HETATM   27  O   UNL     1     -12.818  15.804  71.042  1.00  0.00    -0.475 OA 
BRANCH  26  28
HETATM   28  O   UNL     1     -11.940  14.974  72.986  1.00  0.00    -0.344 OA 
HETATM   29  C   UNL     1     -12.387  15.569  74.205  1.00  0.00    -0.671 C  
ENDBRANCH  26  28
ENDBRANCH  25  26
ENDBRANCH  24  25
ENDBRANCH  23  24
ENDBRANCH  22  23
ENDBRANCH  21  22
ENDBRANCH  20  21
ENDBRANCH  19  20
ENDBRANCH  11  12
ENDBRANCH   8  10
ENDBRANCH   3   4
ENDBRANCH   2   3
TORSDOF 12
ENDMDL
MODEL       18
REMARK 921   NORMALIZED FREE ENERGY PREDICTED BY IDOCK:   -5.55 KCAL/MOL
REMARK 922        TOTAL FREE ENERGY PREDICTED BY IDOCK:  -11.49 KCAL/MOL
REMARK 923 INTER-LIGAND FREE ENERGY PREDICTED BY IDOCK:  -10.12 KCAL/MOL
REMARK 924 INTRA-LIGAND FREE ENERGY PREDICTED BY IDOCK:   -1.37 KCAL/MOL
REMARK 927      BINDING AFFINITY PREDICTED BY RF-SCORE:    0.00 PKD
ROOT
HETATM    1  C   UNL     1     -13.817   7.220  71.697  1.00  0.00    -0.461 C  
HETATM    2  C   UNL     1     -12.341   7.379  72.036  1.00  0.00    -0.301 C  
ENDROOT
BRANCH   2   3
HETATM    3  C   UNL     1     -11.923   8.840  71.910  1.00  0.00    -0.435 C  
BRANCH   3   4
HETATM    4  C   UNL     1     -10.523   9.000  71.302  1.00  0.00    -0.381 C  
HETATM    5  C   UNL     1     -10.543   9.159  69.763  1.00  0.00    -0.229 C  
HETATM    6  O   UNL     1     -11.099   7.961  69.204  1.00  0.00    -0.431 OA 
HETATM    7  C   UNL     1      -9.108   9.308  69.238  1.00  0.00    -0.151 C  
HETATM    8  C   UNL     1     -11.429  10.365  69.357  1.00  0.00    -0.292 C  
HETATM    9  H   UNL     1     -11.111   8.058  68.259  1.00  0.00     0.000 HD 
BRANCH   8  10
HETATM   10  C   UNL     1     -11.411  10.737  67.901  1.00  0.00    -0.372 C  
HETATM   11  C   UNL     1     -10.912  11.888  67.422  1.00  0.00    -0.315 C  
BRANCH  11  12
HETATM   12  C   UNL     1     -10.870  12.308  65.975  1.00  0.00    -0.310 C  
HETATM   13  C   UNL     1     -10.303  11.179  65.097  1.00  0.00    -0.293 C  
HETATM   14  C   UNL     1     -10.747  11.509  63.684  1.00  0.00    -0.491 C  
HETATM   15  O   UNL     1      -8.883  11.113  65.166  1.00  0.00    -0.328 OA 
HETATM   16  H   UNL     1      -8.533  10.415  64.624  1.00  0.00     0.000 HD 
HETATM   17  C   UNL     1     -12.060  12.186  63.920  1.00  0.00    -0.488 C  
HETATM   18  O   UNL     1     -12.906  12.306  63.041  1.00  0.00    -0.522 OA 
HETATM   19  C   UNL     1     -12.233  12.676  65.343  1.00  0.00    -0.517 C  
BRANCH  19  20
HETATM   20  C   UNL     1     -12.514  14.178  65.468  1.00  0.00    -0.495 C  
BRANCH  20  21
HETATM   21  C   UNL     1     -11.514  15.023  64.677  1.00  0.00    -0.382 C  
BRANCH  21  22
HETATM   22  C   UNL     1     -10.745  15.987  65.574  1.00  0.00    -0.374 C  
BRANCH  22  23
HETATM   23  C   UNL     1     -10.893  15.582  67.043  1.00  0.00    -0.314 C  
BRANCH  23  24
HETATM   24  C   UNL     1      -9.833  16.268  67.898  1.00  0.00    -0.237 C  
BRANCH  24  25
HETATM   25  C   UNL     1     -10.405  17.450  68.677  1.00  0.00    -0.364 C  
BRANCH  25  26
HETATM   26  C   UNL     1      -9.651  18.719  68.356  1.00  0.00    -0.365 C  
HETATM   27  O   UNL     1      -8.477  18.927  68.619  1.00  0.00    -0.346 OA 
BRANCH  26  28
HETATM   28  O   UNL     1     -10.474  19.601  67.727  1.00  0.00    -0.423 OA 
HETATM   29  C   UNL     1     -10.174  19.763  66.340  1.00  0.00    -0.503 C  
ENDBRANCH  26  28
ENDBRANCH  25  26
ENDBRANCH  24  25
ENDBRANCH  23  24
ENDBRANCH  22  23
ENDBRANCH  21  22
ENDBRANCH  20  21
ENDBRANCH  19  20
ENDBRANCH  11  12
ENDBRANCH   8  10
ENDBRANCH   3   4
ENDBRANCH   2   3
TORSDOF 12
ENDMDL
MODEL       19
REMARK 921   NORMALIZED FREE ENERGY PREDICTED BY IDOCK:   -5.53 KCAL/MOL
REMARK 922        TOTAL FREE ENERGY PREDICTED BY IDOCK:  -11.44 KCAL/MOL
REMARK 923 INTER-LIGAND FREE ENERGY PREDICTED BY IDOCK:   -8.81 KCAL/MOL
REMARK 924 INTRA-LIGAND FREE ENERGY PREDICTED BY IDOCK:   -2.64 KCAL/MOL
REMARK 927      BINDING AFFINITY PREDICTED BY RF-SCORE:    0.00 PKD
ROOT
HETATM    1  C   UNL     1     -10.258   5.142  69.866  1.00  0.00    -0.361 C  
HETATM    2  C   UNL     1     -11.179   6.208  69.289  1.00  0.00    -0.438 C  
ENDROOT
BRANCH   2   3
HETATM    3  C   UNL     1     -10.551   7.590  69.441  1.00  0.00    -0.225 C  
BRANCH   3   4
HETATM    4  C   UNL     1     -11.352   8.498  70.384  1.00  0.00    -0.193 C  
HETATM    5  C   UNL     1     -11.081  10.004  70.154  1.00  0.00    -0.310 C  
HETATM    6  O   UNL     1      -9.695  10.248  70.429  1.00  0.00    -0.350 OA 
HETATM    7  C   UNL     1     -11.915  10.837  71.137  1.00  0.00    -0.361 C  
HETATM    8  C   UNL     1     -11.380  10.387  68.682  1.00  0.00    -0.277 C  
HETATM    9  H   UNL     1      -9.529  11.173  70.288  1.00  0.00     0.000 HD 
BRANCH   8  10
HETATM   10  C   UNL     1     -11.316  11.852  68.355  1.00  0.00    -0.331 C  
HETATM   11  C   UNL     1     -12.033  12.441  67.384  1.00  0.00    -0.246 C  
BRANCH  11  12
HETATM   12  C   UNL     1     -12.005  13.903  67.017  1.00  0.00    -0.459 C  
HETATM   13  C   UNL     1     -11.389  14.738  68.152  1.00  0.00    -0.307 C  
HETATM   14  C   UNL     1     -10.979  16.049  67.508  1.00  0.00    -0.261 C  
HETATM   15  O   UNL     1     -12.317  14.974  69.205  1.00  0.00    -0.559 OA 
HETATM   16  H   UNL     1     -11.936  15.489  69.906  1.00  0.00     0.000 HD 
HETATM   17  C   UNL     1     -10.621  15.617  66.121  1.00  0.00    -0.320 C  
HETATM   18  O   UNL     1      -9.921  16.297  65.379  1.00  0.00    -0.514 OA 
HETATM   19  C   UNL     1     -11.189  14.261  65.752  1.00  0.00    -0.317 C  
BRANCH  19  20
HETATM   20  C   UNL     1     -12.077  14.263  64.502  1.00  0.00    -0.499 C  
BRANCH  20  21
HETATM   21  C   UNL     1     -11.860  13.023  63.635  1.00  0.00    -0.580 C  
BRANCH  21  22
HETATM   22  C   UNL     1     -10.428  12.507  63.721  1.00  0.00    -0.451 C  
BRANCH  22  23
HETATM   23  C   UNL     1     -10.412  10.977  63.740  1.00  0.00    -0.408 C  
BRANCH  23  24
HETATM   24  C   UNL     1     -10.032  10.460  65.123  1.00  0.00    -0.390 C  
BRANCH  24  25
HETATM   25  C   UNL     1      -8.529  10.547  65.372  1.00  0.00    -0.173 C  
BRANCH  25  26
HETATM   26  C   UNL     1      -8.243  11.122  66.739  1.00  0.00    -0.154 C  
HETATM   27  O   UNL     1      -8.008  10.469  67.743  1.00  0.00    -0.104 OA 
BRANCH  26  28
HETATM   28  O   UNL     1      -8.283  12.481  66.688  1.00  0.00    -0.060 OA 
HETATM   29  C   UNL     1      -7.971  13.103  67.934  1.00  0.00    -0.158 C  
ENDBRANCH  26  28
ENDBRANCH  25  26
ENDBRANCH  24  25
ENDBRANCH  23  24
ENDBRANCH  22  23
ENDBRANCH  21  22
ENDBRANCH  20  21
ENDBRANCH  19  20
ENDBRANCH  11  12
ENDBRANCH   8  10
ENDBRANCH   3   4
ENDBRANCH   2   3
TORSDOF 12
ENDMDL
MODEL       20
REMARK 921   NORMALIZED FREE ENERGY PREDICTED BY IDOCK:   -5.49 KCAL/MOL
REMARK 922        TOTAL FREE ENERGY PREDICTED BY IDOCK:  -11.39 KCAL/MOL
REMARK 923 INTER-LIGAND FREE ENERGY PREDICTED BY IDOCK:   -9.02 KCAL/MOL
REMARK 924 INTRA-LIGAND FREE ENERGY PREDICTED BY IDOCK:   -2.37 KCAL/MOL
REMARK 927      BINDING AFFINITY PREDICTED BY RF-SCORE:    0.00 PKD
ROOT
HETATM    1  C   UNL     1     -12.491  12.171  64.172  1.00  0.00    -0.497 C  
HETATM    2  C   UNL     1     -12.128  13.649  64.200  1.00  0.00    -0.484 C  
ENDROOT
BRANCH   2   3
HETATM    3  C   UNL     1     -12.556  14.274  65.524  1.00  0.00    -0.429 C  
BRANCH   3   4
HETATM    4  C   UNL     1     -11.360  14.712  66.380  1.00  0.00    -0.348 C  
HETATM    5  C   UNL     1     -11.327  14.035  67.771  1.00  0.00    -0.303 C  
HETATM    6  O   UNL     1     -12.508  14.432  68.482  1.00  0.00    -0.585 OA 
HETATM    7  C   UNL     1     -10.108  14.531  68.561  1.00  0.00    -0.242 C  
HETATM    8  C   UNL     1     -11.323  12.492  67.620  1.00  0.00    -0.362 C  
HETATM    9  H   UNL     1     -12.488  14.017  69.336  1.00  0.00     0.000 HD 
BRANCH   8  10
HETATM   10  C   UNL     1     -11.130  11.705  68.885  1.00  0.00    -0.287 C  
HETATM   11  C   UNL     1     -12.106  11.022  69.506  1.00  0.00    -0.400 C  
BRANCH  11  12
HETATM   12  C   UNL     1     -11.964  10.219  70.774  1.00  0.00    -0.456 C  
HETATM   13  C   UNL     1     -13.272  10.244  71.583  1.00  0.00    -0.408 C  
HETATM   14  C   UNL     1     -13.178   9.064  72.532  1.00  0.00    -0.467 C  
HETATM   15  O   UNL     1     -13.423  11.456  72.314  1.00  0.00    -0.601 OA 
HETATM   16  H   UNL     1     -14.231  11.471  72.814  1.00  0.00     0.000 HD 
HETATM   17  C   UNL     1     -12.381   8.083  71.732  1.00  0.00    -0.319 C  
HETATM   18  O   UNL     1     -12.367   6.884  71.985  1.00  0.00    -0.315 OA 
HETATM   19  C   UNL     1     -11.625   8.722  70.584  1.00  0.00    -0.236 C  
BRANCH  19  20
HETATM   20  C   UNL     1     -10.111   8.488  70.612  1.00  0.00    -0.225 C  
BRANCH  20  21
HETATM   21  C   UNL     1      -9.546   8.175  69.225  1.00  0.00    -0.164 C  
BRANCH  21  22
HETATM   22  C   UNL     1     -10.551   7.429  68.354  1.00  0.00    -0.192 C  
BRANCH  22  23
HETATM   23  C   UNL     1     -10.486   7.937  66.911  1.00  0.00    -0.388 C  
BRANCH  23  24
HETATM   24  C   UNL     1      -9.681   9.229  66.832  1.00  0.00    -0.248 C  
BRANCH  24  25
HETATM   25  C   UNL     1      -9.799   9.893  65.463  1.00  0.00    -0.381 C  
BRANCH  25  26
HETATM   26  C   UNL     1      -8.443  10.320  64.954  1.00  0.00    -0.177 C  
HETATM   27  O   UNL     1      -7.488  10.616  65.655  1.00  0.00    -0.148 OA 
BRANCH  26  28
HETATM   28  O   UNL     1      -8.438  10.324  63.593  1.00  0.00    -0.168 OA 
HETATM   29  C   UNL     1      -8.507   9.017  63.023  1.00  0.00    -0.190 C  
ENDBRANCH  26  28
ENDBRANCH  25  26
ENDBRANCH  24  25
ENDBRANCH  23  24
ENDBRANCH  22  23
ENDBRANCH  21  22
ENDBRANCH  20  21
ENDBRANCH  19  20
ENDBRANCH  11  12
ENDBRANCH   8  10
ENDBRANCH   3   4
ENDBRANCH   2   3
TORSDOF 12
ENDMDL
MODEL       21
REMARK 921   NORMALIZED FREE ENERGY PREDICTED BY IDOCK:   -5.49 KCAL/MOL
REMARK 922        TOTAL FREE ENERGY PREDICTED BY IDOCK:  -11.38 KCAL/MOL
REMARK 923 INTER-LIGAND FREE ENERGY PREDICTED BY IDOCK:   -9.96 KCAL/MOL
REMARK 924 INTRA-LIGAND FREE ENERGY PREDICTED BY IDOCK:   -1.42 KCAL/MOL
REMARK 927      BINDING AFFINITY PREDICTED BY RF-SCORE:    0.00 PKD
ROOT
HETATM    1  C   UNL     1     -11.702   8.061  72.058  1.00  0.00    -0.375 C  
HETATM    2  C   UNL     1     -11.332   6.658  71.597  1.00  0.00    -0.319 C  
ENDROOT
BRANCH   2   3
HETATM    3  C   UNL     1     -11.615   6.498  70.107  1.00  0.00    -0.466 C  
BRANCH   3   4
HETATM    4  C   UNL     1     -10.332   6.368  69.277  1.00  0.00    -0.248 C  
HETATM    5  C   UNL     1     -10.372   7.185  67.963  1.00  0.00    -0.194 C  
HETATM    6  O   UNL     1     -11.438   6.666  67.155  1.00  0.00    -0.779 OA 
HETATM    7  C   UNL     1      -9.057   6.996  67.193  1.00  0.00    -0.137 C  
HETATM    8  C   UNL     1     -10.648   8.680  68.266  1.00  0.00    -0.181 C  
HETATM    9  H   UNL     1     -11.463   7.168  66.349  1.00  0.00     0.000 HD 
BRANCH   8  10
HETATM   10  C   UNL     1     -10.555   9.619  67.096  1.00  0.00    -0.298 C  
HETATM   11  C   UNL     1     -10.593  10.958  67.198  1.00  0.00    -0.302 C  
BRANCH  11  12
HETATM   12  C   UNL     1     -10.502  11.941  66.060  1.00  0.00    -0.282 C  
HETATM   13  C   UNL     1      -9.859  11.288  64.825  1.00  0.00    -0.266 C  
HETATM   14  C   UNL     1     -10.253  12.169  63.654  1.00  0.00    -0.459 C  
HETATM   15  O   UNL     1      -8.442  11.218  64.936  1.00  0.00    -0.372 OA 
HETATM   16  H   UNL     1      -8.045  10.814  64.173  1.00  0.00     0.000 HD 
HETATM   17  C   UNL     1     -11.598  12.668  64.078  1.00  0.00    -0.418 C  
HETATM   18  O   UNL     1     -12.409  13.131  63.284  1.00  0.00    -0.712 OA 
HETATM   19  C   UNL     1     -11.849  12.520  65.565  1.00  0.00    -0.491 C  
BRANCH  19  20
HETATM   20  C   UNL     1     -12.188  13.830  66.286  1.00  0.00    -0.489 C  
BRANCH  20  21
HETATM   21  C   UNL     1     -10.939  14.648  66.618  1.00  0.00    -0.323 C  
BRANCH  21  22
HETATM   22  C   UNL     1     -10.746  15.814  65.655  1.00  0.00    -0.360 C  
BRANCH  22  23
HETATM   23  C   UNL     1      -9.518  16.637  66.053  1.00  0.00    -0.286 C  
BRANCH  23  24
HETATM   24  C   UNL     1      -9.656  17.152  67.481  1.00  0.00    -0.254 C  
BRANCH  24  25
HETATM   25  C   UNL     1     -10.548  18.388  67.559  1.00  0.00    -0.447 C  
BRANCH  25  26
HETATM   26  C   UNL     1     -10.011  19.494  66.682  1.00  0.00    -0.407 C  
HETATM   27  O   UNL     1     -10.494  19.850  65.619  1.00  0.00    -0.477 OA 
BRANCH  26  28
HETATM   28  O   UNL     1      -8.904  20.043  67.253  1.00  0.00    -0.319 OA 
HETATM   29  C   UNL     1      -7.760  20.027  66.399  1.00  0.00    -0.299 C  
ENDBRANCH  26  28
ENDBRANCH  25  26
ENDBRANCH  24  25
ENDBRANCH  23  24
ENDBRANCH  22  23
ENDBRANCH  21  22
ENDBRANCH  20  21
ENDBRANCH  19  20
ENDBRANCH  11  12
ENDBRANCH   8  10
ENDBRANCH   3   4
ENDBRANCH   2   3
TORSDOF 12
ENDMDL
MODEL       22
REMARK 921   NORMALIZED FREE ENERGY PREDICTED BY IDOCK:   -5.47 KCAL/MOL
REMARK 922        TOTAL FREE ENERGY PREDICTED BY IDOCK:  -11.34 KCAL/MOL
REMARK 923 INTER-LIGAND FREE ENERGY PREDICTED BY IDOCK:   -9.58 KCAL/MOL
REMARK 924 INTRA-LIGAND FREE ENERGY PREDICTED BY IDOCK:   -1.77 KCAL/MOL
REMARK 927      BINDING AFFINITY PREDICTED BY RF-SCORE:    0.00 PKD
ROOT
HETATM    1  C   UNL     1      -8.255  20.312  67.256  1.00  0.00    -0.393 C  
HETATM    2  C   UNL     1      -9.763  20.257  67.049  1.00  0.00    -0.598 C  
ENDROOT
BRANCH   2   3
HETATM    3  C   UNL     1     -10.394  19.264  68.019  1.00  0.00    -0.506 C  
BRANCH   3   4
HETATM    4  C   UNL     1      -9.389  18.223  68.531  1.00  0.00    -0.334 C  
HETATM    5  C   UNL     1      -9.798  16.768  68.198  1.00  0.00    -0.264 C  
HETATM    6  O   UNL     1     -11.041  16.498  68.859  1.00  0.00    -0.329 OA 
HETATM    7  C   UNL     1      -8.745  15.795  68.748  1.00  0.00    -0.203 C  
HETATM    8  C   UNL     1      -9.990  16.599  66.669  1.00  0.00    -0.290 C  
HETATM    9  H   UNL     1     -11.291  15.605  68.655  1.00  0.00     0.000 HD 
BRANCH   8  10
HETATM   10  C   UNL     1     -10.231  15.197  66.185  1.00  0.00    -0.310 C  
HETATM   11  C   UNL     1     -11.430  14.723  65.808  1.00  0.00    -0.322 C  
BRANCH  11  12
HETATM   12  C   UNL     1     -11.724  13.329  65.316  1.00  0.00    -0.357 C  
HETATM   13  C   UNL     1     -11.434  13.211  63.810  1.00  0.00    -0.373 C  
HETATM   14  C   UNL     1     -11.297  11.724  63.544  1.00  0.00    -0.496 C  
HETATM   15  O   UNL     1     -12.484  13.760  63.021  1.00  0.00    -1.068 OA 
HETATM   16  H   UNL     1     -12.305  13.687  62.091  1.00  0.00     0.000 HD 
HETATM   17  C   UNL     1     -10.720  11.229  64.832  1.00  0.00    -0.271 C  
HETATM   18  O   UNL     1     -10.142  10.152  64.923  1.00  0.00    -0.330 OA 
HETATM   19  C   UNL     1     -10.907  12.197  65.983  1.00  0.00    -0.318 C  
BRANCH  19  20
HETATM   20  C   UNL     1     -11.652  11.614  67.190  1.00  0.00    -0.291 C  
BRANCH  20  21
HETATM   21  C   UNL     1     -10.860  11.767  68.489  1.00  0.00    -0.261 C  
BRANCH  21  22
HETATM   22  C   UNL     1      -9.355  11.678  68.255  1.00  0.00    -0.191 C  
BRANCH  22  23
HETATM   23  C   UNL     1      -8.748  10.560  69.106  1.00  0.00    -0.155 C  
BRANCH  23  24
HETATM   24  C   UNL     1      -9.829   9.589  69.568  1.00  0.00    -0.205 C  
BRANCH  24  25
HETATM   25  C   UNL     1      -9.605   9.127  71.005  1.00  0.00    -0.350 C  
BRANCH  25  26
HETATM   26  C   UNL     1     -10.910   9.087  71.766  1.00  0.00    -0.367 C  
HETATM   27  O   UNL     1     -11.903   9.745  71.498  1.00  0.00    -0.379 OA 
BRANCH  26  28
HETATM   28  O   UNL     1     -10.818   8.204  72.798  1.00  0.00    -0.353 OA 
HETATM   29  C   UNL     1     -11.147   6.866  72.427  1.00  0.00    -0.260 C  
ENDBRANCH  26  28
ENDBRANCH  25  26
ENDBRANCH  24  25
ENDBRANCH  23  24
ENDBRANCH  22  23
ENDBRANCH  21  22
ENDBRANCH  20  21
ENDBRANCH  19  20
ENDBRANCH  11  12
ENDBRANCH   8  10
ENDBRANCH   3   4
ENDBRANCH   2   3
TORSDOF 12
ENDMDL
MODEL       23
REMARK 921   NORMALIZED FREE ENERGY PREDICTED BY IDOCK:   -5.46 KCAL/MOL
REMARK 922        TOTAL FREE ENERGY PREDICTED BY IDOCK:  -11.33 KCAL/MOL
REMARK 923 INTER-LIGAND FREE ENERGY PREDICTED BY IDOCK:   -9.16 KCAL/MOL
REMARK 924 INTRA-LIGAND FREE ENERGY PREDICTED BY IDOCK:   -2.16 KCAL/MOL
REMARK 927      BINDING AFFINITY PREDICTED BY RF-SCORE:    0.00 PKD
ROOT
HETATM    1  C   UNL     1     -11.436   6.456  70.590  1.00  0.00    -0.426 C  
HETATM    2  C   UNL     1     -12.219   7.250  71.626  1.00  0.00    -0.377 C  
ENDROOT
BRANCH   2   3
HETATM    3  C   UNL     1     -12.196   8.736  71.283  1.00  0.00    -0.332 C  
BRANCH   3   4
HETATM    4  C   UNL     1     -10.795   9.226  70.890  1.00  0.00    -0.365 C  
HETATM    5  C   UNL     1     -10.796  10.122  69.629  1.00  0.00    -0.263 C  
HETATM    6  O   UNL     1     -11.278   9.335  68.530  1.00  0.00    -0.463 OA 
HETATM    7  C   UNL     1      -9.361  10.562  69.304  1.00  0.00    -0.177 C  
HETATM    8  C   UNL     1     -11.736  11.338  69.831  1.00  0.00    -0.430 C  
HETATM    9  H   UNL     1     -11.278   9.885  67.756  1.00  0.00     0.000 HD 
BRANCH   8  10
HETATM   10  C   UNL     1     -11.711  12.379  68.749  1.00  0.00    -0.379 C  
HETATM   11  C   UNL     1     -11.802  13.701  68.970  1.00  0.00    -0.393 C  
BRANCH  11  12
HETATM   12  C   UNL     1     -11.781  14.784  67.922  1.00  0.00    -0.367 C  
HETATM   13  C   UNL     1     -10.757  15.873  68.284  1.00  0.00    -0.291 C  
HETATM   14  C   UNL     1     -10.482  16.611  66.988  1.00  0.00    -0.283 C  
HETATM   15  O   UNL     1     -11.260  16.771  69.267  1.00  0.00    -0.275 OA 
HETATM   16  H   UNL     1     -10.628  17.444  69.491  1.00  0.00     0.000 HD 
HETATM   17  C   UNL     1     -10.643  15.526  65.970  1.00  0.00    -0.325 C  
HETATM   18  O   UNL     1     -10.178  15.610  64.839  1.00  0.00    -0.418 OA 
HETATM   19  C   UNL     1     -11.408  14.326  66.492  1.00  0.00    -0.351 C  
BRANCH  19  20
HETATM   20  C   UNL     1     -12.658  13.968  65.680  1.00  0.00    -0.542 C  
BRANCH  20  21
HETATM   21  C   UNL     1     -12.500  12.649  64.924  1.00  0.00    -0.564 C  
BRANCH  21  22
HETATM   22  C   UNL     1     -11.123  12.030  65.135  1.00  0.00    -0.369 C  
BRANCH  22  23
HETATM   23  C   UNL     1     -10.561  11.513  63.808  1.00  0.00    -0.465 C  
BRANCH  23  24
HETATM   24  C   UNL     1      -9.673  10.295  64.037  1.00  0.00    -0.343 C  
BRANCH  24  25
HETATM   25  C   UNL     1      -9.692   9.841  65.495  1.00  0.00    -0.382 C  
BRANCH  25  26
HETATM   26  C   UNL     1      -8.844   8.606  65.683  1.00  0.00    -0.187 C  
HETATM   27  O   UNL     1      -8.236   8.026  64.798  1.00  0.00    -0.149 OA 
BRANCH  26  28
HETATM   28  O   UNL     1      -8.854   8.232  66.992  1.00  0.00    -0.130 OA 
HETATM   29  C   UNL     1      -8.767   6.819  67.177  1.00  0.00    -0.119 C  
ENDBRANCH  26  28
ENDBRANCH  25  26
ENDBRANCH  24  25
ENDBRANCH  23  24
ENDBRANCH  22  23
ENDBRANCH  21  22
ENDBRANCH  20  21
ENDBRANCH  19  20
ENDBRANCH  11  12
ENDBRANCH   8  10
ENDBRANCH   3   4
ENDBRANCH   2   3
TORSDOF 12
ENDMDL
MODEL       24
REMARK 921   NORMALIZED FREE ENERGY PREDICTED BY IDOCK:   -5.45 KCAL/MOL
REMARK 922        TOTAL FREE ENERGY PREDICTED BY IDOCK:  -11.32 KCAL/MOL
REMARK 923 INTER-LIGAND FREE ENERGY PREDICTED BY IDOCK:   -9.29 KCAL/MOL
REMARK 924 INTRA-LIGAND FREE ENERGY PREDICTED BY IDOCK:   -2.02 KCAL/MOL
REMARK 927      BINDING AFFINITY PREDICTED BY RF-SCORE:    0.00 PKD
ROOT
HETATM    1  C   UNL     1     -11.759  12.459  63.657  1.00  0.00    -0.596 C  
HETATM    2  C   UNL     1     -11.892  13.960  63.878  1.00  0.00    -0.315 C  
ENDROOT
BRANCH   2   3
HETATM    3  C   UNL     1     -12.399  14.245  65.287  1.00  0.00    -0.427 C  
BRANCH   3   4
HETATM    4  C   UNL     1     -11.259  14.518  66.278  1.00  0.00    -0.342 C  
HETATM    5  C   UNL     1     -11.185  13.477  67.421  1.00  0.00    -0.295 C  
HETATM    6  O   UNL     1     -12.406  13.558  68.169  1.00  0.00    -0.294 OA 
HETATM    7  C   UNL     1     -10.026  13.825  68.365  1.00  0.00    -0.229 C  
HETATM    8  C   UNL     1     -11.042  12.047  66.841  1.00  0.00    -0.352 C  
HETATM    9  H   UNL     1     -12.361  12.920  68.871  1.00  0.00     0.000 HD 
BRANCH   8  10
HETATM   10  C   UNL     1     -10.797  10.951  67.839  1.00  0.00    -0.295 C  
HETATM   11  C   UNL     1     -10.969   9.644  67.583  1.00  0.00    -0.190 C  
BRANCH  11  12
HETATM   12  C   UNL     1     -10.738   8.508  68.546  1.00  0.00    -0.080 C  
HETATM   13  C   UNL     1     -10.382   7.217  67.790  1.00  0.00    -0.202 C  
HETATM   14  C   UNL     1      -9.721   6.319  68.819  1.00  0.00    -0.141 C  
HETATM   15  O   UNL     1     -11.535   6.582  67.248  1.00  0.00    -0.754 OA 
HETATM   16  H   UNL     1     -11.315   5.784  66.781  1.00  0.00     0.000 HD 
HETATM   17  C   UNL     1      -9.044   7.312  69.710  1.00  0.00    -0.141 C  
HETATM   18  O   UNL     1      -8.125   7.004  70.460  1.00  0.00    -0.111 OA 
HETATM   19  C   UNL     1      -9.594   8.717  69.566  1.00  0.00    -0.167 C  
BRANCH  19  20
HETATM   20  C   UNL     1     -10.118   9.330  70.869  1.00  0.00    -0.373 C  
BRANCH  20  21
HETATM   21  C   UNL     1     -11.291   8.539  71.451  1.00  0.00    -0.330 C  
BRANCH  21  22
HETATM   22  C   UNL     1     -12.345   9.452  72.069  1.00  0.00    -0.418 C  
BRANCH  22  23
HETATM   23  C   UNL     1     -13.077  10.237  70.978  1.00  0.00    -0.458 C  
BRANCH  23  24
HETATM   24  C   UNL     1     -12.640  11.698  70.984  1.00  0.00    -0.431 C  
BRANCH  24  25
HETATM   25  C   UNL     1     -13.387  12.513  72.036  1.00  0.00    -0.528 C  
BRANCH  25  26
HETATM   26  C   UNL     1     -13.079  13.985  71.894  1.00  0.00    -0.386 C  
HETATM   27  O   UNL     1     -12.495  14.495  70.951  1.00  0.00    -0.300 OA 
BRANCH  26  28
HETATM   28  O   UNL     1     -13.553  14.664  72.974  1.00  0.00    -0.561 OA 
HETATM   29  C   UNL     1     -12.524  15.107  73.858  1.00  0.00    -0.579 C  
ENDBRANCH  26  28
ENDBRANCH  25  26
ENDBRANCH  24  25
ENDBRANCH  23  24
ENDBRANCH  22  23
ENDBRANCH  21  22
ENDBRANCH  20  21
ENDBRANCH  19  20
ENDBRANCH  11  12
ENDBRANCH   8  10
ENDBRANCH   3   4
ENDBRANCH   2   3
TORSDOF 12
ENDMDL
MODEL       25
REMARK 921   NORMALIZED FREE ENERGY PREDICTED BY IDOCK:   -5.43 KCAL/MOL
REMARK 922        TOTAL FREE ENERGY PREDICTED BY IDOCK:  -11.27 KCAL/MOL
REMARK 923 INTER-LIGAND FREE ENERGY PREDICTED BY IDOCK:   -9.56 KCAL/MOL
REMARK 924 INTRA-LIGAND FREE ENERGY PREDICTED BY IDOCK:   -1.71 KCAL/MOL
REMARK 927      BINDING AFFINITY PREDICTED BY RF-SCORE:    0.00 PKD
ROOT
HETATM    1  C   UNL     1      -9.012   5.255  70.100  1.00  0.00    -0.156 C  
HETATM    2  C   UNL     1     -10.446   5.275  70.612  1.00  0.00    -0.306 C  
ENDROOT
BRANCH   2   3
HETATM    3  C   UNL     1     -10.884   6.707  70.902  1.00  0.00    -0.297 C  
BRANCH   3   4
HETATM    4  C   UNL     1     -12.408   6.843  71.016  1.00  0.00    -0.401 C  
HETATM    5  C   UNL     1     -12.854   8.184  71.646  1.00  0.00    -0.326 C  
HETATM    6  O   UNL     1     -12.338   8.235  72.983  1.00  0.00    -0.658 OA 
HETATM    7  C   UNL     1     -14.387   8.235  71.727  1.00  0.00    -0.574 C  
HETATM    8  C   UNL     1     -12.284   9.376  70.837  1.00  0.00    -0.297 C  
HETATM    9  H   UNL     1     -12.611   9.058  73.370  1.00  0.00     0.000 HD 
BRANCH   8  10
HETATM   10  C   UNL     1     -12.768  10.740  71.240  1.00  0.00    -0.546 C  
HETATM   11  C   UNL     1     -12.434  11.878  70.608  1.00  0.00    -0.347 C  
BRANCH  11  12
HETATM   12  C   UNL     1     -12.892  13.267  70.971  1.00  0.00    -0.311 C  
HETATM   13  C   UNL     1     -13.154  13.377  72.483  1.00  0.00    -0.319 C  
HETATM   14  C   UNL     1     -13.129  14.863  72.787  1.00  0.00    -0.558 C  
HETATM   15  O   UNL     1     -14.410  12.818  72.849  1.00  0.00    -0.469 OA 
HETATM   16  H   UNL     1     -14.572  12.885  73.783  1.00  0.00     0.000 HD 
HETATM   17  C   UNL     1     -12.139  15.370  71.787  1.00  0.00    -0.390 C  
HETATM   18  O   UNL     1     -11.573  16.450  71.910  1.00  0.00    -0.450 OA 
HETATM   19  C   UNL     1     -11.901  14.407  70.640  1.00  0.00    -0.361 C  
BRANCH  19  20
HETATM   20  C   UNL     1     -12.176  14.995  69.251  1.00  0.00    -0.214 C  
BRANCH  20  21
HETATM   21  C   UNL     1     -11.244  14.419  68.184  1.00  0.00    -0.300 C  
BRANCH  21  22
HETATM   22  C   UNL     1     -11.992  14.064  66.903  1.00  0.00    -0.479 C  
BRANCH  22  23
HETATM   23  C   UNL     1     -11.650  12.638  66.464  1.00  0.00    -0.441 C  
BRANCH  23  24
HETATM   24  C   UNL     1     -10.834  11.926  67.537  1.00  0.00    -0.283 C  
BRANCH  24  25
HETATM   25  C   UNL     1     -11.008  10.411  67.477  1.00  0.00    -0.358 C  
BRANCH  25  26
HETATM   26  C   UNL     1      -9.927   9.714  68.268  1.00  0.00    -0.155 C  
HETATM   27  O   UNL     1      -9.251  10.230  69.145  1.00  0.00    -0.174 OA 
BRANCH  26  28
HETATM   28  O   UNL     1      -9.816   8.420  67.862  1.00  0.00    -0.157 OA 
HETATM   29  C   UNL     1     -10.123   8.234  66.480  1.00  0.00    -0.233 C  
ENDBRANCH  26  28
ENDBRANCH  25  26
ENDBRANCH  24  25
ENDBRANCH  23  24
ENDBRANCH  22  23
ENDBRANCH  21  22
ENDBRANCH  20  21
ENDBRANCH  19  20
ENDBRANCH  11  12
ENDBRANCH   8  10
ENDBRANCH   3   4
ENDBRANCH   2   3
TORSDOF 12
ENDMDL
MODEL       26
REMARK 921   NORMALIZED FREE ENERGY PREDICTED BY IDOCK:   -5.41 KCAL/MOL
REMARK 922        TOTAL FREE ENERGY PREDICTED BY IDOCK:  -11.25 KCAL/MOL
REMARK 923 INTER-LIGAND FREE ENERGY PREDICTED BY IDOCK:   -9.84 KCAL/MOL
REMARK 924 INTRA-LIGAND FREE ENERGY PREDICTED BY IDOCK:   -1.41 KCAL/MOL
REMARK 927      BINDING AFFINITY PREDICTED BY RF-SCORE:    0.00 PKD
ROOT
HETATM    1  C   UNL     1     -11.104   6.542  69.601  1.00  0.00    -0.435 C  
HETATM    2  C   UNL     1      -9.595   6.749  69.605  1.00  0.00    -0.150 C  
ENDROOT
BRANCH   2   3
HETATM    3  C   UNL     1      -9.261   8.202  69.924  1.00  0.00    -0.151 C  
BRANCH   3   4
HETATM    4  C   UNL     1     -10.509   9.032  70.255  1.00  0.00    -0.248 C  
HETATM    5  C   UNL     1     -10.671  10.276  69.347  1.00  0.00    -0.241 C  
HETATM    6  O   UNL     1      -9.540  11.130  69.567  1.00  0.00    -0.405 OA 
HETATM    7  C   UNL     1     -11.935  11.049  69.747  1.00  0.00    -0.428 C  
HETATM    8  C   UNL     1     -10.705   9.854  67.856  1.00  0.00    -0.316 C  
HETATM    9  H   UNL     1      -9.639  11.893  69.010  1.00  0.00     0.000 HD 
BRANCH   8  10
HETATM   10  C   UNL     1     -11.019  10.943  66.869  1.00  0.00    -0.286 C  
HETATM   11  C   UNL     1     -10.256  11.241  65.805  1.00  0.00    -0.301 C  
BRANCH  11  12
HETATM   12  C   UNL     1     -10.526  12.320  64.788  1.00  0.00    -0.328 C  
HETATM   13  C   UNL     1     -11.616  11.874  63.798  1.00  0.00    -0.462 C  
HETATM   14  C   UNL     1     -12.129  13.154  63.164  1.00  0.00    -0.282 C  
HETATM   15  O   UNL     1     -11.103  10.999  62.800  1.00  0.00    -0.721 OA 
HETATM   16  H   UNL     1     -11.776  10.723  62.189  1.00  0.00     0.000 HD 
HETATM   17  C   UNL     1     -11.970  14.139  64.278  1.00  0.00    -0.435 C  
HETATM   18  O   UNL     1     -12.575  15.205  64.305  1.00  0.00    -0.638 OA 
HETATM   19  C   UNL     1     -11.016  13.672  65.359  1.00  0.00    -0.302 C  
BRANCH  19  20
HETATM   20  C   UNL     1      -9.841  14.621  65.622  1.00  0.00    -0.354 C  
BRANCH  20  21
HETATM   21  C   UNL     1     -10.300  15.981  66.147  1.00  0.00    -0.340 C  
BRANCH  21  22
HETATM   22  C   UNL     1      -9.831  16.231  67.577  1.00  0.00    -0.238 C  
BRANCH  22  23
HETATM   23  C   UNL     1     -10.998  16.704  68.447  1.00  0.00    -0.345 C  
BRANCH  23  24
HETATM   24  C   UNL     1     -10.892  16.122  69.851  1.00  0.00    -0.355 C  
BRANCH  24  25
HETATM   25  C   UNL     1     -11.564  14.756  69.956  1.00  0.00    -0.332 C  
BRANCH  25  26
HETATM   26  C   UNL     1     -12.687  14.785  70.965  1.00  0.00    -0.345 C  
HETATM   27  O   UNL     1     -13.602  15.594  70.979  1.00  0.00    -0.588 OA 
BRANCH  26  28
HETATM   28  O   UNL     1     -12.532  13.773  71.861  1.00  0.00    -0.237 OA 
HETATM   29  C   UNL     1     -13.764  13.328  72.430  1.00  0.00    -0.578 C  
ENDBRANCH  26  28
ENDBRANCH  25  26
ENDBRANCH  24  25
ENDBRANCH  23  24
ENDBRANCH  22  23
ENDBRANCH  21  22
ENDBRANCH  20  21
ENDBRANCH  19  20
ENDBRANCH  11  12
ENDBRANCH   8  10
ENDBRANCH   3   4
ENDBRANCH   2   3
TORSDOF 12
ENDMDL
MODEL       27
REMARK 921   NORMALIZED FREE ENERGY PREDICTED BY IDOCK:   -5.40 KCAL/MOL
REMARK 922        TOTAL FREE ENERGY PREDICTED BY IDOCK:  -11.22 KCAL/MOL
REMARK 923 INTER-LIGAND FREE ENERGY PREDICTED BY IDOCK:   -8.97 KCAL/MOL
REMARK 924 INTRA-LIGAND FREE ENERGY PREDICTED BY IDOCK:   -2.25 KCAL/MOL
REMARK 927      BINDING AFFINITY PREDICTED BY RF-SCORE:    0.00 PKD
ROOT
HETATM    1  C   UNL     1     -11.289   6.224  69.618  1.00  0.00    -0.492 C  
HETATM    2  C   UNL     1      -9.893   5.714  69.291  1.00  0.00    -0.230 C  
ENDROOT
BRANCH   2   3
HETATM    3  C   UNL     1      -8.992   6.869  68.865  1.00  0.00    -0.131 C  
BRANCH   3   4
HETATM    4  C   UNL     1      -8.437   6.688  67.446  1.00  0.00    -0.120 C  
HETATM    5  C   UNL     1      -8.948   7.759  66.452  1.00  0.00    -0.163 C  
HETATM    6  O   UNL     1     -10.373   7.625  66.355  1.00  0.00    -0.488 OA 
HETATM    7  C   UNL     1      -8.351   7.502  65.061  1.00  0.00    -0.068 C  
HETATM    8  C   UNL     1      -8.606   9.180  66.968  1.00  0.00    -0.127 C  
HETATM    9  H   UNL     1     -10.686   8.282  65.745  1.00  0.00     0.000 HD 
BRANCH   8  10
HETATM   10  C   UNL     1      -8.900  10.313  66.026  1.00  0.00    -0.166 C  
HETATM   11  C   UNL     1     -10.080  10.949  65.954  1.00  0.00    -0.307 C  
BRANCH  11  12
HETATM   12  C   UNL     1     -10.425  12.089  65.030  1.00  0.00    -0.327 C  
HETATM   13  C   UNL     1     -11.350  11.611  63.897  1.00  0.00    -0.371 C  
HETATM   14  C   UNL     1     -11.994  12.869  63.348  1.00  0.00    -0.612 C  
HETATM   15  O   UNL     1     -10.631  10.936  62.871  1.00  0.00    -0.781 OA 
HETATM   16  H   UNL     1     -11.202  10.640  62.172  1.00  0.00     0.000 HD 
HETATM   17  C   UNL     1     -12.078  13.734  64.566  1.00  0.00    -0.428 C  
HETATM   18  O   UNL     1     -12.836  14.694  64.641  1.00  0.00    -0.559 OA 
HETATM   19  C   UNL     1     -11.157  13.284  65.683  1.00  0.00    -0.299 C  
BRANCH  19  20
HETATM   20  C   UNL     1     -10.164  14.352  66.155  1.00  0.00    -0.317 C  
BRANCH  20  21
HETATM   21  C   UNL     1     -10.209  14.557  67.670  1.00  0.00    -0.225 C  
BRANCH  21  22
HETATM   22  C   UNL     1     -11.637  14.716  68.183  1.00  0.00    -0.362 C  
BRANCH  22  23
HETATM   23  C   UNL     1     -11.909  13.727  69.319  1.00  0.00    -0.392 C  
BRANCH  23  24
HETATM   24  C   UNL     1     -11.048  12.479  69.163  1.00  0.00    -0.254 C  
BRANCH  24  25
HETATM   25  C   UNL     1     -11.873  11.199  69.265  1.00  0.00    -0.422 C  
BRANCH  25  26
HETATM   26  C   UNL     1     -11.185  10.185  70.147  1.00  0.00    -0.310 C  
HETATM   27  O   UNL     1      -9.984   9.963  70.162  1.00  0.00    -0.249 OA 
BRANCH  26  28
HETATM   28  O   UNL     1     -12.101   9.551  70.928  1.00  0.00    -0.291 OA 
HETATM   29  C   UNL     1     -12.973  10.448  71.617  1.00  0.00    -0.475 C  
ENDBRANCH  26  28
ENDBRANCH  25  26
ENDBRANCH  24  25
ENDBRANCH  23  24
ENDBRANCH  22  23
ENDBRANCH  21  22
ENDBRANCH  20  21
ENDBRANCH  19  20
ENDBRANCH  11  12
ENDBRANCH   8  10
ENDBRANCH   3   4
ENDBRANCH   2   3
TORSDOF 12
ENDMDL
MODEL       28
REMARK 921   NORMALIZED FREE ENERGY PREDICTED BY IDOCK:   -5.39 KCAL/MOL
REMARK 922        TOTAL FREE ENERGY PREDICTED BY IDOCK:  -11.21 KCAL/MOL
REMARK 923 INTER-LIGAND FREE ENERGY PREDICTED BY IDOCK:   -9.36 KCAL/MOL
REMARK 924 INTRA-LIGAND FREE ENERGY PREDICTED BY IDOCK:   -1.85 KCAL/MOL
REMARK 927      BINDING AFFINITY PREDICTED BY RF-SCORE:    0.00 PKD
ROOT
HETATM    1  C   UNL     1      -8.839  10.927  62.424  1.00  0.00    -0.358 C  
HETATM    2  C   UNL     1      -9.120   9.905  63.517  1.00  0.00    -0.289 C  
ENDROOT
BRANCH   2   3
HETATM    3  C   UNL     1     -10.285  10.367  64.387  1.00  0.00    -0.245 C  
BRANCH   3   4
HETATM    4  C   UNL     1     -11.149  11.430  63.694  1.00  0.00    -0.411 C  
HETATM    5  C   UNL     1     -11.379  12.689  64.565  1.00  0.00    -0.333 C  
HETATM    6  O   UNL     1     -12.091  12.285  65.742  1.00  0.00    -0.587 OA 
HETATM    7  C   UNL     1     -12.253  13.694  63.802  1.00  0.00    -0.413 C  
HETATM    8  C   UNL     1     -10.022  13.311  64.982  1.00  0.00    -0.168 C  
HETATM    9  H   UNL     1     -12.232  13.057  66.276  1.00  0.00     0.000 HD 
BRANCH   8  10
HETATM   10  C   UNL     1     -10.093  14.631  65.696  1.00  0.00    -0.389 C  
HETATM   11  C   UNL     1      -9.070  15.180  66.371  1.00  0.00    -0.331 C  
BRANCH  11  12
HETATM   12  C   UNL     1      -9.089  16.498  67.102  1.00  0.00    -0.227 C  
HETATM   13  C   UNL     1      -8.439  17.603  66.251  1.00  0.00    -0.202 C  
HETATM   14  C   UNL     1      -8.934  18.908  66.843  1.00  0.00    -0.306 C  
HETATM   15  O   UNL     1      -7.018  17.545  66.298  1.00  0.00    -0.245 OA 
HETATM   16  H   UNL     1      -6.617  18.227  65.772  1.00  0.00     0.000 HD 
HETATM   17  C   UNL     1     -10.298  18.533  67.330  1.00  0.00    -0.398 C  
HETATM   18  O   UNL     1     -11.165  19.367  67.564  1.00  0.00    -0.325 OA 
HETATM   19  C   UNL     1     -10.490  17.037  67.476  1.00  0.00    -0.334 C  
BRANCH  19  20
HETATM   20  C   UNL     1     -10.900  16.584  68.882  1.00  0.00    -0.336 C  
BRANCH  20  21
HETATM   21  C   UNL     1     -11.957  15.479  68.850  1.00  0.00    -0.306 C  
BRANCH  21  22
HETATM   22  C   UNL     1     -11.600  14.318  69.772  1.00  0.00    -0.350 C  
BRANCH  22  23
HETATM   23  C   UNL     1     -11.085  13.128  68.958  1.00  0.00    -0.282 C  
BRANCH  23  24
HETATM   24  C   UNL     1     -12.018  11.932  69.107  1.00  0.00    -0.336 C  
BRANCH  24  25
HETATM   25  C   UNL     1     -11.678  11.091  70.333  1.00  0.00    -0.437 C  
BRANCH  25  26
HETATM   26  C   UNL     1     -12.875  10.962  71.246  1.00  0.00    -0.433 C  
HETATM   27  O   UNL     1     -13.243  11.804  72.049  1.00  0.00    -0.506 OA 
BRANCH  26  28
HETATM   28  O   UNL     1     -13.489   9.765  71.039  1.00  0.00    -0.347 OA 
HETATM   29  C   UNL     1     -13.551   8.952  72.211  1.00  0.00    -0.462 C  
ENDBRANCH  26  28
ENDBRANCH  25  26
ENDBRANCH  24  25
ENDBRANCH  23  24
ENDBRANCH  22  23
ENDBRANCH  21  22
ENDBRANCH  20  21
ENDBRANCH  19  20
ENDBRANCH  11  12
ENDBRANCH   8  10
ENDBRANCH   3   4
ENDBRANCH   2   3
TORSDOF 12
ENDMDL
MODEL       29
REMARK 921   NORMALIZED FREE ENERGY PREDICTED BY IDOCK:   -5.37 KCAL/MOL
REMARK 922        TOTAL FREE ENERGY PREDICTED BY IDOCK:  -11.18 KCAL/MOL
REMARK 923 INTER-LIGAND FREE ENERGY PREDICTED BY IDOCK:   -9.07 KCAL/MOL
REMARK 924 INTRA-LIGAND FREE ENERGY PREDICTED BY IDOCK:   -2.12 KCAL/MOL
REMARK 927      BINDING AFFINITY PREDICTED BY RF-SCORE:    0.00 PKD
ROOT
HETATM    1  C   UNL     1     -12.444  12.111  63.588  1.00  0.00    -0.658 C  
HETATM    2  C   UNL     1     -12.317  13.601  63.875  1.00  0.00    -0.375 C  
ENDROOT
BRANCH   2   3
HETATM    3  C   UNL     1     -12.661  13.891  65.332  1.00  0.00    -0.538 C  
BRANCH   3   4
HETATM    4  C   UNL     1     -11.470  14.461  66.114  1.00  0.00    -0.357 C  
HETATM    5  C   UNL     1     -11.323  13.851  67.529  1.00  0.00    -0.318 C  
HETATM    6  O   UNL     1     -12.502  14.185  68.276  1.00  0.00    -0.538 OA 
HETATM    7  C   UNL     1     -10.116  14.478  68.242  1.00  0.00    -0.232 C  
HETATM    8  C   UNL     1     -11.200  12.309  67.442  1.00  0.00    -0.358 C  
HETATM    9  H   UNL     1     -12.412  13.812  69.144  1.00  0.00     0.000 HD 
BRANCH   8  10
HETATM   10  C   UNL     1     -10.890  11.597  68.728  1.00  0.00    -0.262 C  
HETATM   11  C   UNL     1     -11.798  10.933  69.462  1.00  0.00    -0.404 C  
BRANCH  11  12
HETATM   12  C   UNL     1     -11.540  10.204  70.755  1.00  0.00    -0.445 C  
HETATM   13  C   UNL     1     -12.863   9.858  71.460  1.00  0.00    -0.421 C  
HETATM   14  C   UNL     1     -12.517   8.754  72.441  1.00  0.00    -0.421 C  
HETATM   15  O   UNL     1     -13.409  10.978  72.147  1.00  0.00    -0.594 OA 
HETATM   16  H   UNL     1     -14.227  10.764  72.582  1.00  0.00     0.000 HD 
HETATM   17  C   UNL     1     -11.413   8.039  71.730  1.00  0.00    -0.277 C  
HETATM   18  O   UNL     1     -11.081   6.893  72.013  1.00  0.00    -0.233 OA 
HETATM   19  C   UNL     1     -10.777   8.864  70.629  1.00  0.00    -0.282 C  
BRANCH  19  20
HETATM   20  C   UNL     1      -9.266   9.070  70.781  1.00  0.00    -0.299 C  
BRANCH  20  21
HETATM   21  C   UNL     1      -8.476   8.435  69.636  1.00  0.00    -0.127 C  
BRANCH  21  22
HETATM   22  C   UNL     1      -8.818   9.062  68.288  1.00  0.00    -0.134 C  
BRANCH  22  23
HETATM   23  C   UNL     1      -9.017   7.975  67.229  1.00  0.00    -0.148 C  
BRANCH  23  24
HETATM   24  C   UNL     1     -10.499   7.795  66.917  1.00  0.00    -0.388 C  
BRANCH  24  25
HETATM   25  C   UNL     1     -11.075   6.546  67.578  1.00  0.00    -0.396 C  
BRANCH  25  26
HETATM   26  C   UNL     1     -10.526   5.295  66.933  1.00  0.00    -0.254 C  
HETATM   27  O   UNL     1     -10.780   4.917  65.800  1.00  0.00    -0.270 OA 
BRANCH  26  28
HETATM   28  O   UNL     1      -9.702   4.648  67.801  1.00  0.00    -0.158 OA 
HETATM   29  C   UNL     1     -10.009   4.908  69.171  1.00  0.00    -0.182 C  
ENDBRANCH  26  28
ENDBRANCH  25  26
ENDBRANCH  24  25
ENDBRANCH  23  24
ENDBRANCH  22  23
ENDBRANCH  21  22
ENDBRANCH  20  21
ENDBRANCH  19  20
ENDBRANCH  11  12
ENDBRANCH   8  10
ENDBRANCH   3   4
ENDBRANCH   2   3
TORSDOF 12
ENDMDL
MODEL       30
REMARK 921   NORMALIZED FREE ENERGY PREDICTED BY IDOCK:   -5.36 KCAL/MOL
REMARK 922        TOTAL FREE ENERGY PREDICTED BY IDOCK:  -11.15 KCAL/MOL
REMARK 923 INTER-LIGAND FREE ENERGY PREDICTED BY IDOCK:   -9.88 KCAL/MOL
REMARK 924 INTRA-LIGAND FREE ENERGY PREDICTED BY IDOCK:   -1.27 KCAL/MOL
REMARK 927      BINDING AFFINITY PREDICTED BY RF-SCORE:    0.00 PKD
ROOT
HETATM    1  C   UNL     1     -10.095   4.894  69.791  1.00  0.00    -0.319 C  
HETATM    2  C   UNL     1     -10.445   5.465  71.158  1.00  0.00    -0.295 C  
ENDROOT
BRANCH   2   3
HETATM    3  C   UNL     1     -10.806   6.942  71.040  1.00  0.00    -0.272 C  
BRANCH   3   4
HETATM    4  C   UNL     1     -12.322   7.180  71.075  1.00  0.00    -0.376 C  
HETATM    5  C   UNL     1     -12.710   8.533  71.718  1.00  0.00    -0.349 C  
HETATM    6  O   UNL     1     -12.266   8.515  73.081  1.00  0.00    -0.435 OA 
HETATM    7  C   UNL     1     -14.238   8.688  71.717  1.00  0.00    -0.490 C  
HETATM    8  C   UNL     1     -12.015   9.702  70.974  1.00  0.00    -0.427 C  
HETATM    9  H   UNL     1     -12.504   9.345  73.476  1.00  0.00     0.000 HD 
BRANCH   8  10
HETATM   10  C   UNL     1     -12.428  11.086  71.389  1.00  0.00    -0.436 C  
HETATM   11  C   UNL     1     -12.451  12.147  70.565  1.00  0.00    -0.282 C  
BRANCH  11  12
HETATM   12  C   UNL     1     -12.856  13.551  70.930  1.00  0.00    -0.298 C  
HETATM   13  C   UNL     1     -13.104  13.671  72.443  1.00  0.00    -0.399 C  
HETATM   14  C   UNL     1     -13.024  15.155  72.747  1.00  0.00    -0.522 C  
HETATM   15  O   UNL     1     -14.378  13.158  72.816  1.00  0.00    -0.655 OA 
HETATM   16  H   UNL     1     -14.532  13.231  73.751  1.00  0.00     0.000 HD 
HETATM   17  C   UNL     1     -12.021  15.625  71.741  1.00  0.00    -0.440 C  
HETATM   18  O   UNL     1     -11.416  16.684  71.861  1.00  0.00    -0.279 OA 
HETATM   19  C   UNL     1     -11.825  14.655  70.593  1.00  0.00    -0.367 C  
BRANCH  19  20
HETATM   20  C   UNL     1     -12.087  15.252  69.205  1.00  0.00    -0.280 C  
BRANCH  20  21
HETATM   21  C   UNL     1     -11.537  14.371  68.082  1.00  0.00    -0.360 C  
BRANCH  21  22
HETATM   22  C   UNL     1     -10.042  14.113  68.239  1.00  0.00    -0.241 C  
BRANCH  22  23
HETATM   23  C   UNL     1      -9.398  13.862  66.873  1.00  0.00    -0.265 C  
BRANCH  23  24
HETATM   24  C   UNL     1      -9.437  15.125  66.020  1.00  0.00    -0.358 C  
BRANCH  24  25
HETATM   25  C   UNL     1      -8.399  16.149  66.469  1.00  0.00    -0.352 C  
BRANCH  25  26
HETATM   26  C   UNL     1      -8.949  17.552  66.365  1.00  0.00    -0.238 C  
HETATM   27  O   UNL     1      -8.434  18.467  65.742  1.00  0.00    -0.468 OA 
BRANCH  26  28
HETATM   28  O   UNL     1     -10.110  17.649  67.069  1.00  0.00    -0.305 OA 
HETATM   29  C   UNL     1      -9.915  18.029  68.431  1.00  0.00    -0.378 C  
ENDBRANCH  26  28
ENDBRANCH  25  26
ENDBRANCH  24  25
ENDBRANCH  23  24
ENDBRANCH  22  23
ENDBRANCH  21  22
ENDBRANCH  20  21
ENDBRANCH  19  20
ENDBRANCH  11  12
ENDBRANCH   8  10
ENDBRANCH   3   4
ENDBRANCH   2   3
TORSDOF 12
ENDMDL
MODEL       31
REMARK 921   NORMALIZED FREE ENERGY PREDICTED BY IDOCK:   -5.35 KCAL/MOL
REMARK 922        TOTAL FREE ENERGY PREDICTED BY IDOCK:  -11.15 KCAL/MOL
REMARK 923 INTER-LIGAND FREE ENERGY PREDICTED BY IDOCK:   -9.10 KCAL/MOL
REMARK 924 INTRA-LIGAND FREE ENERGY PREDICTED BY IDOCK:   -2.05 KCAL/MOL
REMARK 927      BINDING AFFINITY PREDICTED BY RF-SCORE:    0.00 PKD
ROOT
HETATM    1  C   UNL     1      -9.676  16.675  67.348  1.00  0.00    -0.251 C  
HETATM    2  C   UNL     1     -10.851  17.075  68.229  1.00  0.00    -0.341 C  
ENDROOT
BRANCH   2   3
HETATM    3  C   UNL     1     -11.502  15.837  68.837  1.00  0.00    -0.381 C  
BRANCH   3   4
HETATM    4  C   UNL     1     -11.870  14.788  67.779  1.00  0.00    -0.322 C  
HETATM    5  C   UNL     1     -11.469  13.349  68.184  1.00  0.00    -0.304 C  
HETATM    6  O   UNL     1     -10.042  13.312  68.319  1.00  0.00    -0.240 OA 
HETATM    7  C   UNL     1     -11.867  12.367  67.073  1.00  0.00    -0.368 C  
HETATM    8  C   UNL     1     -12.116  12.970  69.541  1.00  0.00    -0.289 C  
HETATM    9  H   UNL     1      -9.796  12.429  68.568  1.00  0.00     0.000 HD 
BRANCH   8  10
HETATM   10  C   UNL     1     -11.944  11.544  69.979  1.00  0.00    -0.435 C  
HETATM   11  C   UNL     1     -12.260  11.086  71.202  1.00  0.00    -0.415 C  
BRANCH  11  12
HETATM   12  C   UNL     1     -12.107   9.668  71.691  1.00  0.00    -0.481 C  
HETATM   13  C   UNL     1     -13.466   8.947  71.703  1.00  0.00    -0.378 C  
HETATM   14  C   UNL     1     -13.134   7.468  71.734  1.00  0.00    -0.362 C  
HETATM   15  O   UNL     1     -14.247   9.302  72.838  1.00  0.00    -0.954 OA 
HETATM   16  H   UNL     1     -15.087   8.857  72.846  1.00  0.00     0.000 HD 
HETATM   17  C   UNL     1     -11.853   7.419  70.962  1.00  0.00    -0.307 C  
HETATM   18  O   UNL     1     -11.425   6.385  70.462  1.00  0.00    -0.349 OA 
HETATM   19  C   UNL     1     -11.170   8.768  70.852  1.00  0.00    -0.320 C  
BRANCH  19  20
HETATM   20  C   UNL     1      -9.737   8.800  71.396  1.00  0.00    -0.351 C  
BRANCH  20  21
HETATM   21  C   UNL     1      -8.745   9.370  70.381  1.00  0.00    -0.278 C  
BRANCH  21  22
HETATM   22  C   UNL     1      -9.294   9.330  68.959  1.00  0.00    -0.151 C  
BRANCH  22  23
HETATM   23  C   UNL     1      -8.813   8.069  68.237  1.00  0.00    -0.133 C  
BRANCH  23  24
HETATM   24  C   UNL     1      -9.449   7.965  66.855  1.00  0.00    -0.243 C  
BRANCH  24  25
HETATM   25  C   UNL     1     -10.184   9.245  66.467  1.00  0.00    -0.316 C  
BRANCH  25  26
HETATM   26  C   UNL     1      -9.490   9.935  65.316  1.00  0.00    -0.268 C  
HETATM   27  O   UNL     1      -8.286   9.936  65.117  1.00  0.00    -0.131 OA 
BRANCH  26  28
HETATM   28  O   UNL     1     -10.408  10.557  64.527  1.00  0.00    -0.348 OA 
HETATM   29  C   UNL     1      -9.826  11.259  63.429  1.00  0.00    -0.385 C  
ENDBRANCH  26  28
ENDBRANCH  25  26
ENDBRANCH  24  25
ENDBRANCH  23  24
ENDBRANCH  22  23
ENDBRANCH  21  22
ENDBRANCH  20  21
ENDBRANCH  19  20
ENDBRANCH  11  12
ENDBRANCH   8  10
ENDBRANCH   3   4
ENDBRANCH   2   3
TORSDOF 12
ENDMDL
MODEL       32
REMARK 921   NORMALIZED FREE ENERGY PREDICTED BY IDOCK:   -5.34 KCAL/MOL
REMARK 922        TOTAL FREE ENERGY PREDICTED BY IDOCK:  -11.13 KCAL/MOL
REMARK 923 INTER-LIGAND FREE ENERGY PREDICTED BY IDOCK:   -9.67 KCAL/MOL
REMARK 924 INTRA-LIGAND FREE ENERGY PREDICTED BY IDOCK:   -1.46 KCAL/MOL
REMARK 927      BINDING AFFINITY PREDICTED BY RF-SCORE:    0.00 PKD
ROOT
HETATM    1  C   UNL     1     -10.011   5.256  69.111  1.00  0.00    -0.275 C  
HETATM    2  C   UNL     1     -10.185   5.466  70.608  1.00  0.00    -0.323 C  
ENDROOT
BRANCH   2   3
HETATM    3  C   UNL     1     -10.679   6.881  70.891  1.00  0.00    -0.258 C  
BRANCH   3   4
HETATM    4  C   UNL     1     -12.210   6.983  70.871  1.00  0.00    -0.388 C  
HETATM    5  C   UNL     1     -12.740   8.300  71.488  1.00  0.00    -0.305 C  
HETATM    6  O   UNL     1     -12.344   8.331  72.866  1.00  0.00    -0.607 OA 
HETATM    7  C   UNL     1     -14.274   8.319  71.433  1.00  0.00    -0.427 C  
HETATM    8  C   UNL     1     -12.126   9.522  70.758  1.00  0.00    -0.305 C  
HETATM    9  H   UNL     1     -12.669   9.139  73.245  1.00  0.00     0.000 HD 
BRANCH   8  10
HETATM   10  C   UNL     1     -12.675  10.867  71.146  1.00  0.00    -0.530 C  
HETATM   11  C   UNL     1     -12.269  12.030  70.611  1.00  0.00    -0.409 C  
BRANCH  11  12
HETATM   12  C   UNL     1     -12.786  13.402  70.964  1.00  0.00    -0.329 C  
HETATM   13  C   UNL     1     -13.148  13.480  72.457  1.00  0.00    -0.357 C  
HETATM   14  C   UNL     1     -13.182  14.961  72.783  1.00  0.00    -0.568 C  
HETATM   15  O   UNL     1     -14.410  12.884  72.731  1.00  0.00    -0.621 OA 
HETATM   16  H   UNL     1     -14.634  12.933  73.654  1.00  0.00     0.000 HD 
HETATM   17  C   UNL     1     -12.143  15.509  71.857  1.00  0.00    -0.412 C  
HETATM   18  O   UNL     1     -11.615  16.601  72.033  1.00  0.00    -0.375 OA 
HETATM   19  C   UNL     1     -11.806  14.572  70.714  1.00  0.00    -0.367 C  
BRANCH  19  20
HETATM   20  C   UNL     1     -12.005  15.174  69.319  1.00  0.00    -0.322 C  
BRANCH  20  21
HETATM   21  C   UNL     1     -10.678  15.439  68.606  1.00  0.00    -0.246 C  
BRANCH  21  22
HETATM   22  C   UNL     1      -9.953  14.145  68.250  1.00  0.00    -0.241 C  
BRANCH  22  23
HETATM   23  C   UNL     1     -10.385  13.656  66.865  1.00  0.00    -0.262 C  
BRANCH  23  24
HETATM   24  C   UNL     1     -11.412  12.536  66.987  1.00  0.00    -0.419 C  
BRANCH  24  25
HETATM   25  C   UNL     1     -10.761  11.157  66.941  1.00  0.00    -0.322 C  
BRANCH  25  26
HETATM   26  C   UNL     1      -9.763  11.071  65.811  1.00  0.00    -0.224 C  
HETATM   27  O   UNL     1      -8.554  10.962  65.943  1.00  0.00    -0.172 OA 
BRANCH  26  28
HETATM   28  O   UNL     1     -10.411  11.129  64.615  1.00  0.00    -0.289 OA 
HETATM   29  C   UNL     1      -9.546  10.944  63.494  1.00  0.00    -0.319 C  
ENDBRANCH  26  28
ENDBRANCH  25  26
ENDBRANCH  24  25
ENDBRANCH  23  24
ENDBRANCH  22  23
ENDBRANCH  21  22
ENDBRANCH  20  21
ENDBRANCH  19  20
ENDBRANCH  11  12
ENDBRANCH   8  10
ENDBRANCH   3   4
ENDBRANCH   2   3
TORSDOF 12
ENDMDL
MODEL       33
REMARK 921   NORMALIZED FREE ENERGY PREDICTED BY IDOCK:   -5.33 KCAL/MOL
REMARK 922        TOTAL FREE ENERGY PREDICTED BY IDOCK:  -11.11 KCAL/MOL
REMARK 923 INTER-LIGAND FREE ENERGY PREDICTED BY IDOCK:   -9.37 KCAL/MOL
REMARK 924 INTRA-LIGAND FREE ENERGY PREDICTED BY IDOCK:   -1.74 KCAL/MOL
REMARK 927      BINDING AFFINITY PREDICTED BY RF-SCORE:    0.00 PKD
ROOT
HETATM    1  C   UNL     1      -9.332  10.794  62.553  1.00  0.00    -0.310 C  
HETATM    2  C   UNL     1      -9.108  10.423  64.012  1.00  0.00    -0.271 C  
ENDROOT
BRANCH   2   3
HETATM    3  C   UNL     1     -10.375  10.672  64.822  1.00  0.00    -0.353 C  
BRANCH   3   4
HETATM    4  C   UNL     1     -11.316  11.677  64.145  1.00  0.00    -0.397 C  
HETATM    5  C   UNL     1     -11.401  13.030  64.892  1.00  0.00    -0.303 C  
HETATM    6  O   UNL     1     -11.940  12.779  66.197  1.00  0.00    -0.407 OA 
HETATM    7  C   UNL     1     -12.363  13.972  64.153  1.00  0.00    -0.374 C  
HETATM    8  C   UNL     1      -9.990  13.654  65.039  1.00  0.00    -0.205 C  
HETATM    9  H   UNL     1     -11.992  13.609  66.655  1.00  0.00     0.000 HD 
BRANCH   8  10
HETATM   10  C   UNL     1      -9.938  15.046  65.602  1.00  0.00    -0.387 C  
HETATM   11  C   UNL     1      -8.822  15.634  66.062  1.00  0.00    -0.209 C  
BRANCH  11  12
HETATM   12  C   UNL     1      -8.717  17.024  66.635  1.00  0.00    -0.282 C  
HETATM   13  C   UNL     1      -7.582  17.809  65.956  1.00  0.00    -0.220 C  
HETATM   14  C   UNL     1      -7.877  19.269  66.244  1.00  0.00    -0.311 C  
HETATM   15  O   UNL     1      -6.304  17.452  66.471  1.00  0.00    -0.185 OA 
HETATM   16  H   UNL     1      -5.603  17.937  66.051  1.00  0.00     0.000 HD 
HETATM   17  C   UNL     1      -9.372  19.284  66.286  1.00  0.00    -0.339 C  
HETATM   18  O   UNL     1     -10.025  20.312  66.154  1.00  0.00    -0.429 OA 
HETATM   19  C   UNL     1      -9.978  17.908  66.484  1.00  0.00    -0.357 C  
BRANCH  19  20
HETATM   20  C   UNL     1     -10.890  17.786  67.710  1.00  0.00    -0.238 C  
BRANCH  20  21
HETATM   21  C   UNL     1     -10.138  17.290  68.946  1.00  0.00    -0.331 C  
BRANCH  21  22
HETATM   22  C   UNL     1     -10.994  16.364  69.803  1.00  0.00    -0.341 C  
BRANCH  22  23
HETATM   23  C   UNL     1     -11.174  15.011  69.111  1.00  0.00    -0.293 C  
BRANCH  23  24
HETATM   24  C   UNL     1     -11.948  14.049  70.005  1.00  0.00    -0.404 C  
BRANCH  24  25
HETATM   25  C   UNL     1     -11.989  14.524  71.455  1.00  0.00    -0.382 C  
BRANCH  25  26
HETATM   26  C   UNL     1     -13.002  13.735  72.250  1.00  0.00    -0.336 C  
HETATM   27  O   UNL     1     -13.379  12.604  71.987  1.00  0.00    -0.502 OA 
BRANCH  26  28
HETATM   28  O   UNL     1     -13.435  14.470  73.310  1.00  0.00    -0.581 OA 
HETATM   29  C   UNL     1     -12.408  15.267  73.902  1.00  0.00    -0.626 C  
ENDBRANCH  26  28
ENDBRANCH  25  26
ENDBRANCH  24  25
ENDBRANCH  23  24
ENDBRANCH  22  23
ENDBRANCH  21  22
ENDBRANCH  20  21
ENDBRANCH  19  20
ENDBRANCH  11  12
ENDBRANCH   8  10
ENDBRANCH   3   4
ENDBRANCH   2   3
TORSDOF 12
ENDMDL
MODEL       34
REMARK 921   NORMALIZED FREE ENERGY PREDICTED BY IDOCK:   -5.33 KCAL/MOL
REMARK 922        TOTAL FREE ENERGY PREDICTED BY IDOCK:  -11.10 KCAL/MOL
REMARK 923 INTER-LIGAND FREE ENERGY PREDICTED BY IDOCK:   -9.66 KCAL/MOL
REMARK 924 INTRA-LIGAND FREE ENERGY PREDICTED BY IDOCK:   -1.44 KCAL/MOL
REMARK 927      BINDING AFFINITY PREDICTED BY RF-SCORE:    0.00 PKD
ROOT
HETATM    1  C   UNL     1     -12.732   7.336  71.413  1.00  0.00    -0.427 C  
HETATM    2  C   UNL     1     -11.378   6.865  70.901  1.00  0.00    -0.348 C  
ENDROOT
BRANCH   2   3
HETATM    3  C   UNL     1     -10.546   8.055  70.434  1.00  0.00    -0.224 C  
BRANCH   3   4
HETATM    4  C   UNL     1     -11.319   9.378  70.510  1.00  0.00    -0.328 C  
HETATM    5  C   UNL     1     -10.812  10.437  69.502  1.00  0.00    -0.255 C  
HETATM    6  O   UNL     1      -9.449  10.740  69.829  1.00  0.00    -0.397 OA 
HETATM    7  C   UNL     1     -11.633  11.727  69.648  1.00  0.00    -0.393 C  
HETATM    8  C   UNL     1     -10.874   9.880  68.057  1.00  0.00    -0.294 C  
HETATM    9  H   UNL     1      -9.138  11.390  69.211  1.00  0.00     0.000 HD 
BRANCH   8  10
HETATM   10  C   UNL     1     -10.564  10.857  66.959  1.00  0.00    -0.307 C  
HETATM   11  C   UNL     1     -11.493  11.551  66.281  1.00  0.00    -0.124 C  
BRANCH  11  12
HETATM   12  C   UNL     1     -11.235  12.541  65.174  1.00  0.00    -0.342 C  
HETATM   13  C   UNL     1     -12.059  12.187  63.924  1.00  0.00    -0.488 C  
HETATM   14  C   UNL     1     -12.098  13.458  63.097  1.00  0.00    -0.138 C  
HETATM   15  O   UNL     1     -11.468  11.130  63.178  1.00  0.00    -0.795 OA 
HETATM   16  H   UNL     1     -11.977  10.911  62.406  1.00  0.00     0.000 HD 
HETATM   17  C   UNL     1     -12.073  14.518  64.152  1.00  0.00    -0.350 C  
HETATM   18  O   UNL     1     -12.431  15.670  63.937  1.00  0.00    -0.693 OA 
HETATM   19  C   UNL     1     -11.586  14.013  65.496  1.00  0.00    -0.333 C  
BRANCH  19  20
HETATM   20  C   UNL     1     -10.370  14.763  66.054  1.00  0.00    -0.318 C  
BRANCH  20  21
HETATM   21  C   UNL     1     -10.210  14.566  67.562  1.00  0.00    -0.232 C  
BRANCH  21  22
HETATM   22  C   UNL     1     -11.331  15.239  68.348  1.00  0.00    -0.338 C  
BRANCH  22  23
HETATM   23  C   UNL     1     -10.754  16.266  69.326  1.00  0.00    -0.307 C  
BRANCH  23  24
HETATM   24  C   UNL     1      -9.750  17.172  68.623  1.00  0.00    -0.293 C  
BRANCH  24  25
HETATM   25  C   UNL     1     -10.145  18.644  68.718  1.00  0.00    -0.398 C  
BRANCH  25  26
HETATM   26  C   UNL     1     -10.141  19.290  67.353  1.00  0.00    -0.389 C  
HETATM   27  O   UNL     1     -10.631  18.808  66.343  1.00  0.00    -0.408 OA 
BRANCH  26  28
HETATM   28  O   UNL     1      -9.510  20.494  67.412  1.00  0.00    -0.409 OA 
HETATM   29  C   UNL     1      -8.113  20.415  67.129  1.00  0.00    -0.329 C  
ENDBRANCH  26  28
ENDBRANCH  25  26
ENDBRANCH  24  25
ENDBRANCH  23  24
ENDBRANCH  22  23
ENDBRANCH  21  22
ENDBRANCH  20  21
ENDBRANCH  19  20
ENDBRANCH  11  12
ENDBRANCH   8  10
ENDBRANCH   3   4
ENDBRANCH   2   3
TORSDOF 12
ENDMDL
MODEL       35
REMARK 921   NORMALIZED FREE ENERGY PREDICTED BY IDOCK:   -5.33 KCAL/MOL
REMARK 922        TOTAL FREE ENERGY PREDICTED BY IDOCK:  -11.10 KCAL/MOL
REMARK 923 INTER-LIGAND FREE ENERGY PREDICTED BY IDOCK:   -8.83 KCAL/MOL
REMARK 924 INTRA-LIGAND FREE ENERGY PREDICTED BY IDOCK:   -2.27 KCAL/MOL
REMARK 927      BINDING AFFINITY PREDICTED BY RF-SCORE:    0.00 PKD
ROOT
HETATM    1  C   UNL     1     -11.247  12.305  63.785  1.00  0.00    -0.510 C  
HETATM    2  C   UNL     1     -11.097  13.041  65.109  1.00  0.00    -0.317 C  
ENDROOT
BRANCH   2   3
HETATM    3  C   UNL     1     -11.688  12.213  66.245  1.00  0.00    -0.389 C  
BRANCH   3   4
HETATM    4  C   UNL     1     -10.684  11.976  67.382  1.00  0.00    -0.266 C  
HETATM    5  C   UNL     1     -10.601  10.495  67.821  1.00  0.00    -0.243 C  
HETATM    6  O   UNL     1     -11.888  10.112  68.325  1.00  0.00    -0.697 OA 
HETATM    7  C   UNL     1      -9.582  10.348  68.961  1.00  0.00    -0.212 C  
HETATM    8  C   UNL     1     -10.242   9.593  66.612  1.00  0.00    -0.302 C  
HETATM    9  H   UNL     1     -11.837   9.203  68.595  1.00  0.00     0.000 HD 
BRANCH   8  10
HETATM   10  C   UNL     1      -9.969   8.149  66.924  1.00  0.00    -0.343 C  
HETATM   11  C   UNL     1     -10.901   7.181  66.894  1.00  0.00    -0.307 C  
BRANCH  11  12
HETATM   12  C   UNL     1     -10.679   5.721  67.197  1.00  0.00    -0.358 C  
HETATM   13  C   UNL     1     -10.393   4.935  65.907  1.00  0.00    -0.236 C  
HETATM   14  C   UNL     1      -9.732   3.647  66.361  1.00  0.00    -0.096 C  
HETATM   15  O   UNL     1     -11.583   4.650  65.180  1.00  0.00    -1.107 OA 
HETATM   16  H   UNL     1     -11.406   4.165  64.383  1.00  0.00     0.000 HD 
HETATM   17  C   UNL     1      -8.993   4.089  67.584  1.00  0.00    -0.129 C  
HETATM   18  O   UNL     1      -8.064   3.448  68.060  1.00  0.00    -0.077 OA 
HETATM   19  C   UNL     1      -9.498   5.405  68.144  1.00  0.00    -0.142 C  
BRANCH  19  20
HETATM   20  C   UNL     1      -9.960   5.337  69.604  1.00  0.00    -0.302 C  
BRANCH  20  21
HETATM   21  C   UNL     1      -9.131   6.242  70.517  1.00  0.00    -0.157 C  
BRANCH  21  22
HETATM   22  C   UNL     1      -9.991   6.936  71.568  1.00  0.00    -0.185 C  
BRANCH  22  23
HETATM   23  C   UNL     1     -11.415   6.375  71.547  1.00  0.00    -0.360 C  
BRANCH  23  24
HETATM   24  C   UNL     1     -12.436   7.504  71.458  1.00  0.00    -0.375 C  
BRANCH  24  25
HETATM   25  C   UNL     1     -11.839   8.848  71.866  1.00  0.00    -0.440 C  
BRANCH  25  26
HETATM   26  C   UNL     1     -12.847   9.959  71.693  1.00  0.00    -0.436 C  
HETATM   27  O   UNL     1     -13.992   9.943  72.116  1.00  0.00    -0.211 OA 
BRANCH  26  28
HETATM   28  O   UNL     1     -12.291  10.986  70.996  1.00  0.00    -0.357 OA 
HETATM   29  C   UNL     1     -12.830  12.262  71.342  1.00  0.00    -0.271 C  
ENDBRANCH  26  28
ENDBRANCH  25  26
ENDBRANCH  24  25
ENDBRANCH  23  24
ENDBRANCH  22  23
ENDBRANCH  21  22
ENDBRANCH  20  21
ENDBRANCH  19  20
ENDBRANCH  11  12
ENDBRANCH   8  10
ENDBRANCH   3   4
ENDBRANCH   2   3
TORSDOF 12
ENDMDL
MODEL       36
REMARK 921   NORMALIZED FREE ENERGY PREDICTED BY IDOCK:   -5.31 KCAL/MOL
REMARK 922        TOTAL FREE ENERGY PREDICTED BY IDOCK:  -11.07 KCAL/MOL
REMARK 923 INTER-LIGAND FREE ENERGY PREDICTED BY IDOCK:   -9.62 KCAL/MOL
REMARK 924 INTRA-LIGAND FREE ENERGY PREDICTED BY IDOCK:   -1.45 KCAL/MOL
REMARK 927      BINDING AFFINITY PREDICTED BY RF-SCORE:    0.00 PKD
ROOT
HETATM    1  C   UNL     1      -9.623   4.740  70.819  1.00  0.00    -0.249 C  
HETATM    2  C   UNL     1     -10.741   5.768  70.717  1.00  0.00    -0.342 C  
ENDROOT
BRANCH   2   3
HETATM    3  C   UNL     1     -10.236   7.143  71.139  1.00  0.00    -0.200 C  
BRANCH   3   4
HETATM    4  C   UNL     1     -11.355   8.193  71.177  1.00  0.00    -0.299 C  
HETATM    5  C   UNL     1     -10.993   9.495  70.424  1.00  0.00    -0.278 C  
HETATM    6  O   UNL     1      -9.859  10.081  71.078  1.00  0.00    -0.194 OA 
HETATM    7  C   UNL     1     -12.160  10.489  70.515  1.00  0.00    -0.437 C  
HETATM    8  C   UNL     1     -10.622   9.182  68.952  1.00  0.00    -0.214 C  
HETATM    9  H   UNL     1      -9.637  10.881  70.616  1.00  0.00     0.000 HD 
BRANCH   8  10
HETATM   10  C   UNL     1     -10.405  10.370  68.058  1.00  0.00    -0.212 C  
HETATM   11  C   UNL     1     -10.971  10.519  66.849  1.00  0.00    -0.199 C  
BRANCH  11  12
HETATM   12  C   UNL     1     -10.787  11.689  65.916  1.00  0.00    -0.339 C  
HETATM   13  C   UNL     1     -10.237  11.220  64.558  1.00  0.00    -0.314 C  
HETATM   14  C   UNL     1     -10.545  12.348  63.591  1.00  0.00    -0.481 C  
HETATM   15  O   UNL     1      -8.835  10.978  64.605  1.00  0.00    -0.331 OA 
HETATM   16  H   UNL     1      -8.496  10.689  63.767  1.00  0.00     0.000 HD 
HETATM   17  C   UNL     1     -11.820  12.897  64.148  1.00  0.00    -0.414 C  
HETATM   18  O   UNL     1     -12.584  13.589  63.485  1.00  0.00    -0.738 OA 
HETATM   19  C   UNL     1     -12.067  12.493  65.588  1.00  0.00    -0.464 C  
BRANCH  19  20
HETATM   20  C   UNL     1     -12.246  13.668  66.556  1.00  0.00    -0.454 C  
BRANCH  20  21
HETATM   21  C   UNL     1     -10.919  14.131  67.158  1.00  0.00    -0.304 C  
BRANCH  21  22
HETATM   22  C   UNL     1     -11.072  14.567  68.612  1.00  0.00    -0.272 C  
BRANCH  22  23
HETATM   23  C   UNL     1     -11.189  16.091  68.702  1.00  0.00    -0.366 C  
BRANCH  23  24
HETATM   24  C   UNL     1     -10.635  16.748  67.443  1.00  0.00    -0.291 C  
BRANCH  24  25
HETATM   25  C   UNL     1     -10.420  18.247  67.628  1.00  0.00    -0.431 C  
BRANCH  25  26
HETATM   26  C   UNL     1     -10.406  18.957  66.295  1.00  0.00    -0.453 C  
HETATM   27  O   UNL     1     -10.821  18.493  65.245  1.00  0.00    -0.606 OA 
BRANCH  26  28
HETATM   28  O   UNL     1      -9.861  20.197  66.435  1.00  0.00    -0.424 OA 
HETATM   29  C   UNL     1      -8.875  20.267  67.465  1.00  0.00    -0.318 C  
ENDBRANCH  26  28
ENDBRANCH  25  26
ENDBRANCH  24  25
ENDBRANCH  23  24
ENDBRANCH  22  23
ENDBRANCH  21  22
ENDBRANCH  20  21
ENDBRANCH  19  20
ENDBRANCH  11  12
ENDBRANCH   8  10
ENDBRANCH   3   4
ENDBRANCH   2   3
TORSDOF 12
ENDMDL
MODEL       37
REMARK 921   NORMALIZED FREE ENERGY PREDICTED BY IDOCK:   -5.28 KCAL/MOL
REMARK 922        TOTAL FREE ENERGY PREDICTED BY IDOCK:  -11.02 KCAL/MOL
REMARK 923 INTER-LIGAND FREE ENERGY PREDICTED BY IDOCK:   -9.36 KCAL/MOL
REMARK 924 INTRA-LIGAND FREE ENERGY PREDICTED BY IDOCK:   -1.66 KCAL/MOL
REMARK 927      BINDING AFFINITY PREDICTED BY RF-SCORE:    0.00 PKD
ROOT
HETATM    1  C   UNL     1     -12.793  12.423  64.333  1.00  0.00    -0.344 C  
HETATM    2  C   UNL     1     -11.505  12.518  63.526  1.00  0.00    -0.570 C  
ENDROOT
BRANCH   2   3
HETATM    3  C   UNL     1     -10.384  11.758  64.227  1.00  0.00    -0.359 C  
BRANCH   3   4
HETATM    4  C   UNL     1     -10.562  11.723  65.751  1.00  0.00    -0.312 C  
HETATM    5  C   UNL     1      -9.566  12.639  66.501  1.00  0.00    -0.248 C  
HETATM    6  O   UNL     1      -8.241  12.162  66.233  1.00  0.00    -0.388 OA 
HETATM    7  C   UNL     1      -9.809  12.541  68.015  1.00  0.00    -0.214 C  
HETATM    8  C   UNL     1      -9.691  14.099  65.995  1.00  0.00    -0.297 C  
HETATM    9  H   UNL     1      -7.630  12.724  66.693  1.00  0.00     0.000 HD 
BRANCH   8  10
HETATM   10  C   UNL     1      -8.897  15.129  66.748  1.00  0.00    -0.302 C  
HETATM   11  C   UNL     1      -8.513  16.310  66.236  1.00  0.00    -0.369 C  
BRANCH  11  12
HETATM   12  C   UNL     1      -7.718  17.374  66.948  1.00  0.00    -0.249 C  
HETATM   13  C   UNL     1      -6.521  17.823  66.093  1.00  0.00    -0.260 C  
HETATM   14  C   UNL     1      -6.107  19.169  66.658  1.00  0.00    -0.176 C  
HETATM   15  O   UNL     1      -5.438  16.902  66.167  1.00  0.00    -0.308 OA 
HETATM   16  H   UNL     1      -4.699  17.178  65.639  1.00  0.00     0.000 HD 
HETATM   17  C   UNL     1      -7.414  19.726  67.125  1.00  0.00    -0.248 C  
HETATM   18  O   UNL     1      -7.583  20.922  67.331  1.00  0.00    -0.345 OA 
HETATM   19  C   UNL     1      -8.490  18.671  67.289  1.00  0.00    -0.275 C  
BRANCH  19  20
HETATM   20  C   UNL     1      -9.101  18.600  68.693  1.00  0.00    -0.344 C  
BRANCH  20  21
HETATM   21  C   UNL     1     -10.487  17.953  68.690  1.00  0.00    -0.269 C  
BRANCH  21  22
HETATM   22  C   UNL     1     -10.493  16.611  69.414  1.00  0.00    -0.320 C  
BRANCH  22  23
HETATM   23  C   UNL     1     -11.728  15.798  69.019  1.00  0.00    -0.405 C  
BRANCH  23  24
HETATM   24  C   UNL     1     -12.630  15.570  70.227  1.00  0.00    -0.362 C  
BRANCH  24  25
HETATM   25  C   UNL     1     -12.128  14.428  71.108  1.00  0.00    -0.410 C  
BRANCH  25  26
HETATM   26  C   UNL     1     -12.755  14.492  72.480  1.00  0.00    -0.348 C  
HETATM   27  O   UNL     1     -13.839  14.020  72.782  1.00  0.00    -0.674 OA 
BRANCH  26  28
HETATM   28  O   UNL     1     -11.930  15.155  73.337  1.00  0.00    -0.417 OA 
HETATM   29  C   UNL     1     -12.627  16.007  74.246  1.00  0.00    -0.546 C  
ENDBRANCH  26  28
ENDBRANCH  25  26
ENDBRANCH  24  25
ENDBRANCH  23  24
ENDBRANCH  22  23
ENDBRANCH  21  22
ENDBRANCH  20  21
ENDBRANCH  19  20
ENDBRANCH  11  12
ENDBRANCH   8  10
ENDBRANCH   3   4
ENDBRANCH   2   3
TORSDOF 12
ENDMDL
MODEL       38
REMARK 921   NORMALIZED FREE ENERGY PREDICTED BY IDOCK:   -5.28 KCAL/MOL
REMARK 922        TOTAL FREE ENERGY PREDICTED BY IDOCK:  -11.01 KCAL/MOL
REMARK 923 INTER-LIGAND FREE ENERGY PREDICTED BY IDOCK:   -9.39 KCAL/MOL
REMARK 924 INTRA-LIGAND FREE ENERGY PREDICTED BY IDOCK:   -1.62 KCAL/MOL
REMARK 927      BINDING AFFINITY PREDICTED BY RF-SCORE:    0.00 PKD
ROOT
HETATM    1  C   UNL     1      -8.878  10.877  62.378  1.00  0.00    -0.358 C  
HETATM    2  C   UNL     1      -8.855  10.170  63.726  1.00  0.00    -0.245 C  
ENDROOT
BRANCH   2   3
HETATM    3  C   UNL     1     -10.150  10.436  64.486  1.00  0.00    -0.365 C  
BRANCH   3   4
HETATM    4  C   UNL     1     -10.942  11.614  63.902  1.00  0.00    -0.478 C  
HETATM    5  C   UNL     1     -11.244  12.719  64.943  1.00  0.00    -0.297 C  
HETATM    6  O   UNL     1     -12.063  12.143  65.970  1.00  0.00    -0.612 OA 
HETATM    7  C   UNL     1     -12.040  13.852  64.279  1.00  0.00    -0.477 C  
HETATM    8  C   UNL     1      -9.929  13.238  65.576  1.00  0.00    -0.222 C  
HETATM    9  H   UNL     1     -12.250  12.821  66.608  1.00  0.00     0.000 HD 
BRANCH   8  10
HETATM   10  C   UNL     1     -10.058  14.426  66.487  1.00  0.00    -0.281 C  
HETATM   11  C   UNL     1      -9.058  14.913  67.240  1.00  0.00    -0.211 C  
BRANCH  11  12
HETATM   12  C   UNL     1      -9.136  16.098  68.168  1.00  0.00    -0.189 C  
HETATM   13  C   UNL     1      -7.920  17.021  67.976  1.00  0.00    -0.195 C  
HETATM   14  C   UNL     1      -8.332  18.355  68.568  1.00  0.00    -0.344 C  
HETATM   15  O   UNL     1      -6.763  16.522  68.637  1.00  0.00    -0.140 OA 
HETATM   16  H   UNL     1      -6.012  17.091  68.519  1.00  0.00     0.000 HD 
HETATM   17  C   UNL     1      -9.802  18.378  68.295  1.00  0.00    -0.359 C  
HETATM   18  O   UNL     1     -10.458  19.413  68.303  1.00  0.00    -0.401 OA 
HETATM   19  C   UNL     1     -10.375  17.007  67.991  1.00  0.00    -0.341 C  
BRANCH  19  20
HETATM   20  C   UNL     1     -11.516  16.576  68.919  1.00  0.00    -0.131 C  
BRANCH  20  21
HETATM   21  C   UNL     1     -11.005  16.064  70.266  1.00  0.00    -0.360 C  
BRANCH  21  22
HETATM   22  C   UNL     1     -12.050  16.212  71.368  1.00  0.00    -0.384 C  
BRANCH  22  23
HETATM   23  C   UNL     1     -11.618  15.444  72.619  1.00  0.00    -0.504 C  
BRANCH  23  24
HETATM   24  C   UNL     1     -12.805  14.714  73.238  1.00  0.00    -0.580 C  
BRANCH  24  25
HETATM   25  C   UNL     1     -13.739  14.141  72.176  1.00  0.00    -0.587 C  
BRANCH  25  26
HETATM   26  C   UNL     1     -13.257  12.788  71.709  1.00  0.00    -0.374 C  
HETATM   27  O   UNL     1     -13.389  11.742  72.324  1.00  0.00    -0.455 OA 
BRANCH  26  28
HETATM   28  O   UNL     1     -12.652  12.905  70.495  1.00  0.00    -0.236 OA 
HETATM   29  C   UNL     1     -11.779  11.817  70.192  1.00  0.00    -0.269 C  
ENDBRANCH  26  28
ENDBRANCH  25  26
ENDBRANCH  24  25
ENDBRANCH  23  24
ENDBRANCH  22  23
ENDBRANCH  21  22
ENDBRANCH  20  21
ENDBRANCH  19  20
ENDBRANCH  11  12
ENDBRANCH   8  10
ENDBRANCH   3   4
ENDBRANCH   2   3
TORSDOF 12
ENDMDL
MODEL       39
REMARK 921   NORMALIZED FREE ENERGY PREDICTED BY IDOCK:   -5.25 KCAL/MOL
REMARK 922        TOTAL FREE ENERGY PREDICTED BY IDOCK:  -10.96 KCAL/MOL
REMARK 923 INTER-LIGAND FREE ENERGY PREDICTED BY IDOCK:   -8.85 KCAL/MOL
REMARK 924 INTRA-LIGAND FREE ENERGY PREDICTED BY IDOCK:   -2.11 KCAL/MOL
REMARK 927      BINDING AFFINITY PREDICTED BY RF-SCORE:    0.00 PKD
ROOT
HETATM    1  C   UNL     1      -9.374  10.225  63.926  1.00  0.00    -0.337 C  
HETATM    2  C   UNL     1     -10.148  11.269  63.134  1.00  0.00    -0.385 C  
ENDROOT
BRANCH   2   3
HETATM    3  C   UNL     1     -11.416  11.668  63.882  1.00  0.00    -0.433 C  
BRANCH   3   4
HETATM    4  C   UNL     1     -11.953  13.035  63.439  1.00  0.00    -0.592 C  
HETATM    5  C   UNL     1     -11.901  14.102  64.559  1.00  0.00    -0.436 C  
HETATM    6  O   UNL     1     -12.746  13.657  65.629  1.00  0.00    -0.495 OA 
HETATM    7  C   UNL     1     -12.460  15.433  64.035  1.00  0.00     0.215 C  
HETATM    8  C   UNL     1     -10.453  14.258  65.089  1.00  0.00    -0.432 C  
HETATM    9  H   UNL     1     -12.715  14.311  66.317  1.00  0.00     0.000 HD 
BRANCH   8  10
HETATM   10  C   UNL     1     -10.225  15.374  66.068  1.00  0.00    -0.343 C  
HETATM   11  C   UNL     1      -9.051  16.007  66.231  1.00  0.00    -0.379 C  
BRANCH  11  12
HETATM   12  C   UNL     1      -8.771  17.130  67.196  1.00  0.00    -0.227 C  
HETATM   13  C   UNL     1      -8.225  18.363  66.454  1.00  0.00    -0.257 C  
HETATM   14  C   UNL     1      -8.438  19.527  67.402  1.00  0.00    -0.336 C  
HETATM   15  O   UNL     1      -6.844  18.227  66.140  1.00  0.00    -0.213 OA 
HETATM   16  H   UNL     1      -6.507  18.988  65.682  1.00  0.00     0.000 HD 
HETATM   17  C   UNL     1      -9.685  19.121  68.121  1.00  0.00    -0.361 C  
HETATM   18  O   UNL     1     -10.388  19.923  68.725  1.00  0.00    -0.433 OA 
HETATM   19  C   UNL     1      -9.988  17.640  68.003  1.00  0.00    -0.326 C  
BRANCH  19  20
HETATM   20  C   UNL     1     -10.110  16.908  69.344  1.00  0.00    -0.162 C  
BRANCH  20  21
HETATM   21  C   UNL     1     -11.499  16.302  69.550  1.00  0.00    -0.231 C  
BRANCH  21  22
HETATM   22  C   UNL     1     -11.576  15.468  70.824  1.00  0.00    -0.399 C  
BRANCH  22  23
HETATM   23  C   UNL     1     -12.355  14.175  70.569  1.00  0.00    -0.434 C  
BRANCH  23  24
HETATM   24  C   UNL     1     -11.931  13.545  69.247  1.00  0.00    -0.378 C  
BRANCH  24  25
HETATM   25  C   UNL     1     -11.296  12.171  69.447  1.00  0.00    -0.311 C  
BRANCH  25  26
HETATM   26  C   UNL     1     -11.145  11.452  68.127  1.00  0.00    -0.248 C  
HETATM   27  O   UNL     1     -12.017  11.342  67.281  1.00  0.00    -0.580 OA 
BRANCH  26  28
HETATM   28  O   UNL     1      -9.887  10.944  68.018  1.00  0.00    -0.165 OA 
HETATM   29  C   UNL     1      -8.964  11.847  67.410  1.00  0.00    -0.173 C  
ENDBRANCH  26  28
ENDBRANCH  25  26
ENDBRANCH  24  25
ENDBRANCH  23  24
ENDBRANCH  22  23
ENDBRANCH  21  22
ENDBRANCH  20  21
ENDBRANCH  19  20
ENDBRANCH  11  12
ENDBRANCH   8  10
ENDBRANCH   3   4
ENDBRANCH   2   3
TORSDOF 12
ENDMDL
MODEL       40
REMARK 921   NORMALIZED FREE ENERGY PREDICTED BY IDOCK:   -5.24 KCAL/MOL
REMARK 922        TOTAL FREE ENERGY PREDICTED BY IDOCK:  -10.95 KCAL/MOL
REMARK 923 INTER-LIGAND FREE ENERGY PREDICTED BY IDOCK:   -9.01 KCAL/MOL
REMARK 924 INTRA-LIGAND FREE ENERGY PREDICTED BY IDOCK:   -1.95 KCAL/MOL
REMARK 927      BINDING AFFINITY PREDICTED BY RF-SCORE:    0.00 PKD
ROOT
HETATM    1  C   UNL     1     -10.747   7.756  70.437  1.00  0.00    -0.238 C  
HETATM    2  C   UNL     1     -10.642   7.810  68.919  1.00  0.00    -0.168 C  
ENDROOT
BRANCH   2   3
HETATM    3  C   UNL     1      -9.944   9.094  68.482  1.00  0.00    -0.192 C  
BRANCH   3   4
HETATM    4  C   UNL     1     -10.903  10.081  67.804  1.00  0.00    -0.337 C  
HETATM    5  C   UNL     1     -10.669  11.549  68.236  1.00  0.00    -0.211 C  
HETATM    6  O   UNL     1     -10.918  11.638  69.646  1.00  0.00    -0.440 OA 
HETATM    7  C   UNL     1     -11.670  12.467  67.518  1.00  0.00    -0.425 C  
HETATM    8  C   UNL     1      -9.204  11.968  67.953  1.00  0.00    -0.190 C  
HETATM    9  H   UNL     1     -10.775  12.539  69.911  1.00  0.00     0.000 HD 
BRANCH   8  10
HETATM   10  C   UNL     1      -8.877  13.417  68.173  1.00  0.00    -0.180 C  
HETATM   11  C   UNL     1      -8.358  14.226  67.235  1.00  0.00    -0.222 C  
BRANCH  11  12
HETATM   12  C   UNL     1      -8.013  15.683  67.404  1.00  0.00    -0.204 C  
HETATM   13  C   UNL     1      -6.490  15.892  67.356  1.00  0.00    -0.175 C  
HETATM   14  C   UNL     1      -6.297  17.366  67.054  1.00  0.00    -0.202 C  
HETATM   15  O   UNL     1      -5.867  15.555  68.590  1.00  0.00    -0.094 OA 
HETATM   16  H   UNL     1      -4.926  15.683  68.561  1.00  0.00     0.000 HD 
HETATM   17  C   UNL     1      -7.491  17.670  66.206  1.00  0.00    -0.305 C  
HETATM   18  O   UNL     1      -7.545  18.650  65.472  1.00  0.00    -0.488 OA 
HETATM   19  C   UNL     1      -8.594  16.638  66.334  1.00  0.00    -0.345 C  
BRANCH  19  20
HETATM   20  C   UNL     1      -9.947  17.207  66.776  1.00  0.00    -0.291 C  
BRANCH  20  21
HETATM   21  C   UNL     1     -10.201  17.007  68.271  1.00  0.00    -0.326 C  
BRANCH  21  22
HETATM   22  C   UNL     1     -11.383  16.079  68.532  1.00  0.00    -0.382 C  
BRANCH  22  23
HETATM   23  C   UNL     1     -11.326  15.532  69.960  1.00  0.00    -0.332 C  
BRANCH  23  24
HETATM   24  C   UNL     1     -12.549  14.670  70.254  1.00  0.00    -0.370 C  
BRANCH  24  25
HETATM   25  C   UNL     1     -13.417  15.269  71.357  1.00  0.00    -0.588 C  
BRANCH  25  26
HETATM   26  C   UNL     1     -13.586  14.293  72.497  1.00  0.00    -0.520 C  
HETATM   27  O   UNL     1     -14.269  13.282  72.465  1.00  0.00    -0.697 OA 
BRANCH  26  28
HETATM   28  O   UNL     1     -12.860  14.705  73.572  1.00  0.00    -0.505 OA 
HETATM   29  C   UNL     1     -12.683  16.121  73.626  1.00  0.00    -0.579 C  
ENDBRANCH  26  28
ENDBRANCH  25  26
ENDBRANCH  24  25
ENDBRANCH  23  24
ENDBRANCH  22  23
ENDBRANCH  21  22
ENDBRANCH  20  21
ENDBRANCH  19  20
ENDBRANCH  11  12
ENDBRANCH   8  10
ENDBRANCH   3   4
ENDBRANCH   2   3
TORSDOF 12
ENDMDL
MODEL       41
REMARK 921   NORMALIZED FREE ENERGY PREDICTED BY IDOCK:   -5.22 KCAL/MOL
REMARK 922        TOTAL FREE ENERGY PREDICTED BY IDOCK:  -10.92 KCAL/MOL
REMARK 923 INTER-LIGAND FREE ENERGY PREDICTED BY IDOCK:   -8.81 KCAL/MOL
REMARK 924 INTRA-LIGAND FREE ENERGY PREDICTED BY IDOCK:   -2.11 KCAL/MOL
REMARK 927      BINDING AFFINITY PREDICTED BY RF-SCORE:    0.00 PKD
ROOT
HETATM    1  C   UNL     1      -9.106   5.400  69.042  1.00  0.00    -0.136 C  
HETATM    2  C   UNL     1      -9.729   4.618  67.893  1.00  0.00    -0.198 C  
ENDROOT
BRANCH   2   3
HETATM    3  C   UNL     1      -9.389   5.275  66.560  1.00  0.00    -0.146 C  
BRANCH   3   4
HETATM    4  C   UNL     1      -8.115   6.128  66.634  1.00  0.00    -0.109 C  
HETATM    5  C   UNL     1      -8.301   7.552  66.057  1.00  0.00    -0.136 C  
HETATM    6  O   UNL     1      -8.629   7.423  64.666  1.00  0.00    -0.363 OA 
HETATM    7  C   UNL     1      -6.983   8.332  66.164  1.00  0.00    -0.062 C  
HETATM    8  C   UNL     1      -9.460   8.281  66.784  1.00  0.00    -0.256 C  
HETATM    9  H   UNL     1      -8.743   8.297  64.312  1.00  0.00     0.000 HD 
BRANCH   8  10
HETATM   10  C   UNL     1      -9.648   9.730  66.437  1.00  0.00    -0.256 C  
HETATM   11  C   UNL     1     -10.507  10.179  65.506  1.00  0.00    -0.076 C  
BRANCH  11  12
HETATM   12  C   UNL     1     -10.734  11.618  65.122  1.00  0.00    -0.351 C  
HETATM   13  C   UNL     1     -11.266  11.721  63.683  1.00  0.00    -0.435 C  
HETATM   14  C   UNL     1     -11.893  13.098  63.584  1.00  0.00    -0.549 C  
HETATM   15  O   UNL     1     -10.227  11.580  62.720  1.00  0.00    -0.623 OA 
HETATM   16  H   UNL     1     -10.556  11.643  61.830  1.00  0.00     0.000 HD 
HETATM   17  C   UNL     1     -12.396  13.313  64.976  1.00  0.00    -0.448 C  
HETATM   18  O   UNL     1     -13.258  14.142  65.245  1.00  0.00    -0.760 OA 
HETATM   19  C   UNL     1     -11.751  12.392  65.994  1.00  0.00    -0.469 C  
BRANCH  19  20
HETATM   20  C   UNL     1     -11.052  13.115  67.151  1.00  0.00    -0.305 C  
BRANCH  20  21
HETATM   21  C   UNL     1     -11.751  12.877  68.490  1.00  0.00    -0.374 C  
BRANCH  21  22
HETATM   22  C   UNL     1     -12.004  11.395  68.747  1.00  0.00    -0.353 C  
BRANCH  22  23
HETATM   23  C   UNL     1     -11.435  10.985  70.108  1.00  0.00    -0.383 C  
BRANCH  23  24
HETATM   24  C   UNL     1     -11.010   9.521  70.093  1.00  0.00    -0.302 C  
BRANCH  24  25
HETATM   25  C   UNL     1      -9.595   9.332  70.632  1.00  0.00    -0.334 C  
BRANCH  25  26
HETATM   26  C   UNL     1      -9.625   8.837  72.058  1.00  0.00    -0.286 C  
HETATM   27  O   UNL     1      -8.652   8.727  72.788  1.00  0.00    -0.412 OA 
BRANCH  26  28
HETATM   28  O   UNL     1     -10.902   8.531  72.416  1.00  0.00    -0.346 OA 
HETATM   29  C   UNL     1     -11.018   7.269  73.074  1.00  0.00    -0.344 C  
ENDBRANCH  26  28
ENDBRANCH  25  26
ENDBRANCH  24  25
ENDBRANCH  23  24
ENDBRANCH  22  23
ENDBRANCH  21  22
ENDBRANCH  20  21
ENDBRANCH  19  20
ENDBRANCH  11  12
ENDBRANCH   8  10
ENDBRANCH   3   4
ENDBRANCH   2   3
TORSDOF 12
ENDMDL
MODEL       42
REMARK 921   NORMALIZED FREE ENERGY PREDICTED BY IDOCK:   -5.20 KCAL/MOL
REMARK 922        TOTAL FREE ENERGY PREDICTED BY IDOCK:  -10.89 KCAL/MOL
REMARK 923 INTER-LIGAND FREE ENERGY PREDICTED BY IDOCK:   -9.09 KCAL/MOL
REMARK 924 INTRA-LIGAND FREE ENERGY PREDICTED BY IDOCK:   -1.80 KCAL/MOL
REMARK 927      BINDING AFFINITY PREDICTED BY RF-SCORE:    0.00 PKD
ROOT
HETATM    1  C   UNL     1     -10.265  18.010  66.273  1.00  0.00    -0.381 C  
HETATM    2  C   UNL     1     -10.510  16.588  66.758  1.00  0.00    -0.269 C  
ENDROOT
BRANCH   2   3
HETATM    3  C   UNL     1     -10.088  15.584  65.689  1.00  0.00    -0.406 C  
BRANCH   3   4
HETATM    4  C   UNL     1     -11.270  14.764  65.156  1.00  0.00    -0.384 C  
HETATM    5  C   UNL     1     -11.139  13.249  65.447  1.00  0.00    -0.282 C  
HETATM    6  O   UNL     1      -9.969  12.771  64.770  1.00  0.00    -0.474 OA 
HETATM    7  C   UNL     1     -12.356  12.505  64.878  1.00  0.00    -0.539 C  
HETATM    8  C   UNL     1     -10.979  13.005  66.969  1.00  0.00    -0.289 C  
HETATM    9  H   UNL     1      -9.889  11.841  64.949  1.00  0.00     0.000 HD 
BRANCH   8  10
HETATM   10  C   UNL     1     -11.004  11.570  67.414  1.00  0.00    -0.317 C  
HETATM   11  C   UNL     1      -9.930  10.900  67.864  1.00  0.00    -0.195 C  
BRANCH  11  12
HETATM   12  C   UNL     1      -9.901   9.464  68.321  1.00  0.00    -0.180 C  
HETATM   13  C   UNL     1      -9.382   8.547  67.202  1.00  0.00    -0.152 C  
HETATM   14  C   UNL     1      -8.949   7.270  67.898  1.00  0.00    -0.130 C  
HETATM   15  O   UNL     1     -10.386   8.266  66.233  1.00  0.00    -0.439 OA 
HETATM   16  H   UNL     1     -10.065   7.699  65.541  1.00  0.00     0.000 HD 
HETATM   17  C   UNL     1      -8.487   7.780  69.226  1.00  0.00    -0.138 C  
HETATM   18  O   UNL     1      -7.748   7.133  69.959  1.00  0.00    -0.099 OA 
HETATM   19  C   UNL     1      -9.004   9.169  69.546  1.00  0.00    -0.151 C  
BRANCH  19  20
HETATM   20  C   UNL     1      -9.801   9.264  70.852  1.00  0.00    -0.363 C  
BRANCH  20  21
HETATM   21  C   UNL     1     -11.272   8.890  70.663  1.00  0.00    -0.308 C  
BRANCH  21  22
HETATM   22  C   UNL     1     -12.184   9.658  71.613  1.00  0.00    -0.484 C  
BRANCH  22  23
HETATM   23  C   UNL     1     -13.035  10.666  70.836  1.00  0.00    -0.429 C  
BRANCH  23  24
HETATM   24  C   UNL     1     -13.236  11.940  71.650  1.00  0.00    -0.364 C  
BRANCH  24  25
HETATM   25  C   UNL     1     -12.648  13.163  70.951  1.00  0.00    -0.377 C  
BRANCH  25  26
HETATM   26  C   UNL     1     -13.108  14.436  71.620  1.00  0.00    -0.350 C  
HETATM   27  O   UNL     1     -13.474  15.446  71.040  1.00  0.00    -0.487 OA 
BRANCH  26  28
HETATM   28  O   UNL     1     -13.057  14.294  72.973  1.00  0.00    -0.519 OA 
HETATM   29  C   UNL     1     -12.676  15.490  73.653  1.00  0.00    -0.579 C  
ENDBRANCH  26  28
ENDBRANCH  25  26
ENDBRANCH  24  25
ENDBRANCH  23  24
ENDBRANCH  22  23
ENDBRANCH  21  22
ENDBRANCH  20  21
ENDBRANCH  19  20
ENDBRANCH  11  12
ENDBRANCH   8  10
ENDBRANCH   3   4
ENDBRANCH   2   3
TORSDOF 12
ENDMDL
MODEL       43
REMARK 921   NORMALIZED FREE ENERGY PREDICTED BY IDOCK:   -5.20 KCAL/MOL
REMARK 922        TOTAL FREE ENERGY PREDICTED BY IDOCK:  -10.88 KCAL/MOL
REMARK 923 INTER-LIGAND FREE ENERGY PREDICTED BY IDOCK:   -9.68 KCAL/MOL
REMARK 924 INTRA-LIGAND FREE ENERGY PREDICTED BY IDOCK:   -1.21 KCAL/MOL
REMARK 927      BINDING AFFINITY PREDICTED BY RF-SCORE:    0.00 PKD
ROOT
HETATM    1  C   UNL     1     -10.412   6.383  70.420  1.00  0.00    -0.269 C  
HETATM    2  C   UNL     1      -9.944   6.631  71.847  1.00  0.00    -0.189 C  
ENDROOT
BRANCH   2   3
HETATM    3  C   UNL     1     -11.108   7.103  72.711  1.00  0.00    -0.339 C  
BRANCH   3   4
HETATM    4  C   UNL     1     -12.432   7.151  71.937  1.00  0.00    -0.341 C  
HETATM    5  C   UNL     1     -13.044   8.571  71.867  1.00  0.00    -0.362 C  
HETATM    6  O   UNL     1     -13.337   8.990  73.206  1.00  0.00    -0.872 OA 
HETATM    7  C   UNL     1     -14.364   8.528  71.082  1.00  0.00    -0.180 C  
HETATM    8  C   UNL     1     -12.034   9.562  71.235  1.00  0.00    -0.445 C  
HETATM    9  H   UNL     1     -13.713   9.862  73.163  1.00  0.00     0.000 HD 
BRANCH   8  10
HETATM   10  C   UNL     1     -12.553  10.945  70.956  1.00  0.00    -0.517 C  
HETATM   11  C   UNL     1     -11.946  11.830  70.148  1.00  0.00    -0.421 C  
BRANCH  11  12
HETATM   12  C   UNL     1     -12.424  13.225  69.835  1.00  0.00    -0.117 C  
HETATM   13  C   UNL     1     -12.281  14.138  71.064  1.00  0.00    -0.358 C  
HETATM   14  C   UNL     1     -12.321  15.553  70.519  1.00  0.00    -0.461 C  
HETATM   15  O   UNL     1     -13.333  13.939  72.001  1.00  0.00    -0.365 OA 
HETATM   16  H   UNL     1     -13.245  14.503  72.761  1.00  0.00     0.000 HD 
HETATM   17  C   UNL     1     -11.689  15.387  69.174  1.00  0.00    -0.345 C  
HETATM   18  O   UNL     1     -11.219  16.330  68.546  1.00  0.00    -0.350 OA 
HETATM   19  C   UNL     1     -11.674  13.950  68.693  1.00  0.00    -0.396 C  
BRANCH  19  20
HETATM   20  C   UNL     1     -12.366  13.724  67.344  1.00  0.00    -0.156 C  
BRANCH  20  21
HETATM   21  C   UNL     1     -11.501  14.174  66.166  1.00  0.00    -0.350 C  
BRANCH  21  22
HETATM   22  C   UNL     1     -12.317  14.339  64.888  1.00  0.00    -0.435 C  
BRANCH  22  23
HETATM   23  C   UNL     1     -11.918  13.277  63.860  1.00  0.00    -0.541 C  
BRANCH  23  24
HETATM   24  C   UNL     1     -10.527  12.732  64.163  1.00  0.00    -0.437 C  
BRANCH  24  25
HETATM   25  C   UNL     1     -10.456  11.218  63.986  1.00  0.00    -0.440 C  
BRANCH  25  26
HETATM   26  C   UNL     1     -10.171  10.536  65.303  1.00  0.00    -0.282 C  
HETATM   27  O   UNL     1     -10.500  10.956  66.400  1.00  0.00    -0.248 OA 
BRANCH  26  28
HETATM   28  O   UNL     1      -9.493   9.376  65.087  1.00  0.00    -0.259 OA 
HETATM   29  C   UNL     1      -8.756   9.371  63.864  1.00  0.00    -0.202 C  
ENDBRANCH  26  28
ENDBRANCH  25  26
ENDBRANCH  24  25
ENDBRANCH  23  24
ENDBRANCH  22  23
ENDBRANCH  21  22
ENDBRANCH  20  21
ENDBRANCH  19  20
ENDBRANCH  11  12
ENDBRANCH   8  10
ENDBRANCH   3   4
ENDBRANCH   2   3
TORSDOF 12
ENDMDL
MODEL       44
REMARK 921   NORMALIZED FREE ENERGY PREDICTED BY IDOCK:   -5.20 KCAL/MOL
REMARK 922        TOTAL FREE ENERGY PREDICTED BY IDOCK:  -10.88 KCAL/MOL
REMARK 923 INTER-LIGAND FREE ENERGY PREDICTED BY IDOCK:   -9.75 KCAL/MOL
REMARK 924 INTRA-LIGAND FREE ENERGY PREDICTED BY IDOCK:   -1.13 KCAL/MOL
REMARK 927      BINDING AFFINITY PREDICTED BY RF-SCORE:    0.00 PKD
ROOT
HETATM    1  C   UNL     1      -9.150  20.182  67.117  1.00  0.00    -0.489 C  
HETATM    2  C   UNL     1      -9.091  19.458  68.454  1.00  0.00    -0.410 C  
ENDROOT
BRANCH   2   3
HETATM    3  C   UNL     1      -9.880  18.155  68.387  1.00  0.00    -0.380 C  
BRANCH   3   4
HETATM    4  C   UNL     1     -10.656  18.007  67.071  1.00  0.00    -0.320 C  
HETATM    5  C   UNL     1     -10.243  16.756  66.259  1.00  0.00    -0.332 C  
HETATM    6  O   UNL     1      -8.860  16.899  65.905  1.00  0.00    -0.516 OA 
HETATM    7  C   UNL     1     -11.060  16.687  64.961  1.00  0.00    -0.121 C  
HETATM    8  C   UNL     1     -10.417  15.475  67.114  1.00  0.00    -0.286 C  
HETATM    9  H   UNL     1      -8.606  16.131  65.407  1.00  0.00     0.000 HD 
BRANCH   8  10
HETATM   10  C   UNL     1     -10.206  14.170  66.400  1.00  0.00    -0.292 C  
HETATM   11  C   UNL     1     -11.199  13.356  66.006  1.00  0.00    -0.310 C  
BRANCH  11  12
HETATM   12  C   UNL     1     -11.041  12.040  65.288  1.00  0.00    -0.367 C  
HETATM   13  C   UNL     1     -10.533  12.260  63.853  1.00  0.00    -0.429 C  
HETATM   14  C   UNL     1      -9.969  10.921  63.418  1.00  0.00    -0.414 C  
HETATM   15  O   UNL     1     -11.577  12.666  62.975  1.00  0.00    -0.765 OA 
HETATM   16  H   UNL     1     -11.263  12.803  62.089  1.00  0.00     0.000 HD 
HETATM   17  C   UNL     1      -9.458  10.364  64.708  1.00  0.00    -0.273 C  
HETATM   18  O   UNL     1      -8.630   9.461  64.753  1.00  0.00    -0.159 OA 
HETATM   19  C   UNL     1     -10.048  11.042  65.929  1.00  0.00    -0.301 C  
BRANCH  19  20
HETATM   20  C   UNL     1     -10.763  10.094  66.899  1.00  0.00    -0.231 C  
BRANCH  20  21
HETATM   21  C   UNL     1     -11.626  10.845  67.913  1.00  0.00    -0.270 C  
BRANCH  21  22
HETATM   22  C   UNL     1     -10.937  10.972  69.268  1.00  0.00    -0.305 C  
BRANCH  22  23
HETATM   23  C   UNL     1     -11.954  11.337  70.352  1.00  0.00    -0.471 C  
BRANCH  23  24
HETATM   24  C   UNL     1     -12.260  10.128  71.229  1.00  0.00    -0.496 C  
BRANCH  24  25
HETATM   25  C   UNL     1     -11.063   9.188  71.345  1.00  0.00    -0.415 C  
BRANCH  25  26
HETATM   26  C   UNL     1     -11.444   7.920  72.071  1.00  0.00    -0.300 C  
HETATM   27  O   UNL     1     -11.153   7.654  73.226  1.00  0.00    -0.382 OA 
BRANCH  26  28
HETATM   28  O   UNL     1     -12.165   7.112  71.246  1.00  0.00    -0.328 OA 
HETATM   29  C   UNL     1     -11.354   6.351  70.350  1.00  0.00    -0.389 C  
ENDBRANCH  26  28
ENDBRANCH  25  26
ENDBRANCH  24  25
ENDBRANCH  23  24
ENDBRANCH  22  23
ENDBRANCH  21  22
ENDBRANCH  20  21
ENDBRANCH  19  20
ENDBRANCH  11  12
ENDBRANCH   8  10
ENDBRANCH   3   4
ENDBRANCH   2   3
TORSDOF 12
ENDMDL
MODEL       45
REMARK 921   NORMALIZED FREE ENERGY PREDICTED BY IDOCK:   -5.17 KCAL/MOL
REMARK 922        TOTAL FREE ENERGY PREDICTED BY IDOCK:  -10.84 KCAL/MOL
REMARK 923 INTER-LIGAND FREE ENERGY PREDICTED BY IDOCK:   -8.75 KCAL/MOL
REMARK 924 INTRA-LIGAND FREE ENERGY PREDICTED BY IDOCK:   -2.09 KCAL/MOL
REMARK 927      BINDING AFFINITY PREDICTED BY RF-SCORE:    0.00 PKD
ROOT
HETATM    1  C   UNL     1      -5.552  18.901  67.772  1.00  0.00    -0.179 C  
HETATM    2  C   UNL     1      -5.347  19.949  66.686  1.00  0.00    -0.166 C  
ENDROOT
BRANCH   2   3
HETATM    3  C   UNL     1      -6.693  20.466  66.189  1.00  0.00    -0.279 C  
BRANCH   3   4
HETATM    4  C   UNL     1      -7.731  20.578  67.314  1.00  0.00    -0.375 C  
HETATM    5  C   UNL     1      -9.078  19.899  66.969  1.00  0.00    -0.348 C  
HETATM    6  O   UNL     1      -9.632  20.575  65.831  1.00  0.00    -0.656 OA 
HETATM    7  C   UNL     1     -10.057  20.062  68.141  1.00  0.00    -0.547 C  
HETATM    8  C   UNL     1      -8.855  18.408  66.612  1.00  0.00    -0.297 C  
HETATM    9  H   UNL     1     -10.459  20.159  65.619  1.00  0.00     0.000 HD 
BRANCH   8  10
HETATM   10  C   UNL     1     -10.095  17.584  66.411  1.00  0.00    -0.346 C  
HETATM   11  C   UNL     1     -10.093  16.290  66.050  1.00  0.00    -0.377 C  
BRANCH  11  12
HETATM   12  C   UNL     1     -11.305  15.421  65.837  1.00  0.00    -0.104 C  
HETATM   13  C   UNL     1     -11.465  15.064  64.349  1.00  0.00    -0.233 C  
HETATM   14  C   UNL     1     -12.375  13.851  64.324  1.00  0.00    -0.390 C  
HETATM   15  O   UNL     1     -12.043  16.131  63.604  1.00  0.00    -1.288 OA 
HETATM   16  H   UNL     1     -12.141  15.910  62.685  1.00  0.00     0.000 HD 
HETATM   17  C   UNL     1     -12.015  13.164  65.603  1.00  0.00    -0.415 C  
HETATM   18  O   UNL     1     -12.264  11.981  65.808  1.00  0.00    -0.520 OA 
HETATM   19  C   UNL     1     -11.301  14.068  66.588  1.00  0.00    -0.345 C  
BRANCH  19  20
HETATM   20  C   UNL     1     -11.988  14.190  67.952  1.00  0.00    -0.378 C  
BRANCH  20  21
HETATM   21  C   UNL     1     -11.342  15.259  68.834  1.00  0.00    -0.315 C  
BRANCH  21  22
HETATM   22  C   UNL     1     -10.123  14.726  69.579  1.00  0.00    -0.065 C  
BRANCH  22  23
HETATM   23  C   UNL     1      -8.963  15.721  69.483  1.00  0.00    -0.183 C  
BRANCH  23  24
HETATM   24  C   UNL     1      -7.650  14.991  69.225  1.00  0.00    -0.187 C  
BRANCH  24  25
HETATM   25  C   UNL     1      -7.567  14.451  67.800  1.00  0.00    -0.175 C  
BRANCH  25  26
HETATM   26  C   UNL     1      -6.300  13.653  67.600  1.00  0.00    -0.138 C  
HETATM   27  O   UNL     1      -5.166  14.086  67.726  1.00  0.00    -0.249 OA 
BRANCH  26  28
HETATM   28  O   UNL     1      -6.609  12.371  67.260  1.00  0.00    -0.150 OA 
HETATM   29  C   UNL     1      -6.084  11.403  68.168  1.00  0.00    -0.045 C  
ENDBRANCH  26  28
ENDBRANCH  25  26
ENDBRANCH  24  25
ENDBRANCH  23  24
ENDBRANCH  22  23
ENDBRANCH  21  22
ENDBRANCH  20  21
ENDBRANCH  19  20
ENDBRANCH  11  12
ENDBRANCH   8  10
ENDBRANCH   3   4
ENDBRANCH   2   3
TORSDOF 12
ENDMDL
MODEL       46
REMARK 921   NORMALIZED FREE ENERGY PREDICTED BY IDOCK:   -5.15 KCAL/MOL
REMARK 922        TOTAL FREE ENERGY PREDICTED BY IDOCK:  -10.79 KCAL/MOL
REMARK 923 INTER-LIGAND FREE ENERGY PREDICTED BY IDOCK:   -8.99 KCAL/MOL
REMARK 924 INTRA-LIGAND FREE ENERGY PREDICTED BY IDOCK:   -1.80 KCAL/MOL
REMARK 927      BINDING AFFINITY PREDICTED BY RF-SCORE:    0.00 PKD
ROOT
HETATM    1  C   UNL     1     -10.793   6.077  72.834  1.00  0.00    -0.291 C  
HETATM    2  C   UNL     1     -10.323   7.380  73.466  1.00  0.00    -0.405 C  
ENDROOT
BRANCH   2   3
HETATM    3  C   UNL     1      -9.986   8.402  72.386  1.00  0.00    -0.380 C  
BRANCH   3   4
HETATM    4  C   UNL     1      -9.691   7.747  71.030  1.00  0.00    -0.174 C  
HETATM    5  C   UNL     1     -10.445   8.416  69.855  1.00  0.00    -0.222 C  
HETATM    6  O   UNL     1     -11.851   8.260  70.089  1.00  0.00    -0.459 OA 
HETATM    7  C   UNL     1     -10.099   7.699  68.542  1.00  0.00    -0.205 C  
HETATM    8  C   UNL     1     -10.107   9.927  69.788  1.00  0.00    -0.274 C  
HETATM    9  H   UNL     1     -12.314   8.670  69.368  1.00  0.00     0.000 HD 
BRANCH   8  10
HETATM   10  C   UNL     1     -10.642  10.671  68.597  1.00  0.00    -0.229 C  
HETATM   11  C   UNL     1      -9.874  11.294  67.688  1.00  0.00    -0.190 C  
BRANCH  11  12
HETATM   12  C   UNL     1     -10.360  12.051  66.479  1.00  0.00    -0.240 C  
HETATM   13  C   UNL     1     -10.208  11.201  65.206  1.00  0.00    -0.280 C  
HETATM   14  C   UNL     1     -11.135  11.836  64.187  1.00  0.00    -0.442 C  
HETATM   15  O   UNL     1      -8.869  11.199  64.723  1.00  0.00    -0.358 OA 
HETATM   16  H   UNL     1      -8.775  10.674  63.937  1.00  0.00     0.000 HD 
HETATM   17  C   UNL     1     -12.237  12.361  65.052  1.00  0.00    -0.399 C  
HETATM   18  O   UNL     1     -13.345  12.642  64.609  1.00  0.00    -0.767 OA 
HETATM   19  C   UNL     1     -11.845  12.484  66.511  1.00  0.00    -0.434 C  
BRANCH  19  20
HETATM   20  C   UNL     1     -11.999  13.893  67.095  1.00  0.00    -0.455 C  
BRANCH  20  21
HETATM   21  C   UNL     1     -12.130  13.879  68.618  1.00  0.00    -0.337 C  
BRANCH  21  22
HETATM   22  C   UNL     1     -11.276  14.958  69.275  1.00  0.00    -0.300 C  
BRANCH  22  23
HETATM   23  C   UNL     1      -9.827  14.860  68.790  1.00  0.00    -0.225 C  
BRANCH  23  24
HETATM   24  C   UNL     1      -9.320  16.224  68.335  1.00  0.00    -0.210 C  
BRANCH  24  25
HETATM   25  C   UNL     1      -8.840  16.200  66.886  1.00  0.00    -0.246 C  
BRANCH  25  26
HETATM   26  C   UNL     1      -9.223  17.475  66.173  1.00  0.00    -0.135 C  
HETATM   27  O   UNL     1      -8.472  18.413  65.953  1.00  0.00    -0.497 OA 
BRANCH  26  28
HETATM   28  O   UNL     1     -10.533  17.428  65.809  1.00  0.00    -0.518 OA 
HETATM   29  C   UNL     1     -10.856  16.290  65.009  1.00  0.00    -0.320 C  
ENDBRANCH  26  28
ENDBRANCH  25  26
ENDBRANCH  24  25
ENDBRANCH  23  24
ENDBRANCH  22  23
ENDBRANCH  21  22
ENDBRANCH  20  21
ENDBRANCH  19  20
ENDBRANCH  11  12
ENDBRANCH   8  10
ENDBRANCH   3   4
ENDBRANCH   2   3
TORSDOF 12
ENDMDL
MODEL       47
REMARK 921   NORMALIZED FREE ENERGY PREDICTED BY IDOCK:   -5.14 KCAL/MOL
REMARK 922        TOTAL FREE ENERGY PREDICTED BY IDOCK:  -10.78 KCAL/MOL
REMARK 923 INTER-LIGAND FREE ENERGY PREDICTED BY IDOCK:   -8.65 KCAL/MOL
REMARK 924 INTRA-LIGAND FREE ENERGY PREDICTED BY IDOCK:   -2.13 KCAL/MOL
REMARK 927      BINDING AFFINITY PREDICTED BY RF-SCORE:    0.00 PKD
ROOT
HETATM    1  C   UNL     1      -9.913  16.538  67.423  1.00  0.00    -0.267 C  
HETATM    2  C   UNL     1     -10.667  16.874  68.702  1.00  0.00    -0.345 C  
ENDROOT
BRANCH   2   3
HETATM    3  C   UNL     1     -11.466  15.666  69.180  1.00  0.00    -0.365 C  
BRANCH   3   4
HETATM    4  C   UNL     1     -11.701  14.640  68.063  1.00  0.00    -0.371 C  
HETATM    5  C   UNL     1     -11.275  13.205  68.456  1.00  0.00    -0.272 C  
HETATM    6  O   UNL     1      -9.863  13.219  68.709  1.00  0.00    -0.398 OA 
HETATM    7  C   UNL     1     -11.538  12.247  67.285  1.00  0.00    -0.427 C  
HETATM    8  C   UNL     1     -12.015  12.756  69.741  1.00  0.00    -0.362 C  
HETATM    9  H   UNL     1      -9.601  12.339  68.950  1.00  0.00     0.000 HD 
BRANCH   8  10
HETATM   10  C   UNL     1     -11.820  11.323  70.149  1.00  0.00    -0.449 C  
HETATM   11  C   UNL     1     -12.327  10.780  71.268  1.00  0.00    -0.470 C  
BRANCH  11  12
HETATM   12  C   UNL     1     -12.161   9.352  71.721  1.00  0.00    -0.465 C  
HETATM   13  C   UNL     1     -13.519   8.630  71.753  1.00  0.00    -0.382 C  
HETATM   14  C   UNL     1     -13.186   7.150  71.742  1.00  0.00    -0.355 C  
HETATM   15  O   UNL     1     -14.271   8.959  72.916  1.00  0.00    -1.034 OA 
HETATM   16  H   UNL     1     -15.110   8.513  72.935  1.00  0.00     0.000 HD 
HETATM   17  C   UNL     1     -11.926   7.119  70.937  1.00  0.00    -0.334 C  
HETATM   18  O   UNL     1     -11.511   6.097  70.403  1.00  0.00    -0.356 OA 
HETATM   19  C   UNL     1     -11.246   8.471  70.838  1.00  0.00    -0.304 C  
BRANCH  19  20
HETATM   20  C   UNL     1      -9.800   8.493  71.345  1.00  0.00    -0.296 C  
BRANCH  20  21
HETATM   21  C   UNL     1      -8.809   7.991  70.294  1.00  0.00    -0.145 C  
BRANCH  21  22
HETATM   22  C   UNL     1      -9.042   8.639  68.933  1.00  0.00    -0.145 C  
BRANCH  22  23
HETATM   23  C   UNL     1      -8.642  10.116  68.970  1.00  0.00    -0.156 C  
BRANCH  23  24
HETATM   24  C   UNL     1      -7.256  10.312  68.368  1.00  0.00    -0.080 C  
BRANCH  24  25
HETATM   25  C   UNL     1      -7.290  11.216  67.138  1.00  0.00    -0.121 C  
BRANCH  25  26
HETATM   26  C   UNL     1      -6.366  12.398  67.315  1.00  0.00    -0.142 C  
HETATM   27  O   UNL     1      -5.233  12.481  66.869  1.00  0.00    -0.341 OA 
BRANCH  26  28
HETATM   28  O   UNL     1      -6.985  13.365  68.046  1.00  0.00    -0.094 OA 
HETATM   29  C   UNL     1      -6.537  14.684  67.733  1.00  0.00    -0.171 C  
ENDBRANCH  26  28
ENDBRANCH  25  26
ENDBRANCH  24  25
ENDBRANCH  23  24
ENDBRANCH  22  23
ENDBRANCH  21  22
ENDBRANCH  20  21
ENDBRANCH  19  20
ENDBRANCH  11  12
ENDBRANCH   8  10
ENDBRANCH   3   4
ENDBRANCH   2   3
TORSDOF 12
ENDMDL
MODEL       48
REMARK 921   NORMALIZED FREE ENERGY PREDICTED BY IDOCK:   -5.12 KCAL/MOL
REMARK 922        TOTAL FREE ENERGY PREDICTED BY IDOCK:  -10.75 KCAL/MOL
REMARK 923 INTER-LIGAND FREE ENERGY PREDICTED BY IDOCK:   -8.88 KCAL/MOL
REMARK 924 INTRA-LIGAND FREE ENERGY PREDICTED BY IDOCK:   -1.87 KCAL/MOL
REMARK 927      BINDING AFFINITY PREDICTED BY RF-SCORE:    0.00 PKD
ROOT
HETATM    1  C   UNL     1     -12.175  14.056  64.365  1.00  0.00    -0.457 C  
HETATM    2  C   UNL     1     -10.944  14.789  64.880  1.00  0.00    -0.425 C  
ENDROOT
BRANCH   2   3
HETATM    3  C   UNL     1     -10.272  13.983  65.987  1.00  0.00    -0.313 C  
BRANCH   3   4
HETATM    4  C   UNL     1     -10.352  14.681  67.351  1.00  0.00    -0.241 C  
HETATM    5  C   UNL     1     -11.324  13.984  68.334  1.00  0.00    -0.291 C  
HETATM    6  O   UNL     1     -12.640  14.041  67.766  1.00  0.00    -0.409 OA 
HETATM    7  C   UNL     1     -11.348  14.746  69.667  1.00  0.00    -0.316 C  
HETATM    8  C   UNL     1     -10.921  12.500  68.530  1.00  0.00    -0.280 C  
HETATM    9  H   UNL     1     -13.236  13.614  68.369  1.00  0.00     0.000 HD 
BRANCH   8  10
HETATM   10  C   UNL     1     -11.680  11.743  69.582  1.00  0.00    -0.413 C  
HETATM   11  C   UNL     1     -11.214  10.651  70.211  1.00  0.00    -0.365 C  
BRANCH  11  12
HETATM   12  C   UNL     1     -11.933   9.858  71.272  1.00  0.00    -0.489 C  
HETATM   13  C   UNL     1     -13.347  10.417  71.505  1.00  0.00    -0.310 C  
HETATM   14  C   UNL     1     -14.110   9.301  72.192  1.00  0.00    -0.354 C  
HETATM   15  O   UNL     1     -13.331  11.581  72.323  1.00  0.00    -0.624 OA 
HETATM   16  H   UNL     1     -14.205  11.927  72.467  1.00  0.00     0.000 HD 
HETATM   17  C   UNL     1     -13.478   8.080  71.602  1.00  0.00    -0.337 C  
HETATM   18  O   UNL     1     -14.019   6.981  71.625  1.00  0.00    -0.348 OA 
HETATM   19  C   UNL     1     -12.129   8.354  70.966  1.00  0.00    -0.218 C  
BRANCH  19  20
HETATM   20  C   UNL     1     -10.977   7.518  71.535  1.00  0.00    -0.256 C  
BRANCH  20  21
HETATM   21  C   UNL     1     -10.507   6.439  70.558  1.00  0.00    -0.270 C  
BRANCH  21  22
HETATM   22  C   UNL     1     -11.404   6.350  69.329  1.00  0.00    -0.405 C  
BRANCH  22  23
HETATM   23  C   UNL     1     -10.563   6.125  68.069  1.00  0.00    -0.334 C  
BRANCH  23  24
HETATM   24  C   UNL     1     -10.514   7.392  67.223  1.00  0.00    -0.385 C  
BRANCH  24  25
HETATM   25  C   UNL     1      -9.573   8.438  67.813  1.00  0.00    -0.185 C  
BRANCH  25  26
HETATM   26  C   UNL     1      -9.260   9.512  66.799  1.00  0.00    -0.149 C  
HETATM   27  O   UNL     1      -8.487  10.441  66.971  1.00  0.00    -0.126 OA 
BRANCH  26  28
HETATM   28  O   UNL     1      -9.967   9.292  65.657  1.00  0.00    -0.277 OA 
HETATM   29  C   UNL     1     -10.270  10.489  64.940  1.00  0.00    -0.300 C  
ENDBRANCH  26  28
ENDBRANCH  25  26
ENDBRANCH  24  25
ENDBRANCH  23  24
ENDBRANCH  22  23
ENDBRANCH  21  22
ENDBRANCH  20  21
ENDBRANCH  19  20
ENDBRANCH  11  12
ENDBRANCH   8  10
ENDBRANCH   3   4
ENDBRANCH   2   3
TORSDOF 12
ENDMDL
MODEL       49
REMARK 921   NORMALIZED FREE ENERGY PREDICTED BY IDOCK:   -5.11 KCAL/MOL
REMARK 922        TOTAL FREE ENERGY PREDICTED BY IDOCK:  -10.74 KCAL/MOL
REMARK 923 INTER-LIGAND FREE ENERGY PREDICTED BY IDOCK:   -8.99 KCAL/MOL
REMARK 924 INTRA-LIGAND FREE ENERGY PREDICTED BY IDOCK:   -1.75 KCAL/MOL
REMARK 927      BINDING AFFINITY PREDICTED BY RF-SCORE:    0.00 PKD
ROOT
HETATM    1  C   UNL     1     -12.040  13.274  63.569  1.00  0.00    -0.550 C  
HETATM    2  C   UNL     1     -12.425  13.875  64.914  1.00  0.00    -0.420 C  
ENDROOT
BRANCH   2   3
HETATM    3  C   UNL     1     -12.062  12.918  66.045  1.00  0.00    -0.484 C  
BRANCH   3   4
HETATM    4  C   UNL     1     -11.300  11.683  65.546  1.00  0.00    -0.224 C  
HETATM    5  C   UNL     1     -10.320  11.108  66.597  1.00  0.00    -0.241 C  
HETATM    6  O   UNL     1      -9.335  12.112  66.876  1.00  0.00    -0.191 OA 
HETATM    7  C   UNL     1      -9.598   9.882  66.018  1.00  0.00    -0.284 C  
HETATM    8  C   UNL     1     -11.075  10.762  67.906  1.00  0.00    -0.369 C  
HETATM    9  H   UNL     1      -8.734  11.760  67.521  1.00  0.00     0.000 HD 
BRANCH   8  10
HETATM   10  C   UNL     1     -10.278  10.045  68.959  1.00  0.00    -0.216 C  
HETATM   11  C   UNL     1     -10.553   8.807  69.401  1.00  0.00    -0.218 C  
BRANCH  11  12
HETATM   12  C   UNL     1      -9.787   8.044  70.452  1.00  0.00    -0.183 C  
HETATM   13  C   UNL     1      -8.287   8.007  70.112  1.00  0.00    -0.126 C  
HETATM   14  C   UNL     1      -7.589   7.666  71.415  1.00  0.00    -0.080 C  
HETATM   15  O   UNL     1      -7.989   7.030  69.121  1.00  0.00    -0.115 OA 
HETATM   16  H   UNL     1      -7.063   7.007  68.911  1.00  0.00     0.000 HD 
HETATM   17  C   UNL     1      -8.488   8.304  72.427  1.00  0.00    -0.190 C  
HETATM   18  O   UNL     1      -8.118   8.559  73.567  1.00  0.00    -0.378 OA 
HETATM   19  C   UNL     1      -9.870   8.614  71.888  1.00  0.00    -0.384 C  
BRANCH  19  20
HETATM   20  C   UNL     1     -11.018   7.969  72.674  1.00  0.00    -0.448 C  
BRANCH  20  21
HETATM   21  C   UNL     1     -12.342   8.016  71.910  1.00  0.00    -0.360 C  
BRANCH  21  22
HETATM   22  C   UNL     1     -13.172   9.241  72.280  1.00  0.00    -0.535 C  
BRANCH  22  23
HETATM   23  C   UNL     1     -13.280  10.193  71.086  1.00  0.00    -0.438 C  
BRANCH  23  24
HETATM   24  C   UNL     1     -12.656  11.544  71.417  1.00  0.00    -0.419 C  
BRANCH  24  25
HETATM   25  C   UNL     1     -13.640  12.469  72.127  1.00  0.00    -0.458 C  
BRANCH  25  26
HETATM   26  C   UNL     1     -13.012  13.815  72.400  1.00  0.00    -0.345 C  
HETATM   27  O   UNL     1     -13.266  14.531  73.355  1.00  0.00    -0.592 OA 
BRANCH  26  28
HETATM   28  O   UNL     1     -12.115  14.115  71.421  1.00  0.00    -0.334 OA 
HETATM   29  C   UNL     1     -12.465  15.278  70.671  1.00  0.00    -0.406 C  
ENDBRANCH  26  28
ENDBRANCH  25  26
ENDBRANCH  24  25
ENDBRANCH  23  24
ENDBRANCH  22  23
ENDBRANCH  21  22
ENDBRANCH  20  21
ENDBRANCH  19  20
ENDBRANCH  11  12
ENDBRANCH   8  10
ENDBRANCH   3   4
ENDBRANCH   2   3
TORSDOF 12
ENDMDL
MODEL       50
REMARK 921   NORMALIZED FREE ENERGY PREDICTED BY IDOCK:   -5.09 KCAL/MOL
REMARK 922        TOTAL FREE ENERGY PREDICTED BY IDOCK:  -10.70 KCAL/MOL
REMARK 923 INTER-LIGAND FREE ENERGY PREDICTED BY IDOCK:   -9.41 KCAL/MOL
REMARK 924 INTRA-LIGAND FREE ENERGY PREDICTED BY IDOCK:   -1.29 KCAL/MOL
REMARK 927      BINDING AFFINITY PREDICTED BY RF-SCORE:    0.00 PKD
ROOT
HETATM    1  C   UNL     1      -8.761   6.085  69.175  1.00  0.00    -0.120 C  
HETATM    2  C   UNL     1      -9.745   5.665  70.258  1.00  0.00    -0.232 C  
ENDROOT
BRANCH   2   3
HETATM    3  C   UNL     1     -10.325   6.893  70.952  1.00  0.00    -0.218 C  
BRANCH   3   4
HETATM    4  C   UNL     1     -11.850   6.815  71.106  1.00  0.00    -0.410 C  
HETATM    5  C   UNL     1     -12.482   8.146  71.578  1.00  0.00    -0.307 C  
HETATM    6  O   UNL     1     -11.954   8.447  72.878  1.00  0.00    -0.455 OA 
HETATM    7  C   UNL     1     -14.003   7.980  71.710  1.00  0.00    -0.482 C  
HETATM    8  C   UNL     1     -12.114   9.294  70.604  1.00  0.00    -0.154 C  
HETATM    9  H   UNL     1     -12.342   9.264  73.168  1.00  0.00     0.000 HD 
BRANCH   8  10
HETATM   10  C   UNL     1     -12.792  10.612  70.850  1.00  0.00    -0.473 C  
HETATM   11  C   UNL     1     -12.163  11.799  70.836  1.00  0.00    -0.378 C  
BRANCH  11  12
HETATM   12  C   UNL     1     -12.796  13.146  71.075  1.00  0.00    -0.295 C  
HETATM   13  C   UNL     1     -13.177  13.314  72.556  1.00  0.00    -0.379 C  
HETATM   14  C   UNL     1     -13.337  14.808  72.762  1.00  0.00    -0.581 C  
HETATM   15  O   UNL     1     -14.388  12.638  72.875  1.00  0.00    -0.406 OA 
HETATM   16  H   UNL     1     -14.623  12.741  73.789  1.00  0.00     0.000 HD 
HETATM   17  C   UNL     1     -12.338  15.365  71.798  1.00  0.00    -0.381 C  
HETATM   18  O   UNL     1     -11.904  16.508  71.886  1.00  0.00    -0.454 OA 
HETATM   19  C   UNL     1     -11.914  14.371  70.735  1.00  0.00    -0.391 C  
BRANCH  19  20
HETATM   20  C   UNL     1     -12.149  14.841  69.295  1.00  0.00    -0.296 C  
BRANCH  20  21
HETATM   21  C   UNL     1     -10.844  14.990  68.513  1.00  0.00    -0.250 C  
BRANCH  21  22
HETATM   22  C   UNL     1      -9.875  13.846  68.794  1.00  0.00    -0.117 C  
BRANCH  22  23
HETATM   23  C   UNL     1      -9.498  13.134  67.492  1.00  0.00    -0.212 C  
BRANCH  23  24
HETATM   24  C   UNL     1     -10.742  12.845  66.659  1.00  0.00    -0.280 C  
BRANCH  24  25
HETATM   25  C   UNL     1     -10.677  13.509  65.287  1.00  0.00    -0.328 C  
BRANCH  25  26
HETATM   26  C   UNL     1     -11.698  12.909  64.350  1.00  0.00    -0.372 C  
HETATM   27  O   UNL     1     -12.646  13.505  63.864  1.00  0.00    -0.681 OA 
BRANCH  26  28
HETATM   28  O   UNL     1     -11.406  11.599  64.124  1.00  0.00    -0.352 OA 
HETATM   29  C   UNL     1     -10.234  11.410  63.330  1.00  0.00    -0.411 C  
ENDBRANCH  26  28
ENDBRANCH  25  26
ENDBRANCH  24  25
ENDBRANCH  23  24
ENDBRANCH  22  23
ENDBRANCH  21  22
ENDBRANCH  20  21
ENDBRANCH  19  20
ENDBRANCH  11  12
ENDBRANCH   8  10
ENDBRANCH   3   4
ENDBRANCH   2   3
TORSDOF 12
ENDMDL
MODEL       51
REMARK 921   NORMALIZED FREE ENERGY PREDICTED BY IDOCK:   -5.09 KCAL/MOL
REMARK 922        TOTAL FREE ENERGY PREDICTED BY IDOCK:  -10.69 KCAL/MOL
REMARK 923 INTER-LIGAND FREE ENERGY PREDICTED BY IDOCK:   -8.73 KCAL/MOL
REMARK 924 INTRA-LIGAND FREE ENERGY PREDICTED BY IDOCK:   -1.97 KCAL/MOL
REMARK 927      BINDING AFFINITY PREDICTED BY RF-SCORE:    0.00 PKD
ROOT
HETATM    1  C   UNL     1     -14.077  14.811  71.811  1.00  0.00    -0.598 C  
HETATM    2  C   UNL     1     -12.645  14.309  71.687  1.00  0.00    -0.431 C  
ENDROOT
BRANCH   2   3
HETATM    3  C   UNL     1     -12.610  12.993  70.917  1.00  0.00    -0.364 C  
BRANCH   3   4
HETATM    4  C   UNL     1     -13.043  11.798  71.777  1.00  0.00    -0.480 C  
HETATM    5  C   UNL     1     -12.789  10.433  71.093  1.00  0.00    -0.414 C  
HETATM    6  O   UNL     1     -13.581  10.386  69.898  1.00  0.00    -0.317 OA 
HETATM    7  C   UNL     1     -13.253   9.296  72.016  1.00  0.00    -0.519 C  
HETATM    8  C   UNL     1     -11.293  10.289  70.715  1.00  0.00    -0.421 C  
HETATM    9  H   UNL     1     -13.426   9.548  69.479  1.00  0.00     0.000 HD 
BRANCH   8  10
HETATM   10  C   UNL     1     -10.871   8.946  70.189  1.00  0.00    -0.251 C  
HETATM   11  C   UNL     1      -9.596   8.530  70.116  1.00  0.00    -0.174 C  
BRANCH  11  12
HETATM   12  C   UNL     1      -9.121   7.196  69.599  1.00  0.00    -0.140 C  
HETATM   13  C   UNL     1      -9.712   6.047  70.433  1.00  0.00    -0.169 C  
HETATM   14  C   UNL     1      -9.574   4.810  69.565  1.00  0.00    -0.250 C  
HETATM   15  O   UNL     1      -9.016   5.868  71.662  1.00  0.00    -0.139 OA 
HETATM   16  H   UNL     1      -9.381   5.158  72.177  1.00  0.00     0.000 HD 
HETATM   17  C   UNL     1      -9.719   5.377  68.188  1.00  0.00    -0.137 C  
HETATM   18  O   UNL     1     -10.009   4.686  67.219  1.00  0.00    -0.188 OA 
HETATM   19  C   UNL     1      -9.494   6.875  68.132  1.00  0.00    -0.122 C  
BRANCH  19  20
HETATM   20  C   UNL     1      -8.385   7.316  67.169  1.00  0.00    -0.118 C  
BRANCH  20  21
HETATM   21  C   UNL     1      -8.922   8.167  66.017  1.00  0.00    -0.213 C  
BRANCH  21  22
HETATM   22  C   UNL     1     -10.196   8.911  66.401  1.00  0.00    -0.273 C  
BRANCH  22  23
HETATM   23  C   UNL     1      -9.876  10.362  66.768  1.00  0.00    -0.242 C  
BRANCH  23  24
HETATM   24  C   UNL     1     -11.124  11.231  66.660  1.00  0.00    -0.299 C  
BRANCH  24  25
HETATM   25  C   UNL     1     -11.034  12.219  65.500  1.00  0.00    -0.337 C  
BRANCH  25  26
HETATM   26  C   UNL     1     -12.345  12.944  65.308  1.00  0.00    -0.490 C  
HETATM   27  O   UNL     1     -13.282  12.541  64.637  1.00  0.00    -0.848 OA 
BRANCH  26  28
HETATM   28  O   UNL     1     -12.332  14.117  65.999  1.00  0.00    -0.444 OA 
HETATM   29  C   UNL     1     -11.217  14.948  65.678  1.00  0.00    -0.347 C  
ENDBRANCH  26  28
ENDBRANCH  25  26
ENDBRANCH  24  25
ENDBRANCH  23  24
ENDBRANCH  22  23
ENDBRANCH  21  22
ENDBRANCH  20  21
ENDBRANCH  19  20
ENDBRANCH  11  12
ENDBRANCH   8  10
ENDBRANCH   3   4
ENDBRANCH   2   3
TORSDOF 12
ENDMDL
MODEL       52
REMARK 921   NORMALIZED FREE ENERGY PREDICTED BY IDOCK:   -5.06 KCAL/MOL
REMARK 922        TOTAL FREE ENERGY PREDICTED BY IDOCK:  -10.65 KCAL/MOL
REMARK 923 INTER-LIGAND FREE ENERGY PREDICTED BY IDOCK:   -9.19 KCAL/MOL
REMARK 924 INTRA-LIGAND FREE ENERGY PREDICTED BY IDOCK:   -1.45 KCAL/MOL
REMARK 927      BINDING AFFINITY PREDICTED BY RF-SCORE:    0.00 PKD
ROOT
HETATM    1  C   UNL     1      -9.898  20.401  67.392  1.00  0.00    -0.587 C  
HETATM    2  C   UNL     1      -9.782  19.447  66.211  1.00  0.00    -0.455 C  
ENDROOT
BRANCH   2   3
HETATM    3  C   UNL     1      -9.375  18.058  66.690  1.00  0.00    -0.297 C  
BRANCH   3   4
HETATM    4  C   UNL     1     -10.345  17.489  67.734  1.00  0.00    -0.367 C  
HETATM    5  C   UNL     1     -10.627  15.979  67.543  1.00  0.00    -0.313 C  
HETATM    6  O   UNL     1     -11.254  15.807  66.264  1.00  0.00    -0.150 OA 
HETATM    7  C   UNL     1     -11.607  15.494  68.621  1.00  0.00    -0.379 C  
HETATM    8  C   UNL     1      -9.303  15.175  67.570  1.00  0.00    -0.198 C  
HETATM    9  H   UNL     1     -11.427  14.881  66.146  1.00  0.00     0.000 HD 
BRANCH   8  10
HETATM   10  C   UNL     1      -9.438  13.679  67.557  1.00  0.00    -0.222 C  
HETATM   11  C   UNL     1      -9.650  12.949  66.449  1.00  0.00    -0.252 C  
BRANCH  11  12
HETATM   12  C   UNL     1      -9.793  11.450  66.383  1.00  0.00    -0.242 C  
HETATM   13  C   UNL     1      -8.603  10.823  65.636  1.00  0.00    -0.180 C  
HETATM   14  C   UNL     1      -8.601   9.361  66.042  1.00  0.00    -0.154 C  
HETATM   15  O   UNL     1      -8.736  10.943  64.224  1.00  0.00    -0.329 OA 
HETATM   16  H   UNL     1      -8.001  10.556  63.763  1.00  0.00     0.000 HD 
HETATM   17  C   UNL     1      -9.133   9.424  67.439  1.00  0.00    -0.126 C  
HETATM   18  O   UNL     1      -8.974   8.515  68.246  1.00  0.00    -0.138 OA 
HETATM   19  C   UNL     1      -9.855  10.721  67.746  1.00  0.00    -0.186 C  
BRANCH  19  20
HETATM   20  C   UNL     1     -11.304  10.546  68.215  1.00  0.00    -0.332 C  
BRANCH  20  21
HETATM   21  C   UNL     1     -11.573  11.256  69.543  1.00  0.00    -0.398 C  
BRANCH  21  22
HETATM   22  C   UNL     1     -12.121  10.303  70.600  1.00  0.00    -0.433 C  
BRANCH  22  23
HETATM   23  C   UNL     1     -12.991  11.063  71.604  1.00  0.00    -0.561 C  
BRANCH  23  24
HETATM   24  C   UNL     1     -12.823  12.568  71.428  1.00  0.00    -0.359 C  
BRANCH  24  25
HETATM   25  C   UNL     1     -13.762  13.357  72.337  1.00  0.00    -0.698 C  
BRANCH  25  26
HETATM   26  C   UNL     1     -13.322  14.798  72.442  1.00  0.00    -0.408 C  
HETATM   27  O   UNL     1     -13.873  15.745  71.904  1.00  0.00    -0.429 OA 
BRANCH  26  28
HETATM   28  O   UNL     1     -12.217  14.889  73.231  1.00  0.00    -0.352 OA 
HETATM   29  C   UNL     1     -12.404  15.727  74.372  1.00  0.00    -0.648 C  
ENDBRANCH  26  28
ENDBRANCH  25  26
ENDBRANCH  24  25
ENDBRANCH  23  24
ENDBRANCH  22  23
ENDBRANCH  21  22
ENDBRANCH  20  21
ENDBRANCH  19  20
ENDBRANCH  11  12
ENDBRANCH   8  10
ENDBRANCH   3   4
ENDBRANCH   2   3
TORSDOF 12
ENDMDL
MODEL       53
REMARK 921   NORMALIZED FREE ENERGY PREDICTED BY IDOCK:   -5.05 KCAL/MOL
REMARK 922        TOTAL FREE ENERGY PREDICTED BY IDOCK:  -10.62 KCAL/MOL
REMARK 923 INTER-LIGAND FREE ENERGY PREDICTED BY IDOCK:   -8.62 KCAL/MOL
REMARK 924 INTRA-LIGAND FREE ENERGY PREDICTED BY IDOCK:   -2.00 KCAL/MOL
REMARK 927      BINDING AFFINITY PREDICTED BY RF-SCORE:    0.00 PKD
ROOT
HETATM    1  C   UNL     1      -8.914  10.851  62.566  1.00  0.00    -0.360 C  
HETATM    2  C   UNL     1     -10.047  11.454  63.385  1.00  0.00    -0.444 C  
ENDROOT
BRANCH   2   3
HETATM    3  C   UNL     1     -10.257  10.654  64.667  1.00  0.00    -0.404 C  
BRANCH   3   4
HETATM    4  C   UNL     1      -9.042   9.788  65.024  1.00  0.00    -0.280 C  
HETATM    5  C   UNL     1      -9.050   9.306  66.495  1.00  0.00    -0.154 C  
HETATM    6  O   UNL     1      -8.989  10.465  67.338  1.00  0.00    -0.135 OA 
HETATM    7  C   UNL     1      -7.803   8.454  66.769  1.00  0.00    -0.094 C  
HETATM    8  C   UNL     1     -10.355   8.527  66.800  1.00  0.00    -0.346 C  
HETATM    9  H   UNL     1      -8.994  10.170  68.240  1.00  0.00     0.000 HD 
BRANCH   8  10
HETATM   10  C   UNL     1     -10.427   7.861  68.145  1.00  0.00    -0.227 C  
HETATM   11  C   UNL     1     -11.020   6.677  68.372  1.00  0.00    -0.313 C  
BRANCH  11  12
HETATM   12  C   UNL     1     -11.119   5.968  69.698  1.00  0.00    -0.474 C  
HETATM   13  C   UNL     1      -9.851   5.141  69.969  1.00  0.00    -0.225 C  
HETATM   14  C   UNL     1      -9.851   4.887  71.465  1.00  0.00    -0.247 C  
HETATM   15  O   UNL     1      -9.857   3.908  69.259  1.00  0.00    -0.145 OA 
HETATM   16  H   UNL     1      -9.074   3.396  69.426  1.00  0.00     0.000 HD 
HETATM   17  C   UNL     1     -10.509   6.123  71.991  1.00  0.00    -0.211 C  
HETATM   18  O   UNL     1     -10.403   6.479  73.159  1.00  0.00    -0.200 OA 
HETATM   19  C   UNL     1     -11.288   6.882  70.935  1.00  0.00    -0.348 C  
BRANCH  19  20
HETATM   20  C   UNL     1     -12.769   7.095  71.268  1.00  0.00    -0.412 C  
BRANCH  20  21
HETATM   21  C   UNL     1     -13.021   8.438  71.956  1.00  0.00    -0.388 C  
BRANCH  21  22
HETATM   22  C   UNL     1     -11.972   9.479  71.580  1.00  0.00    -0.475 C  
BRANCH  22  23
HETATM   23  C   UNL     1     -12.626  10.651  70.843  1.00  0.00    -0.503 C  
BRANCH  23  24
HETATM   24  C   UNL     1     -11.880  10.956  69.549  1.00  0.00    -0.404 C  
BRANCH  24  25
HETATM   25  C   UNL     1     -11.729  12.457  69.317  1.00  0.00    -0.386 C  
BRANCH  25  26
HETATM   26  C   UNL     1     -11.669  12.769  67.840  1.00  0.00    -0.357 C  
HETATM   27  O   UNL     1     -12.142  12.075  66.953  1.00  0.00    -0.608 OA 
BRANCH  26  28
HETATM   28  O   UNL     1     -11.009  13.942  67.640  1.00  0.00    -0.258 OA 
HETATM   29  C   UNL     1      -9.672  13.930  68.138  1.00  0.00    -0.222 C  
ENDBRANCH  26  28
ENDBRANCH  25  26
ENDBRANCH  24  25
ENDBRANCH  23  24
ENDBRANCH  22  23
ENDBRANCH  21  22
ENDBRANCH  20  21
ENDBRANCH  19  20
ENDBRANCH  11  12
ENDBRANCH   8  10
ENDBRANCH   3   4
ENDBRANCH   2   3
TORSDOF 12
ENDMDL
MODEL       54
REMARK 921   NORMALIZED FREE ENERGY PREDICTED BY IDOCK:   -5.04 KCAL/MOL
REMARK 922        TOTAL FREE ENERGY PREDICTED BY IDOCK:  -10.61 KCAL/MOL
REMARK 923 INTER-LIGAND FREE ENERGY PREDICTED BY IDOCK:   -8.34 KCAL/MOL
REMARK 924 INTRA-LIGAND FREE ENERGY PREDICTED BY IDOCK:   -2.28 KCAL/MOL
REMARK 927      BINDING AFFINITY PREDICTED BY RF-SCORE:    0.00 PKD
ROOT
HETATM    1  C   UNL     1      -9.003  17.827  68.671  1.00  0.00    -0.258 C  
HETATM    2  C   UNL     1      -9.334  17.464  67.231  1.00  0.00    -0.238 C  
ENDROOT
BRANCH   2   3
HETATM    3  C   UNL     1     -10.592  16.602  67.178  1.00  0.00    -0.264 C  
BRANCH   3   4
HETATM    4  C   UNL     1     -11.031  16.120  68.566  1.00  0.00    -0.338 C  
HETATM    5  C   UNL     1     -11.363  14.609  68.608  1.00  0.00    -0.283 C  
HETATM    6  O   UNL     1     -12.469  14.377  67.725  1.00  0.00    -0.588 OA 
HETATM    7  C   UNL     1     -11.797  14.211  70.026  1.00  0.00    -0.388 C  
HETATM    8  C   UNL     1     -10.148  13.776  68.126  1.00  0.00    -0.245 C  
HETATM    9  H   UNL     1     -12.674  13.450  67.750  1.00  0.00     0.000 HD 
BRANCH   8  10
HETATM   10  C   UNL     1     -10.272  12.285  68.267  1.00  0.00    -0.221 C  
HETATM   11  C   UNL     1      -9.229  11.438  68.281  1.00  0.00    -0.183 C  
BRANCH  11  12
HETATM   12  C   UNL     1      -9.299   9.939  68.420  1.00  0.00    -0.135 C  
HETATM   13  C   UNL     1     -10.327   9.539  69.492  1.00  0.00    -0.217 C  
HETATM   14  C   UNL     1     -10.655   8.085  69.209  1.00  0.00    -0.193 C  
HETATM   15  O   UNL     1      -9.808   9.681  70.809  1.00  0.00    -0.266 OA 
HETATM   16  H   UNL     1     -10.443   9.434  71.471  1.00  0.00     0.000 HD 
HETATM   17  C   UNL     1     -10.511   8.016  67.722  1.00  0.00    -0.214 C  
HETATM   18  O   UNL     1     -11.012   7.119  67.053  1.00  0.00    -0.369 OA 
HETATM   19  C   UNL     1      -9.711   9.167  67.144  1.00  0.00    -0.236 C  
BRANCH  19  20
HETATM   20  C   UNL     1      -8.482   8.742  66.333  1.00  0.00    -0.127 C  
BRANCH  20  21
HETATM   21  C   UNL     1      -8.311   9.574  65.061  1.00  0.00    -0.148 C  
BRANCH  21  22
HETATM   22  C   UNL     1      -9.448  10.574  64.875  1.00  0.00    -0.304 C  
BRANCH  22  23
HETATM   23  C   UNL     1      -9.486  11.075  63.429  1.00  0.00    -0.331 C  
BRANCH  23  24
HETATM   24  C   UNL     1     -10.690  11.983  63.206  1.00  0.00    -0.400 C  
BRANCH  24  25
HETATM   25  C   UNL     1     -11.153  12.646  64.501  1.00  0.00    -0.365 C  
BRANCH  25  26
HETATM   26  C   UNL     1     -12.648  12.855  64.493  1.00  0.00    -0.350 C  
HETATM   27  O   UNL     1     -13.472  12.044  64.101  1.00  0.00    -0.672 OA 
BRANCH  26  28
HETATM   28  O   UNL     1     -12.947  14.087  64.989  1.00  0.00    -0.728 OA 
HETATM   29  C   UNL     1     -12.233  15.143  64.347  1.00  0.00    -0.275 C  
ENDBRANCH  26  28
ENDBRANCH  25  26
ENDBRANCH  24  25
ENDBRANCH  23  24
ENDBRANCH  22  23
ENDBRANCH  21  22
ENDBRANCH  20  21
ENDBRANCH  19  20
ENDBRANCH  11  12
ENDBRANCH   8  10
ENDBRANCH   3   4
ENDBRANCH   2   3
TORSDOF 12
ENDMDL
MODEL       55
REMARK 921   NORMALIZED FREE ENERGY PREDICTED BY IDOCK:   -5.03 KCAL/MOL
REMARK 922        TOTAL FREE ENERGY PREDICTED BY IDOCK:  -10.60 KCAL/MOL
REMARK 923 INTER-LIGAND FREE ENERGY PREDICTED BY IDOCK:   -8.88 KCAL/MOL
REMARK 924 INTRA-LIGAND FREE ENERGY PREDICTED BY IDOCK:   -1.72 KCAL/MOL
REMARK 927      BINDING AFFINITY PREDICTED BY RF-SCORE:    0.00 PKD
ROOT
HETATM    1  C   UNL     1     -11.349   5.939  72.225  1.00  0.00    -0.351 C  
HETATM    2  C   UNL     1     -11.285   6.363  70.765  1.00  0.00    -0.386 C  
ENDROOT
BRANCH   2   3
HETATM    3  C   UNL     1     -10.432   7.619  70.616  1.00  0.00    -0.217 C  
BRANCH   3   4
HETATM    4  C   UNL     1     -11.248   8.906  70.791  1.00  0.00    -0.321 C  
HETATM    5  C   UNL     1     -10.741  10.073  69.909  1.00  0.00    -0.286 C  
HETATM    6  O   UNL     1      -9.400  10.379  70.312  1.00  0.00    -0.286 OA 
HETATM    7  C   UNL     1     -11.606  11.319  70.149  1.00  0.00    -0.393 C  
HETATM    8  C   UNL     1     -10.739   9.657  68.416  1.00  0.00    -0.251 C  
HETATM    9  H   UNL     1      -9.089  11.095  69.771  1.00  0.00     0.000 HD 
BRANCH   8  10
HETATM   10  C   UNL     1     -10.423  10.744  67.428  1.00  0.00    -0.268 C  
HETATM   11  C   UNL     1     -11.316  11.270  66.572  1.00  0.00    -0.122 C  
BRANCH  11  12
HETATM   12  C   UNL     1     -11.051  12.359  65.565  1.00  0.00    -0.338 C  
HETATM   13  C   UNL     1     -11.434  11.897  64.149  1.00  0.00    -0.370 C  
HETATM   14  C   UNL     1     -11.585  13.170  63.339  1.00  0.00    -0.306 C  
HETATM   15  O   UNL     1     -10.436  11.060  63.574  1.00  0.00    -0.460 OA 
HETATM   16  H   UNL     1     -10.672  10.774  62.699  1.00  0.00     0.000 HD 
HETATM   17  C   UNL     1     -12.079  14.137  64.367  1.00  0.00    -0.463 C  
HETATM   18  O   UNL     1     -12.649  15.181  64.069  1.00  0.00    -0.791 OA 
HETATM   19  C   UNL     1     -11.822  13.681  65.790  1.00  0.00    -0.397 C  
BRANCH  19  20
HETATM   20  C   UNL     1     -11.003  14.664  66.634  1.00  0.00    -0.323 C  
BRANCH  20  21
HETATM   21  C   UNL     1      -9.585  14.851  66.093  1.00  0.00    -0.340 C  
BRANCH  21  22
HETATM   22  C   UNL     1      -9.210  16.324  65.967  1.00  0.00    -0.351 C  
BRANCH  22  23
HETATM   23  C   UNL     1     -10.439  17.208  66.195  1.00  0.00    -0.277 C  
BRANCH  23  24
HETATM   24  C   UNL     1     -10.137  18.292  67.224  1.00  0.00    -0.366 C  
BRANCH  24  25
HETATM   25  C   UNL     1      -9.566  17.712  68.514  1.00  0.00    -0.315 C  
BRANCH  25  26
HETATM   26  C   UNL     1      -8.308  18.443  68.921  1.00  0.00    -0.152 C  
HETATM   27  O   UNL     1      -8.240  19.630  69.196  1.00  0.00    -0.274 OA 
BRANCH  26  28
HETATM   28  O   UNL     1      -7.256  17.580  68.940  1.00  0.00    -0.247 OA 
HETATM   29  C   UNL     1      -7.639  16.227  69.187  1.00  0.00    -0.227 C  
ENDBRANCH  26  28
ENDBRANCH  25  26
ENDBRANCH  24  25
ENDBRANCH  23  24
ENDBRANCH  22  23
ENDBRANCH  21  22
ENDBRANCH  20  21
ENDBRANCH  19  20
ENDBRANCH  11  12
ENDBRANCH   8  10
ENDBRANCH   3   4
ENDBRANCH   2   3
TORSDOF 12
ENDMDL
MODEL       56
REMARK 921   NORMALIZED FREE ENERGY PREDICTED BY IDOCK:   -4.98 KCAL/MOL
REMARK 922        TOTAL FREE ENERGY PREDICTED BY IDOCK:  -10.51 KCAL/MOL
REMARK 923 INTER-LIGAND FREE ENERGY PREDICTED BY IDOCK:   -8.50 KCAL/MOL
REMARK 924 INTRA-LIGAND FREE ENERGY PREDICTED BY IDOCK:   -2.01 KCAL/MOL
REMARK 927      BINDING AFFINITY PREDICTED BY RF-SCORE:    0.00 PKD
ROOT
HETATM    1  C   UNL     1     -10.786   5.343  72.439  1.00  0.00    -0.297 C  
HETATM    2  C   UNL     1     -10.953   5.833  71.007  1.00  0.00    -0.300 C  
ENDROOT
BRANCH   2   3
HETATM    3  C   UNL     1     -10.193   7.139  70.803  1.00  0.00    -0.208 C  
BRANCH   3   4
HETATM    4  C   UNL     1     -11.073   8.373  71.040  1.00  0.00    -0.298 C  
HETATM    5  C   UNL     1     -10.624   9.607  70.220  1.00  0.00    -0.278 C  
HETATM    6  O   UNL     1      -9.300   9.959  70.645  1.00  0.00    -0.324 OA 
HETATM    7  C   UNL     1     -11.551  10.794  70.520  1.00  0.00    -0.425 C  
HETATM    8  C   UNL     1     -10.597   9.269  68.708  1.00  0.00    -0.220 C  
HETATM    9  H   UNL     1      -9.025  10.717  70.143  1.00  0.00     0.000 HD 
BRANCH   8  10
HETATM   10  C   UNL     1     -10.335  10.420  67.779  1.00  0.00    -0.245 C  
HETATM   11  C   UNL     1     -11.153  10.785  66.778  1.00  0.00    -0.153 C  
BRANCH  11  12
HETATM   12  C   UNL     1     -10.937  11.929  65.821  1.00  0.00    -0.359 C  
HETATM   13  C   UNL     1     -10.187  11.453  64.565  1.00  0.00    -0.299 C  
HETATM   14  C   UNL     1     -10.451  12.516  63.515  1.00  0.00    -0.360 C  
HETATM   15  O   UNL     1      -8.789  11.323  64.796  1.00  0.00    -0.378 OA 
HETATM   16  H   UNL     1      -8.326  11.029  64.021  1.00  0.00     0.000 HD 
HETATM   17  C   UNL     1     -11.823  12.985  63.883  1.00  0.00    -0.477 C  
HETATM   18  O   UNL     1     -12.545  13.590  63.099  1.00  0.00    -0.762 OA 
HETATM   19  C   UNL     1     -12.220  12.618  65.299  1.00  0.00    -0.532 C  
BRANCH  19  20
HETATM   20  C   UNL     1     -12.606  13.811  66.181  1.00  0.00    -0.423 C  
BRANCH  20  21
HETATM   21  C   UNL     1     -11.725  13.921  67.426  1.00  0.00    -0.422 C  
BRANCH  21  22
HETATM   22  C   UNL     1     -11.172  15.330  67.613  1.00  0.00    -0.320 C  
BRANCH  22  23
HETATM   23  C   UNL     1     -10.714  15.906  66.271  1.00  0.00    -0.261 C  
BRANCH  23  24
HETATM   24  C   UNL     1      -9.388  15.286  65.846  1.00  0.00    -0.308 C  
BRANCH  24  25
HETATM   25  C   UNL     1      -8.222  15.799  66.685  1.00  0.00    -0.305 C  
BRANCH  25  26
HETATM   26  C   UNL     1      -7.557  14.666  67.431  1.00  0.00    -0.192 C  
HETATM   27  O   UNL     1      -6.700  14.795  68.291  1.00  0.00    -0.095 OA 
BRANCH  26  28
HETATM   28  O   UNL     1      -8.057  13.474  67.005  1.00  0.00    -0.123 OA 
HETATM   29  C   UNL     1      -7.516  12.353  67.703  1.00  0.00    -0.138 C  
ENDBRANCH  26  28
ENDBRANCH  25  26
ENDBRANCH  24  25
ENDBRANCH  23  24
ENDBRANCH  22  23
ENDBRANCH  21  22
ENDBRANCH  20  21
ENDBRANCH  19  20
ENDBRANCH  11  12
ENDBRANCH   8  10
ENDBRANCH   3   4
ENDBRANCH   2   3
TORSDOF 12
ENDMDL
MODEL       57
REMARK 921   NORMALIZED FREE ENERGY PREDICTED BY IDOCK:   -4.97 KCAL/MOL
REMARK 922        TOTAL FREE ENERGY PREDICTED BY IDOCK:  -10.49 KCAL/MOL
REMARK 923 INTER-LIGAND FREE ENERGY PREDICTED BY IDOCK:   -8.15 KCAL/MOL
REMARK 924 INTRA-LIGAND FREE ENERGY PREDICTED BY IDOCK:   -2.34 KCAL/MOL
REMARK 927      BINDING AFFINITY PREDICTED BY RF-SCORE:    0.00 PKD
ROOT
HETATM    1  C   UNL     1     -12.326  12.062  63.837  1.00  0.00    -0.553 C  
HETATM    2  C   UNL     1     -12.411  13.577  63.955  1.00  0.00    -0.391 C  
ENDROOT
BRANCH   2   3
HETATM    3  C   UNL     1     -12.535  13.987  65.419  1.00  0.00    -0.520 C  
BRANCH   3   4
HETATM    4  C   UNL     1     -11.171  14.123  66.109  1.00  0.00    -0.326 C  
HETATM    5  C   UNL     1     -11.220  13.803  67.622  1.00  0.00    -0.293 C  
HETATM    6  O   UNL     1     -12.091  14.757  68.245  1.00  0.00    -0.537 OA 
HETATM    7  C   UNL     1      -9.821  13.966  68.233  1.00  0.00    -0.231 C  
HETATM    8  C   UNL     1     -11.783  12.377  67.854  1.00  0.00    -0.421 C  
HETATM    9  H   UNL     1     -12.121  14.561  69.174  1.00  0.00     0.000 HD 
BRANCH   8  10
HETATM   10  C   UNL     1     -11.737  11.871  69.268  1.00  0.00    -0.389 C  
HETATM   11  C   UNL     1     -11.824  10.575  69.610  1.00  0.00    -0.306 C  
BRANCH  11  12
HETATM   12  C   UNL     1     -11.782  10.017  71.009  1.00  0.00    -0.479 C  
HETATM   13  C   UNL     1     -13.203   9.733  71.524  1.00  0.00    -0.404 C  
HETATM   14  C   UNL     1     -13.025   8.766  72.679  1.00  0.00    -0.305 C  
HETATM   15  O   UNL     1     -13.856  10.918  71.968  1.00  0.00    -0.160 OA 
HETATM   16  H   UNL     1     -14.734  10.743  72.286  1.00  0.00     0.000 HD 
HETATM   17  C   UNL     1     -11.818   7.991  72.254  1.00  0.00    -0.369 C  
HETATM   18  O   UNL     1     -11.538   6.896  72.729  1.00  0.00    -0.199 OA 
HETATM   19  C   UNL     1     -11.009   8.687  71.178  1.00  0.00    -0.320 C  
BRANCH  19  20
HETATM   20  C   UNL     1      -9.544   8.942  71.549  1.00  0.00    -0.362 C  
BRANCH  20  21
HETATM   21  C   UNL     1      -8.607   7.880  70.971  1.00  0.00    -0.135 C  
BRANCH  21  22
HETATM   22  C   UNL     1      -7.783   8.416  69.806  1.00  0.00    -0.093 C  
BRANCH  22  23
HETATM   23  C   UNL     1      -7.886   9.942  69.738  1.00  0.00    -0.169 C  
BRANCH  23  24
HETATM   24  C   UNL     1      -8.305  10.391  68.343  1.00  0.00    -0.119 C  
BRANCH  24  25
HETATM   25  C   UNL     1      -8.085   9.298  67.301  1.00  0.00    -0.113 C  
BRANCH  25  26
HETATM   26  C   UNL     1      -9.247   9.231  66.339  1.00  0.00    -0.180 C  
HETATM   27  O   UNL     1      -9.166   9.343  65.126  1.00  0.00    -0.229 OA 
BRANCH  26  28
HETATM   28  O   UNL     1     -10.405   9.024  67.023  1.00  0.00    -0.253 OA 
HETATM   29  C   UNL     1     -10.785   7.649  67.088  1.00  0.00    -0.290 C  
ENDBRANCH  26  28
ENDBRANCH  25  26
ENDBRANCH  24  25
ENDBRANCH  23  24
ENDBRANCH  22  23
ENDBRANCH  21  22
ENDBRANCH  20  21
ENDBRANCH  19  20
ENDBRANCH  11  12
ENDBRANCH   8  10
ENDBRANCH   3   4
ENDBRANCH   2   3
TORSDOF 12
ENDMDL
MODEL       58
REMARK 921   NORMALIZED FREE ENERGY PREDICTED BY IDOCK:   -4.95 KCAL/MOL
REMARK 922        TOTAL FREE ENERGY PREDICTED BY IDOCK:  -10.46 KCAL/MOL
REMARK 923 INTER-LIGAND FREE ENERGY PREDICTED BY IDOCK:   -9.10 KCAL/MOL
REMARK 924 INTRA-LIGAND FREE ENERGY PREDICTED BY IDOCK:   -1.37 KCAL/MOL
REMARK 927      BINDING AFFINITY PREDICTED BY RF-SCORE:    0.00 PKD
ROOT
HETATM    1  C   UNL     1      -6.274  20.843  67.780  1.00  0.00    -0.391 C  
HETATM    2  C   UNL     1      -6.233  20.620  66.275  1.00  0.00    -0.268 C  
ENDROOT
BRANCH   2   3
HETATM    3  C   UNL     1      -7.515  19.941  65.805  1.00  0.00    -0.330 C  
BRANCH   3   4
HETATM    4  C   UNL     1      -8.534  19.764  66.938  1.00  0.00    -0.364 C  
HETATM    5  C   UNL     1      -9.659  18.758  66.593  1.00  0.00    -0.336 C  
HETATM    6  O   UNL     1     -10.382  19.276  65.468  1.00  0.00    -0.469 OA 
HETATM    7  C   UNL     1     -10.634  18.645  67.774  1.00  0.00    -0.433 C  
HETATM    8  C   UNL     1      -9.055  17.382  66.215  1.00  0.00    -0.232 C  
HETATM    9  H   UNL     1     -11.073  18.660  65.256  1.00  0.00     0.000 HD 
BRANCH   8  10
HETATM   10  C   UNL     1     -10.037  16.263  66.013  1.00  0.00    -0.377 C  
HETATM   11  C   UNL     1      -9.693  14.970  65.889  1.00  0.00    -0.376 C  
BRANCH  11  12
HETATM   12  C   UNL     1     -10.637  13.812  65.685  1.00  0.00    -0.302 C  
HETATM   13  C   UNL     1     -12.057  14.179  66.149  1.00  0.00    -0.435 C  
HETATM   14  C   UNL     1     -12.971  13.173  65.475  1.00  0.00    -0.005 C  
HETATM   15  O   UNL     1     -12.192  14.099  67.564  1.00  0.00    -0.549 OA 
HETATM   16  H   UNL     1     -13.069  14.326  67.851  1.00  0.00     0.000 HD 
HETATM   17  C   UNL     1     -12.251  12.910  64.190  1.00  0.00    -0.414 C  
HETATM   18  O   UNL     1     -12.807  12.424  63.212  1.00  0.00    -0.696 OA 
HETATM   19  C   UNL     1     -10.793  13.324  64.226  1.00  0.00    -0.414 C  
BRANCH  19  20
HETATM   20  C   UNL     1      -9.805  12.196  63.910  1.00  0.00    -0.240 C  
BRANCH  20  21
HETATM   21  C   UNL     1     -10.048  10.954  64.769  1.00  0.00    -0.383 C  
BRANCH  21  22
HETATM   22  C   UNL     1      -8.812  10.562  65.571  1.00  0.00    -0.200 C  
BRANCH  22  23
HETATM   23  C   UNL     1      -9.113  10.612  67.071  1.00  0.00    -0.155 C  
BRANCH  23  24
HETATM   24  C   UNL     1     -10.218   9.626  67.431  1.00  0.00    -0.283 C  
BRANCH  24  25
HETATM   25  C   UNL     1      -9.924   8.222  66.909  1.00  0.00    -0.343 C  
BRANCH  25  26
HETATM   26  C   UNL     1     -10.722   7.188  67.667  1.00  0.00    -0.244 C  
HETATM   27  O   UNL     1     -11.201   6.174  67.185  1.00  0.00    -0.291 OA 
BRANCH  26  28
HETATM   28  O   UNL     1     -10.828   7.552  68.975  1.00  0.00    -0.172 OA 
HETATM   29  C   UNL     1     -11.342   6.515  69.810  1.00  0.00    -0.393 C  
ENDBRANCH  26  28
ENDBRANCH  25  26
ENDBRANCH  24  25
ENDBRANCH  23  24
ENDBRANCH  22  23
ENDBRANCH  21  22
ENDBRANCH  20  21
ENDBRANCH  19  20
ENDBRANCH  11  12
ENDBRANCH   8  10
ENDBRANCH   3   4
ENDBRANCH   2   3
TORSDOF 12
ENDMDL
MODEL       59
REMARK 921   NORMALIZED FREE ENERGY PREDICTED BY IDOCK:   -4.95 KCAL/MOL
REMARK 922        TOTAL FREE ENERGY PREDICTED BY IDOCK:  -10.46 KCAL/MOL
REMARK 923 INTER-LIGAND FREE ENERGY PREDICTED BY IDOCK:   -8.39 KCAL/MOL
REMARK 924 INTRA-LIGAND FREE ENERGY PREDICTED BY IDOCK:   -2.07 KCAL/MOL
REMARK 927      BINDING AFFINITY PREDICTED BY RF-SCORE:    0.00 PKD
ROOT
HETATM    1  C   UNL     1     -13.187  14.597  72.865  1.00  0.00    -0.609 C  
HETATM    2  C   UNL     1     -13.325  14.162  71.413  1.00  0.00    -0.402 C  
ENDROOT
BRANCH   2   3
HETATM    3  C   UNL     1     -12.612  12.833  71.188  1.00  0.00    -0.365 C  
BRANCH   3   4
HETATM    4  C   UNL     1     -13.281  11.674  71.940  1.00  0.00    -0.475 C  
HETATM    5  C   UNL     1     -12.922  10.285  71.359  1.00  0.00    -0.440 C  
HETATM    6  O   UNL     1     -13.407  10.233  70.011  1.00  0.00    -0.492 OA 
HETATM    7  C   UNL     1     -13.634   9.187  72.163  1.00  0.00    -0.534 C  
HETATM    8  C   UNL     1     -11.385  10.084  71.352  1.00  0.00    -0.251 C  
HETATM    9  H   UNL     1     -13.187   9.381  69.654  1.00  0.00     0.000 HD 
BRANCH   8  10
HETATM   10  C   UNL     1     -10.899   8.716  70.965  1.00  0.00    -0.302 C  
HETATM   11  C   UNL     1      -9.695   8.220  71.295  1.00  0.00    -0.225 C  
BRANCH  11  12
HETATM   12  C   UNL     1      -9.162   6.858  70.932  1.00  0.00    -0.157 C  
HETATM   13  C   UNL     1      -8.048   6.433  71.903  1.00  0.00    -0.109 C  
HETATM   14  C   UNL     1      -7.939   4.927  71.754  1.00  0.00    -0.109 C  
HETATM   15  O   UNL     1      -6.805   7.052  71.593  1.00  0.00    -0.059 OA 
HETATM   16  H   UNL     1      -6.116   6.790  72.193  1.00  0.00     0.000 HD 
HETATM   17  C   UNL     1      -9.349   4.542  71.438  1.00  0.00    -0.147 C  
HETATM   18  O   UNL     1      -9.766   3.398  71.577  1.00  0.00    -0.154 OA 
HETATM   19  C   UNL     1     -10.194   5.705  70.958  1.00  0.00    -0.281 C  
BRANCH  19  20
HETATM   20  C   UNL     1     -10.832   5.501  69.579  1.00  0.00    -0.254 C  
BRANCH  20  21
HETATM   21  C   UNL     1      -9.964   6.060  68.451  1.00  0.00    -0.173 C  
BRANCH  21  22
HETATM   22  C   UNL     1     -10.802   6.698  67.347  1.00  0.00    -0.434 C  
BRANCH  22  23
HETATM   23  C   UNL     1     -10.043   7.863  66.708  1.00  0.00    -0.352 C  
BRANCH  23  24
HETATM   24  C   UNL     1     -10.428   9.182  67.368  1.00  0.00    -0.339 C  
BRANCH  24  25
HETATM   25  C   UNL     1     -10.410  10.344  66.378  1.00  0.00    -0.278 C  
BRANCH  25  26
HETATM   26  C   UNL     1     -11.321  11.456  66.839  1.00  0.00    -0.210 C  
HETATM   27  O   UNL     1     -11.959  11.461  67.880  1.00  0.00    -0.626 OA 
BRANCH  26  28
HETATM   28  O   UNL     1     -11.326  12.461  65.920  1.00  0.00    -0.322 OA 
HETATM   29  C   UNL     1     -10.329  12.309  64.911  1.00  0.00    -0.290 C  
ENDBRANCH  26  28
ENDBRANCH  25  26
ENDBRANCH  24  25
ENDBRANCH  23  24
ENDBRANCH  22  23
ENDBRANCH  21  22
ENDBRANCH  20  21
ENDBRANCH  19  20
ENDBRANCH  11  12
ENDBRANCH   8  10
ENDBRANCH   3   4
ENDBRANCH   2   3
TORSDOF 12
ENDMDL
MODEL       60
REMARK 921   NORMALIZED FREE ENERGY PREDICTED BY IDOCK:   -4.95 KCAL/MOL
REMARK 922        TOTAL FREE ENERGY PREDICTED BY IDOCK:  -10.46 KCAL/MOL
REMARK 923 INTER-LIGAND FREE ENERGY PREDICTED BY IDOCK:   -9.31 KCAL/MOL
REMARK 924 INTRA-LIGAND FREE ENERGY PREDICTED BY IDOCK:   -1.15 KCAL/MOL
REMARK 927      BINDING AFFINITY PREDICTED BY RF-SCORE:    0.00 PKD
ROOT
HETATM    1  C   UNL     1      -9.562   3.056  64.808  1.00  0.00    -0.121 C  
HETATM    2  C   UNL     1      -8.893   4.305  64.253  1.00  0.00    -0.145 C  
ENDROOT
BRANCH   2   3
HETATM    3  C   UNL     1      -8.737   5.354  65.349  1.00  0.00    -0.154 C  
BRANCH   3   4
HETATM    4  C   UNL     1      -7.490   6.227  65.153  1.00  0.00    -0.082 C  
HETATM    5  C   UNL     1      -7.822   7.670  64.705  1.00  0.00    -0.126 C  
HETATM    6  O   UNL     1      -8.475   7.596  63.430  1.00  0.00    -0.373 OA 
HETATM    7  C   UNL     1      -6.524   8.470  64.528  1.00  0.00    -0.066 C  
HETATM    8  C   UNL     1      -8.776   8.345  65.724  1.00  0.00    -0.199 C  
HETATM    9  H   UNL     1      -8.679   8.482  63.155  1.00  0.00     0.000 HD 
BRANCH   8  10
HETATM   10  C   UNL     1      -9.055   9.805  65.500  1.00  0.00    -0.242 C  
HETATM   11  C   UNL     1     -10.251  10.384  65.695  1.00  0.00    -0.308 C  
BRANCH  11  12
HETATM   12  C   UNL     1     -10.582  11.839  65.487  1.00  0.00    -0.323 C  
HETATM   13  C   UNL     1     -10.788  12.143  63.993  1.00  0.00    -0.383 C  
HETATM   14  C   UNL     1     -11.560  13.448  63.952  1.00  0.00    -0.401 C  
HETATM   15  O   UNL     1      -9.551  12.278  63.302  1.00  0.00    -0.650 OA 
HETATM   16  H   UNL     1      -9.678  12.466  62.379  1.00  0.00     0.000 HD 
HETATM   17  C   UNL     1     -12.387  13.360  65.196  1.00  0.00    -0.456 C  
HETATM   18  O   UNL     1     -13.392  14.040  65.368  1.00  0.00    -0.721 OA 
HETATM   19  C   UNL     1     -11.865  12.342  66.191  1.00  0.00    -0.442 C  
BRANCH  19  20
HETATM   20  C   UNL     1     -11.549  12.913  67.578  1.00  0.00    -0.409 C  
BRANCH  20  21
HETATM   21  C   UNL     1     -10.467  13.993  67.527  1.00  0.00    -0.252 C  
BRANCH  21  22
HETATM   22  C   UNL     1     -10.875  15.247  68.295  1.00  0.00    -0.262 C  
BRANCH  22  23
HETATM   23  C   UNL     1     -12.053  14.944  69.223  1.00  0.00    -0.286 C  
BRANCH  23  24
HETATM   24  C   UNL     1     -11.662  15.171  70.679  1.00  0.00    -0.356 C  
BRANCH  24  25
HETATM   25  C   UNL     1     -12.828  15.704  71.507  1.00  0.00    -0.538 C  
BRANCH  25  26
HETATM   26  C   UNL     1     -13.006  14.894  72.770  1.00  0.00    -0.447 C  
HETATM   27  O   UNL     1     -12.310  14.984  73.769  1.00  0.00    -0.520 OA 
BRANCH  26  28
HETATM   28  O   UNL     1     -14.060  14.045  72.631  1.00  0.00    -0.651 OA 
HETATM   29  C   UNL     1     -13.678  12.729  72.230  1.00  0.00    -0.400 C  
ENDBRANCH  26  28
ENDBRANCH  25  26
ENDBRANCH  24  25
ENDBRANCH  23  24
ENDBRANCH  22  23
ENDBRANCH  21  22
ENDBRANCH  20  21
ENDBRANCH  19  20
ENDBRANCH  11  12
ENDBRANCH   8  10
ENDBRANCH   3   4
ENDBRANCH   2   3
TORSDOF 12
ENDMDL
MODEL       61
REMARK 921   NORMALIZED FREE ENERGY PREDICTED BY IDOCK:   -4.94 KCAL/MOL
REMARK 922        TOTAL FREE ENERGY PREDICTED BY IDOCK:  -10.44 KCAL/MOL
REMARK 923 INTER-LIGAND FREE ENERGY PREDICTED BY IDOCK:   -8.98 KCAL/MOL
REMARK 924 INTRA-LIGAND FREE ENERGY PREDICTED BY IDOCK:   -1.46 KCAL/MOL
REMARK 927      BINDING AFFINITY PREDICTED BY RF-SCORE:    0.00 PKD
ROOT
HETATM    1  C   UNL     1      -9.919  19.707  68.046  1.00  0.00    -0.541 C  
HETATM    2  C   UNL     1     -10.676  19.591  66.730  1.00  0.00    -0.569 C  
ENDROOT
BRANCH   2   3
HETATM    3  C   UNL     1     -10.247  18.333  65.982  1.00  0.00    -0.334 C  
BRANCH   3   4
HETATM    4  C   UNL     1      -8.963  17.719  66.554  1.00  0.00    -0.280 C  
HETATM    5  C   UNL     1      -9.134  16.241  66.982  1.00  0.00    -0.207 C  
HETATM    6  O   UNL     1     -10.112  16.198  68.030  1.00  0.00    -0.234 OA 
HETATM    7  C   UNL     1      -7.809  15.708  67.546  1.00  0.00    -0.184 C  
HETATM    8  C   UNL     1      -9.633  15.388  65.788  1.00  0.00    -0.368 C  
HETATM    9  H   UNL     1     -10.217  15.291  68.293  1.00  0.00     0.000 HD 
BRANCH   8  10
HETATM   10  C   UNL     1      -9.690  13.904  66.015  1.00  0.00    -0.270 C  
HETATM   11  C   UNL     1     -10.826  13.188  66.049  1.00  0.00    -0.287 C  
BRANCH  11  12
HETATM   12  C   UNL     1     -10.937  11.702  66.272  1.00  0.00    -0.338 C  
HETATM   13  C   UNL     1     -10.039  10.935  65.287  1.00  0.00    -0.280 C  
HETATM   14  C   UNL     1      -9.860   9.557  65.897  1.00  0.00    -0.360 C  
HETATM   15  O   UNL     1     -10.630  10.831  63.996  1.00  0.00    -0.469 OA 
HETATM   16  H   UNL     1     -10.075  10.357  63.388  1.00  0.00     0.000 HD 
HETATM   17  C   UNL     1      -9.907   9.856  67.362  1.00  0.00    -0.179 C  
HETATM   18  O   UNL     1      -9.466   9.085  68.206  1.00  0.00    -0.145 OA 
HETATM   19  C   UNL     1     -10.528  11.202  67.678  1.00  0.00    -0.230 C  
BRANCH  19  20
HETATM   20  C   UNL     1     -11.738  11.139  68.617  1.00  0.00    -0.389 C  
BRANCH  20  21
HETATM   21  C   UNL     1     -11.414  11.668  70.016  1.00  0.00    -0.266 C  
BRANCH  21  22
HETATM   22  C   UNL     1     -12.555  11.423  70.997  1.00  0.00    -0.487 C  
BRANCH  22  23
HETATM   23  C   UNL     1     -13.088   9.995  70.851  1.00  0.00    -0.381 C  
BRANCH  23  24
HETATM   24  C   UNL     1     -12.787   9.179  72.103  1.00  0.00    -0.486 C  
BRANCH  24  25
HETATM   25  C   UNL     1     -11.351   8.661  72.115  1.00  0.00    -0.434 C  
BRANCH  25  26
HETATM   26  C   UNL     1     -11.325   7.151  72.095  1.00  0.00    -0.264 C  
HETATM   27  O   UNL     1     -10.686   6.446  72.860  1.00  0.00    -0.225 OA 
BRANCH  26  28
HETATM   28  O   UNL     1     -12.123   6.686  71.095  1.00  0.00    -0.360 OA 
HETATM   29  C   UNL     1     -11.421   6.453  69.874  1.00  0.00    -0.415 C  
ENDBRANCH  26  28
ENDBRANCH  25  26
ENDBRANCH  24  25
ENDBRANCH  23  24
ENDBRANCH  22  23
ENDBRANCH  21  22
ENDBRANCH  20  21
ENDBRANCH  19  20
ENDBRANCH  11  12
ENDBRANCH   8  10
ENDBRANCH   3   4
ENDBRANCH   2   3
TORSDOF 12
ENDMDL
MODEL       62
REMARK 921   NORMALIZED FREE ENERGY PREDICTED BY IDOCK:   -4.93 KCAL/MOL
REMARK 922        TOTAL FREE ENERGY PREDICTED BY IDOCK:  -10.43 KCAL/MOL
REMARK 923 INTER-LIGAND FREE ENERGY PREDICTED BY IDOCK:   -8.58 KCAL/MOL
REMARK 924 INTRA-LIGAND FREE ENERGY PREDICTED BY IDOCK:   -1.85 KCAL/MOL
REMARK 927      BINDING AFFINITY PREDICTED BY RF-SCORE:    0.00 PKD
ROOT
HETATM    1  C   UNL     1      -8.719  19.822  66.164  1.00  0.00    -0.368 C  
HETATM    2  C   UNL     1     -10.017  20.112  66.905  1.00  0.00    -0.600 C  
ENDROOT
BRANCH   2   3
HETATM    3  C   UNL     1     -10.764  18.814  67.193  1.00  0.00    -0.469 C  
BRANCH   3   4
HETATM    4  C   UNL     1     -10.036  17.583  66.636  1.00  0.00    -0.328 C  
HETATM    5  C   UNL     1      -9.800  16.483  67.700  1.00  0.00    -0.247 C  
HETATM    6  O   UNL     1      -8.955  17.033  68.720  1.00  0.00    -0.266 OA 
HETATM    7  C   UNL     1      -9.066  15.295  67.063  1.00  0.00    -0.245 C  
HETATM    8  C   UNL     1     -11.146  16.051  68.336  1.00  0.00    -0.351 C  
HETATM    9  H   UNL     1      -8.810  16.358  69.373  1.00  0.00     0.000 HD 
BRANCH   8  10
HETATM   10  C   UNL     1     -11.087  14.876  69.271  1.00  0.00    -0.284 C  
HETATM   11  C   UNL     1     -12.166  14.277  69.801  1.00  0.00    -0.390 C  
BRANCH  11  12
HETATM   12  C   UNL     1     -12.161  13.098  70.740  1.00  0.00    -0.375 C  
HETATM   13  C   UNL     1     -13.337  13.184  71.728  1.00  0.00    -0.389 C  
HETATM   14  C   UNL     1     -13.512  11.777  72.266  1.00  0.00    -0.143 C  
HETATM   15  O   UNL     1     -13.074  14.092  72.792  1.00  0.00    -0.478 OA 
HETATM   16  H   UNL     1     -13.800  14.145  73.402  1.00  0.00     0.000 HD 
HETATM   17  C   UNL     1     -13.097  10.942  71.097  1.00  0.00    -0.257 C  
HETATM   18  O   UNL     1     -13.409   9.761  70.987  1.00  0.00    -0.355 OA 
HETATM   19  C   UNL     1     -12.284  11.708  70.072  1.00  0.00    -0.338 C  
BRANCH  19  20
HETATM   20  C   UNL     1     -10.903  11.110  69.780  1.00  0.00    -0.152 C  
BRANCH  20  21
HETATM   21  C   UNL     1     -10.387  11.493  68.392  1.00  0.00    -0.214 C  
BRANCH  21  22
HETATM   22  C   UNL     1     -11.496  11.475  67.345  1.00  0.00    -0.349 C  
BRANCH  22  23
HETATM   23  C   UNL     1     -11.253  12.559  66.292  1.00  0.00    -0.359 C  
BRANCH  23  24
HETATM   24  C   UNL     1     -10.992  11.934  64.927  1.00  0.00    -0.367 C  
BRANCH  24  25
HETATM   25  C   UNL     1     -10.203  10.633  65.035  1.00  0.00    -0.380 C  
BRANCH  25  26
HETATM   26  C   UNL     1      -9.367  10.407  63.798  1.00  0.00    -0.288 C  
HETATM   27  O   UNL     1      -9.775  10.468  62.650  1.00  0.00    -0.293 OA 
BRANCH  26  28
HETATM   28  O   UNL     1      -8.083  10.125  64.152  1.00  0.00    -0.153 OA 
HETATM   29  C   UNL     1      -7.869  10.141  65.563  1.00  0.00    -0.147 C  
ENDBRANCH  26  28
ENDBRANCH  25  26
ENDBRANCH  24  25
ENDBRANCH  23  24
ENDBRANCH  22  23
ENDBRANCH  21  22
ENDBRANCH  20  21
ENDBRANCH  19  20
ENDBRANCH  11  12
ENDBRANCH   8  10
ENDBRANCH   3   4
ENDBRANCH   2   3
TORSDOF 12
ENDMDL
MODEL       63
REMARK 921   NORMALIZED FREE ENERGY PREDICTED BY IDOCK:   -4.93 KCAL/MOL
REMARK 922        TOTAL FREE ENERGY PREDICTED BY IDOCK:  -10.42 KCAL/MOL
REMARK 923 INTER-LIGAND FREE ENERGY PREDICTED BY IDOCK:   -8.47 KCAL/MOL
REMARK 924 INTRA-LIGAND FREE ENERGY PREDICTED BY IDOCK:   -1.95 KCAL/MOL
REMARK 927      BINDING AFFINITY PREDICTED BY RF-SCORE:    0.00 PKD
ROOT
HETATM    1  C   UNL     1     -11.987  12.092  63.555  1.00  0.00    -0.605 C  
HETATM    2  C   UNL     1     -11.274  12.807  64.694  1.00  0.00    -0.356 C  
ENDROOT
BRANCH   2   3
HETATM    3  C   UNL     1     -11.850  12.368  66.037  1.00  0.00    -0.459 C  
BRANCH   3   4
HETATM    4  C   UNL     1     -10.781  12.288  67.135  1.00  0.00    -0.265 C  
HETATM    5  C   UNL     1     -10.750  10.919  67.856  1.00  0.00    -0.231 C  
HETATM    6  O   UNL     1     -12.017  10.733  68.502  1.00  0.00    -0.722 OA 
HETATM    7  C   UNL     1      -9.661  10.926  68.938  1.00  0.00    -0.192 C  
HETATM    8  C   UNL     1     -10.532   9.776  66.832  1.00  0.00    -0.281 C  
HETATM    9  H   UNL     1     -11.998   9.893  68.944  1.00  0.00     0.000 HD 
BRANCH   8  10
HETATM   10  C   UNL     1     -10.319   8.405  67.408  1.00  0.00    -0.355 C  
HETATM   11  C   UNL     1     -11.028   7.319  67.056  1.00  0.00    -0.243 C  
BRANCH  11  12
HETATM   12  C   UNL     1     -10.854   5.925  67.602  1.00  0.00    -0.331 C  
HETATM   13  C   UNL     1     -10.186   5.012  66.561  1.00  0.00    -0.271 C  
HETATM   14  C   UNL     1      -9.640   3.837  67.350  1.00  0.00    -0.208 C  
HETATM   15  O   UNL     1     -11.109   4.560  65.577  1.00  0.00    -0.820 OA 
HETATM   16  H   UNL     1     -10.696   3.996  64.933  1.00  0.00     0.000 HD 
HETATM   17  C   UNL     1      -9.296   4.473  68.660  1.00  0.00    -0.141 C  
HETATM   18  O   UNL     1      -8.521   3.960  69.458  1.00  0.00    -0.060 OA 
HETATM   19  C   UNL     1      -9.983   5.808  68.875  1.00  0.00    -0.211 C  
BRANCH  19  20
HETATM   20  C   UNL     1     -10.840   5.884  70.143  1.00  0.00    -0.402 C  
BRANCH  20  21
HETATM   21  C   UNL     1     -10.862   7.290  70.744  1.00  0.00    -0.260 C  
BRANCH  21  22
HETATM   22  C   UNL     1      -9.457   7.835  70.976  1.00  0.00    -0.165 C  
BRANCH  22  23
HETATM   23  C   UNL     1      -9.238   8.132  72.461  1.00  0.00    -0.319 C  
BRANCH  23  24
HETATM   24  C   UNL     1     -10.429   7.656  73.286  1.00  0.00    -0.414 C  
BRANCH  24  25
HETATM   25  C   UNL     1     -10.025   6.615  74.325  1.00  0.00    -0.372 C  
BRANCH  25  26
HETATM   26  C   UNL     1     -10.306   5.218  73.825  1.00  0.00    -0.245 C  
HETATM   27  O   UNL     1     -11.391   4.813  73.436  1.00  0.00    -0.331 OA 
BRANCH  26  28
HETATM   28  O   UNL     1      -9.169   4.472  73.867  1.00  0.00    -0.110 OA 
HETATM   29  C   UNL     1      -8.587   4.255  72.582  1.00  0.00    -0.105 C  
ENDBRANCH  26  28
ENDBRANCH  25  26
ENDBRANCH  24  25
ENDBRANCH  23  24
ENDBRANCH  22  23
ENDBRANCH  21  22
ENDBRANCH  20  21
ENDBRANCH  19  20
ENDBRANCH  11  12
ENDBRANCH   8  10
ENDBRANCH   3   4
ENDBRANCH   2   3
TORSDOF 12
ENDMDL
MODEL       64
REMARK 921   NORMALIZED FREE ENERGY PREDICTED BY IDOCK:   -4.92 KCAL/MOL
REMARK 922        TOTAL FREE ENERGY PREDICTED BY IDOCK:  -10.42 KCAL/MOL
REMARK 923 INTER-LIGAND FREE ENERGY PREDICTED BY IDOCK:   -8.91 KCAL/MOL
REMARK 924 INTRA-LIGAND FREE ENERGY PREDICTED BY IDOCK:   -1.50 KCAL/MOL
REMARK 927      BINDING AFFINITY PREDICTED BY RF-SCORE:    0.00 PKD
ROOT
HETATM    1  C   UNL     1     -10.216  20.124  68.865  1.00  0.00    -0.280 C  
HETATM    2  C   UNL     1      -9.382  20.382  67.618  1.00  0.00    -0.453 C  
ENDROOT
BRANCH   2   3
HETATM    3  C   UNL     1      -8.759  19.083  67.120  1.00  0.00    -0.305 C  
BRANCH   3   4
HETATM    4  C   UNL     1      -8.624  18.033  68.230  1.00  0.00    -0.293 C  
HETATM    5  C   UNL     1      -9.301  16.686  67.880  1.00  0.00    -0.221 C  
HETATM    6  O   UNL     1     -10.705  16.930  67.714  1.00  0.00    -0.339 OA 
HETATM    7  C   UNL     1      -9.124  15.698  69.042  1.00  0.00    -0.241 C  
HETATM    8  C   UNL     1      -8.726  16.122  66.556  1.00  0.00    -0.337 C  
HETATM    9  H   UNL     1     -11.121  16.104  67.499  1.00  0.00     0.000 HD 
BRANCH   8  10
HETATM   10  C   UNL     1      -9.177  14.739  66.176  1.00  0.00    -0.237 C  
HETATM   11  C   UNL     1     -10.353  14.463  65.589  1.00  0.00    -0.360 C  
BRANCH  11  12
HETATM   12  C   UNL     1     -10.850  13.098  65.188  1.00  0.00    -0.321 C  
HETATM   13  C   UNL     1     -11.964  13.212  64.134  1.00  0.00    -0.436 C  
HETATM   14  C   UNL     1     -12.037  11.846  63.479  1.00  0.00    -0.575 C  
HETATM   15  O   UNL     1     -13.218  13.548  64.717  1.00  0.00    -0.555 OA 
HETATM   16  H   UNL     1     -13.906  13.619  64.065  1.00  0.00     0.000 HD 
HETATM   17  C   UNL     1     -10.615  11.388  63.553  1.00  0.00    -0.402 C  
HETATM   18  O   UNL     1     -10.173  10.493  62.841  1.00  0.00    -0.110 OA 
HETATM   19  C   UNL     1      -9.793  12.153  64.571  1.00  0.00    -0.151 C  
BRANCH  19  20
HETATM   20  C   UNL     1      -9.136  11.278  65.645  1.00  0.00    -0.203 C  
BRANCH  20  21
HETATM   21  C   UNL     1     -10.053  11.052  66.848  1.00  0.00    -0.248 C  
BRANCH  21  22
HETATM   22  C   UNL     1      -9.367  11.404  68.164  1.00  0.00    -0.181 C  
BRANCH  22  23
HETATM   23  C   UNL     1      -9.685  10.352  69.229  1.00  0.00    -0.231 C  
BRANCH  23  24
HETATM   24  C   UNL     1     -11.185  10.291  69.493  1.00  0.00    -0.314 C  
BRANCH  24  25
HETATM   25  C   UNL     1     -11.502   9.681  70.856  1.00  0.00    -0.427 C  
BRANCH  25  26
HETATM   26  C   UNL     1     -12.697  10.358  71.483  1.00  0.00    -0.459 C  
HETATM   27  O   UNL     1     -13.540   9.804  72.171  1.00  0.00    -0.419 OA 
BRANCH  26  28
HETATM   28  O   UNL     1     -12.698  11.682  71.169  1.00  0.00    -0.381 OA 
HETATM   29  C   UNL     1     -13.298  12.500  72.174  1.00  0.00    -0.435 C  
ENDBRANCH  26  28
ENDBRANCH  25  26
ENDBRANCH  24  25
ENDBRANCH  23  24
ENDBRANCH  22  23
ENDBRANCH  21  22
ENDBRANCH  20  21
ENDBRANCH  19  20
ENDBRANCH  11  12
ENDBRANCH   8  10
ENDBRANCH   3   4
ENDBRANCH   2   3
TORSDOF 12
ENDMDL
MODEL       65
REMARK 921   NORMALIZED FREE ENERGY PREDICTED BY IDOCK:   -4.89 KCAL/MOL
REMARK 922        TOTAL FREE ENERGY PREDICTED BY IDOCK:  -10.37 KCAL/MOL
REMARK 923 INTER-LIGAND FREE ENERGY PREDICTED BY IDOCK:   -8.63 KCAL/MOL
REMARK 924 INTRA-LIGAND FREE ENERGY PREDICTED BY IDOCK:   -1.74 KCAL/MOL
REMARK 927      BINDING AFFINITY PREDICTED BY RF-SCORE:    0.00 PKD
ROOT
HETATM    1  C   UNL     1      -9.022   3.706  67.781  1.00  0.00    -0.165 C  
HETATM    2  C   UNL     1     -10.008   4.565  67.001  1.00  0.00    -0.215 C  
ENDROOT
BRANCH   2   3
HETATM    3  C   UNL     1      -9.316   5.215  65.807  1.00  0.00    -0.163 C  
BRANCH   3   4
HETATM    4  C   UNL     1      -8.141   6.110  66.225  1.00  0.00    -0.113 C  
HETATM    5  C   UNL     1      -8.373   7.606  65.904  1.00  0.00    -0.139 C  
HETATM    6  O   UNL     1      -8.502   7.736  64.482  1.00  0.00    -0.357 OA 
HETATM    7  C   UNL     1      -7.154   8.427  66.349  1.00  0.00    -0.071 C  
HETATM    8  C   UNL     1      -9.676   8.107  66.578  1.00  0.00    -0.309 C  
HETATM    9  H   UNL     1      -8.644   8.654  64.285  1.00  0.00     0.000 HD 
BRANCH   8  10
HETATM   10  C   UNL     1      -9.943   9.582  66.485  1.00  0.00    -0.329 C  
HETATM   11  C   UNL     1     -10.240  10.226  65.344  1.00  0.00    -0.312 C  
BRANCH  11  12
HETATM   12  C   UNL     1     -10.516  11.700  65.198  1.00  0.00    -0.329 C  
HETATM   13  C   UNL     1     -10.733  12.070  63.721  1.00  0.00    -0.423 C  
HETATM   14  C   UNL     1     -11.453  13.405  63.743  1.00  0.00    -0.286 C  
HETATM   15  O   UNL     1      -9.503  12.184  63.014  1.00  0.00    -0.588 OA 
HETATM   16  H   UNL     1      -9.636  12.412  62.101  1.00  0.00     0.000 HD 
HETATM   17  C   UNL     1     -12.263  13.302  64.997  1.00  0.00    -0.432 C  
HETATM   18  O   UNL     1     -13.237  14.013  65.211  1.00  0.00    -0.782 OA 
HETATM   19  C   UNL     1     -11.767  12.225  65.942  1.00  0.00    -0.451 C  
BRANCH  19  20
HETATM   20  C   UNL     1     -11.406  12.729  67.344  1.00  0.00    -0.363 C  
BRANCH  20  21
HETATM   21  C   UNL     1      -9.948  13.179  67.442  1.00  0.00    -0.229 C  
BRANCH  21  22
HETATM   22  C   UNL     1      -9.820  14.576  68.039  1.00  0.00    -0.222 C  
BRANCH  22  23
HETATM   23  C   UNL     1     -10.486  15.609  67.127  1.00  0.00    -0.303 C  
BRANCH  23  24
HETATM   24  C   UNL     1      -9.602  15.914  65.924  1.00  0.00    -0.378 C  
BRANCH  24  25
HETATM   25  C   UNL     1      -8.175  16.265  66.337  1.00  0.00    -0.354 C  
BRANCH  25  26
HETATM   26  C   UNL     1      -8.058  17.732  66.673  1.00  0.00    -0.258 C  
HETATM   27  O   UNL     1      -7.952  18.636  65.859  1.00  0.00    -0.475 OA 
BRANCH  26  28
HETATM   28  O   UNL     1      -8.091  17.903  68.023  1.00  0.00    -0.238 OA 
HETATM   29  C   UNL     1      -9.073  18.847  68.450  1.00  0.00    -0.343 C  
ENDBRANCH  26  28
ENDBRANCH  25  26
ENDBRANCH  24  25
ENDBRANCH  23  24
ENDBRANCH  22  23
ENDBRANCH  21  22
ENDBRANCH  20  21
ENDBRANCH  19  20
ENDBRANCH  11  12
ENDBRANCH   8  10
ENDBRANCH   3   4
ENDBRANCH   2   3
TORSDOF 12
ENDMDL
MODEL       66
REMARK 921   NORMALIZED FREE ENERGY PREDICTED BY IDOCK:   -4.89 KCAL/MOL
REMARK 922        TOTAL FREE ENERGY PREDICTED BY IDOCK:  -10.35 KCAL/MOL
REMARK 923 INTER-LIGAND FREE ENERGY PREDICTED BY IDOCK:   -8.54 KCAL/MOL
REMARK 924 INTRA-LIGAND FREE ENERGY PREDICTED BY IDOCK:   -1.81 KCAL/MOL
REMARK 927      BINDING AFFINITY PREDICTED BY RF-SCORE:    0.00 PKD
ROOT
HETATM    1  C   UNL     1     -10.923   4.763  72.270  1.00  0.00    -0.067 C  
HETATM    2  C   UNL     1     -10.126   5.923  72.849  1.00  0.00    -0.199 C  
ENDROOT
BRANCH   2   3
HETATM    3  C   UNL     1     -10.996   7.173  72.934  1.00  0.00    -0.359 C  
BRANCH   3   4
HETATM    4  C   UNL     1     -12.274   7.057  72.094  1.00  0.00    -0.255 C  
HETATM    5  C   UNL     1     -12.974   8.417  71.861  1.00  0.00    -0.355 C  
HETATM    6  O   UNL     1     -13.370   8.933  73.139  1.00  0.00    -0.926 OA 
HETATM    7  C   UNL     1     -14.242   8.211  71.019  1.00  0.00    -0.101 C  
HETATM    8  C   UNL     1     -11.999   9.419  71.191  1.00  0.00    -0.413 C  
HETATM    9  H   UNL     1     -13.800   9.768  72.997  1.00  0.00     0.000 HD 
BRANCH   8  10
HETATM   10  C   UNL     1     -12.592  10.730  70.759  1.00  0.00    -0.476 C  
HETATM   11  C   UNL     1     -12.163  11.930  71.184  1.00  0.00    -0.170 C  
BRANCH  11  12
HETATM   12  C   UNL     1     -12.722  13.270  70.782  1.00  0.00    -0.284 C  
HETATM   13  C   UNL     1     -13.084  14.104  72.023  1.00  0.00    -0.387 C  
HETATM   14  C   UNL     1     -13.164  15.537  71.533  1.00  0.00    -0.589 C  
HETATM   15  O   UNL     1     -14.327  13.705  72.588  1.00  0.00    -0.703 OA 
HETATM   16  H   UNL     1     -14.551  14.219  73.355  1.00  0.00     0.000 HD 
HETATM   17  C   UNL     1     -12.143  15.551  70.440  1.00  0.00    -0.392 C  
HETATM   18  O   UNL     1     -11.648  16.589  70.014  1.00  0.00    -0.088 OA 
HETATM   19  C   UNL     1     -11.778  14.166  69.945  1.00  0.00    -0.372 C  
BRANCH  19  20
HETATM   20  C   UNL     1     -11.998  13.950  68.443  1.00  0.00    -0.391 C  
BRANCH  20  21
HETATM   21  C   UNL     1     -10.871  13.138  67.803  1.00  0.00    -0.261 C  
BRANCH  21  22
HETATM   22  C   UNL     1     -11.318  11.725  67.442  1.00  0.00    -0.376 C  
BRANCH  22  23
HETATM   23  C   UNL     1     -10.103  10.813  67.255  1.00  0.00    -0.233 C  
BRANCH  23  24
HETATM   24  C   UNL     1     -10.323   9.475  67.952  1.00  0.00    -0.276 C  
BRANCH  24  25
HETATM   25  C   UNL     1      -9.730   8.314  67.159  1.00  0.00    -0.255 C  
BRANCH  25  26
HETATM   26  C   UNL     1      -9.857   7.019  67.926  1.00  0.00    -0.138 C  
HETATM   27  O   UNL     1     -10.908   6.462  68.200  1.00  0.00    -0.257 OA 
BRANCH  26  28
HETATM   28  O   UNL     1      -8.622   6.560  68.269  1.00  0.00    -0.116 OA 
HETATM   29  C   UNL     1      -8.661   5.386  69.080  1.00  0.00    -0.101 C  
ENDBRANCH  26  28
ENDBRANCH  25  26
ENDBRANCH  24  25
ENDBRANCH  23  24
ENDBRANCH  22  23
ENDBRANCH  21  22
ENDBRANCH  20  21
ENDBRANCH  19  20
ENDBRANCH  11  12
ENDBRANCH   8  10
ENDBRANCH   3   4
ENDBRANCH   2   3
TORSDOF 12
ENDMDL
MODEL       67
REMARK 921   NORMALIZED FREE ENERGY PREDICTED BY IDOCK:   -4.88 KCAL/MOL
REMARK 922        TOTAL FREE ENERGY PREDICTED BY IDOCK:  -10.35 KCAL/MOL
REMARK 923 INTER-LIGAND FREE ENERGY PREDICTED BY IDOCK:   -9.12 KCAL/MOL
REMARK 924 INTRA-LIGAND FREE ENERGY PREDICTED BY IDOCK:   -1.23 KCAL/MOL
REMARK 927      BINDING AFFINITY PREDICTED BY RF-SCORE:    0.00 PKD
ROOT
HETATM    1  C   UNL     1      -5.848  19.763  64.762  1.00  0.00    -0.270 C  
HETATM    2  C   UNL     1      -5.669  20.325  66.166  1.00  0.00    -0.198 C  
ENDROOT
BRANCH   2   3
HETATM    3  C   UNL     1      -6.996  20.857  66.697  1.00  0.00    -0.285 C  
BRANCH   3   4
HETATM    4  C   UNL     1      -7.497  20.070  67.916  1.00  0.00    -0.330 C  
HETATM    5  C   UNL     1      -8.878  19.409  67.687  1.00  0.00    -0.308 C  
HETATM    6  O   UNL     1      -9.832  20.454  67.452  1.00  0.00    -0.425 OA 
HETATM    7  C   UNL     1      -9.305  18.650  68.951  1.00  0.00    -0.274 C  
HETATM    8  C   UNL     1      -8.831  18.479  66.448  1.00  0.00    -0.267 C  
HETATM    9  H   UNL     1     -10.679  20.049  67.312  1.00  0.00     0.000 HD 
BRANCH   8  10
HETATM   10  C   UNL     1     -10.058  17.646  66.201  1.00  0.00    -0.307 C  
HETATM   11  C   UNL     1     -10.061  16.304  66.147  1.00  0.00    -0.362 C  
BRANCH  11  12
HETATM   12  C   UNL     1     -11.260  15.424  65.903  1.00  0.00    -0.179 C  
HETATM   13  C   UNL     1     -11.451  15.167  64.399  1.00  0.00    -0.235 C  
HETATM   14  C   UNL     1     -12.336  13.938  64.312  1.00  0.00    -0.390 C  
HETATM   15  O   UNL     1     -12.070  16.269  63.744  1.00  0.00    -1.337 OA 
HETATM   16  H   UNL     1     -12.187  16.110  62.815  1.00  0.00     0.000 HD 
HETATM   17  C   UNL     1     -11.928  13.172  65.530  1.00  0.00    -0.412 C  
HETATM   18  O   UNL     1     -12.147  11.973  65.659  1.00  0.00    -0.508 OA 
HETATM   19  C   UNL     1     -11.208  14.023  66.558  1.00  0.00    -0.326 C  
BRANCH  19  20
HETATM   20  C   UNL     1     -11.862  14.035  67.944  1.00  0.00    -0.411 C  
BRANCH  20  21
HETATM   21  C   UNL     1     -11.196  13.051  68.907  1.00  0.00    -0.326 C  
BRANCH  21  22
HETATM   22  C   UNL     1     -12.088  11.850  69.205  1.00  0.00    -0.270 C  
BRANCH  22  23
HETATM   23  C   UNL     1     -11.448  10.962  70.275  1.00  0.00    -0.391 C  
BRANCH  23  24
HETATM   24  C   UNL     1     -10.224  10.245  69.716  1.00  0.00    -0.262 C  
BRANCH  24  25
HETATM   25  C   UNL     1     -10.411   8.731  69.692  1.00  0.00    -0.213 C  
BRANCH  25  26
HETATM   26  C   UNL     1     -10.233   8.189  68.293  1.00  0.00    -0.206 C  
HETATM   27  O   UNL     1     -10.786   7.198  67.846  1.00  0.00    -0.216 OA 
BRANCH  26  28
HETATM   28  O   UNL     1      -9.363   8.974  67.600  1.00  0.00    -0.135 OA 
HETATM   29  C   UNL     1      -9.778   9.226  66.257  1.00  0.00    -0.271 C  
ENDBRANCH  26  28
ENDBRANCH  25  26
ENDBRANCH  24  25
ENDBRANCH  23  24
ENDBRANCH  22  23
ENDBRANCH  21  22
ENDBRANCH  20  21
ENDBRANCH  19  20
ENDBRANCH  11  12
ENDBRANCH   8  10
ENDBRANCH   3   4
ENDBRANCH   2   3
TORSDOF 12
ENDMDL
MODEL       68
REMARK 921   NORMALIZED FREE ENERGY PREDICTED BY IDOCK:   -4.81 KCAL/MOL
REMARK 922        TOTAL FREE ENERGY PREDICTED BY IDOCK:  -10.23 KCAL/MOL
REMARK 923 INTER-LIGAND FREE ENERGY PREDICTED BY IDOCK:   -8.49 KCAL/MOL
REMARK 924 INTRA-LIGAND FREE ENERGY PREDICTED BY IDOCK:   -1.73 KCAL/MOL
REMARK 927      BINDING AFFINITY PREDICTED BY RF-SCORE:    0.00 PKD
ROOT
HETATM    1  C   UNL     1     -10.352  18.709  67.279  1.00  0.00    -0.440 C  
HETATM    2  C   UNL     1     -10.250  17.931  68.583  1.00  0.00    -0.387 C  
ENDROOT
BRANCH   2   3
HETATM    3  C   UNL     1     -10.003  16.452  68.300  1.00  0.00    -0.243 C  
BRANCH   3   4
HETATM    4  C   UNL     1     -11.284  15.712  67.891  1.00  0.00    -0.328 C  
HETATM    5  C   UNL     1     -11.085  14.780  66.671  1.00  0.00    -0.333 C  
HETATM    6  O   UNL     1     -10.708  15.595  65.553  1.00  0.00    -0.350 OA 
HETATM    7  C   UNL     1     -12.410  14.085  66.328  1.00  0.00    -0.482 C  
HETATM    8  C   UNL     1      -9.957  13.755  66.953  1.00  0.00    -0.264 C  
HETATM    9  H   UNL     1     -10.586  15.024  64.804  1.00  0.00     0.000 HD 
BRANCH   8  10
HETATM   10  C   UNL     1      -9.764  12.684  65.918  1.00  0.00    -0.212 C  
HETATM   11  C   UNL     1     -10.117  11.399  66.086  1.00  0.00    -0.271 C  
BRANCH  11  12
HETATM   12  C   UNL     1      -9.946  10.289  65.081  1.00  0.00    -0.395 C  
HETATM   13  C   UNL     1      -9.821  10.857  63.657  1.00  0.00    -0.351 C  
HETATM   14  C   UNL     1      -9.190   9.748  62.837  1.00  0.00    -0.241 C  
HETATM   15  O   UNL     1     -11.085  11.216  63.113  1.00  0.00    -0.811 OA 
HETATM   16  H   UNL     1     -11.008  11.568  62.233  1.00  0.00     0.000 HD 
HETATM   17  C   UNL     1      -8.320   9.069  63.847  1.00  0.00    -0.176 C  
HETATM   18  O   UNL     1      -7.386   8.341  63.529  1.00  0.00    -0.098 OA 
HETATM   19  C   UNL     1      -8.702   9.392  65.278  1.00  0.00    -0.204 C  
BRANCH  19  20
HETATM   20  C   UNL     1      -9.032   8.167  66.139  1.00  0.00    -0.218 C  
BRANCH  20  21
HETATM   21  C   UNL     1     -10.437   8.242  66.740  1.00  0.00    -0.313 C  
BRANCH  21  22
HETATM   22  C   UNL     1     -10.408   8.234  68.264  1.00  0.00    -0.242 C  
BRANCH  22  23
HETATM   23  C   UNL     1      -9.265   9.110  68.781  1.00  0.00    -0.136 C  
BRANCH  23  24
HETATM   24  C   UNL     1      -9.760  10.051  69.874  1.00  0.00    -0.245 C  
BRANCH  24  25
HETATM   25  C   UNL     1     -11.151   9.667  70.371  1.00  0.00    -0.346 C  
BRANCH  25  26
HETATM   26  C   UNL     1     -11.988  10.897  70.631  1.00  0.00    -0.368 C  
HETATM   27  O   UNL     1     -12.822  11.008  71.515  1.00  0.00    -0.421 OA 
BRANCH  26  28
HETATM   28  O   UNL     1     -11.673  11.870  69.733  1.00  0.00    -0.308 OA 
HETATM   29  C   UNL     1     -11.959  13.187  70.204  1.00  0.00    -0.310 C  
ENDBRANCH  26  28
ENDBRANCH  25  26
ENDBRANCH  24  25
ENDBRANCH  23  24
ENDBRANCH  22  23
ENDBRANCH  21  22
ENDBRANCH  20  21
ENDBRANCH  19  20
ENDBRANCH  11  12
ENDBRANCH   8  10
ENDBRANCH   3   4
ENDBRANCH   2   3
TORSDOF 12
ENDMDL
MODEL       69
REMARK 921   NORMALIZED FREE ENERGY PREDICTED BY IDOCK:   -4.80 KCAL/MOL
REMARK 922        TOTAL FREE ENERGY PREDICTED BY IDOCK:  -10.21 KCAL/MOL
REMARK 923 INTER-LIGAND FREE ENERGY PREDICTED BY IDOCK:   -8.19 KCAL/MOL
REMARK 924 INTRA-LIGAND FREE ENERGY PREDICTED BY IDOCK:   -2.02 KCAL/MOL
REMARK 927      BINDING AFFINITY PREDICTED BY RF-SCORE:    0.00 PKD
ROOT
HETATM    1  C   UNL     1      -8.598  18.527  66.791  1.00  0.00    -0.290 C  
HETATM    2  C   UNL     1     -10.075  18.863  66.938  1.00  0.00    -0.416 C  
ENDROOT
BRANCH   2   3
HETATM    3  C   UNL     1     -10.884  17.595  67.196  1.00  0.00    -0.105 C  
BRANCH   3   4
HETATM    4  C   UNL     1     -10.210  16.343  66.619  1.00  0.00    -0.296 C  
HETATM    5  C   UNL     1      -9.890  15.275  67.693  1.00  0.00    -0.217 C  
HETATM    6  O   UNL     1      -8.960  15.850  68.621  1.00  0.00    -0.184 OA 
HETATM    7  C   UNL     1      -9.216  14.062  67.034  1.00  0.00    -0.262 C  
HETATM    8  C   UNL     1     -11.179  14.871  68.453  1.00  0.00    -0.304 C  
HETATM    9  H   UNL     1      -8.763  15.195  69.280  1.00  0.00     0.000 HD 
BRANCH   8  10
HETATM   10  C   UNL     1     -11.046  13.725  69.416  1.00  0.00    -0.206 C  
HETATM   11  C   UNL     1     -12.070  12.955  69.820  1.00  0.00    -0.312 C  
BRANCH  11  12
HETATM   12  C   UNL     1     -11.990  11.797  70.781  1.00  0.00    -0.228 C  
HETATM   13  C   UNL     1     -13.283  11.684  71.606  1.00  0.00    -0.272 C  
HETATM   14  C   UNL     1     -13.287  10.268  72.152  1.00  0.00    -0.404 C  
HETATM   15  O   UNL     1     -13.318  12.625  72.673  1.00  0.00    -0.530 OA 
HETATM   16  H   UNL     1     -14.116  12.555  73.183  1.00  0.00     0.000 HD 
HETATM   17  C   UNL     1     -12.588   9.513  71.066  1.00  0.00    -0.253 C  
HETATM   18  O   UNL     1     -12.680   8.297  70.946  1.00  0.00    -0.088 OA 
HETATM   19  C   UNL     1     -11.789  10.405  70.137  1.00  0.00    -0.379 C  
BRANCH  19  20
HETATM   20  C   UNL     1     -10.301  10.049  70.039  1.00  0.00    -0.323 C  
BRANCH  20  21
HETATM   21  C   UNL     1      -9.676  10.524  68.726  1.00  0.00    -0.187 C  
BRANCH  21  22
HETATM   22  C   UNL     1     -10.295   9.833  67.516  1.00  0.00    -0.291 C  
BRANCH  22  23
HETATM   23  C   UNL     1     -10.756  10.870  66.488  1.00  0.00    -0.270 C  
BRANCH  23  24
HETATM   24  C   UNL     1     -10.276  10.492  65.091  1.00  0.00    -0.358 C  
BRANCH  24  25
HETATM   25  C   UNL     1     -10.049  11.719  64.213  1.00  0.00    -0.326 C  
BRANCH  25  26
HETATM   26  C   UNL     1     -11.365  12.315  63.772  1.00  0.00    -0.459 C  
HETATM   27  O   UNL     1     -12.267  11.704  63.221  1.00  0.00    -0.430 OA 
BRANCH  26  28
HETATM   28  O   UNL     1     -11.401  13.640  64.081  1.00  0.00    -0.374 OA 
HETATM   29  C   UNL     1     -12.372  13.962  65.075  1.00  0.00    -0.430 C  
ENDBRANCH  26  28
ENDBRANCH  25  26
ENDBRANCH  24  25
ENDBRANCH  23  24
ENDBRANCH  22  23
ENDBRANCH  21  22
ENDBRANCH  20  21
ENDBRANCH  19  20
ENDBRANCH  11  12
ENDBRANCH   8  10
ENDBRANCH   3   4
ENDBRANCH   2   3
TORSDOF 12
ENDMDL
MODEL       70
REMARK 921   NORMALIZED FREE ENERGY PREDICTED BY IDOCK:   -4.80 KCAL/MOL
REMARK 922        TOTAL FREE ENERGY PREDICTED BY IDOCK:  -10.21 KCAL/MOL
REMARK 923 INTER-LIGAND FREE ENERGY PREDICTED BY IDOCK:   -8.13 KCAL/MOL
REMARK 924 INTRA-LIGAND FREE ENERGY PREDICTED BY IDOCK:   -2.08 KCAL/MOL
REMARK 927      BINDING AFFINITY PREDICTED BY RF-SCORE:    0.00 PKD
ROOT
HETATM    1  C   UNL     1     -12.702  12.414  63.924  1.00  0.00    -0.457 C  
HETATM    2  C   UNL     1     -11.746  13.587  64.094  1.00  0.00    -0.453 C  
ENDROOT
BRANCH   2   3
HETATM    3  C   UNL     1     -10.316  13.085  64.259  1.00  0.00    -0.385 C  
BRANCH   3   4
HETATM    4  C   UNL     1     -10.006  11.887  63.351  1.00  0.00    -0.435 C  
HETATM    5  C   UNL     1      -9.381  10.693  64.112  1.00  0.00    -0.258 C  
HETATM    6  O   UNL     1      -8.129  11.127  64.661  1.00  0.00    -0.328 OA 
HETATM    7  C   UNL     1      -9.099   9.544  63.133  1.00  0.00    -0.157 C  
HETATM    8  C   UNL     1     -10.312  10.244  65.268  1.00  0.00    -0.218 C  
HETATM    9  H   UNL     1      -7.746  10.394  65.127  1.00  0.00     0.000 HD 
BRANCH   8  10
HETATM   10  C   UNL     1      -9.908   8.991  65.992  1.00  0.00    -0.312 C  
HETATM   11  C   UNL     1     -10.704   8.319  66.841  1.00  0.00    -0.179 C  
BRANCH  11  12
HETATM   12  C   UNL     1     -10.348   7.060  67.589  1.00  0.00    -0.270 C  
HETATM   13  C   UNL     1     -10.019   5.920  66.612  1.00  0.00    -0.174 C  
HETATM   14  C   UNL     1      -9.238   4.906  67.427  1.00  0.00    -0.136 C  
HETATM   15  O   UNL     1     -11.194   5.322  66.074  1.00  0.00    -0.780 OA 
HETATM   16  H   UNL     1     -10.990   4.618  65.470  1.00  0.00     0.000 HD 
HETATM   17  C   UNL     1      -8.517   5.780  68.403  1.00  0.00    -0.110 C  
HETATM   18  O   UNL     1      -7.525   5.403  69.017  1.00  0.00    -0.071 OA 
HETATM   19  C   UNL     1      -9.125   7.163  68.530  1.00  0.00    -0.132 C  
BRANCH  19  20
HETATM   20  C   UNL     1      -9.550   7.542  69.953  1.00  0.00    -0.160 C  
BRANCH  20  21
HETATM   21  C   UNL     1     -11.008   7.178  70.239  1.00  0.00    -0.288 C  
BRANCH  21  22
HETATM   22  C   UNL     1     -11.338   7.263  71.725  1.00  0.00    -0.285 C  
BRANCH  22  23
HETATM   23  C   UNL     1     -11.678   8.704  72.114  1.00  0.00    -0.442 C  
BRANCH  23  24
HETATM   24  C   UNL     1     -12.509   9.373  71.025  1.00  0.00    -0.311 C  
BRANCH  24  25
HETATM   25  C   UNL     1     -12.047  10.802  70.750  1.00  0.00    -0.473 C  
BRANCH  25  26
HETATM   26  C   UNL     1     -11.568  10.947  69.325  1.00  0.00    -0.318 C  
HETATM   27  O   UNL     1     -12.282  11.168  68.360  1.00  0.00    -0.610 OA 
BRANCH  26  28
HETATM   28  O   UNL     1     -10.216  10.797  69.273  1.00  0.00    -0.218 OA 
HETATM   29  C   UNL     1      -9.570  11.776  68.458  1.00  0.00    -0.170 C  
ENDBRANCH  26  28
ENDBRANCH  25  26
ENDBRANCH  24  25
ENDBRANCH  23  24
ENDBRANCH  22  23
ENDBRANCH  21  22
ENDBRANCH  20  21
ENDBRANCH  19  20
ENDBRANCH  11  12
ENDBRANCH   8  10
ENDBRANCH   3   4
ENDBRANCH   2   3
TORSDOF 12
ENDMDL
MODEL       71
REMARK 921   NORMALIZED FREE ENERGY PREDICTED BY IDOCK:   -4.78 KCAL/MOL
REMARK 922        TOTAL FREE ENERGY PREDICTED BY IDOCK:  -10.16 KCAL/MOL
REMARK 923 INTER-LIGAND FREE ENERGY PREDICTED BY IDOCK:   -8.09 KCAL/MOL
REMARK 924 INTRA-LIGAND FREE ENERGY PREDICTED BY IDOCK:   -2.07 KCAL/MOL
REMARK 927      BINDING AFFINITY PREDICTED BY RF-SCORE:    0.00 PKD
ROOT
HETATM    1  C   UNL     1      -9.366  19.132  68.687  1.00  0.00    -0.439 C  
HETATM    2  C   UNL     1     -10.489  18.341  68.032  1.00  0.00    -0.387 C  
ENDROOT
BRANCH   2   3
HETATM    3  C   UNL     1     -10.006  16.942  67.662  1.00  0.00    -0.271 C  
BRANCH   3   4
HETATM    4  C   UNL     1      -8.673  16.586  68.334  1.00  0.00    -0.218 C  
HETATM    5  C   UNL     1      -8.620  15.125  68.842  1.00  0.00    -0.200 C  
HETATM    6  O   UNL     1      -9.637  14.969  69.841  1.00  0.00    -0.455 OA 
HETATM    7  C   UNL     1      -7.260  14.854  69.502  1.00  0.00    -0.184 C  
HETATM    8  C   UNL     1      -8.898  14.139  67.678  1.00  0.00    -0.194 C  
HETATM    9  H   UNL     1      -9.604  14.072  70.153  1.00  0.00     0.000 HD 
BRANCH   8  10
HETATM   10  C   UNL     1      -8.718  12.680  67.992  1.00  0.00    -0.190 C  
HETATM   11  C   UNL     1      -9.730  11.829  68.228  1.00  0.00    -0.199 C  
BRANCH  11  12
HETATM   12  C   UNL     1      -9.604  10.361  68.546  1.00  0.00    -0.161 C  
HETATM   13  C   UNL     1     -10.767   9.895  69.438  1.00  0.00    -0.232 C  
HETATM   14  C   UNL     1     -10.806   8.386  69.290  1.00  0.00    -0.069 C  
HETATM   15  O   UNL     1     -10.570  10.253  70.801  1.00  0.00    -0.387 OA 
HETATM   16  H   UNL     1     -11.289   9.965  71.352  1.00  0.00     0.000 HD 
HETATM   17  C   UNL     1     -10.337   8.198  67.882  1.00  0.00    -0.220 C  
HETATM   18  O   UNL     1     -10.543   7.168  67.251  1.00  0.00    -0.261 OA 
HETATM   19  C   UNL     1      -9.612   9.408  67.327  1.00  0.00    -0.194 C  
BRANCH  19  20
HETATM   20  C   UNL     1      -8.188   9.126  66.835  1.00  0.00    -0.116 C  
BRANCH  20  21
HETATM   21  C   UNL     1      -8.028   9.397  65.338  1.00  0.00    -0.105 C  
BRANCH  21  22
HETATM   22  C   UNL     1      -8.788  10.643  64.897  1.00  0.00    -0.204 C  
BRANCH  22  23
HETATM   23  C   UNL     1      -9.407  10.428  63.514  1.00  0.00    -0.333 C  
BRANCH  23  24
HETATM   24  C   UNL     1     -10.269  11.622  63.120  1.00  0.00    -0.396 C  
BRANCH  24  25
HETATM   25  C   UNL     1     -10.991  12.226  64.321  1.00  0.00    -0.392 C  
BRANCH  25  26
HETATM   26  C   UNL     1     -12.472  12.352  64.051  1.00  0.00    -0.459 C  
HETATM   27  O   UNL     1     -13.054  11.889  63.083  1.00  0.00    -0.605 OA 
BRANCH  26  28
HETATM   28  O   UNL     1     -13.068  13.057  65.051  1.00  0.00    -0.761 OA 
HETATM   29  C   UNL     1     -12.165  13.907  65.758  1.00  0.00    -0.460 C  
ENDBRANCH  26  28
ENDBRANCH  25  26
ENDBRANCH  24  25
ENDBRANCH  23  24
ENDBRANCH  22  23
ENDBRANCH  21  22
ENDBRANCH  20  21
ENDBRANCH  19  20
ENDBRANCH  11  12
ENDBRANCH   8  10
ENDBRANCH   3   4
ENDBRANCH   2   3
TORSDOF 12
ENDMDL
MODEL       72
REMARK 921   NORMALIZED FREE ENERGY PREDICTED BY IDOCK:   -4.74 KCAL/MOL
REMARK 922        TOTAL FREE ENERGY PREDICTED BY IDOCK:  -10.10 KCAL/MOL
REMARK 923 INTER-LIGAND FREE ENERGY PREDICTED BY IDOCK:   -8.64 KCAL/MOL
REMARK 924 INTRA-LIGAND FREE ENERGY PREDICTED BY IDOCK:   -1.46 KCAL/MOL
REMARK 927      BINDING AFFINITY PREDICTED BY RF-SCORE:    0.00 PKD
ROOT
HETATM    1  C   UNL     1      -8.914   3.275  64.817  1.00  0.00    -0.132 C  
HETATM    2  C   UNL     1      -7.622   3.926  65.290  1.00  0.00    -0.081 C  
ENDROOT
BRANCH   2   3
HETATM    3  C   UNL     1      -7.871   4.736  66.558  1.00  0.00    -0.099 C  
BRANCH   3   4
HETATM    4  C   UNL     1      -9.337   5.164  66.703  1.00  0.00    -0.137 C  
HETATM    5  C   UNL     1      -9.502   6.670  67.021  1.00  0.00    -0.144 C  
HETATM    6  O   UNL     1      -8.874   6.924  68.285  1.00  0.00    -0.123 OA 
HETATM    7  C   UNL     1     -10.993   7.012  67.154  1.00  0.00    -0.393 C  
HETATM    8  C   UNL     1      -8.813   7.530  65.931  1.00  0.00    -0.157 C  
HETATM    9  H   UNL     1      -8.976   7.848  68.480  1.00  0.00     0.000 HD 
BRANCH   8  10
HETATM   10  C   UNL     1      -9.031   9.013  66.024  1.00  0.00    -0.227 C  
HETATM   11  C   UNL     1      -9.761   9.726  65.150  1.00  0.00    -0.338 C  
BRANCH  11  12
HETATM   12  C   UNL     1     -10.010  11.211  65.199  1.00  0.00    -0.323 C  
HETATM   13  C   UNL     1     -10.351  11.753  63.800  1.00  0.00    -0.410 C  
HETATM   14  C   UNL     1     -11.032  13.087  64.042  1.00  0.00    -0.422 C  
HETATM   15  O   UNL     1      -9.189  11.929  62.999  1.00  0.00    -0.644 OA 
HETATM   16  H   UNL     1      -9.399  12.263  62.135  1.00  0.00     0.000 HD 
HETATM   17  C   UNL     1     -11.726  12.852  65.346  1.00  0.00    -0.375 C  
HETATM   18  O   UNL     1     -12.658  13.548  65.731  1.00  0.00    -0.464 OA 
HETATM   19  C   UNL     1     -11.174  11.666  66.112  1.00  0.00    -0.314 C  
BRANCH  19  20
HETATM   20  C   UNL     1     -10.674  11.998  67.523  1.00  0.00    -0.262 C  
BRANCH  20  21
HETATM   21  C   UNL     1     -10.909  10.851  68.506  1.00  0.00    -0.262 C  
BRANCH  21  22
HETATM   22  C   UNL     1     -12.250  10.976  69.221  1.00  0.00    -0.280 C  
BRANCH  22  23
HETATM   23  C   UNL     1     -12.038  11.183  70.722  1.00  0.00    -0.458 C  
BRANCH  23  24
HETATM   24  C   UNL     1     -12.835  12.385  71.217  1.00  0.00    -0.337 C  
BRANCH  24  25
HETATM   25  C   UNL     1     -12.333  13.692  70.611  1.00  0.00    -0.440 C  
BRANCH  25  26
HETATM   26  C   UNL     1     -12.795  14.875  71.429  1.00  0.00    -0.341 C  
HETATM   27  O   UNL     1     -13.676  15.655  71.105  1.00  0.00    -0.591 OA 
BRANCH  26  28
HETATM   28  O   UNL     1     -12.083  14.945  72.587  1.00  0.00    -0.323 OA 
HETATM   29  C   UNL     1     -12.657  15.828  73.551  1.00  0.00    -0.562 C  
ENDBRANCH  26  28
ENDBRANCH  25  26
ENDBRANCH  24  25
ENDBRANCH  23  24
ENDBRANCH  22  23
ENDBRANCH  21  22
ENDBRANCH  20  21
ENDBRANCH  19  20
ENDBRANCH  11  12
ENDBRANCH   8  10
ENDBRANCH   3   4
ENDBRANCH   2   3
TORSDOF 12
ENDMDL
MODEL       73
REMARK 921   NORMALIZED FREE ENERGY PREDICTED BY IDOCK:   -4.72 KCAL/MOL
REMARK 922        TOTAL FREE ENERGY PREDICTED BY IDOCK:  -10.07 KCAL/MOL
REMARK 923 INTER-LIGAND FREE ENERGY PREDICTED BY IDOCK:   -7.65 KCAL/MOL
REMARK 924 INTRA-LIGAND FREE ENERGY PREDICTED BY IDOCK:   -2.42 KCAL/MOL
REMARK 927      BINDING AFFINITY PREDICTED BY RF-SCORE:    0.00 PKD
ROOT
HETATM    1  C   UNL     1     -12.643  13.096  65.072  1.00  0.00    -0.499 C  
HETATM    2  C   UNL     1     -11.690  13.685  64.041  1.00  0.00    -0.405 C  
ENDROOT
BRANCH   2   3
HETATM    3  C   UNL     1     -10.277  13.157  64.264  1.00  0.00    -0.283 C  
BRANCH   3   4
HETATM    4  C   UNL     1      -9.980  11.904  63.429  1.00  0.00    -0.435 C  
HETATM    5  C   UNL     1      -9.355  10.755  64.256  1.00  0.00    -0.245 C  
HETATM    6  O   UNL     1      -8.097  11.215  64.767  1.00  0.00    -0.344 OA 
HETATM    7  C   UNL     1      -9.087   9.547  63.347  1.00  0.00    -0.145 C  
HETATM    8  C   UNL     1     -10.278  10.383  65.445  1.00  0.00    -0.329 C  
HETATM    9  H   UNL     1      -7.713  10.510  65.275  1.00  0.00     0.000 HD 
BRANCH   8  10
HETATM   10  C   UNL     1      -9.875   9.174  66.241  1.00  0.00    -0.359 C  
HETATM   11  C   UNL     1     -10.741   8.349  66.852  1.00  0.00    -0.163 C  
BRANCH  11  12
HETATM   12  C   UNL     1     -10.389   7.126  67.659  1.00  0.00    -0.276 C  
HETATM   13  C   UNL     1      -9.328   6.281  66.934  1.00  0.00    -0.136 C  
HETATM   14  C   UNL     1      -8.722   5.393  68.004  1.00  0.00    -0.106 C  
HETATM   15  O   UNL     1      -9.896   5.488  65.897  1.00  0.00    -0.318 OA 
HETATM   16  H   UNL     1      -9.241   4.966  65.448  1.00  0.00     0.000 HD 
HETATM   17  C   UNL     1      -8.816   6.260  69.219  1.00  0.00    -0.123 C  
HETATM   18  O   UNL     1      -8.138   6.065  70.221  1.00  0.00    -0.107 OA 
HETATM   19  C   UNL     1      -9.808   7.397  69.067  1.00  0.00    -0.168 C  
BRANCH  19  20
HETATM   20  C   UNL     1     -10.914   7.421  70.128  1.00  0.00    -0.272 C  
BRANCH  20  21
HETATM   21  C   UNL     1     -10.809   8.638  71.048  1.00  0.00    -0.302 C  
BRANCH  21  22
HETATM   22  C   UNL     1     -10.484   9.912  70.275  1.00  0.00    -0.348 C  
BRANCH  22  23
HETATM   23  C   UNL     1     -11.700  10.843  70.247  1.00  0.00    -0.437 C  
BRANCH  23  24
HETATM   24  C   UNL     1     -11.883  11.445  68.858  1.00  0.00    -0.413 C  
BRANCH  24  25
HETATM   25  C   UNL     1     -10.823  12.498  68.548  1.00  0.00    -0.271 C  
BRANCH  25  26
HETATM   26  C   UNL     1     -11.380  13.890  68.732  1.00  0.00    -0.277 C  
HETATM   27  O   UNL     1     -12.011  14.275  69.704  1.00  0.00    -0.297 OA 
BRANCH  26  28
HETATM   28  O   UNL     1     -11.072  14.660  67.652  1.00  0.00    -0.283 OA 
HETATM   29  C   UNL     1     -10.700  15.994  67.997  1.00  0.00    -0.309 C  
ENDBRANCH  26  28
ENDBRANCH  25  26
ENDBRANCH  24  25
ENDBRANCH  23  24
ENDBRANCH  22  23
ENDBRANCH  21  22
ENDBRANCH  20  21
ENDBRANCH  19  20
ENDBRANCH  11  12
ENDBRANCH   8  10
ENDBRANCH   3   4
ENDBRANCH   2   3
TORSDOF 12
ENDMDL
MODEL       74
REMARK 921   NORMALIZED FREE ENERGY PREDICTED BY IDOCK:   -4.72 KCAL/MOL
REMARK 922        TOTAL FREE ENERGY PREDICTED BY IDOCK:  -10.07 KCAL/MOL
REMARK 923 INTER-LIGAND FREE ENERGY PREDICTED BY IDOCK:   -7.93 KCAL/MOL
REMARK 924 INTRA-LIGAND FREE ENERGY PREDICTED BY IDOCK:   -2.14 KCAL/MOL
REMARK 927      BINDING AFFINITY PREDICTED BY RF-SCORE:    0.00 PKD
ROOT
HETATM    1  C   UNL     1      -7.674   8.685  66.441  1.00  0.00    -0.095 C  
HETATM    2  C   UNL     1      -8.422   8.350  67.724  1.00  0.00    -0.131 C  
ENDROOT
BRANCH   2   3
HETATM    3  C   UNL     1      -9.918   8.580  67.541  1.00  0.00    -0.258 C  
BRANCH   3   4
HETATM    4  C   UNL     1     -10.225   9.568  66.408  1.00  0.00    -0.302 C  
HETATM    5  C   UNL     1     -10.727  10.941  66.918  1.00  0.00    -0.264 C  
HETATM    6  O   UNL     1     -11.959  10.727  67.620  1.00  0.00    -0.616 OA 
HETATM    7  C   UNL     1     -11.014  11.864  65.724  1.00  0.00    -0.359 C  
HETATM    8  C   UNL     1      -9.693  11.566  67.889  1.00  0.00    -0.187 C  
HETATM    9  H   UNL     1     -12.267  11.569  67.932  1.00  0.00     0.000 HD 
BRANCH   8  10
HETATM   10  C   UNL     1      -9.974  12.973  68.336  1.00  0.00    -0.216 C  
HETATM   11  C   UNL     1      -9.075  13.971  68.298  1.00  0.00    -0.191 C  
BRANCH  11  12
HETATM   12  C   UNL     1      -9.306  15.395  68.734  1.00  0.00    -0.209 C  
HETATM   13  C   UNL     1      -8.106  16.281  68.357  1.00  0.00    -0.183 C  
HETATM   14  C   UNL     1      -8.632  17.704  68.393  1.00  0.00    -0.284 C  
HETATM   15  O   UNL     1      -7.025  16.130  69.269  1.00  0.00    -0.189 OA 
HETATM   16  H   UNL     1      -6.283  16.677  69.037  1.00  0.00     0.000 HD 
HETATM   17  C   UNL     1     -10.057  17.521  67.977  1.00  0.00    -0.332 C  
HETATM   18  O   UNL     1     -10.741  18.444  67.550  1.00  0.00    -0.424 OA 
HETATM   19  C   UNL     1     -10.543  16.092  68.118  1.00  0.00    -0.290 C  
BRANCH  19  20
HETATM   20  C   UNL     1     -11.775  15.926  69.014  1.00  0.00    -0.377 C  
BRANCH  20  21
HETATM   21  C   UNL     1     -11.418  15.939  70.501  1.00  0.00    -0.412 C  
BRANCH  21  22
HETATM   22  C   UNL     1     -12.440  15.182  71.342  1.00  0.00    -0.413 C  
BRANCH  22  23
HETATM   23  C   UNL     1     -12.429  13.694  70.984  1.00  0.00    -0.456 C  
BRANCH  23  24
HETATM   24  C   UNL     1     -13.440  12.930  71.830  1.00  0.00    -0.478 C  
BRANCH  24  25
HETATM   25  C   UNL     1     -13.020  11.479  72.052  1.00  0.00    -0.373 C  
BRANCH  25  26
HETATM   26  C   UNL     1     -12.658  10.819  70.743  1.00  0.00    -0.383 C  
HETATM   27  O   UNL     1     -13.436  10.583  69.833  1.00  0.00     0.142 OA 
BRANCH  26  28
HETATM   28  O   UNL     1     -11.329  10.526  70.724  1.00  0.00    -0.327 OA 
HETATM   29  C   UNL     1     -11.043   9.176  71.090  1.00  0.00    -0.323 C  
ENDBRANCH  26  28
ENDBRANCH  25  26
ENDBRANCH  24  25
ENDBRANCH  23  24
ENDBRANCH  22  23
ENDBRANCH  21  22
ENDBRANCH  20  21
ENDBRANCH  19  20
ENDBRANCH  11  12
ENDBRANCH   8  10
ENDBRANCH   3   4
ENDBRANCH   2   3
TORSDOF 12
ENDMDL
MODEL       75
REMARK 921   NORMALIZED FREE ENERGY PREDICTED BY IDOCK:   -4.72 KCAL/MOL
REMARK 922        TOTAL FREE ENERGY PREDICTED BY IDOCK:  -10.06 KCAL/MOL
REMARK 923 INTER-LIGAND FREE ENERGY PREDICTED BY IDOCK:   -8.68 KCAL/MOL
REMARK 924 INTRA-LIGAND FREE ENERGY PREDICTED BY IDOCK:   -1.39 KCAL/MOL
REMARK 927      BINDING AFFINITY PREDICTED BY RF-SCORE:    0.00 PKD
ROOT
HETATM    1  C   UNL     1      -9.750   4.151  62.414  1.00  0.00    -0.130 C  
HETATM    2  C   UNL     1     -10.788   3.505  63.321  1.00  0.00    -0.180 C  
ENDROOT
BRANCH   2   3
HETATM    3  C   UNL     1     -10.813   4.202  64.678  1.00  0.00    -0.130 C  
BRANCH   3   4
HETATM    4  C   UNL     1      -9.421   4.291  65.317  1.00  0.00    -0.173 C  
HETATM    5  C   UNL     1      -9.302   5.430  66.359  1.00  0.00    -0.150 C  
HETATM    6  O   UNL     1      -9.522   6.673  65.679  1.00  0.00    -0.376 OA 
HETATM    7  C   UNL     1      -7.882   5.452  66.944  1.00  0.00    -0.101 C  
HETATM    8  C   UNL     1     -10.374   5.262  67.466  1.00  0.00    -0.221 C  
HETATM    9  H   UNL     1      -9.449   7.372  66.318  1.00  0.00     0.000 HD 
BRANCH   8  10
HETATM   10  C   UNL     1     -10.274   6.205  68.631  1.00  0.00    -0.220 C  
HETATM   11  C   UNL     1     -11.262   6.421  69.515  1.00  0.00    -0.477 C  
BRANCH  11  12
HETATM   12  C   UNL     1     -11.212   7.353  70.698  1.00  0.00    -0.292 C  
HETATM   13  C   UNL     1     -11.410   6.578  72.012  1.00  0.00    -0.285 C  
HETATM   14  C   UNL     1     -10.874   7.489  73.099  1.00  0.00    -0.448 C  
HETATM   15  O   UNL     1     -12.780   6.275  72.251  1.00  0.00    -0.537 OA 
HETATM   16  H   UNL     1     -12.902   5.796  73.062  1.00  0.00     0.000 HD 
HETATM   17  C   UNL     1      -9.775   8.213  72.387  1.00  0.00    -0.269 C  
HETATM   18  O   UNL     1      -8.872   8.788  72.983  1.00  0.00    -0.340 OA 
HETATM   19  C   UNL     1      -9.890   8.138  70.878  1.00  0.00    -0.203 C  
BRANCH  19  20
HETATM   20  C   UNL     1      -9.955   9.500  70.177  1.00  0.00    -0.285 C  
BRANCH  20  21
HETATM   21  C   UNL     1     -11.311  10.183  70.361  1.00  0.00    -0.401 C  
BRANCH  21  22
HETATM   22  C   UNL     1     -11.839  10.768  69.056  1.00  0.00    -0.325 C  
BRANCH  22  23
HETATM   23  C   UNL     1     -11.558  12.271  68.993  1.00  0.00    -0.368 C  
BRANCH  23  24
HETATM   24  C   UNL     1     -10.979  12.653  67.635  1.00  0.00    -0.275 C  
BRANCH  24  25
HETATM   25  C   UNL     1     -11.999  13.378  66.762  1.00  0.00    -0.447 C  
BRANCH  25  26
HETATM   26  C   UNL     1     -12.146  12.692  65.425  1.00  0.00    -0.462 C  
HETATM   27  O   UNL     1     -13.199  12.526  64.829  1.00  0.00    -0.839 OA 
BRANCH  26  28
HETATM   28  O   UNL     1     -10.927  12.285  64.976  1.00  0.00    -0.285 OA 
HETATM   29  C   UNL     1     -10.858  12.172  63.555  1.00  0.00    -0.458 C  
ENDBRANCH  26  28
ENDBRANCH  25  26
ENDBRANCH  24  25
ENDBRANCH  23  24
ENDBRANCH  22  23
ENDBRANCH  21  22
ENDBRANCH  20  21
ENDBRANCH  19  20
ENDBRANCH  11  12
ENDBRANCH   8  10
ENDBRANCH   3   4
ENDBRANCH   2   3
TORSDOF 12
ENDMDL
MODEL       76
REMARK 921   NORMALIZED FREE ENERGY PREDICTED BY IDOCK:   -4.71 KCAL/MOL
REMARK 922        TOTAL FREE ENERGY PREDICTED BY IDOCK:  -10.05 KCAL/MOL
REMARK 923 INTER-LIGAND FREE ENERGY PREDICTED BY IDOCK:   -8.90 KCAL/MOL
REMARK 924 INTRA-LIGAND FREE ENERGY PREDICTED BY IDOCK:   -1.15 KCAL/MOL
REMARK 927      BINDING AFFINITY PREDICTED BY RF-SCORE:    0.00 PKD
ROOT
HETATM    1  C   UNL     1      -5.600  19.257  66.254  1.00  0.00    -0.170 C  
HETATM    2  C   UNL     1      -6.669  19.373  67.331  1.00  0.00    -0.217 C  
ENDROOT
BRANCH   2   3
HETATM    3  C   UNL     1      -8.048  19.511  66.694  1.00  0.00    -0.324 C  
BRANCH   3   4
HETATM    4  C   UNL     1      -9.154  18.870  67.544  1.00  0.00    -0.307 C  
HETATM    5  C   UNL     1      -9.934  17.764  66.793  1.00  0.00    -0.333 C  
HETATM    6  O   UNL     1     -10.582  18.371  65.667  1.00  0.00    -0.622 OA 
HETATM    7  C   UNL     1     -11.019  17.181  67.710  1.00  0.00    -0.180 C  
HETATM    8  C   UNL     1      -8.962  16.667  66.287  1.00  0.00    -0.340 C  
HETATM    9  H   UNL     1     -11.061  17.692  65.206  1.00  0.00     0.000 HD 
BRANCH   8  10
HETATM   10  C   UNL     1      -9.599  15.450  65.680  1.00  0.00    -0.323 C  
HETATM   11  C   UNL     1      -9.962  14.360  66.377  1.00  0.00    -0.305 C  
BRANCH  11  12
HETATM   12  C   UNL     1     -10.604  13.116  65.818  1.00  0.00    -0.293 C  
HETATM   13  C   UNL     1     -11.129  13.367  64.394  1.00  0.00    -0.388 C  
HETATM   14  C   UNL     1     -11.296  11.990  63.780  1.00  0.00    -0.526 C  
HETATM   15  O   UNL     1     -12.371  14.061  64.399  1.00  0.00    -0.561 OA 
HETATM   16  H   UNL     1     -12.696  14.216  63.519  1.00  0.00     0.000 HD 
HETATM   17  C   UNL     1     -10.201  11.218  64.444  1.00  0.00    -0.320 C  
HETATM   18  O   UNL     1      -9.768  10.165  63.989  1.00  0.00    -0.306 OA 
HETATM   19  C   UNL     1      -9.681  11.879  65.705  1.00  0.00    -0.258 C  
BRANCH  19  20
HETATM   20  C   UNL     1      -9.768  11.007  66.963  1.00  0.00    -0.208 C  
BRANCH  20  21
HETATM   21  C   UNL     1     -11.180  10.975  67.550  1.00  0.00    -0.372 C  
BRANCH  21  22
HETATM   22  C   UNL     1     -11.165  10.824  69.067  1.00  0.00    -0.322 C  
BRANCH  22  23
HETATM   23  C   UNL     1      -9.930  10.037  69.513  1.00  0.00    -0.249 C  
BRANCH  23  24
HETATM   24  C   UNL     1     -10.182   9.356  70.853  1.00  0.00    -0.373 C  
BRANCH  24  25
HETATM   25  C   UNL     1     -11.671   9.251  71.170  1.00  0.00    -0.394 C  
BRANCH  25  26
HETATM   26  C   UNL     1     -12.153   7.828  71.019  1.00  0.00    -0.244 C  
HETATM   27  O   UNL     1     -11.774   7.041  70.165  1.00  0.00    -0.267 OA 
BRANCH  26  28
HETATM   28  O   UNL     1     -13.077   7.546  71.978  1.00  0.00    -0.259 OA 
HETATM   29  C   UNL     1     -14.409   7.459  71.472  1.00  0.00    -0.440 C  
ENDBRANCH  26  28
ENDBRANCH  25  26
ENDBRANCH  24  25
ENDBRANCH  23  24
ENDBRANCH  22  23
ENDBRANCH  21  22
ENDBRANCH  20  21
ENDBRANCH  19  20
ENDBRANCH  11  12
ENDBRANCH   8  10
ENDBRANCH   3   4
ENDBRANCH   2   3
TORSDOF 12
ENDMDL
MODEL       77
REMARK 921   NORMALIZED FREE ENERGY PREDICTED BY IDOCK:   -4.69 KCAL/MOL
REMARK 922        TOTAL FREE ENERGY PREDICTED BY IDOCK:  -10.02 KCAL/MOL
REMARK 923 INTER-LIGAND FREE ENERGY PREDICTED BY IDOCK:   -8.87 KCAL/MOL
REMARK 924 INTRA-LIGAND FREE ENERGY PREDICTED BY IDOCK:   -1.15 KCAL/MOL
REMARK 927      BINDING AFFINITY PREDICTED BY RF-SCORE:    0.00 PKD
ROOT
HETATM    1  C   UNL     1     -13.743  15.233  71.479  1.00  0.00    -0.610 C  
HETATM    2  C   UNL     1     -13.363  13.767  71.632  1.00  0.00    -0.430 C  
ENDROOT
BRANCH   2   3
HETATM    3  C   UNL     1     -12.307  13.383  70.601  1.00  0.00    -0.423 C  
BRANCH   3   4
HETATM    4  C   UNL     1     -12.152  14.440  69.499  1.00  0.00    -0.366 C  
HETATM    5  C   UNL     1     -11.296  13.953  68.305  1.00  0.00    -0.294 C  
HETATM    6  O   UNL     1      -9.977  13.674  68.795  1.00  0.00    -0.353 OA 
HETATM    7  C   UNL     1     -11.188  15.068  67.255  1.00  0.00    -0.339 C  
HETATM    8  C   UNL     1     -11.896  12.656  67.704  1.00  0.00    -0.390 C  
HETATM    9  H   UNL     1      -9.451  13.376  68.062  1.00  0.00     0.000 HD 
BRANCH   8  10
HETATM   10  C   UNL     1     -11.260  12.159  66.437  1.00  0.00    -0.380 C  
HETATM   11  C   UNL     1     -10.858  10.892  66.240  1.00  0.00    -0.191 C  
BRANCH  11  12
HETATM   12  C   UNL     1     -10.217  10.344  64.992  1.00  0.00    -0.334 C  
HETATM   13  C   UNL     1     -10.186  11.409  63.882  1.00  0.00    -0.363 C  
HETATM   14  C   UNL     1      -9.133  10.934  62.900  1.00  0.00    -0.327 C  
HETATM   15  O   UNL     1     -11.446  11.538  63.233  1.00  0.00    -0.781 OA 
HETATM   16  H   UNL     1     -11.427  12.196  62.548  1.00  0.00     0.000 HD 
HETATM   17  C   UNL     1      -8.164  10.230  63.797  1.00  0.00    -0.153 C  
HETATM   18  O   UNL     1      -7.008   9.997  63.463  1.00  0.00    -0.127 OA 
HETATM   19  C   UNL     1      -8.753   9.866  65.145  1.00  0.00    -0.187 C  
BRANCH  19  20
HETATM   20  C   UNL     1      -8.691   8.372  65.482  1.00  0.00    -0.196 C  
BRANCH  20  21
HETATM   21  C   UNL     1      -9.005   8.096  66.953  1.00  0.00    -0.163 C  
BRANCH  21  22
HETATM   22  C   UNL     1     -10.391   7.486  67.137  1.00  0.00    -0.384 C  
BRANCH  22  23
HETATM   23  C   UNL     1     -10.288   6.134  67.848  1.00  0.00    -0.250 C  
BRANCH  23  24
HETATM   24  C   UNL     1     -11.145   6.123  69.108  1.00  0.00    -0.448 C  
BRANCH  24  25
HETATM   25  C   UNL     1     -10.522   6.949  70.230  1.00  0.00    -0.227 C  
BRANCH  25  26
HETATM   26  C   UNL     1     -11.520   7.936  70.789  1.00  0.00    -0.263 C  
HETATM   27  O   UNL     1     -11.279   9.098  71.075  1.00  0.00    -0.265 OA 
BRANCH  26  28
HETATM   28  O   UNL     1     -12.735   7.338  70.926  1.00  0.00    -0.276 OA 
HETATM   29  C   UNL     1     -13.616   8.044  71.801  1.00  0.00    -0.348 C  
ENDBRANCH  26  28
ENDBRANCH  25  26
ENDBRANCH  24  25
ENDBRANCH  23  24
ENDBRANCH  22  23
ENDBRANCH  21  22
ENDBRANCH  20  21
ENDBRANCH  19  20
ENDBRANCH  11  12
ENDBRANCH   8  10
ENDBRANCH   3   4
ENDBRANCH   2   3
TORSDOF 12
ENDMDL
MODEL       78
REMARK 921   NORMALIZED FREE ENERGY PREDICTED BY IDOCK:   -4.69 KCAL/MOL
REMARK 922        TOTAL FREE ENERGY PREDICTED BY IDOCK:  -10.01 KCAL/MOL
REMARK 923 INTER-LIGAND FREE ENERGY PREDICTED BY IDOCK:   -8.62 KCAL/MOL
REMARK 924 INTRA-LIGAND FREE ENERGY PREDICTED BY IDOCK:   -1.40 KCAL/MOL
REMARK 927      BINDING AFFINITY PREDICTED BY RF-SCORE:    0.00 PKD
ROOT
HETATM    1  C   UNL     1     -11.344   4.978  72.905  1.00  0.00    -0.329 C  
HETATM    2  C   UNL     1     -11.620   6.005  71.815  1.00  0.00    -0.288 C  
ENDROOT
BRANCH   2   3
HETATM    3  C   UNL     1     -10.729   7.228  72.002  1.00  0.00    -0.241 C  
BRANCH   3   4
HETATM    4  C   UNL     1     -11.491   8.546  71.803  1.00  0.00    -0.378 C  
HETATM    5  C   UNL     1     -10.825   9.482  70.767  1.00  0.00    -0.318 C  
HETATM    6  O   UNL     1      -9.525   9.832  71.260  1.00  0.00    -0.280 OA 
HETATM    7  C   UNL     1     -11.645  10.774  70.633  1.00  0.00    -0.388 C  
HETATM    8  C   UNL     1     -10.672   8.758  69.405  1.00  0.00    -0.180 C  
HETATM    9  H   UNL     1      -9.116  10.407  70.625  1.00  0.00     0.000 HD 
BRANCH   8  10
HETATM   10  C   UNL     1     -10.188   9.601  68.259  1.00  0.00    -0.216 C  
HETATM   11  C   UNL     1     -10.993  10.161  67.341  1.00  0.00    -0.295 C  
BRANCH  11  12
HETATM   12  C   UNL     1     -10.559  11.013  66.176  1.00  0.00    -0.288 C  
HETATM   13  C   UNL     1     -10.142  10.135  64.984  1.00  0.00    -0.235 C  
HETATM   14  C   UNL     1     -10.198  11.048  63.774  1.00  0.00    -0.425 C  
HETATM   15  O   UNL     1      -8.831   9.606  65.144  1.00  0.00    -0.156 OA 
HETATM   16  H   UNL     1      -8.574   9.063  64.408  1.00  0.00     0.000 HD 
HETATM   17  C   UNL     1     -11.311  11.980  64.138  1.00  0.00    -0.382 C  
HETATM   18  O   UNL     1     -11.906  12.651  63.303  1.00  0.00    -0.504 OA 
HETATM   19  C   UNL     1     -11.628  11.983  65.620  1.00  0.00    -0.356 C  
BRANCH  19  20
HETATM   20  C   UNL     1     -11.529  13.359  66.288  1.00  0.00    -0.354 C  
BRANCH  20  21
HETATM   21  C   UNL     1     -10.177  14.030  66.036  1.00  0.00    -0.313 C  
BRANCH  21  22
HETATM   22  C   UNL     1     -10.333  15.474  65.573  1.00  0.00    -0.419 C  
BRANCH  22  23
HETATM   23  C   UNL     1      -9.404  16.393  66.369  1.00  0.00    -0.322 C  
BRANCH  23  24
HETATM   24  C   UNL     1     -10.206  17.281  67.313  1.00  0.00    -0.320 C  
BRANCH  24  25
HETATM   25  C   UNL     1      -9.929  16.954  68.778  1.00  0.00    -0.276 C  
BRANCH  25  26
HETATM   26  C   UNL     1     -11.093  16.214  69.392  1.00  0.00    -0.335 C  
HETATM   27  O   UNL     1     -11.917  15.558  68.775  1.00  0.00    -0.336 OA 
BRANCH  26  28
HETATM   28  O   UNL     1     -11.091  16.385  70.743  1.00  0.00    -0.296 OA 
HETATM   29  C   UNL     1     -11.907  15.439  71.433  1.00  0.00    -0.384 C  
ENDBRANCH  26  28
ENDBRANCH  25  26
ENDBRANCH  24  25
ENDBRANCH  23  24
ENDBRANCH  22  23
ENDBRANCH  21  22
ENDBRANCH  20  21
ENDBRANCH  19  20
ENDBRANCH  11  12
ENDBRANCH   8  10
ENDBRANCH   3   4
ENDBRANCH   2   3
TORSDOF 12
ENDMDL
MODEL       79
REMARK 921   NORMALIZED FREE ENERGY PREDICTED BY IDOCK:   -4.68 KCAL/MOL
REMARK 922        TOTAL FREE ENERGY PREDICTED BY IDOCK:  -10.00 KCAL/MOL
REMARK 923 INTER-LIGAND FREE ENERGY PREDICTED BY IDOCK:   -7.90 KCAL/MOL
REMARK 924 INTRA-LIGAND FREE ENERGY PREDICTED BY IDOCK:   -2.10 KCAL/MOL
REMARK 927      BINDING AFFINITY PREDICTED BY RF-SCORE:    0.00 PKD
ROOT
HETATM    1  C   UNL     1     -12.098  13.382  65.824  1.00  0.00    -0.481 C  
HETATM    2  C   UNL     1     -11.986  13.939  67.236  1.00  0.00    -0.446 C  
ENDROOT
BRANCH   2   3
HETATM    3  C   UNL     1     -11.320  12.921  68.156  1.00  0.00    -0.327 C  
BRANCH   3   4
HETATM    4  C   UNL     1     -12.004  12.831  69.526  1.00  0.00    -0.338 C  
HETATM    5  C   UNL     1     -12.181  11.376  70.024  1.00  0.00    -0.301 C  
HETATM    6  O   UNL     1     -13.033  10.694  69.094  1.00  0.00    -0.488 OA 
HETATM    7  C   UNL     1     -12.875  11.377  71.393  1.00  0.00    -0.502 C  
HETATM    8  C   UNL     1     -10.810  10.655  70.078  1.00  0.00    -0.280 C  
HETATM    9  H   UNL     1     -13.142   9.801  69.400  1.00  0.00     0.000 HD 
BRANCH   8  10
HETATM   10  C   UNL     1     -10.809   9.286  70.696  1.00  0.00    -0.339 C  
HETATM   11  C   UNL     1      -9.774   8.765  71.377  1.00  0.00    -0.351 C  
BRANCH  11  12
HETATM   12  C   UNL     1      -9.722   7.401  72.015  1.00  0.00    -0.182 C  
HETATM   13  C   UNL     1      -9.686   7.519  73.549  1.00  0.00    -0.303 C  
HETATM   14  C   UNL     1     -10.114   6.158  74.065  1.00  0.00    -0.282 C  
HETATM   15  O   UNL     1      -8.385   7.842  74.028  1.00  0.00    -0.210 OA 
HETATM   16  H   UNL     1      -8.363   7.915  74.975  1.00  0.00     0.000 HD 
HETATM   17  C   UNL     1     -11.067   5.707  73.004  1.00  0.00    -0.282 C  
HETATM   18  O   UNL     1     -11.893   4.822  73.193  1.00  0.00    -0.257 OA 
HETATM   19  C   UNL     1     -10.915   6.468  71.701  1.00  0.00    -0.291 C  
BRANCH  19  20
HETATM   20  C   UNL     1     -10.623   5.587  70.481  1.00  0.00    -0.339 C  
BRANCH  20  21
HETATM   21  C   UNL     1      -9.142   5.594  70.102  1.00  0.00    -0.159 C  
BRANCH  21  22
HETATM   22  C   UNL     1      -8.914   6.145  68.698  1.00  0.00    -0.126 C  
BRANCH  22  23
HETATM   23  C   UNL     1     -10.045   5.709  67.764  1.00  0.00    -0.209 C  
BRANCH  23  24
HETATM   24  C   UNL     1     -10.831   6.918  67.271  1.00  0.00    -0.426 C  
BRANCH  24  25
HETATM   25  C   UNL     1     -10.014   8.205  67.358  1.00  0.00    -0.271 C  
BRANCH  25  26
HETATM   26  C   UNL     1      -9.503   8.610  65.995  1.00  0.00    -0.208 C  
HETATM   27  O   UNL     1      -8.872   7.891  65.237  1.00  0.00    -0.070 OA 
BRANCH  26  28
HETATM   28  O   UNL     1      -9.851   9.899  65.734  1.00  0.00    -0.252 OA 
HETATM   29  C   UNL     1      -8.828  10.838  66.061  1.00  0.00    -0.180 C  
ENDBRANCH  26  28
ENDBRANCH  25  26
ENDBRANCH  24  25
ENDBRANCH  23  24
ENDBRANCH  22  23
ENDBRANCH  21  22
ENDBRANCH  20  21
ENDBRANCH  19  20
ENDBRANCH  11  12
ENDBRANCH   8  10
ENDBRANCH   3   4
ENDBRANCH   2   3
TORSDOF 12
ENDMDL
MODEL       80
REMARK 921   NORMALIZED FREE ENERGY PREDICTED BY IDOCK:   -4.67 KCAL/MOL
REMARK 922        TOTAL FREE ENERGY PREDICTED BY IDOCK:   -9.98 KCAL/MOL
REMARK 923 INTER-LIGAND FREE ENERGY PREDICTED BY IDOCK:   -8.32 KCAL/MOL
REMARK 924 INTRA-LIGAND FREE ENERGY PREDICTED BY IDOCK:   -1.66 KCAL/MOL
REMARK 927      BINDING AFFINITY PREDICTED BY RF-SCORE:    0.00 PKD
ROOT
HETATM    1  C   UNL     1      -9.345   3.431  70.069  1.00  0.00    -0.242 C  
HETATM    2  C   UNL     1      -9.930   4.185  71.255  1.00  0.00    -0.216 C  
ENDROOT
BRANCH   2   3
HETATM    3  C   UNL     1      -9.599   5.671  71.154  1.00  0.00    -0.208 C  
BRANCH   3   4
HETATM    4  C   UNL     1      -9.574   6.168  69.703  1.00  0.00    -0.171 C  
HETATM    5  C   UNL     1     -10.687   7.198  69.393  1.00  0.00    -0.231 C  
HETATM    6  O   UNL     1     -11.952   6.548  69.582  1.00  0.00    -0.618 OA 
HETATM    7  C   UNL     1     -10.593   7.638  67.925  1.00  0.00    -0.233 C  
HETATM    8  C   UNL     1     -10.590   8.405  70.360  1.00  0.00    -0.236 C  
HETATM    9  H   UNL     1     -12.635   7.179  69.391  1.00  0.00     0.000 HD 
BRANCH   8  10
HETATM   10  C   UNL     1     -11.509   9.558  70.072  1.00  0.00    -0.149 C  
HETATM   11  C   UNL     1     -11.095  10.818  69.855  1.00  0.00    -0.339 C  
BRANCH  11  12
HETATM   12  C   UNL     1     -11.974  12.007  69.562  1.00  0.00    -0.346 C  
HETATM   13  C   UNL     1     -12.181  12.856  70.828  1.00  0.00    -0.260 C  
HETATM   14  C   UNL     1     -12.641  14.213  70.329  1.00  0.00    -0.367 C  
HETATM   15  O   UNL     1     -13.158  12.291  71.695  1.00  0.00    -0.409 OA 
HETATM   16  H   UNL     1     -13.286  12.816  72.477  1.00  0.00     0.000 HD 
HETATM   17  C   UNL     1     -11.928  14.321  69.018  1.00  0.00    -0.325 C  
HETATM   18  O   UNL     1     -11.752  15.393  68.451  1.00  0.00    -0.352 OA 
HETATM   19  C   UNL     1     -11.440  12.987  68.491  1.00  0.00    -0.340 C  
BRANCH  19  20
HETATM   20  C   UNL     1     -11.964  12.623  67.097  1.00  0.00    -0.326 C  
BRANCH  20  21
HETATM   21  C   UNL     1     -10.842  12.204  66.146  1.00  0.00    -0.317 C  
BRANCH  21  22
HETATM   22  C   UNL     1      -9.888  13.354  65.844  1.00  0.00    -0.251 C  
BRANCH  22  23
HETATM   23  C   UNL     1     -10.591  14.424  65.005  1.00  0.00    -0.452 C  
BRANCH  23  24
HETATM   24  C   UNL     1     -10.099  15.815  65.386  1.00  0.00    -0.337 C  
BRANCH  24  25
HETATM   25  C   UNL     1      -8.947  15.760  66.385  1.00  0.00    -0.366 C  
BRANCH  25  26
HETATM   26  C   UNL     1      -8.240  17.092  66.464  1.00  0.00    -0.273 C  
HETATM   27  O   UNL     1      -7.650  17.634  65.542  1.00  0.00    -0.440 OA 
BRANCH  26  28
HETATM   28  O   UNL     1      -8.357  17.606  67.719  1.00  0.00    -0.219 OA 
HETATM   29  C   UNL     1      -9.427  18.542  67.848  1.00  0.00    -0.296 C  
ENDBRANCH  26  28
ENDBRANCH  25  26
ENDBRANCH  24  25
ENDBRANCH  23  24
ENDBRANCH  22  23
ENDBRANCH  21  22
ENDBRANCH  20  21
ENDBRANCH  19  20
ENDBRANCH  11  12
ENDBRANCH   8  10
ENDBRANCH   3   4
ENDBRANCH   2   3
TORSDOF 12
ENDMDL
MODEL       81
REMARK 921   NORMALIZED FREE ENERGY PREDICTED BY IDOCK:   -4.66 KCAL/MOL
REMARK 922        TOTAL FREE ENERGY PREDICTED BY IDOCK:   -9.98 KCAL/MOL
REMARK 923 INTER-LIGAND FREE ENERGY PREDICTED BY IDOCK:   -7.73 KCAL/MOL
REMARK 924 INTRA-LIGAND FREE ENERGY PREDICTED BY IDOCK:   -2.24 KCAL/MOL
REMARK 927      BINDING AFFINITY PREDICTED BY RF-SCORE:    0.00 PKD
ROOT
HETATM    1  C   UNL     1     -12.673  13.807  65.404  1.00  0.00    -0.513 C  
HETATM    2  C   UNL     1     -12.119  13.778  66.822  1.00  0.00    -0.460 C  
ENDROOT
BRANCH   2   3
HETATM    3  C   UNL     1     -10.802  13.010  66.860  1.00  0.00    -0.282 C  
BRANCH   3   4
HETATM    4  C   UNL     1     -10.552  12.209  65.575  1.00  0.00    -0.314 C  
HETATM    5  C   UNL     1      -9.748  10.909  65.815  1.00  0.00    -0.224 C  
HETATM    6  O   UNL     1      -8.459  11.277  66.326  1.00  0.00    -0.170 OA 
HETATM    7  C   UNL     1      -9.539  10.174  64.483  1.00  0.00    -0.376 C  
HETATM    8  C   UNL     1     -10.468  10.014  66.856  1.00  0.00    -0.284 C  
HETATM    9  H   UNL     1      -7.965  10.479  66.473  1.00  0.00     0.000 HD 
BRANCH   8  10
HETATM   10  C   UNL     1      -9.883   8.646  67.067  1.00  0.00    -0.284 C  
HETATM   11  C   UNL     1     -10.595   7.507  67.037  1.00  0.00    -0.409 C  
BRANCH  11  12
HETATM   12  C   UNL     1     -10.057   6.114  67.242  1.00  0.00    -0.202 C  
HETATM   13  C   UNL     1     -10.046   5.334  65.916  1.00  0.00    -0.066 C  
HETATM   14  C   UNL     1      -9.079   4.186  66.135  1.00  0.00    -0.137 C  
HETATM   15  O   UNL     1     -11.336   4.836  65.580  1.00  0.00    -0.940 OA 
HETATM   16  H   UNL     1     -11.329   4.355  64.761  1.00  0.00     0.000 HD 
HETATM   17  C   UNL     1      -8.090   4.788  67.083  1.00  0.00    -0.102 C  
HETATM   18  O   UNL     1      -6.969   4.321  67.248  1.00  0.00    -0.060 OA 
HETATM   19  C   UNL     1      -8.611   6.026  67.784  1.00  0.00    -0.106 C  
BRANCH  19  20
HETATM   20  C   UNL     1      -8.598   5.942  69.315  1.00  0.00    -0.112 C  
BRANCH  20  21
HETATM   21  C   UNL     1      -7.734   7.034  69.948  1.00  0.00    -0.108 C  
BRANCH  21  22
HETATM   22  C   UNL     1      -8.401   7.654  71.171  1.00  0.00    -0.111 C  
BRANCH  22  23
HETATM   23  C   UNL     1      -8.919   9.056  70.844  1.00  0.00    -0.300 C  
BRANCH  23  24
HETATM   24  C   UNL     1     -10.371   9.209  71.283  1.00  0.00    -0.405 C  
BRANCH  24  25
HETATM   25  C   UNL     1     -11.253   8.087  70.742  1.00  0.00    -0.275 C  
BRANCH  25  26
HETATM   26  C   UNL     1     -12.191   7.578  71.810  1.00  0.00    -0.314 C  
HETATM   27  O   UNL     1     -12.514   6.412  71.969  1.00  0.00    -0.333 OA 
BRANCH  26  28
HETATM   28  O   UNL     1     -12.626   8.616  72.577  1.00  0.00    -0.392 OA 
HETATM   29  C   UNL     1     -13.963   9.018  72.277  1.00  0.00    -0.455 C  
ENDBRANCH  26  28
ENDBRANCH  25  26
ENDBRANCH  24  25
ENDBRANCH  23  24
ENDBRANCH  22  23
ENDBRANCH  21  22
ENDBRANCH  20  21
ENDBRANCH  19  20
ENDBRANCH  11  12
ENDBRANCH   8  10
ENDBRANCH   3   4
ENDBRANCH   2   3
TORSDOF 12
ENDMDL
MODEL       82
REMARK 921   NORMALIZED FREE ENERGY PREDICTED BY IDOCK:   -4.66 KCAL/MOL
REMARK 922        TOTAL FREE ENERGY PREDICTED BY IDOCK:   -9.97 KCAL/MOL
REMARK 923 INTER-LIGAND FREE ENERGY PREDICTED BY IDOCK:   -7.97 KCAL/MOL
REMARK 924 INTRA-LIGAND FREE ENERGY PREDICTED BY IDOCK:   -2.01 KCAL/MOL
REMARK 927      BINDING AFFINITY PREDICTED BY RF-SCORE:    0.00 PKD
ROOT
HETATM    1  C   UNL     1      -9.583   4.333  66.180  1.00  0.00    -0.199 C  
HETATM    2  C   UNL     1      -8.063   4.322  66.276  1.00  0.00    -0.102 C  
ENDROOT
BRANCH   2   3
HETATM    3  C   UNL     1      -7.576   5.501  67.112  1.00  0.00    -0.092 C  
BRANCH   3   4
HETATM    4  C   UNL     1      -8.668   6.054  68.038  1.00  0.00    -0.112 C  
HETATM    5  C   UNL     1      -8.720   7.601  68.060  1.00  0.00    -0.125 C  
HETATM    6  O   UNL     1      -7.468   8.076  68.573  1.00  0.00    -0.097 OA 
HETATM    7  C   UNL     1      -9.831   8.069  69.011  1.00  0.00    -0.178 C  
HETATM    8  C   UNL     1      -8.922   8.154  66.627  1.00  0.00    -0.181 C  
HETATM    9  H   UNL     1      -7.500   9.025  68.588  1.00  0.00     0.000 HD 
BRANCH   8  10
HETATM   10  C   UNL     1      -9.153   9.635  66.518  1.00  0.00    -0.185 C  
HETATM   11  C   UNL     1     -10.188  10.192  65.867  1.00  0.00    -0.281 C  
BRANCH  11  12
HETATM   12  C   UNL     1     -10.464  11.667  65.729  1.00  0.00    -0.308 C  
HETATM   13  C   UNL     1     -10.622  12.056  64.249  1.00  0.00    -0.334 C  
HETATM   14  C   UNL     1     -11.348  13.387  64.259  1.00  0.00    -0.420 C  
HETATM   15  O   UNL     1      -9.364  12.184  63.595  1.00  0.00    -0.558 OA 
HETATM   16  H   UNL     1      -9.461  12.424  62.681  1.00  0.00     0.000 HD 
HETATM   17  C   UNL     1     -12.209  13.264  65.476  1.00  0.00    -0.457 C  
HETATM   18  O   UNL     1     -13.195  13.968  65.660  1.00  0.00    -0.634 OA 
HETATM   19  C   UNL     1     -11.747  12.177  66.427  1.00  0.00    -0.394 C  
BRANCH  19  20
HETATM   20  C   UNL     1     -11.447  12.664  67.850  1.00  0.00    -0.360 C  
BRANCH  20  21
HETATM   21  C   UNL     1      -9.954  12.904  68.078  1.00  0.00    -0.236 C  
BRANCH  21  22
HETATM   22  C   UNL     1      -9.580  14.373  67.916  1.00  0.00    -0.219 C  
BRANCH  22  23
HETATM   23  C   UNL     1      -8.715  14.569  66.668  1.00  0.00    -0.162 C  
BRANCH  23  24
HETATM   24  C   UNL     1      -8.710  16.033  66.242  1.00  0.00    -0.372 C  
BRANCH  24  25
HETATM   25  C   UNL     1     -10.107  16.526  65.877  1.00  0.00    -0.359 C  
BRANCH  25  26
HETATM   26  C   UNL     1     -10.448  17.785  66.638  1.00  0.00    -0.300 C  
HETATM   27  O   UNL     1     -10.852  17.826  67.790  1.00  0.00    -0.371 OA 
BRANCH  26  28
HETATM   28  O   UNL     1     -10.237  18.875  65.851  1.00  0.00    -0.505 OA 
HETATM   29  C   UNL     1      -9.577  19.944  66.530  1.00  0.00    -0.423 C  
ENDBRANCH  26  28
ENDBRANCH  25  26
ENDBRANCH  24  25
ENDBRANCH  23  24
ENDBRANCH  22  23
ENDBRANCH  21  22
ENDBRANCH  20  21
ENDBRANCH  19  20
ENDBRANCH  11  12
ENDBRANCH   8  10
ENDBRANCH   3   4
ENDBRANCH   2   3
TORSDOF 12
ENDMDL
MODEL       83
REMARK 921   NORMALIZED FREE ENERGY PREDICTED BY IDOCK:   -4.64 KCAL/MOL
REMARK 922        TOTAL FREE ENERGY PREDICTED BY IDOCK:   -9.93 KCAL/MOL
REMARK 923 INTER-LIGAND FREE ENERGY PREDICTED BY IDOCK:   -8.99 KCAL/MOL
REMARK 924 INTRA-LIGAND FREE ENERGY PREDICTED BY IDOCK:   -0.94 KCAL/MOL
REMARK 927      BINDING AFFINITY PREDICTED BY RF-SCORE:    0.00 PKD
ROOT
HETATM    1  C   UNL     1     -10.457   6.466  70.482  1.00  0.00    -0.270 C  
HETATM    2  C   UNL     1     -11.216   6.436  69.163  1.00  0.00    -0.421 C  
ENDROOT
BRANCH   2   3
HETATM    3  C   UNL     1     -10.391   5.728  68.093  1.00  0.00    -0.264 C  
BRANCH   3   4
HETATM    4  C   UNL     1      -8.982   6.320  67.951  1.00  0.00    -0.113 C  
HETATM    5  C   UNL     1      -8.901   7.451  66.898  1.00  0.00    -0.132 C  
HETATM    6  O   UNL     1      -9.241   6.890  65.623  1.00  0.00    -0.380 OA 
HETATM    7  C   UNL     1      -7.463   7.982  66.816  1.00  0.00    -0.090 C  
HETATM    8  C   UNL     1      -9.909   8.579  67.239  1.00  0.00    -0.259 C  
HETATM    9  H   UNL     1      -9.191   7.583  64.976  1.00  0.00     0.000 HD 
BRANCH   8  10
HETATM   10  C   UNL     1      -9.827   9.816  66.391  1.00  0.00    -0.298 C  
HETATM   11  C   UNL     1     -10.888  10.556  66.029  1.00  0.00    -0.006 C  
BRANCH  11  12
HETATM   12  C   UNL     1     -10.860  11.803  65.183  1.00  0.00    -0.351 C  
HETATM   13  C   UNL     1     -11.414  11.519  63.776  1.00  0.00    -0.286 C  
HETATM   14  C   UNL     1     -11.780  12.878  63.209  1.00  0.00    -0.408 C  
HETATM   15  O   UNL     1     -10.455  10.878  62.944  1.00  0.00    -0.758 OA 
HETATM   16  H   UNL     1     -10.797  10.702  62.075  1.00  0.00     0.000 HD 
HETATM   17  C   UNL     1     -12.185  13.630  64.436  1.00  0.00    -0.390 C  
HETATM   18  O   UNL     1     -12.870  14.646  64.390  1.00  0.00    -0.578 OA 
HETATM   19  C   UNL     1     -11.685  12.996  65.719  1.00  0.00    -0.427 C  
BRANCH  19  20
HETATM   20  C   UNL     1     -10.824  13.918  66.590  1.00  0.00    -0.289 C  
BRANCH  20  21
HETATM   21  C   UNL     1     -11.555  14.368  67.856  1.00  0.00    -0.374 C  
BRANCH  21  22
HETATM   22  C   UNL     1     -10.671  14.264  69.094  1.00  0.00    -0.239 C  
BRANCH  22  23
HETATM   23  C   UNL     1      -9.627  15.384  69.099  1.00  0.00    -0.253 C  
BRANCH  23  24
HETATM   24  C   UNL     1     -10.213  16.668  68.525  1.00  0.00    -0.282 C  
BRANCH  24  25
HETATM   25  C   UNL     1      -9.430  17.162  67.312  1.00  0.00    -0.245 C  
BRANCH  25  26
HETATM   26  C   UNL     1     -10.339  17.876  66.340  1.00  0.00    -0.365 C  
HETATM   27  O   UNL     1     -10.562  17.522  65.193  1.00  0.00    -0.657 OA 
BRANCH  26  28
HETATM   28  O   UNL     1     -10.878  18.977  66.932  1.00  0.00    -0.419 OA 
HETATM   29  C   UNL     1     -10.269  20.198  66.513  1.00  0.00    -0.433 C  
ENDBRANCH  26  28
ENDBRANCH  25  26
ENDBRANCH  24  25
ENDBRANCH  23  24
ENDBRANCH  22  23
ENDBRANCH  21  22
ENDBRANCH  20  21
ENDBRANCH  19  20
ENDBRANCH  11  12
ENDBRANCH   8  10
ENDBRANCH   3   4
ENDBRANCH   2   3
TORSDOF 12
ENDMDL
MODEL       84
REMARK 921   NORMALIZED FREE ENERGY PREDICTED BY IDOCK:   -4.62 KCAL/MOL
REMARK 922        TOTAL FREE ENERGY PREDICTED BY IDOCK:   -9.91 KCAL/MOL
REMARK 923 INTER-LIGAND FREE ENERGY PREDICTED BY IDOCK:   -8.79 KCAL/MOL
REMARK 924 INTRA-LIGAND FREE ENERGY PREDICTED BY IDOCK:   -1.12 KCAL/MOL
REMARK 927      BINDING AFFINITY PREDICTED BY RF-SCORE:    0.00 PKD
ROOT
HETATM    1  C   UNL     1      -5.943  19.389  67.682  1.00  0.00    -0.209 C  
HETATM    2  C   UNL     1      -7.172  19.763  68.499  1.00  0.00    -0.356 C  
ENDROOT
BRANCH   2   3
HETATM    3  C   UNL     1      -8.147  18.592  68.555  1.00  0.00    -0.354 C  
BRANCH   3   4
HETATM    4  C   UNL     1      -9.331  18.767  67.595  1.00  0.00    -0.320 C  
HETATM    5  C   UNL     1      -9.468  17.608  66.579  1.00  0.00    -0.283 C  
HETATM    6  O   UNL     1      -8.283  17.590  65.771  1.00  0.00    -0.545 OA 
HETATM    7  C   UNL     1     -10.669  17.864  65.657  1.00  0.00    -0.055 C  
HETATM    8  C   UNL     1      -9.595  16.253  67.321  1.00  0.00    -0.231 C  
HETATM    9  H   UNL     1      -8.367  16.879  65.147  1.00  0.00     0.000 HD 
BRANCH   8  10
HETATM   10  C   UNL     1      -9.896  15.056  66.464  1.00  0.00    -0.276 C  
HETATM   11  C   UNL     1     -11.051  14.372  66.501  1.00  0.00    -0.331 C  
BRANCH  11  12
HETATM   12  C   UNL     1     -11.402  13.168  65.665  1.00  0.00    -0.328 C  
HETATM   13  C   UNL     1     -11.267  13.489  64.166  1.00  0.00    -0.316 C  
HETATM   14  C   UNL     1     -11.167  12.142  63.476  1.00  0.00    -0.536 C  
HETATM   15  O   UNL     1     -12.388  14.215  63.674  1.00  0.00    -0.998 OA 
HETATM   16  H   UNL     1     -12.305  14.413  62.748  1.00  0.00     0.000 HD 
HETATM   17  C   UNL     1     -10.466  11.315  64.506  1.00  0.00    -0.334 C  
HETATM   18  O   UNL     1      -9.889  10.270  64.229  1.00  0.00    -0.329 OA 
HETATM   19  C   UNL     1     -10.529  11.912  65.897  1.00  0.00    -0.296 C  
BRANCH  19  20
HETATM   20  C   UNL     1     -11.151  10.994  66.956  1.00  0.00    -0.311 C  
BRANCH  20  21
HETATM   21  C   UNL     1     -10.095  10.206  67.732  1.00  0.00    -0.216 C  
BRANCH  21  22
HETATM   22  C   UNL     1     -10.425   8.719  67.799  1.00  0.00    -0.292 C  
BRANCH  22  23
HETATM   23  C   UNL     1     -10.298   8.208  69.237  1.00  0.00    -0.222 C  
BRANCH  23  24
HETATM   24  C   UNL     1     -10.918   6.823  69.372  1.00  0.00    -0.321 C  
BRANCH  24  25
HETATM   25  C   UNL     1     -11.813   6.715  70.604  1.00  0.00    -0.443 C  
BRANCH  25  26
HETATM   26  C   UNL     1     -11.029   7.001  71.863  1.00  0.00    -0.233 C  
HETATM   27  O   UNL     1     -11.229   7.938  72.620  1.00  0.00    -0.344 OA 
BRANCH  26  28
HETATM   28  O   UNL     1     -10.063   6.057  72.033  1.00  0.00    -0.183 OA 
HETATM   29  C   UNL     1      -8.823   6.594  72.493  1.00  0.00    -0.127 C  
ENDBRANCH  26  28
ENDBRANCH  25  26
ENDBRANCH  24  25
ENDBRANCH  23  24
ENDBRANCH  22  23
ENDBRANCH  21  22
ENDBRANCH  20  21
ENDBRANCH  19  20
ENDBRANCH  11  12
ENDBRANCH   8  10
ENDBRANCH   3   4
ENDBRANCH   2   3
TORSDOF 12
ENDMDL
MODEL       85
REMARK 921   NORMALIZED FREE ENERGY PREDICTED BY IDOCK:   -4.62 KCAL/MOL
REMARK 922        TOTAL FREE ENERGY PREDICTED BY IDOCK:   -9.90 KCAL/MOL
REMARK 923 INTER-LIGAND FREE ENERGY PREDICTED BY IDOCK:   -8.10 KCAL/MOL
REMARK 924 INTRA-LIGAND FREE ENERGY PREDICTED BY IDOCK:   -1.81 KCAL/MOL
REMARK 927      BINDING AFFINITY PREDICTED BY RF-SCORE:    0.00 PKD
ROOT
HETATM    1  C   UNL     1      -6.210  20.816  67.553  1.00  0.00    -0.333 C  
HETATM    2  C   UNL     1      -6.179  20.518  66.060  1.00  0.00    -0.255 C  
ENDROOT
BRANCH   2   3
HETATM    3  C   UNL     1      -7.440  19.767  65.644  1.00  0.00    -0.269 C  
BRANCH   3   4
HETATM    4  C   UNL     1      -8.438  19.611  66.799  1.00  0.00    -0.344 C  
HETATM    5  C   UNL     1      -9.587  18.624  66.480  1.00  0.00    -0.337 C  
HETATM    6  O   UNL     1     -10.324  19.152  65.369  1.00  0.00    -0.396 OA 
HETATM    7  C   UNL     1     -10.539  18.531  67.681  1.00  0.00    -0.450 C  
HETATM    8  C   UNL     1      -9.015  17.236  66.094  1.00  0.00    -0.189 C  
HETATM    9  H   UNL     1     -11.030  18.547  65.173  1.00  0.00     0.000 HD 
BRANCH   8  10
HETATM   10  C   UNL     1     -10.020  16.134  65.916  1.00  0.00    -0.384 C  
HETATM   11  C   UNL     1      -9.706  14.830  65.840  1.00  0.00    -0.355 C  
BRANCH  11  12
HETATM   12  C   UNL     1     -10.674  13.688  65.663  1.00  0.00    -0.283 C  
HETATM   13  C   UNL     1     -12.107  14.131  66.004  1.00  0.00    -0.432 C  
HETATM   14  C   UNL     1     -13.010  13.104  65.348  1.00  0.00    -0.095 C  
HETATM   15  O   UNL     1     -12.334  14.164  67.408  1.00  0.00    -0.567 OA 
HETATM   16  H   UNL     1     -13.219  14.438  67.620  1.00  0.00     0.000 HD 
HETATM   17  C   UNL     1     -12.220  12.721  64.137  1.00  0.00    -0.429 C  
HETATM   18  O   UNL     1     -12.729  12.178  63.163  1.00  0.00    -0.621 OA 
HETATM   19  C   UNL     1     -10.754  13.094  64.236  1.00  0.00    -0.431 C  
BRANCH  19  20
HETATM   20  C   UNL     1      -9.787  11.916  64.071  1.00  0.00    -0.259 C  
BRANCH  20  21
HETATM   21  C   UNL     1     -10.040  10.810  65.096  1.00  0.00    -0.363 C  
BRANCH  21  22
HETATM   22  C   UNL     1      -8.782  10.463  65.886  1.00  0.00    -0.170 C  
BRANCH  22  23
HETATM   23  C   UNL     1      -9.038  10.608  67.388  1.00  0.00    -0.146 C  
BRANCH  23  24
HETATM   24  C   UNL     1      -8.544  11.960  67.890  1.00  0.00    -0.162 C  
BRANCH  24  25
HETATM   25  C   UNL     1      -7.020  12.023  67.953  1.00  0.00    -0.095 C  
BRANCH  25  26
HETATM   26  C   UNL     1      -6.551  13.435  68.212  1.00  0.00    -0.105 C  
HETATM   27  O   UNL     1      -6.099  14.193  67.369  1.00  0.00    -0.343 OA 
BRANCH  26  28
HETATM   28  O   UNL     1      -6.709  13.742  69.529  1.00  0.00    -0.106 OA 
HETATM   29  C   UNL     1      -6.567  15.136  69.805  1.00  0.00    -0.177 C  
ENDBRANCH  26  28
ENDBRANCH  25  26
ENDBRANCH  24  25
ENDBRANCH  23  24
ENDBRANCH  22  23
ENDBRANCH  21  22
ENDBRANCH  20  21
ENDBRANCH  19  20
ENDBRANCH  11  12
ENDBRANCH   8  10
ENDBRANCH   3   4
ENDBRANCH   2   3
TORSDOF 12
ENDMDL
MODEL       86
REMARK 921   NORMALIZED FREE ENERGY PREDICTED BY IDOCK:   -4.61 KCAL/MOL
REMARK 922        TOTAL FREE ENERGY PREDICTED BY IDOCK:   -9.88 KCAL/MOL
REMARK 923 INTER-LIGAND FREE ENERGY PREDICTED BY IDOCK:   -8.15 KCAL/MOL
REMARK 924 INTRA-LIGAND FREE ENERGY PREDICTED BY IDOCK:   -1.73 KCAL/MOL
REMARK 927      BINDING AFFINITY PREDICTED BY RF-SCORE:    0.00 PKD
ROOT
HETATM    1  C   UNL     1     -10.396  16.603  67.031  1.00  0.00    -0.301 C  
HETATM    2  C   UNL     1     -10.791  16.682  68.499  1.00  0.00    -0.356 C  
ENDROOT
BRANCH   2   3
HETATM    3  C   UNL     1     -11.582  15.442  68.902  1.00  0.00    -0.369 C  
BRANCH   3   4
HETATM    4  C   UNL     1     -11.609  14.379  67.796  1.00  0.00    -0.384 C  
HETATM    5  C   UNL     1     -11.256  12.961  68.307  1.00  0.00    -0.270 C  
HETATM    6  O   UNL     1      -9.913  12.996  68.808  1.00  0.00    -0.395 OA 
HETATM    7  C   UNL     1     -11.302  11.963  67.140  1.00  0.00    -0.393 C  
HETATM    8  C   UNL     1     -12.214  12.546  69.453  1.00  0.00    -0.117 C  
HETATM    9  H   UNL     1      -9.696  12.126  69.121  1.00  0.00     0.000 HD 
BRANCH   8  10
HETATM   10  C   UNL     1     -12.091  11.129  69.936  1.00  0.00    -0.418 C  
HETATM   11  C   UNL     1     -12.274  10.747  71.211  1.00  0.00    -0.426 C  
BRANCH  11  12
HETATM   12  C   UNL     1     -12.163   9.342  71.745  1.00  0.00    -0.465 C  
HETATM   13  C   UNL     1     -13.534   8.645  71.735  1.00  0.00    -0.382 C  
HETATM   14  C   UNL     1     -13.230   7.162  71.820  1.00  0.00    -0.355 C  
HETATM   15  O   UNL     1     -14.345   9.048  72.833  1.00  0.00    -1.047 OA 
HETATM   16  H   UNL     1     -15.192   8.618  72.826  1.00  0.00     0.000 HD 
HETATM   17  C   UNL     1     -11.926   7.068  71.092  1.00  0.00    -0.356 C  
HETATM   18  O   UNL     1     -11.501   6.013  70.637  1.00  0.00    -0.299 OA 
HETATM   19  C   UNL     1     -11.216   8.401  70.964  1.00  0.00    -0.304 C  
BRANCH  19  20
HETATM   20  C   UNL     1      -9.801   8.425  71.553  1.00  0.00    -0.274 C  
BRANCH  20  21
HETATM   21  C   UNL     1      -8.812   9.171  70.656  1.00  0.00    -0.278 C  
BRANCH  21  22
HETATM   22  C   UNL     1      -8.585   8.449  69.332  1.00  0.00    -0.129 C  
BRANCH  22  23
HETATM   23  C   UNL     1      -7.647   7.256  69.528  1.00  0.00    -0.100 C  
BRANCH  23  24
HETATM   24  C   UNL     1      -8.193   6.021  68.820  1.00  0.00    -0.104 C  
BRANCH  24  25
HETATM   25  C   UNL     1      -7.696   5.921  67.381  1.00  0.00    -0.097 C  
BRANCH  25  26
HETATM   26  C   UNL     1      -8.815   6.197  66.405  1.00  0.00    -0.141 C  
HETATM   27  O   UNL     1     -10.001   6.255  66.691  1.00  0.00    -0.166 OA 
BRANCH  26  28
HETATM   28  O   UNL     1      -8.307   6.375  65.155  1.00  0.00    -0.142 OA 
HETATM   29  C   UNL     1      -7.375   7.452  65.072  1.00  0.00    -0.078 C  
ENDBRANCH  26  28
ENDBRANCH  25  26
ENDBRANCH  24  25
ENDBRANCH  23  24
ENDBRANCH  22  23
ENDBRANCH  21  22
ENDBRANCH  20  21
ENDBRANCH  19  20
ENDBRANCH  11  12
ENDBRANCH   8  10
ENDBRANCH   3   4
ENDBRANCH   2   3
TORSDOF 12
ENDMDL
MODEL       87
REMARK 921   NORMALIZED FREE ENERGY PREDICTED BY IDOCK:   -4.60 KCAL/MOL
REMARK 922        TOTAL FREE ENERGY PREDICTED BY IDOCK:   -9.86 KCAL/MOL
REMARK 923 INTER-LIGAND FREE ENERGY PREDICTED BY IDOCK:   -8.44 KCAL/MOL
REMARK 924 INTRA-LIGAND FREE ENERGY PREDICTED BY IDOCK:   -1.42 KCAL/MOL
REMARK 927      BINDING AFFINITY PREDICTED BY RF-SCORE:    0.00 PKD
ROOT
HETATM    1  C   UNL     1     -13.051   9.512  72.439  1.00  0.00    -0.430 C  
HETATM    2  C   UNL     1     -11.783   8.786  72.013  1.00  0.00    -0.442 C  
ENDROOT
BRANCH   2   3
HETATM    3  C   UNL     1     -11.783   8.560  70.505  1.00  0.00    -0.082 C  
BRANCH   3   4
HETATM    4  C   UNL     1     -10.486   9.039  69.839  1.00  0.00    -0.226 C  
HETATM    5  C   UNL     1     -10.688  10.279  68.935  1.00  0.00    -0.227 C  
HETATM    6  O   UNL     1     -11.580   9.910  67.875  1.00  0.00    -0.583 OA 
HETATM    7  C   UNL     1      -9.347  10.688  68.308  1.00  0.00    -0.156 C  
HETATM    8  C   UNL     1     -11.318  11.441  69.745  1.00  0.00    -0.332 C  
HETATM    9  H   UNL     1     -11.704  10.670  67.320  1.00  0.00     0.000 HD 
BRANCH   8  10
HETATM   10  C   UNL     1     -11.422  12.761  69.035  1.00  0.00    -0.360 C  
HETATM   11  C   UNL     1     -10.535  13.761  69.167  1.00  0.00    -0.044 C  
BRANCH  11  12
HETATM   12  C   UNL     1     -10.594  15.100  68.478  1.00  0.00    -0.237 C  
HETATM   13  C   UNL     1     -11.036  16.199  69.460  1.00  0.00    -0.341 C  
HETATM   14  C   UNL     1     -10.602  17.505  68.822  1.00  0.00    -0.241 C  
HETATM   15  O   UNL     1     -12.443  16.193  69.668  1.00  0.00    -0.423 OA 
HETATM   16  H   UNL     1     -12.716  16.872  70.275  1.00  0.00     0.000 HD 
HETATM   17  C   UNL     1      -9.364  17.098  68.088  1.00  0.00    -0.264 C  
HETATM   18  O   UNL     1      -8.519  17.907  67.723  1.00  0.00    -0.235 OA 
HETATM   19  C   UNL     1      -9.262  15.601  67.872  1.00  0.00    -0.190 C  
BRANCH  19  20
HETATM   20  C   UNL     1      -9.128  15.179  66.404  1.00  0.00    -0.331 C  
BRANCH  20  21
HETATM   21  C   UNL     1     -10.349  14.403  65.910  1.00  0.00    -0.327 C  
BRANCH  21  22
HETATM   22  C   UNL     1     -11.256  15.260  65.034  1.00  0.00    -0.409 C  
BRANCH  22  23
HETATM   23  C   UNL     1     -12.404  14.419  64.471  1.00  0.00    -0.440 C  
BRANCH  23  24
HETATM   24  C   UNL     1     -11.878  13.382  63.485  1.00  0.00    -0.399 C  
BRANCH  24  25
HETATM   25  C   UNL     1     -11.935  11.969  64.057  1.00  0.00    -0.499 C  
BRANCH  25  26
HETATM   26  C   UNL     1     -10.611  11.263  63.879  1.00  0.00    -0.391 C  
HETATM   27  O   UNL     1      -9.827  11.457  62.964  1.00  0.00    -0.353 OA 
BRANCH  26  28
HETATM   28  O   UNL     1     -10.418  10.377  64.893  1.00  0.00    -0.263 OA 
HETATM   29  C   UNL     1      -9.073   9.906  64.983  1.00  0.00    -0.218 C  
ENDBRANCH  26  28
ENDBRANCH  25  26
ENDBRANCH  24  25
ENDBRANCH  23  24
ENDBRANCH  22  23
ENDBRANCH  21  22
ENDBRANCH  20  21
ENDBRANCH  19  20
ENDBRANCH  11  12
ENDBRANCH   8  10
ENDBRANCH   3   4
ENDBRANCH   2   3
TORSDOF 12
ENDMDL
MODEL       88
REMARK 921   NORMALIZED FREE ENERGY PREDICTED BY IDOCK:   -4.55 KCAL/MOL
REMARK 922        TOTAL FREE ENERGY PREDICTED BY IDOCK:   -9.78 KCAL/MOL
REMARK 923 INTER-LIGAND FREE ENERGY PREDICTED BY IDOCK:   -8.62 KCAL/MOL
REMARK 924 INTRA-LIGAND FREE ENERGY PREDICTED BY IDOCK:   -1.16 KCAL/MOL
REMARK 927      BINDING AFFINITY PREDICTED BY RF-SCORE:    0.00 PKD
ROOT
HETATM    1  C   UNL     1      -7.128   5.500  73.754  1.00  0.00    -0.086 C  
HETATM    2  C   UNL     1      -8.647   5.603  73.726  1.00  0.00    -0.119 C  
ENDROOT
BRANCH   2   3
HETATM    3  C   UNL     1      -9.100   6.421  72.521  1.00  0.00    -0.136 C  
BRANCH   3   4
HETATM    4  C   UNL     1     -10.533   6.084  72.089  1.00  0.00    -0.246 C  
HETATM    5  C   UNL     1     -11.469   7.317  72.069  1.00  0.00    -0.269 C  
HETATM    6  O   UNL     1     -11.553   7.826  73.407  1.00  0.00    -0.623 OA 
HETATM    7  C   UNL     1     -12.878   6.892  71.632  1.00  0.00    -0.383 C  
HETATM    8  C   UNL     1     -10.890   8.417  71.144  1.00  0.00    -0.286 C  
HETATM    9  H   UNL     1     -12.127   8.583  73.395  1.00  0.00     0.000 HD 
BRANCH   8  10
HETATM   10  C   UNL     1     -11.774   9.608  70.902  1.00  0.00    -0.412 C  
HETATM   11  C   UNL     1     -11.327  10.814  70.514  1.00  0.00    -0.289 C  
BRANCH  11  12
HETATM   12  C   UNL     1     -12.169  12.038  70.258  1.00  0.00    -0.348 C  
HETATM   13  C   UNL     1     -12.447  12.791  71.570  1.00  0.00    -0.038 C  
HETATM   14  C   UNL     1     -12.856  14.190  71.149  1.00  0.00    -0.431 C  
HETATM   15  O   UNL     1     -13.486  12.179  72.326  1.00  0.00    -0.583 OA 
HETATM   16  H   UNL     1     -13.658  12.644  73.136  1.00  0.00     0.000 HD 
HETATM   17  C   UNL     1     -12.059  14.386  69.899  1.00  0.00    -0.344 C  
HETATM   18  O   UNL     1     -11.832  15.495  69.430  1.00  0.00    -0.343 OA 
HETATM   19  C   UNL     1     -11.554  13.087  69.302  1.00  0.00    -0.367 C  
BRANCH  19  20
HETATM   20  C   UNL     1     -11.991  12.841  67.854  1.00  0.00    -0.320 C  
BRANCH  20  21
HETATM   21  C   UNL     1     -11.172  13.659  66.854  1.00  0.00    -0.326 C  
BRANCH  21  22
HETATM   22  C   UNL     1      -9.672  13.484  67.064  1.00  0.00    -0.251 C  
BRANCH  22  23
HETATM   23  C   UNL     1      -8.980  14.848  67.136  1.00  0.00    -0.230 C  
BRANCH  23  24
HETATM   24  C   UNL     1      -9.582  15.810  66.119  1.00  0.00    -0.364 C  
BRANCH  24  25
HETATM   25  C   UNL     1      -9.952  17.150  66.749  1.00  0.00    -0.291 C  
BRANCH  25  26
HETATM   26  C   UNL     1      -8.892  18.187  66.464  1.00  0.00    -0.271 C  
HETATM   27  O   UNL     1      -7.994  18.072  65.645  1.00  0.00    -0.514 OA 
BRANCH  26  28
HETATM   28  O   UNL     1      -9.085  19.277  67.257  1.00  0.00    -0.289 OA 
HETATM   29  C   UNL     1     -10.144  20.122  66.808  1.00  0.00    -0.457 C  
ENDBRANCH  26  28
ENDBRANCH  25  26
ENDBRANCH  24  25
ENDBRANCH  23  24
ENDBRANCH  22  23
ENDBRANCH  21  22
ENDBRANCH  20  21
ENDBRANCH  19  20
ENDBRANCH  11  12
ENDBRANCH   8  10
ENDBRANCH   3   4
ENDBRANCH   2   3
TORSDOF 12
ENDMDL
MODEL       89
REMARK 921   NORMALIZED FREE ENERGY PREDICTED BY IDOCK:   -4.53 KCAL/MOL
REMARK 922        TOTAL FREE ENERGY PREDICTED BY IDOCK:   -9.75 KCAL/MOL
REMARK 923 INTER-LIGAND FREE ENERGY PREDICTED BY IDOCK:   -8.34 KCAL/MOL
REMARK 924 INTRA-LIGAND FREE ENERGY PREDICTED BY IDOCK:   -1.41 KCAL/MOL
REMARK 927      BINDING AFFINITY PREDICTED BY RF-SCORE:    0.00 PKD
ROOT
HETATM    1  C   UNL     1      -7.447   7.076  69.110  1.00  0.00    -0.095 C  
HETATM    2  C   UNL     1      -8.814   6.599  69.581  1.00  0.00    -0.143 C  
ENDROOT
BRANCH   2   3
HETATM    3  C   UNL     1      -9.824   7.740  69.516  1.00  0.00    -0.179 C  
BRANCH   3   4
HETATM    4  C   UNL     1     -11.048   7.492  70.408  1.00  0.00    -0.277 C  
HETATM    5  C   UNL     1     -11.471   8.740  71.220  1.00  0.00    -0.292 C  
HETATM    6  O   UNL     1     -10.388   9.083  72.095  1.00  0.00    -0.316 OA 
HETATM    7  C   UNL     1     -12.695   8.405  72.086  1.00  0.00    -0.399 C  
HETATM    8  C   UNL     1     -11.752   9.932  70.270  1.00  0.00    -0.286 C  
HETATM    9  H   UNL     1     -10.648   9.849  72.594  1.00  0.00     0.000 HD 
BRANCH   8  10
HETATM   10  C   UNL     1     -12.328  11.164  70.908  1.00  0.00    -0.500 C  
HETATM   11  C   UNL     1     -12.220  12.401  70.396  1.00  0.00    -0.370 C  
BRANCH  11  12
HETATM   12  C   UNL     1     -12.779  13.666  70.995  1.00  0.00    -0.408 C  
HETATM   13  C   UNL     1     -13.136  13.456  72.477  1.00  0.00    -0.319 C  
HETATM   14  C   UNL     1     -13.216  14.849  73.071  1.00  0.00    -0.596 C  
HETATM   15  O   UNL     1     -14.378  12.779  72.635  1.00  0.00    -0.579 OA 
HETATM   16  H   UNL     1     -14.598  12.648  73.550  1.00  0.00     0.000 HD 
HETATM   17  C   UNL     1     -12.199  15.592  72.264  1.00  0.00    -0.415 C  
HETATM   18  O   UNL     1     -11.705  16.649  72.639  1.00  0.00    -0.486 OA 
HETATM   19  C   UNL     1     -11.838  14.893  70.968  1.00  0.00    -0.380 C  
BRANCH  19  20
HETATM   20  C   UNL     1     -12.063  15.736  69.708  1.00  0.00    -0.298 C  
BRANCH  20  21
HETATM   21  C   UNL     1     -10.749  16.212  69.086  1.00  0.00    -0.292 C  
BRANCH  21  22
HETATM   22  C   UNL     1      -9.547  15.456  69.641  1.00  0.00    -0.233 C  
BRANCH  22  23
HETATM   23  C   UNL     1      -8.527  15.187  68.532  1.00  0.00    -0.160 C  
BRANCH  23  24
HETATM   24  C   UNL     1      -8.561  13.722  68.114  1.00  0.00    -0.175 C  
BRANCH  24  25
HETATM   25  C   UNL     1      -9.354  13.513  66.827  1.00  0.00    -0.262 C  
BRANCH  25  26
HETATM   26  C   UNL     1      -9.094  12.141  66.253  1.00  0.00    -0.141 C  
HETATM   27  O   UNL     1      -8.131  11.438  66.513  1.00  0.00    -0.165 OA 
BRANCH  26  28
HETATM   28  O   UNL     1     -10.097  11.798  65.399  1.00  0.00    -0.238 OA 
HETATM   29  C   UNL     1     -10.006  10.452  64.931  1.00  0.00    -0.339 C  
ENDBRANCH  26  28
ENDBRANCH  25  26
ENDBRANCH  24  25
ENDBRANCH  23  24
ENDBRANCH  22  23
ENDBRANCH  21  22
ENDBRANCH  20  21
ENDBRANCH  19  20
ENDBRANCH  11  12
ENDBRANCH   8  10
ENDBRANCH   3   4
ENDBRANCH   2   3
TORSDOF 12
ENDMDL
MODEL       90
REMARK 921   NORMALIZED FREE ENERGY PREDICTED BY IDOCK:   -4.52 KCAL/MOL
REMARK 922        TOTAL FREE ENERGY PREDICTED BY IDOCK:   -9.73 KCAL/MOL
REMARK 923 INTER-LIGAND FREE ENERGY PREDICTED BY IDOCK:   -8.68 KCAL/MOL
REMARK 924 INTRA-LIGAND FREE ENERGY PREDICTED BY IDOCK:   -1.06 KCAL/MOL
REMARK 927      BINDING AFFINITY PREDICTED BY RF-SCORE:    0.00 PKD
ROOT
HETATM    1  C   UNL     1      -7.009   4.783  68.575  1.00  0.00    -0.056 C  
HETATM    2  C   UNL     1      -8.292   5.408  69.105  1.00  0.00    -0.097 C  
ENDROOT
BRANCH   2   3
HETATM    3  C   UNL     1      -8.385   6.869  68.678  1.00  0.00    -0.121 C  
BRANCH   3   4
HETATM    4  C   UNL     1      -7.825   7.106  67.269  1.00  0.00    -0.111 C  
HETATM    5  C   UNL     1      -8.792   7.897  66.356  1.00  0.00    -0.158 C  
HETATM    6  O   UNL     1      -9.985   7.117  66.197  1.00  0.00    -0.436 OA 
HETATM    7  C   UNL     1      -8.159   8.085  64.969  1.00  0.00    -0.145 C  
HETATM    8  C   UNL     1      -9.158   9.255  67.006  1.00  0.00    -0.153 C  
HETATM    9  H   UNL     1     -10.578   7.602  65.636  1.00  0.00     0.000 HD 
BRANCH   8  10
HETATM   10  C   UNL     1      -9.962  10.199  66.157  1.00  0.00    -0.310 C  
HETATM   11  C   UNL     1      -9.481  11.335  65.627  1.00  0.00    -0.254 C  
BRANCH  11  12
HETATM   12  C   UNL     1     -10.243  12.313  64.771  1.00  0.00    -0.308 C  
HETATM   13  C   UNL     1     -11.303  11.585  63.925  1.00  0.00    -0.312 C  
HETATM   14  C   UNL     1     -12.285  12.661  63.502  1.00  0.00    -0.638 C  
HETATM   15  O   UNL     1     -10.733  10.958  62.781  1.00  0.00    -0.772 OA 
HETATM   16  H   UNL     1     -11.387  10.509  62.259  1.00  0.00     0.000 HD 
HETATM   17  C   UNL     1     -12.240  13.600  64.665  1.00  0.00    -0.409 C  
HETATM   18  O   UNL     1     -13.126  14.418  64.885  1.00  0.00    -0.593 OA 
HETATM   19  C   UNL     1     -11.013  13.416  65.535  1.00  0.00    -0.294 C  
BRANCH  19  20
HETATM   20  C   UNL     1     -10.156  14.676  65.700  1.00  0.00    -0.389 C  
BRANCH  20  21
HETATM   21  C   UNL     1      -8.948  14.442  66.608  1.00  0.00    -0.232 C  
BRANCH  21  22
HETATM   22  C   UNL     1      -9.362  14.125  68.041  1.00  0.00    -0.203 C  
BRANCH  22  23
HETATM   23  C   UNL     1     -10.363  15.166  68.549  1.00  0.00    -0.230 C  
BRANCH  23  24
HETATM   24  C   UNL     1     -10.182  15.400  70.044  1.00  0.00    -0.265 C  
BRANCH  24  25
HETATM   25  C   UNL     1     -11.370  16.140  70.654  1.00  0.00    -0.394 C  
BRANCH  25  26
HETATM   26  C   UNL     1     -12.011  15.317  71.746  1.00  0.00    -0.385 C  
HETATM   27  O   UNL     1     -12.270  14.126  71.672  1.00  0.00    -0.314 OA 
BRANCH  26  28
HETATM   28  O   UNL     1     -12.259  16.099  72.832  1.00  0.00    -0.469 OA 
HETATM   29  C   UNL     1     -12.227  15.380  74.065  1.00  0.00    -0.630 C  
ENDBRANCH  26  28
ENDBRANCH  25  26
ENDBRANCH  24  25
ENDBRANCH  23  24
ENDBRANCH  22  23
ENDBRANCH  21  22
ENDBRANCH  20  21
ENDBRANCH  19  20
ENDBRANCH  11  12
ENDBRANCH   8  10
ENDBRANCH   3   4
ENDBRANCH   2   3
TORSDOF 12
ENDMDL
MODEL       91
REMARK 921   NORMALIZED FREE ENERGY PREDICTED BY IDOCK:   -4.50 KCAL/MOL
REMARK 922        TOTAL FREE ENERGY PREDICTED BY IDOCK:   -9.70 KCAL/MOL
REMARK 923 INTER-LIGAND FREE ENERGY PREDICTED BY IDOCK:   -8.29 KCAL/MOL
REMARK 924 INTRA-LIGAND FREE ENERGY PREDICTED BY IDOCK:   -1.41 KCAL/MOL
REMARK 927      BINDING AFFINITY PREDICTED BY RF-SCORE:    0.00 PKD
ROOT
HETATM    1  C   UNL     1     -11.757   6.331  72.102  1.00  0.00    -0.368 C  
HETATM    2  C   UNL     1     -11.050   5.626  70.953  1.00  0.00    -0.200 C  
ENDROOT
BRANCH   2   3
HETATM    3  C   UNL     1     -11.202   6.429  69.665  1.00  0.00    -0.483 C  
BRANCH   3   4
HETATM    4  C   UNL     1      -9.986   7.320  69.383  1.00  0.00    -0.170 C  
HETATM    5  C   UNL     1     -10.369   8.772  69.009  1.00  0.00    -0.213 C  
HETATM    6  O   UNL     1     -11.134   8.727  67.796  1.00  0.00    -0.485 OA 
HETATM    7  C   UNL     1      -9.099   9.591  68.738  1.00  0.00    -0.133 C  
HETATM    8  C   UNL     1     -11.232   9.408  70.128  1.00  0.00    -0.253 C  
HETATM    9  H   UNL     1     -11.370   9.618  67.566  1.00  0.00     0.000 HD 
BRANCH   8  10
HETATM   10  C   UNL     1     -11.542  10.870  69.974  1.00  0.00    -0.424 C  
HETATM   11  C   UNL     1     -12.395  11.548  70.759  1.00  0.00    -0.472 C  
BRANCH  11  12
HETATM   12  C   UNL     1     -12.740  13.011  70.646  1.00  0.00    -0.175 C  
HETATM   13  C   UNL     1     -12.846  13.655  72.039  1.00  0.00    -0.270 C  
HETATM   14  C   UNL     1     -12.712  15.147  71.803  1.00  0.00    -0.423 C  
HETATM   15  O   UNL     1     -14.090  13.364  72.667  1.00  0.00    -0.767 OA 
HETATM   16  H   UNL     1     -14.156  13.761  73.528  1.00  0.00     0.000 HD 
HETATM   17  C   UNL     1     -11.798  15.194  70.620  1.00  0.00    -0.325 C  
HETATM   18  O   UNL     1     -11.165  16.199  70.317  1.00  0.00    -0.356 OA 
HETATM   19  C   UNL     1     -11.725  13.881  69.867  1.00  0.00    -0.358 C  
BRANCH  19  20
HETATM   20  C   UNL     1     -12.102  13.977  68.384  1.00  0.00    -0.318 C  
BRANCH  20  21
HETATM   21  C   UNL     1     -11.632  12.760  67.586  1.00  0.00    -0.412 C  
BRANCH  21  22
HETATM   22  C   UNL     1     -10.745  13.154  66.410  1.00  0.00    -0.293 C  
BRANCH  22  23
HETATM   23  C   UNL     1      -9.337  12.582  66.589  1.00  0.00    -0.236 C  
BRANCH  23  24
HETATM   24  C   UNL     1      -8.673  13.168  67.830  1.00  0.00    -0.188 C  
BRANCH  24  25
HETATM   25  C   UNL     1      -8.127  14.571  67.578  1.00  0.00    -0.204 C  
BRANCH  25  26
HETATM   26  C   UNL     1      -6.735  14.716  68.144  1.00  0.00    -0.131 C  
HETATM   27  O   UNL     1      -5.699  14.553  67.519  1.00  0.00    -0.343 OA 
BRANCH  26  28
HETATM   28  O   UNL     1      -6.802  15.058  69.459  1.00  0.00    -0.147 OA 
HETATM   29  C   UNL     1      -5.849  14.373  70.271  1.00  0.00    -0.146 C  
ENDBRANCH  26  28
ENDBRANCH  25  26
ENDBRANCH  24  25
ENDBRANCH  23  24
ENDBRANCH  22  23
ENDBRANCH  21  22
ENDBRANCH  20  21
ENDBRANCH  19  20
ENDBRANCH  11  12
ENDBRANCH   8  10
ENDBRANCH   3   4
ENDBRANCH   2   3
TORSDOF 12
ENDMDL
MODEL       92
REMARK 921   NORMALIZED FREE ENERGY PREDICTED BY IDOCK:   -4.49 KCAL/MOL
REMARK 922        TOTAL FREE ENERGY PREDICTED BY IDOCK:   -9.68 KCAL/MOL
REMARK 923 INTER-LIGAND FREE ENERGY PREDICTED BY IDOCK:   -8.41 KCAL/MOL
REMARK 924 INTRA-LIGAND FREE ENERGY PREDICTED BY IDOCK:   -1.27 KCAL/MOL
REMARK 927      BINDING AFFINITY PREDICTED BY RF-SCORE:    0.00 PKD
ROOT
HETATM    1  C   UNL     1     -11.852   7.250  71.713  1.00  0.00    -0.330 C  
HETATM    2  C   UNL     1     -11.003   6.084  71.225  1.00  0.00    -0.340 C  
ENDROOT
BRANCH   2   3
HETATM    3  C   UNL     1      -9.692   6.595  70.637  1.00  0.00    -0.183 C  
BRANCH   3   4
HETATM    4  C   UNL     1      -9.487   6.147  69.183  1.00  0.00    -0.144 C  
HETATM    5  C   UNL     1     -10.229   7.041  68.161  1.00  0.00    -0.181 C  
HETATM    6  O   UNL     1     -11.635   6.941  68.427  1.00  0.00    -0.421 OA 
HETATM    7  C   UNL     1      -9.976   6.522  66.738  1.00  0.00    -0.224 C  
HETATM    8  C   UNL     1      -9.788   8.519  68.318  1.00  0.00    -0.190 C  
HETATM    9  H   UNL     1     -12.090   7.490  67.800  1.00  0.00     0.000 HD 
BRANCH   8  10
HETATM   10  C   UNL     1     -10.307   9.477  67.283  1.00  0.00    -0.319 C  
HETATM   11  C   UNL     1      -9.621  10.536  66.823  1.00  0.00    -0.205 C  
BRANCH  11  12
HETATM   12  C   UNL     1     -10.095  11.524  65.788  1.00  0.00    -0.278 C  
HETATM   13  C   UNL     1     -10.535  10.799  64.504  1.00  0.00    -0.281 C  
HETATM   14  C   UNL     1     -11.408  11.793  63.762  1.00  0.00    -0.524 C  
HETATM   15  O   UNL     1      -9.425  10.419  63.699  1.00  0.00    -0.264 OA 
HETATM   16  H   UNL     1      -9.697   9.971  62.907  1.00  0.00     0.000 HD 
HETATM   17  C   UNL     1     -12.039  12.553  64.885  1.00  0.00    -0.440 C  
HETATM   18  O   UNL     1     -13.062  13.213  64.741  1.00  0.00    -0.728 OA 
HETATM   19  C   UNL     1     -11.301  12.401  66.200  1.00  0.00    -0.398 C  
BRANCH  19  20
HETATM   20  C   UNL     1     -10.837  13.721  66.826  1.00  0.00    -0.284 C  
BRANCH  20  21
HETATM   21  C   UNL     1      -9.688  14.361  66.045  1.00  0.00    -0.320 C  
BRANCH  21  22
HETATM   22  C   UNL     1      -8.796  15.215  66.938  1.00  0.00    -0.284 C  
BRANCH  22  23
HETATM   23  C   UNL     1      -9.107  16.701  66.739  1.00  0.00    -0.261 C  
BRANCH  23  24
HETATM   24  C   UNL     1      -9.460  17.359  68.068  1.00  0.00    -0.281 C  
BRANCH  24  25
HETATM   25  C   UNL     1     -10.903  17.080  68.478  1.00  0.00    -0.310 C  
BRANCH  25  26
HETATM   26  C   UNL     1     -10.958  16.060  69.590  1.00  0.00    -0.326 C  
HETATM   27  O   UNL     1      -9.997  15.655  70.224  1.00  0.00    -0.200 OA 
BRANCH  26  28
HETATM   28  O   UNL     1     -12.243  15.655  69.785  1.00  0.00    -0.360 OA 
HETATM   29  C   UNL     1     -12.445  15.000  71.038  1.00  0.00    -0.338 C  
ENDBRANCH  26  28
ENDBRANCH  25  26
ENDBRANCH  24  25
ENDBRANCH  23  24
ENDBRANCH  22  23
ENDBRANCH  21  22
ENDBRANCH  20  21
ENDBRANCH  19  20
ENDBRANCH  11  12
ENDBRANCH   8  10
ENDBRANCH   3   4
ENDBRANCH   2   3
TORSDOF 12
ENDMDL
MODEL       93
REMARK 921   NORMALIZED FREE ENERGY PREDICTED BY IDOCK:   -4.46 KCAL/MOL
REMARK 922        TOTAL FREE ENERGY PREDICTED BY IDOCK:   -9.63 KCAL/MOL
REMARK 923 INTER-LIGAND FREE ENERGY PREDICTED BY IDOCK:   -8.19 KCAL/MOL
REMARK 924 INTRA-LIGAND FREE ENERGY PREDICTED BY IDOCK:   -1.44 KCAL/MOL
REMARK 927      BINDING AFFINITY PREDICTED BY RF-SCORE:    0.00 PKD
ROOT
HETATM    1  C   UNL     1     -10.238  18.067  66.478  1.00  0.00    -0.383 C  
HETATM    2  C   UNL     1     -10.533  16.583  66.642  1.00  0.00    -0.266 C  
ENDROOT
BRANCH   2   3
HETATM    3  C   UNL     1     -10.429  15.870  65.298  1.00  0.00    -0.403 C  
BRANCH   3   4
HETATM    4  C   UNL     1     -11.510  14.795  65.118  1.00  0.00    -0.371 C  
HETATM    5  C   UNL     1     -10.927  13.377  64.907  1.00  0.00    -0.342 C  
HETATM    6  O   UNL     1     -10.159  13.393  63.695  1.00  0.00    -0.526 OA 
HETATM    7  C   UNL     1     -12.071  12.367  64.731  1.00  0.00    -0.483 C  
HETATM    8  C   UNL     1     -10.000  12.993  66.088  1.00  0.00    -0.278 C  
HETATM    9  H   UNL     1      -9.802  12.523  63.565  1.00  0.00     0.000 HD 
BRANCH   8  10
HETATM   10  C   UNL     1      -9.492  11.579  66.096  1.00  0.00    -0.239 C  
HETATM   11  C   UNL     1     -10.009  10.595  66.851  1.00  0.00    -0.245 C  
BRANCH  11  12
HETATM   12  C   UNL     1      -9.537   9.164  66.895  1.00  0.00    -0.233 C  
HETATM   13  C   UNL     1      -8.485   8.903  65.803  1.00  0.00    -0.145 C  
HETATM   14  C   UNL     1      -7.761   7.643  66.238  1.00  0.00    -0.089 C  
HETATM   15  O   UNL     1      -9.079   8.715  64.524  1.00  0.00    -0.405 OA 
HETATM   16  H   UNL     1      -8.429   8.555  63.850  1.00  0.00     0.000 HD 
HETATM   17  C   UNL     1      -7.818   7.749  67.729  1.00  0.00    -0.123 C  
HETATM   18  O   UNL     1      -7.063   7.122  68.463  1.00  0.00    -0.076 OA 
HETATM   19  C   UNL     1      -8.876   8.716  68.220  1.00  0.00    -0.142 C  
BRANCH  19  20
HETATM   20  C   UNL     1      -9.907   8.100  69.173  1.00  0.00    -0.182 C  
BRANCH  20  21
HETATM   21  C   UNL     1     -10.667   6.938  68.532  1.00  0.00    -0.252 C  
BRANCH  21  22
HETATM   22  C   UNL     1     -11.282   6.012  69.576  1.00  0.00    -0.416 C  
BRANCH  22  23
HETATM   23  C   UNL     1     -10.789   6.384  70.976  1.00  0.00    -0.314 C  
BRANCH  23  24
HETATM   24  C   UNL     1     -11.962   6.724  71.887  1.00  0.00    -0.374 C  
BRANCH  24  25
HETATM   25  C   UNL     1     -11.810   8.102  72.525  1.00  0.00    -0.438 C  
BRANCH  25  26
HETATM   26  C   UNL     1     -12.557   9.147  71.731  1.00  0.00    -0.370 C  
HETATM   27  O   UNL     1     -13.739   9.095  71.432  1.00  0.00    -0.365 OA 
BRANCH  26  28
HETATM   28  O   UNL     1     -11.716  10.163  71.396  1.00  0.00    -0.360 OA 
HETATM   29  C   UNL     1     -12.210  10.979  70.334  1.00  0.00    -0.373 C  
ENDBRANCH  26  28
ENDBRANCH  25  26
ENDBRANCH  24  25
ENDBRANCH  23  24
ENDBRANCH  22  23
ENDBRANCH  21  22
ENDBRANCH  20  21
ENDBRANCH  19  20
ENDBRANCH  11  12
ENDBRANCH   8  10
ENDBRANCH   3   4
ENDBRANCH   2   3
TORSDOF 12
ENDMDL
MODEL       94
REMARK 921   NORMALIZED FREE ENERGY PREDICTED BY IDOCK:   -4.45 KCAL/MOL
REMARK 922        TOTAL FREE ENERGY PREDICTED BY IDOCK:   -9.61 KCAL/MOL
REMARK 923 INTER-LIGAND FREE ENERGY PREDICTED BY IDOCK:   -8.18 KCAL/MOL
REMARK 924 INTRA-LIGAND FREE ENERGY PREDICTED BY IDOCK:   -1.44 KCAL/MOL
REMARK 927      BINDING AFFINITY PREDICTED BY RF-SCORE:    0.00 PKD
ROOT
HETATM    1  C   UNL     1     -11.270   4.720  73.218  1.00  0.00    -0.421 C  
HETATM    2  C   UNL     1     -11.750   5.803  72.262  1.00  0.00    -0.265 C  
ENDROOT
BRANCH   2   3
HETATM    3  C   UNL     1     -10.839   7.023  72.343  1.00  0.00    -0.272 C  
BRANCH   3   4
HETATM    4  C   UNL     1     -11.550   8.316  71.923  1.00  0.00    -0.377 C  
HETATM    5  C   UNL     1     -10.713   9.184  70.954  1.00  0.00    -0.275 C  
HETATM    6  O   UNL     1      -9.516   9.578  71.639  1.00  0.00    -0.244 OA 
HETATM    7  C   UNL     1     -11.493  10.455  70.589  1.00  0.00    -0.438 C  
HETATM    8  C   UNL     1     -10.329   8.367  69.694  1.00  0.00    -0.218 C  
HETATM    9  H   UNL     1      -9.002  10.111  71.044  1.00  0.00     0.000 HD 
BRANCH   8  10
HETATM   10  C   UNL     1      -9.651   9.132  68.592  1.00  0.00    -0.157 C  
HETATM   11  C   UNL     1     -10.093   9.182  67.325  1.00  0.00    -0.295 C  
BRANCH  11  12
HETATM   12  C   UNL     1      -9.452   9.933  66.186  1.00  0.00    -0.254 C  
HETATM   13  C   UNL     1      -8.660   8.976  65.280  1.00  0.00    -0.174 C  
HETATM   14  C   UNL     1      -8.483   9.718  63.969  1.00  0.00    -0.186 C  
HETATM   15  O   UNL     1      -7.392   8.644  65.834  1.00  0.00    -0.082 OA 
HETATM   16  H   UNL     1      -6.902   8.052  65.275  1.00  0.00     0.000 HD 
HETATM   17  C   UNL     1      -9.734  10.536  63.903  1.00  0.00    -0.325 C  
HETATM   18  O   UNL     1     -10.152  11.017  62.856  1.00  0.00    -0.282 OA 
HETATM   19  C   UNL     1     -10.426  10.681  65.244  1.00  0.00    -0.264 C  
BRANCH  19  20
HETATM   20  C   UNL     1     -10.633  12.130  65.699  1.00  0.00    -0.297 C  
BRANCH  20  21
HETATM   21  C   UNL     1     -12.112  12.515  65.753  1.00  0.00    -0.443 C  
BRANCH  21  22
HETATM   22  C   UNL     1     -12.306  14.009  65.987  1.00  0.00    -0.504 C  
BRANCH  22  23
HETATM   23  C   UNL     1     -12.111  14.783  64.681  1.00  0.00    -0.437 C  
BRANCH  23  24
HETATM   24  C   UNL     1     -10.914  15.722  64.786  1.00  0.00    -0.410 C  
BRANCH  24  25
HETATM   25  C   UNL     1     -10.508  15.969  66.237  1.00  0.00    -0.326 C  
BRANCH  25  26
HETATM   26  C   UNL     1      -9.066  16.410  66.323  1.00  0.00    -0.327 C  
HETATM   27  O   UNL     1      -8.583  17.362  65.730  1.00  0.00    -0.526 OA 
BRANCH  26  28
HETATM   28  O   UNL     1      -8.379  15.589  67.164  1.00  0.00    -0.179 OA 
HETATM   29  C   UNL     1      -9.220  14.690  67.887  1.00  0.00    -0.197 C  
ENDBRANCH  26  28
ENDBRANCH  25  26
ENDBRANCH  24  25
ENDBRANCH  23  24
ENDBRANCH  22  23
ENDBRANCH  21  22
ENDBRANCH  20  21
ENDBRANCH  19  20
ENDBRANCH  11  12
ENDBRANCH   8  10
ENDBRANCH   3   4
ENDBRANCH   2   3
TORSDOF 12
ENDMDL
MODEL       95
REMARK 921   NORMALIZED FREE ENERGY PREDICTED BY IDOCK:   -4.45 KCAL/MOL
REMARK 922        TOTAL FREE ENERGY PREDICTED BY IDOCK:   -9.61 KCAL/MOL
REMARK 923 INTER-LIGAND FREE ENERGY PREDICTED BY IDOCK:   -7.76 KCAL/MOL
REMARK 924 INTRA-LIGAND FREE ENERGY PREDICTED BY IDOCK:   -1.85 KCAL/MOL
REMARK 927      BINDING AFFINITY PREDICTED BY RF-SCORE:    0.00 PKD
ROOT
HETATM    1  C   UNL     1      -6.122   2.605  67.411  1.00  0.00    -0.027 C  
HETATM    2  C   UNL     1      -6.332   3.908  66.654  1.00  0.00    -0.036 C  
ENDROOT
BRANCH   2   3
HETATM    3  C   UNL     1      -7.169   4.875  67.485  1.00  0.00    -0.070 C  
BRANCH   3   4
HETATM    4  C   UNL     1      -6.968   6.337  67.065  1.00  0.00    -0.071 C  
HETATM    5  C   UNL     1      -8.287   7.145  67.024  1.00  0.00    -0.118 C  
HETATM    6  O   UNL     1      -9.138   6.548  66.036  1.00  0.00    -0.223 OA 
HETATM    7  C   UNL     1      -7.997   8.590  66.592  1.00  0.00    -0.100 C  
HETATM    8  C   UNL     1      -8.995   7.091  68.402  1.00  0.00    -0.122 C  
HETATM    9  H   UNL     1      -9.947   7.044  66.011  1.00  0.00     0.000 HD 
BRANCH   8  10
HETATM   10  C   UNL     1     -10.208   7.965  68.556  1.00  0.00    -0.229 C  
HETATM   11  C   UNL     1     -10.319   8.950  69.463  1.00  0.00    -0.213 C  
BRANCH  11  12
HETATM   12  C   UNL     1     -11.510   9.853  69.657  1.00  0.00    -0.160 C  
HETATM   13  C   UNL     1     -12.052   9.738  71.092  1.00  0.00    -0.370 C  
HETATM   14  C   UNL     1     -12.888  10.986  71.305  1.00  0.00    -0.528 C  
HETATM   15  O   UNL     1     -12.851   8.573  71.268  1.00  0.00    -0.433 OA 
HETATM   16  H   UNL     1     -13.186   8.502  72.154  1.00  0.00     0.000 HD 
HETATM   17  C   UNL     1     -12.168  11.991  70.463  1.00  0.00    -0.325 C  
HETATM   18  O   UNL     1     -12.307  13.199  70.617  1.00  0.00    -0.358 OA 
HETATM   19  C   UNL     1     -11.250  11.362  69.434  1.00  0.00    -0.333 C  
BRANCH  19  20
HETATM   20  C   UNL     1     -11.546  11.767  67.986  1.00  0.00    -0.386 C  
BRANCH  20  21
HETATM   21  C   UNL     1     -10.312  11.659  67.089  1.00  0.00    -0.247 C  
BRANCH  21  22
HETATM   22  C   UNL     1     -10.623  10.962  65.769  1.00  0.00    -0.230 C  
BRANCH  22  23
HETATM   23  C   UNL     1     -10.087  11.783  64.593  1.00  0.00    -0.310 C  
BRANCH  23  24
HETATM   24  C   UNL     1     -11.224  12.202  63.669  1.00  0.00    -0.540 C  
BRANCH  24  25
HETATM   25  C   UNL     1     -12.465  12.632  64.447  1.00  0.00    -0.509 C  
BRANCH  25  26
HETATM   26  C   UNL     1     -12.493  14.131  64.627  1.00  0.00    -0.350 C  
HETATM   27  O   UNL     1     -12.780  14.940  63.758  1.00  0.00    -0.754 OA 
BRANCH  26  28
HETATM   28  O   UNL     1     -12.154  14.452  65.905  1.00  0.00    -0.384 OA 
HETATM   29  C   UNL     1     -10.909  15.145  66.002  1.00  0.00    -0.335 C  
ENDBRANCH  26  28
ENDBRANCH  25  26
ENDBRANCH  24  25
ENDBRANCH  23  24
ENDBRANCH  22  23
ENDBRANCH  21  22
ENDBRANCH  20  21
ENDBRANCH  19  20
ENDBRANCH  11  12
ENDBRANCH   8  10
ENDBRANCH   3   4
ENDBRANCH   2   3
TORSDOF 12
ENDMDL
MODEL       96
REMARK 921   NORMALIZED FREE ENERGY PREDICTED BY IDOCK:   -4.43 KCAL/MOL
REMARK 922        TOTAL FREE ENERGY PREDICTED BY IDOCK:   -9.58 KCAL/MOL
REMARK 923 INTER-LIGAND FREE ENERGY PREDICTED BY IDOCK:   -7.62 KCAL/MOL
REMARK 924 INTRA-LIGAND FREE ENERGY PREDICTED BY IDOCK:   -1.96 KCAL/MOL
REMARK 927      BINDING AFFINITY PREDICTED BY RF-SCORE:    0.00 PKD
ROOT
HETATM    1  C   UNL     1     -10.371   5.477  71.746  1.00  0.00    -0.272 C  
HETATM    2  C   UNL     1     -11.708   6.140  72.046  1.00  0.00    -0.354 C  
ENDROOT
BRANCH   2   3
HETATM    3  C   UNL     1     -11.884   7.389  71.189  1.00  0.00    -0.330 C  
BRANCH   3   4
HETATM    4  C   UNL     1     -10.546   8.060  70.848  1.00  0.00    -0.233 C  
HETATM    5  C   UNL     1     -10.692   9.240  69.858  1.00  0.00    -0.234 C  
HETATM    6  O   UNL     1     -11.215   8.719  68.628  1.00  0.00    -0.395 OA 
HETATM    7  C   UNL     1      -9.312   9.848  69.568  1.00  0.00    -0.236 C  
HETATM    8  C   UNL     1     -11.677  10.297  70.419  1.00  0.00    -0.404 C  
HETATM    9  H   UNL     1     -11.304   9.443  68.019  1.00  0.00     0.000 HD 
BRANCH   8  10
HETATM   10  C   UNL     1     -11.792  11.574  69.636  1.00  0.00    -0.421 C  
HETATM   11  C   UNL     1     -12.028  12.777  70.185  1.00  0.00    -0.371 C  
BRANCH  11  12
HETATM   12  C   UNL     1     -12.151  14.085  69.446  1.00  0.00    -0.386 C  
HETATM   13  C   UNL     1     -11.824  15.268  70.374  1.00  0.00    -0.324 C  
HETATM   14  C   UNL     1     -11.513  16.429  69.448  1.00  0.00    -0.143 C  
HETATM   15  O   UNL     1     -12.916  15.594  71.226  1.00  0.00    -0.474 OA 
HETATM   16  H   UNL     1     -12.714  16.325  71.799  1.00  0.00     0.000 HD 
HETATM   17  C   UNL     1     -10.905  15.735  68.270  1.00  0.00    -0.305 C  
HETATM   18  O   UNL     1     -10.209  16.320  67.448  1.00  0.00    -0.262 OA 
HETATM   19  C   UNL     1     -11.222  14.253  68.220  1.00  0.00    -0.298 C  
BRANCH  19  20
HETATM   20  C   UNL     1     -11.916  13.795  66.932  1.00  0.00    -0.460 C  
BRANCH  20  21
HETATM   21  C   UNL     1     -10.997  12.950  66.049  1.00  0.00    -0.301 C  
BRANCH  21  22
HETATM   22  C   UNL     1      -9.561  12.939  66.562  1.00  0.00    -0.259 C  
BRANCH  22  23
HETATM   23  C   UNL     1      -8.891  11.600  66.243  1.00  0.00    -0.164 C  
BRANCH  23  24
HETATM   24  C   UNL     1      -9.938  10.514  66.024  1.00  0.00    -0.295 C  
BRANCH  24  25
HETATM   25  C   UNL     1      -9.440   9.422  65.080  1.00  0.00    -0.204 C  
BRANCH  25  26
HETATM   26  C   UNL     1      -8.698   8.350  65.842  1.00  0.00    -0.169 C  
HETATM   27  O   UNL     1      -8.724   8.200  67.053  1.00  0.00    -0.127 OA 
BRANCH  26  28
HETATM   28  O   UNL     1      -7.994   7.570  64.978  1.00  0.00    -0.120 OA 
HETATM   29  C   UNL     1      -7.193   6.584  65.630  1.00  0.00    -0.073 C  
ENDBRANCH  26  28
ENDBRANCH  25  26
ENDBRANCH  24  25
ENDBRANCH  23  24
ENDBRANCH  22  23
ENDBRANCH  21  22
ENDBRANCH  20  21
ENDBRANCH  19  20
ENDBRANCH  11  12
ENDBRANCH   8  10
ENDBRANCH   3   4
ENDBRANCH   2   3
TORSDOF 12
ENDMDL
MODEL       97
REMARK 921   NORMALIZED FREE ENERGY PREDICTED BY IDOCK:   -4.43 KCAL/MOL
REMARK 922        TOTAL FREE ENERGY PREDICTED BY IDOCK:   -9.57 KCAL/MOL
REMARK 923 INTER-LIGAND FREE ENERGY PREDICTED BY IDOCK:   -7.94 KCAL/MOL
REMARK 924 INTRA-LIGAND FREE ENERGY PREDICTED BY IDOCK:   -1.63 KCAL/MOL
REMARK 927      BINDING AFFINITY PREDICTED BY RF-SCORE:    0.00 PKD
ROOT
HETATM    1  C   UNL     1     -11.841  11.843  63.670  1.00  0.00    -0.573 C  
HETATM    2  C   UNL     1     -10.474  11.674  63.020  1.00  0.00    -0.256 C  
ENDROOT
BRANCH   2   3
HETATM    3  C   UNL     1      -9.536  10.913  63.951  1.00  0.00    -0.326 C  
BRANCH   3   4
HETATM    4  C   UNL     1     -10.210  10.524  65.274  1.00  0.00    -0.352 C  
HETATM    5  C   UNL     1      -9.631  11.278  66.495  1.00  0.00    -0.191 C  
HETATM    6  O   UNL     1      -8.248  10.918  66.619  1.00  0.00    -0.134 OA 
HETATM    7  C   UNL     1     -10.355  10.828  67.773  1.00  0.00    -0.226 C  
HETATM    8  C   UNL     1      -9.739  12.809  66.285  1.00  0.00    -0.262 C  
HETATM    9  H   UNL     1      -7.892  11.380  67.368  1.00  0.00     0.000 HD 
BRANCH   8  10
HETATM   10  C   UNL     1      -9.362  13.665  67.461  1.00  0.00    -0.223 C  
HETATM   11  C   UNL     1      -8.404  14.606  67.435  1.00  0.00    -0.223 C  
BRANCH  11  12
HETATM   12  C   UNL     1      -7.989  15.489  68.583  1.00  0.00    -0.146 C  
HETATM   13  C   UNL     1      -6.619  15.058  69.135  1.00  0.00    -0.120 C  
HETATM   14  C   UNL     1      -6.106  16.255  69.913  1.00  0.00    -0.180 C  
HETATM   15  O   UNL     1      -6.721  13.922  69.986  1.00  0.00    -0.341 OA 
HETATM   16  H   UNL     1      -5.875  13.656  70.327  1.00  0.00     0.000 HD 
HETATM   17  C   UNL     1      -6.689  17.399  69.145  1.00  0.00    -0.243 C  
HETATM   18  O   UNL     1      -6.249  18.540  69.229  1.00  0.00    -0.240 OA 
HETATM   19  C   UNL     1      -7.846  16.994  68.254  1.00  0.00    -0.216 C  
BRANCH  19  20
HETATM   20  C   UNL     1      -9.152  17.748  68.527  1.00  0.00    -0.282 C  
BRANCH  20  21
HETATM   21  C   UNL     1     -10.173  16.887  69.273  1.00  0.00    -0.262 C  
BRANCH  21  22
HETATM   22  C   UNL     1     -11.329  16.462  68.373  1.00  0.00    -0.268 C  
BRANCH  22  23
HETATM   23  C   UNL     1     -12.115  15.319  69.019  1.00  0.00    -0.244 C  
BRANCH  23  24
HETATM   24  C   UNL     1     -12.021  15.393  70.539  1.00  0.00    -0.394 C  
BRANCH  24  25
HETATM   25  C   UNL     1     -12.239  14.031  71.192  1.00  0.00    -0.417 C  
BRANCH  25  26
HETATM   26  C   UNL     1     -13.564  13.989  71.917  1.00  0.00    -0.435 C  
HETATM   27  O   UNL     1     -14.364  14.909  71.976  1.00  0.00    -0.478 OA 
BRANCH  26  28
HETATM   28  O   UNL     1     -13.737  12.770  72.497  1.00  0.00    -0.523 OA 
HETATM   29  C   UNL     1     -13.115  11.707  71.773  1.00  0.00    -0.382 C  
ENDBRANCH  26  28
ENDBRANCH  25  26
ENDBRANCH  24  25
ENDBRANCH  23  24
ENDBRANCH  22  23
ENDBRANCH  21  22
ENDBRANCH  20  21
ENDBRANCH  19  20
ENDBRANCH  11  12
ENDBRANCH   8  10
ENDBRANCH   3   4
ENDBRANCH   2   3
TORSDOF 12
ENDMDL
MODEL       98
REMARK 921   NORMALIZED FREE ENERGY PREDICTED BY IDOCK:   -4.41 KCAL/MOL
REMARK 922        TOTAL FREE ENERGY PREDICTED BY IDOCK:   -9.54 KCAL/MOL
REMARK 923 INTER-LIGAND FREE ENERGY PREDICTED BY IDOCK:   -8.43 KCAL/MOL
REMARK 924 INTRA-LIGAND FREE ENERGY PREDICTED BY IDOCK:   -1.12 KCAL/MOL
REMARK 927      BINDING AFFINITY PREDICTED BY RF-SCORE:    0.00 PKD
ROOT
HETATM    1  C   UNL     1     -12.635  11.848  63.733  1.00  0.00    -0.509 C  
HETATM    2  C   UNL     1     -11.308  12.214  63.082  1.00  0.00    -0.263 C  
ENDROOT
BRANCH   2   3
HETATM    3  C   UNL     1     -10.267  11.134  63.360  1.00  0.00    -0.435 C  
BRANCH   3   4
HETATM    4  C   UNL     1     -10.351  10.593  64.793  1.00  0.00    -0.353 C  
HETATM    5  C   UNL     1      -9.563  11.449  65.814  1.00  0.00    -0.233 C  
HETATM    6  O   UNL     1      -8.179  11.412  65.442  1.00  0.00    -0.363 OA 
HETATM    7  C   UNL     1      -9.695  10.837  67.216  1.00  0.00    -0.187 C  
HETATM    8  C   UNL     1     -10.058  12.917  65.781  1.00  0.00    -0.294 C  
HETATM    9  H   UNL     1      -7.695  11.937  66.068  1.00  0.00     0.000 HD 
BRANCH   8  10
HETATM   10  C   UNL     1      -9.493  13.828  66.835  1.00  0.00    -0.265 C  
HETATM   11  C   UNL     1      -9.800  15.130  66.951  1.00  0.00    -0.243 C  
BRANCH  11  12
HETATM   12  C   UNL     1      -9.262  16.084  67.987  1.00  0.00    -0.193 C  
HETATM   13  C   UNL     1      -8.035  16.839  67.448  1.00  0.00    -0.170 C  
HETATM   14  C   UNL     1      -7.891  18.057  68.340  1.00  0.00    -0.300 C  
HETATM   15  O   UNL     1      -6.855  16.045  67.502  1.00  0.00    -0.143 OA 
HETATM   16  H   UNL     1      -6.097  16.511  67.169  1.00  0.00     0.000 HD 
HETATM   17  C   UNL     1      -9.313  18.353  68.697  1.00  0.00    -0.318 C  
HETATM   18  O   UNL     1      -9.673  19.446  69.118  1.00  0.00    -0.406 OA 
HETATM   19  C   UNL     1     -10.245  17.180  68.462  1.00  0.00    -0.346 C  
BRANCH  19  20
HETATM   20  C   UNL     1     -11.022  16.728  69.704  1.00  0.00    -0.122 C  
BRANCH  20  21
HETATM   21  C   UNL     1     -10.826  15.240  70.000  1.00  0.00    -0.303 C  
BRANCH  21  22
HETATM   22  C   UNL     1     -12.149  14.482  70.021  1.00  0.00    -0.395 C  
BRANCH  22  23
HETATM   23  C   UNL     1     -11.961  13.067  69.467  1.00  0.00    -0.350 C  
BRANCH  23  24
HETATM   24  C   UNL     1     -12.209  12.028  70.555  1.00  0.00    -0.414 C  
BRANCH  24  25
HETATM   25  C   UNL     1     -11.585  10.679  70.208  1.00  0.00    -0.424 C  
BRANCH  25  26
HETATM   26  C   UNL     1     -12.177   9.579  71.058  1.00  0.00    -0.304 C  
HETATM   27  O   UNL     1     -11.653   8.499  71.278  1.00  0.00    -0.266 OA 
BRANCH  26  28
HETATM   28  O   UNL     1     -13.385   9.971  71.548  1.00  0.00    -0.378 OA 
HETATM   29  C   UNL     1     -13.985   9.004  72.410  1.00  0.00    -0.448 C  
ENDBRANCH  26  28
ENDBRANCH  25  26
ENDBRANCH  24  25
ENDBRANCH  23  24
ENDBRANCH  22  23
ENDBRANCH  21  22
ENDBRANCH  20  21
ENDBRANCH  19  20
ENDBRANCH  11  12
ENDBRANCH   8  10
ENDBRANCH   3   4
ENDBRANCH   2   3
TORSDOF 12
ENDMDL
MODEL       99
REMARK 921   NORMALIZED FREE ENERGY PREDICTED BY IDOCK:   -4.41 KCAL/MOL
REMARK 922        TOTAL FREE ENERGY PREDICTED BY IDOCK:   -9.54 KCAL/MOL
REMARK 923 INTER-LIGAND FREE ENERGY PREDICTED BY IDOCK:   -7.17 KCAL/MOL
REMARK 924 INTRA-LIGAND FREE ENERGY PREDICTED BY IDOCK:   -2.37 KCAL/MOL
REMARK 927      BINDING AFFINITY PREDICTED BY RF-SCORE:    0.00 PKD
ROOT
HETATM    1  C   UNL     1     -11.015  14.401  66.344  1.00  0.00    -0.319 C  
HETATM    2  C   UNL     1     -11.936  13.905  67.450  1.00  0.00    -0.436 C  
ENDROOT
BRANCH   2   3
HETATM    3  C   UNL     1     -11.140  13.129  68.494  1.00  0.00    -0.296 C  
BRANCH   3   4
HETATM    4  C   UNL     1     -11.985  12.761  69.722  1.00  0.00    -0.362 C  
HETATM    5  C   UNL     1     -12.019  11.239  70.002  1.00  0.00    -0.368 C  
HETATM    6  O   UNL     1     -12.632  10.598  68.875  1.00  0.00    -0.742 OA 
HETATM    7  C   UNL     1     -12.886  10.959  71.238  1.00  0.00    -0.536 C  
HETATM    8  C   UNL     1     -10.580  10.690  70.175  1.00  0.00    -0.065 C  
HETATM    9  H   UNL     1     -12.653   9.664  69.047  1.00  0.00     0.000 HD 
BRANCH   8  10
HETATM   10  C   UNL     1     -10.468   9.257  70.612  1.00  0.00    -0.325 C  
HETATM   11  C   UNL     1     -10.027   8.868  71.820  1.00  0.00    -0.397 C  
BRANCH  11  12
HETATM   12  C   UNL     1      -9.896   7.447  72.306  1.00  0.00    -0.203 C  
HETATM   13  C   UNL     1     -10.016   7.383  73.838  1.00  0.00    -0.207 C  
HETATM   14  C   UNL     1     -10.350   5.937  74.154  1.00  0.00    -0.295 C  
HETATM   15  O   UNL     1      -8.805   7.762  74.483  1.00  0.00    -0.434 OA 
HETATM   16  H   UNL     1      -8.879   7.723  75.430  1.00  0.00     0.000 HD 
HETATM   17  C   UNL     1     -11.149   5.533  72.955  1.00  0.00    -0.300 C  
HETATM   18  O   UNL     1     -11.895   4.560  72.959  1.00  0.00    -0.112 OA 
HETATM   19  C   UNL     1     -10.954   6.455  71.768  1.00  0.00    -0.298 C  
BRANCH  19  20
HETATM   20  C   UNL     1     -10.462   5.756  70.495  1.00  0.00    -0.331 C  
BRANCH  20  21
HETATM   21  C   UNL     1      -9.065   5.158  70.665  1.00  0.00    -0.178 C  
BRANCH  21  22
HETATM   22  C   UNL     1      -8.194   5.380  69.433  1.00  0.00    -0.096 C  
BRANCH  22  23
HETATM   23  C   UNL     1      -8.404   6.791  68.879  1.00  0.00    -0.121 C  
BRANCH  23  24
HETATM   24  C   UNL     1      -7.412   7.767  69.502  1.00  0.00    -0.094 C  
BRANCH  24  25
HETATM   25  C   UNL     1      -7.188   8.994  68.623  1.00  0.00    -0.072 C  
BRANCH  25  26
HETATM   26  C   UNL     1      -6.912  10.216  69.466  1.00  0.00    -0.086 C  
HETATM   27  O   UNL     1      -6.962  10.258  70.685  1.00  0.00    -0.323 OA 
BRANCH  26  28
HETATM   28  O   UNL     1      -6.594  11.270  68.666  1.00  0.00    -0.058 OA 
HETATM   29  C   UNL     1      -7.638  12.238  68.566  1.00  0.00    -0.118 C  
ENDBRANCH  26  28
ENDBRANCH  25  26
ENDBRANCH  24  25
ENDBRANCH  23  24
ENDBRANCH  22  23
ENDBRANCH  21  22
ENDBRANCH  20  21
ENDBRANCH  19  20
ENDBRANCH  11  12
ENDBRANCH   8  10
ENDBRANCH   3   4
ENDBRANCH   2   3
TORSDOF 12
ENDMDL
MODEL      100
REMARK 921   NORMALIZED FREE ENERGY PREDICTED BY IDOCK:   -4.39 KCAL/MOL
REMARK 922        TOTAL FREE ENERGY PREDICTED BY IDOCK:   -9.50 KCAL/MOL
REMARK 923 INTER-LIGAND FREE ENERGY PREDICTED BY IDOCK:   -7.86 KCAL/MOL
REMARK 924 INTRA-LIGAND FREE ENERGY PREDICTED BY IDOCK:   -1.64 KCAL/MOL
REMARK 927      BINDING AFFINITY PREDICTED BY RF-SCORE:    0.00 PKD
ROOT
HETATM    1  C   UNL     1      -8.818   8.065  72.077  1.00  0.00    -0.209 C  
HETATM    2  C   UNL     1      -8.319   7.298  70.860  1.00  0.00    -0.116 C  
ENDROOT
BRANCH   2   3
HETATM    3  C   UNL     1      -7.542   8.226  69.931  1.00  0.00    -0.080 C  
BRANCH   3   4
HETATM    4  C   UNL     1      -8.211   8.378  68.559  1.00  0.00    -0.124 C  
HETATM    5  C   UNL     1      -9.068   9.661  68.438  1.00  0.00    -0.123 C  
HETATM    6  O   UNL     1     -10.126   9.576  69.403  1.00  0.00    -0.179 OA 
HETATM    7  C   UNL     1      -9.703   9.732  67.042  1.00  0.00    -0.233 C  
HETATM    8  C   UNL     1      -8.207  10.914  68.740  1.00  0.00    -0.151 C  
HETATM    9  H   UNL     1     -10.652  10.363  69.330  1.00  0.00     0.000 HD 
BRANCH   8  10
HETATM   10  C   UNL     1      -8.868  12.242  68.503  1.00  0.00    -0.068 C  
HETATM   11  C   UNL     1      -8.408  13.175  67.653  1.00  0.00    -0.174 C  
BRANCH  11  12
HETATM   12  C   UNL     1      -9.032  14.519  67.380  1.00  0.00    -0.207 C  
HETATM   13  C   UNL     1      -7.981  15.511  66.854  1.00  0.00    -0.229 C  
HETATM   14  C   UNL     1      -8.774  16.615  66.181  1.00  0.00    -0.322 C  
HETATM   15  O   UNL     1      -7.181  16.046  67.903  1.00  0.00    -0.121 OA 
HETATM   16  H   UNL     1      -6.531  16.658  67.578  1.00  0.00     0.000 HD 
HETATM   17  C   UNL     1      -9.964  15.873  65.661  1.00  0.00    -0.334 C  
HETATM   18  O   UNL     1     -10.679  16.316  64.770  1.00  0.00    -0.680 OA 
HETATM   19  C   UNL     1     -10.169  14.528  66.331  1.00  0.00    -0.293 C  
BRANCH  19  20
HETATM   20  C   UNL     1     -11.539  14.353  66.997  1.00  0.00    -0.402 C  
BRANCH  20  21
HETATM   21  C   UNL     1     -11.823  15.441  68.034  1.00  0.00    -0.128 C  
BRANCH  21  22
HETATM   22  C   UNL     1     -11.788  14.897  69.458  1.00  0.00    -0.360 C  
BRANCH  22  23
HETATM   23  C   UNL     1     -10.828  15.720  70.321  1.00  0.00    -0.363 C  
BRANCH  23  24
HETATM   24  C   UNL     1     -11.349  15.829  71.749  1.00  0.00    -0.393 C  
BRANCH  24  25
HETATM   25  C   UNL     1     -12.861  15.639  71.822  1.00  0.00    -0.530 C  
BRANCH  25  26
HETATM   26  C   UNL     1     -13.238  14.779  73.006  1.00  0.00    -0.490 C  
HETATM   27  O   UNL     1     -12.885  14.972  74.158  1.00  0.00    -0.430 OA 
BRANCH  26  28
HETATM   28  O   UNL     1     -14.034  13.753  72.599  1.00  0.00    -0.710 OA 
HETATM   29  C   UNL     1     -13.321  12.719  71.922  1.00  0.00    -0.413 C  
ENDBRANCH  26  28
ENDBRANCH  25  26
ENDBRANCH  24  25
ENDBRANCH  23  24
ENDBRANCH  22  23
ENDBRANCH  21  22
ENDBRANCH  20  21
ENDBRANCH  19  20
ENDBRANCH  11  12
ENDBRANCH   8  10
ENDBRANCH   3   4
ENDBRANCH   2   3
TORSDOF 12
ENDMDL
MODEL      101
REMARK 921   NORMALIZED FREE ENERGY PREDICTED BY IDOCK:   -4.38 KCAL/MOL
REMARK 922        TOTAL FREE ENERGY PREDICTED BY IDOCK:   -9.49 KCAL/MOL
REMARK 923 INTER-LIGAND FREE ENERGY PREDICTED BY IDOCK:   -6.98 KCAL/MOL
REMARK 924 INTRA-LIGAND FREE ENERGY PREDICTED BY IDOCK:   -2.52 KCAL/MOL
REMARK 927      BINDING AFFINITY PREDICTED BY RF-SCORE:    0.00 PKD
ROOT
HETATM    1  C   UNL     1     -12.133  13.045  64.293  1.00  0.00    -0.480 C  
HETATM    2  C   UNL     1     -12.855  13.942  65.288  1.00  0.00    -0.437 C  
ENDROOT
BRANCH   2   3
HETATM    3  C   UNL     1     -12.231  13.806  66.673  1.00  0.00    -0.454 C  
BRANCH   3   4
HETATM    4  C   UNL     1     -10.712  13.596  66.614  1.00  0.00    -0.280 C  
HETATM    5  C   UNL     1     -10.198  12.575  67.658  1.00  0.00    -0.219 C  
HETATM    6  O   UNL     1     -10.490  13.094  68.962  1.00  0.00    -0.409 OA 
HETATM    7  C   UNL     1      -8.675  12.429  67.534  1.00  0.00    -0.179 C  
HETATM    8  C   UNL     1     -10.920  11.215  67.481  1.00  0.00    -0.331 C  
HETATM    9  H   UNL     1     -10.175  12.468  69.603  1.00  0.00     0.000 HD 
BRANCH   8  10
HETATM   10  C   UNL     1     -10.405  10.081  68.322  1.00  0.00    -0.224 C  
HETATM   11  C   UNL     1     -10.806   9.831  69.580  1.00  0.00    -0.264 C  
BRANCH  11  12
HETATM   12  C   UNL     1     -10.323   8.710  70.464  1.00  0.00    -0.234 C  
HETATM   13  C   UNL     1      -9.261   9.216  71.455  1.00  0.00    -0.138 C  
HETATM   14  C   UNL     1      -9.215   8.176  72.558  1.00  0.00    -0.319 C  
HETATM   15  O   UNL     1      -7.982   9.347  70.845  1.00  0.00    -0.249 OA 
HETATM   16  H   UNL     1      -7.326   9.660  71.457  1.00  0.00     0.000 HD 
HETATM   17  C   UNL     1     -10.630   7.692  72.591  1.00  0.00    -0.299 C  
HETATM   18  O   UNL     1     -11.102   7.103  73.556  1.00  0.00    -0.260 OA 
HETATM   19  C   UNL     1     -11.406   8.027  71.332  1.00  0.00    -0.292 C  
BRANCH  19  20
HETATM   20  C   UNL     1     -12.007   6.813  70.615  1.00  0.00    -0.418 C  
BRANCH  20  21
HETATM   21  C   UNL     1     -10.998   6.124  69.695  1.00  0.00    -0.459 C  
BRANCH  21  22
HETATM   22  C   UNL     1     -10.282   4.972  70.392  1.00  0.00    -0.324 C  
BRANCH  22  23
HETATM   23  C   UNL     1      -8.765   5.157  70.306  1.00  0.00    -0.132 C  
BRANCH  23  24
HETATM   24  C   UNL     1      -8.335   5.411  68.865  1.00  0.00    -0.100 C  
BRANCH  24  25
HETATM   25  C   UNL     1      -7.306   6.534  68.766  1.00  0.00    -0.087 C  
BRANCH  25  26
HETATM   26  C   UNL     1      -7.717   7.550  67.727  1.00  0.00    -0.115 C  
HETATM   27  O   UNL     1      -7.363   8.718  67.703  1.00  0.00    -0.083 OA 
BRANCH  26  28
HETATM   28  O   UNL     1      -8.544   6.970  66.814  1.00  0.00    -0.114 OA 
HETATM   29  C   UNL     1      -8.994   7.875  65.805  1.00  0.00    -0.080 C  
ENDBRANCH  26  28
ENDBRANCH  25  26
ENDBRANCH  24  25
ENDBRANCH  23  24
ENDBRANCH  22  23
ENDBRANCH  21  22
ENDBRANCH  20  21
ENDBRANCH  19  20
ENDBRANCH  11  12
ENDBRANCH   8  10
ENDBRANCH   3   4
ENDBRANCH   2   3
TORSDOF 12
ENDMDL
MODEL      102
REMARK 921   NORMALIZED FREE ENERGY PREDICTED BY IDOCK:   -4.36 KCAL/MOL
REMARK 922        TOTAL FREE ENERGY PREDICTED BY IDOCK:   -9.46 KCAL/MOL
REMARK 923 INTER-LIGAND FREE ENERGY PREDICTED BY IDOCK:   -7.13 KCAL/MOL
REMARK 924 INTRA-LIGAND FREE ENERGY PREDICTED BY IDOCK:   -2.33 KCAL/MOL
REMARK 927      BINDING AFFINITY PREDICTED BY RF-SCORE:    0.00 PKD
ROOT
HETATM    1  C   UNL     1     -10.606  14.660  64.923  1.00  0.00    -0.446 C  
HETATM    2  C   UNL     1     -12.024  14.119  65.030  1.00  0.00    -0.412 C  
ENDROOT
BRANCH   2   3
HETATM    3  C   UNL     1     -12.602  14.419  66.410  1.00  0.00    -0.058 C  
BRANCH   3   4
HETATM    4  C   UNL     1     -11.541  14.936  67.390  1.00  0.00    -0.347 C  
HETATM    5  C   UNL     1     -11.591  14.231  68.767  1.00  0.00    -0.322 C  
HETATM    6  O   UNL     1     -12.868  14.511  69.359  1.00  0.00    -0.509 OA 
HETATM    7  C   UNL     1     -10.505  14.809  69.686  1.00  0.00    -0.130 C  
HETATM    8  C   UNL     1     -11.439  12.698  68.594  1.00  0.00    -0.347 C  
HETATM    9  H   UNL     1     -12.898  14.078  70.204  1.00  0.00     0.000 HD 
BRANCH   8  10
HETATM   10  C   UNL     1     -11.307  11.900  69.860  1.00  0.00    -0.175 C  
HETATM   11  C   UNL     1     -11.204  10.562  69.903  1.00  0.00    -0.374 C  
BRANCH  11  12
HETATM   12  C   UNL     1     -11.070   9.716  71.143  1.00  0.00    -0.444 C  
HETATM   13  C   UNL     1     -12.451   9.261  71.644  1.00  0.00    -0.368 C  
HETATM   14  C   UNL     1     -12.178   8.076  72.551  1.00  0.00    -0.294 C  
HETATM   15  O   UNL     1     -13.123  10.289  72.362  1.00  0.00    -0.515 OA 
HETATM   16  H   UNL     1     -13.976  10.008  72.671  1.00  0.00     0.000 HD 
HETATM   17  C   UNL     1     -10.966   7.470  71.916  1.00  0.00    -0.235 C  
HETATM   18  O   UNL     1     -10.622   6.313  72.127  1.00  0.00    -0.212 OA 
HETATM   19  C   UNL     1     -10.240   8.420  70.984  1.00  0.00    -0.245 C  
BRANCH  19  20
HETATM   20  C   UNL     1      -8.768   8.657  71.339  1.00  0.00    -0.262 C  
BRANCH  20  21
HETATM   21  C   UNL     1      -7.873   8.703  70.100  1.00  0.00    -0.098 C  
BRANCH  21  22
HETATM   22  C   UNL     1      -7.572  10.133  69.665  1.00  0.00    -0.158 C  
BRANCH  22  23
HETATM   23  C   UNL     1      -7.498  10.221  68.138  1.00  0.00    -0.086 C  
BRANCH  23  24
HETATM   24  C   UNL     1      -8.023  11.567  67.652  1.00  0.00    -0.126 C  
BRANCH  24  25
HETATM   25  C   UNL     1      -7.581  12.714  68.557  1.00  0.00    -0.121 C  
BRANCH  25  26
HETATM   26  C   UNL     1      -6.991  13.843  67.746  1.00  0.00    -0.172 C  
HETATM   27  O   UNL     1      -5.855  13.872  67.301  1.00  0.00    -0.319 OA 
BRANCH  26  28
HETATM   28  O   UNL     1      -7.916  14.827  67.580  1.00  0.00    -0.157 OA 
HETATM   29  C   UNL     1      -7.405  15.974  66.901  1.00  0.00    -0.201 C  
ENDBRANCH  26  28
ENDBRANCH  25  26
ENDBRANCH  24  25
ENDBRANCH  23  24
ENDBRANCH  22  23
ENDBRANCH  21  22
ENDBRANCH  20  21
ENDBRANCH  19  20
ENDBRANCH  11  12
ENDBRANCH   8  10
ENDBRANCH   3   4
ENDBRANCH   2   3
TORSDOF 12
ENDMDL
MODEL      103
REMARK 921   NORMALIZED FREE ENERGY PREDICTED BY IDOCK:   -4.35 KCAL/MOL
REMARK 922        TOTAL FREE ENERGY PREDICTED BY IDOCK:   -9.44 KCAL/MOL
REMARK 923 INTER-LIGAND FREE ENERGY PREDICTED BY IDOCK:   -7.03 KCAL/MOL
REMARK 924 INTRA-LIGAND FREE ENERGY PREDICTED BY IDOCK:   -2.40 KCAL/MOL
REMARK 927      BINDING AFFINITY PREDICTED BY RF-SCORE:    0.00 PKD
ROOT
HETATM    1  C   UNL     1     -12.237   8.367  72.108  1.00  0.00    -0.434 C  
HETATM    2  C   UNL     1     -12.834   9.288  71.053  1.00  0.00    -0.200 C  
ENDROOT
BRANCH   2   3
HETATM    3  C   UNL     1     -12.194  10.670  71.133  1.00  0.00    -0.479 C  
BRANCH   3   4
HETATM    4  C   UNL     1     -12.767  11.644  70.094  1.00  0.00     0.022 C  
HETATM    5  C   UNL     1     -11.714  12.129  69.069  1.00  0.00    -0.322 C  
HETATM    6  O   UNL     1     -10.700  12.846  69.787  1.00  0.00    -0.286 OA 
HETATM    7  C   UNL     1     -12.367  13.099  68.074  1.00  0.00     0.117 C  
HETATM    8  C   UNL     1     -11.065  10.920  68.349  1.00  0.00    -0.320 C  
HETATM    9  H   UNL     1     -10.054  13.145  69.159  1.00  0.00     0.000 HD 
BRANCH   8  10
HETATM   10  C   UNL     1     -10.139  11.249  67.212  1.00  0.00    -0.214 C  
HETATM   11  C   UNL     1      -9.580  10.332  66.404  1.00  0.00    -0.233 C  
BRANCH  11  12
HETATM   12  C   UNL     1      -8.648  10.608  65.253  1.00  0.00    -0.175 C  
HETATM   13  C   UNL     1      -7.181  10.452  65.690  1.00  0.00    -0.146 C  
HETATM   14  C   UNL     1      -6.397  10.275  64.404  1.00  0.00    -0.099 C  
HETATM   15  O   UNL     1      -6.712  11.592  66.402  1.00  0.00    -0.329 OA 
HETATM   16  H   UNL     1      -5.807  11.495  66.672  1.00  0.00     0.000 HD 
HETATM   17  C   UNL     1      -7.382   9.563  63.532  1.00  0.00    -0.107 C  
HETATM   18  O   UNL     1      -7.046   8.932  62.536  1.00  0.00    -0.097 OA 
HETATM   19  C   UNL     1      -8.812   9.686  64.022  1.00  0.00    -0.256 C  
BRANCH  19  20
HETATM   20  C   UNL     1      -9.782  10.292  63.001  1.00  0.00    -0.212 C  
BRANCH  20  21
HETATM   21  C   UNL     1     -10.075  11.766  63.284  1.00  0.00    -0.448 C  
BRANCH  21  22
HETATM   22  C   UNL     1     -11.558  12.016  63.539  1.00  0.00    -0.553 C  
BRANCH  22  23
HETATM   23  C   UNL     1     -11.748  13.273  64.393  1.00  0.00    -0.433 C  
BRANCH  23  24
HETATM   24  C   UNL     1     -10.400  13.887  64.752  1.00  0.00    -0.419 C  
BRANCH  24  25
HETATM   25  C   UNL     1     -10.552  15.120  65.638  1.00  0.00    -0.370 C  
BRANCH  25  26
HETATM   26  C   UNL     1      -9.422  15.207  66.637  1.00  0.00    -0.263 C  
HETATM   27  O   UNL     1      -8.596  14.332  66.845  1.00  0.00    -0.209 OA 
BRANCH  26  28
HETATM   28  O   UNL     1      -9.458  16.409  67.274  1.00  0.00    -0.224 OA 
HETATM   29  C   UNL     1     -10.715  16.684  67.892  1.00  0.00    -0.344 C  
ENDBRANCH  26  28
ENDBRANCH  25  26
ENDBRANCH  24  25
ENDBRANCH  23  24
ENDBRANCH  22  23
ENDBRANCH  21  22
ENDBRANCH  20  21
ENDBRANCH  19  20
ENDBRANCH  11  12
ENDBRANCH   8  10
ENDBRANCH   3   4
ENDBRANCH   2   3
TORSDOF 12
ENDMDL
MODEL      104
REMARK 921   NORMALIZED FREE ENERGY PREDICTED BY IDOCK:   -4.34 KCAL/MOL
REMARK 922        TOTAL FREE ENERGY PREDICTED BY IDOCK:   -9.43 KCAL/MOL
REMARK 923 INTER-LIGAND FREE ENERGY PREDICTED BY IDOCK:   -8.41 KCAL/MOL
REMARK 924 INTRA-LIGAND FREE ENERGY PREDICTED BY IDOCK:   -1.03 KCAL/MOL
REMARK 927      BINDING AFFINITY PREDICTED BY RF-SCORE:    0.00 PKD
ROOT
HETATM    1  C   UNL     1      -9.324   3.933  72.470  1.00  0.00    -0.159 C  
HETATM    2  C   UNL     1      -8.576   4.768  71.440  1.00  0.00    -0.125 C  
ENDROOT
BRANCH   2   3
HETATM    3  C   UNL     1      -8.245   6.143  72.012  1.00  0.00    -0.110 C  
BRANCH   3   4
HETATM    4  C   UNL     1      -9.469   7.067  72.065  1.00  0.00    -0.149 C  
HETATM    5  C   UNL     1      -9.299   8.353  71.221  1.00  0.00    -0.187 C  
HETATM    6  O   UNL     1      -8.200   9.095  71.768  1.00  0.00    -0.340 OA 
HETATM    7  C   UNL     1     -10.561   9.219  71.334  1.00  0.00    -0.417 C  
HETATM    8  C   UNL     1      -8.982   7.992  69.747  1.00  0.00    -0.145 C  
HETATM    9  H   UNL     1      -8.095   9.884  71.251  1.00  0.00     0.000 HD 
BRANCH   8  10
HETATM   10  C   UNL     1      -8.950   9.140  68.779  1.00  0.00    -0.136 C  
HETATM   11  C   UNL     1      -9.875   9.353  67.829  1.00  0.00    -0.207 C  
BRANCH  11  12
HETATM   12  C   UNL     1      -9.890  10.487  66.836  1.00  0.00    -0.235 C  
HETATM   13  C   UNL     1     -10.194   9.967  65.421  1.00  0.00    -0.156 C  
HETATM   14  C   UNL     1     -10.649  11.184  64.637  1.00  0.00    -0.386 C  
HETATM   15  O   UNL     1      -9.048   9.386  64.809  1.00  0.00    -0.267 OA 
HETATM   16  H   UNL     1      -9.235   9.065  63.935  1.00  0.00     0.000 HD 
HETATM   17  C   UNL     1     -11.324  12.001  65.693  1.00  0.00    -0.329 C  
HETATM   18  O   UNL     1     -12.122  12.892  65.426  1.00  0.00    -0.401 OA 
HETATM   19  C   UNL     1     -10.934  11.597  67.101  1.00  0.00    -0.330 C  
BRANCH  19  20
HETATM   20  C   UNL     1     -10.337  12.729  67.945  1.00  0.00    -0.228 C  
BRANCH  20  21
HETATM   21  C   UNL     1     -11.402  13.476  68.750  1.00  0.00    -0.329 C  
BRANCH  21  22
HETATM   22  C   UNL     1     -11.074  14.958  68.897  1.00  0.00    -0.267 C  
BRANCH  22  23
HETATM   23  C   UNL     1     -11.964  15.598  69.964  1.00  0.00    -0.384 C  
BRANCH  23  24
HETATM   24  C   UNL     1     -11.359  15.412  71.351  1.00  0.00    -0.449 C  
BRANCH  24  25
HETATM   25  C   UNL     1     -12.250  15.993  72.446  1.00  0.00    -0.603 C  
BRANCH  25  26
HETATM   26  C   UNL     1     -12.790  14.898  73.336  1.00  0.00    -0.515 C  
HETATM   27  O   UNL     1     -12.346  14.598  74.432  1.00  0.00    -0.390 OA 
BRANCH  26  28
HETATM   28  O   UNL     1     -13.851  14.293  72.735  1.00  0.00    -0.612 OA 
HETATM   29  C   UNL     1     -13.547  12.996  72.223  1.00  0.00    -0.547 C  
ENDBRANCH  26  28
ENDBRANCH  25  26
ENDBRANCH  24  25
ENDBRANCH  23  24
ENDBRANCH  22  23
ENDBRANCH  21  22
ENDBRANCH  20  21
ENDBRANCH  19  20
ENDBRANCH  11  12
ENDBRANCH   8  10
ENDBRANCH   3   4
ENDBRANCH   2   3
TORSDOF 12
ENDMDL
MODEL      105
REMARK 921   NORMALIZED FREE ENERGY PREDICTED BY IDOCK:   -4.33 KCAL/MOL
REMARK 922        TOTAL FREE ENERGY PREDICTED BY IDOCK:   -9.41 KCAL/MOL
REMARK 923 INTER-LIGAND FREE ENERGY PREDICTED BY IDOCK:   -8.47 KCAL/MOL
REMARK 924 INTRA-LIGAND FREE ENERGY PREDICTED BY IDOCK:   -0.94 KCAL/MOL
REMARK 927      BINDING AFFINITY PREDICTED BY RF-SCORE:    0.00 PKD
ROOT
HETATM    1  C   UNL     1     -10.126  18.397  66.783  1.00  0.00    -0.391 C  
HETATM    2  C   UNL     1     -10.567  17.691  68.058  1.00  0.00    -0.379 C  
ENDROOT
BRANCH   2   3
HETATM    3  C   UNL     1     -10.347  16.187  67.934  1.00  0.00    -0.277 C  
BRANCH   3   4
HETATM    4  C   UNL     1     -11.594  15.452  67.425  1.00  0.00    -0.135 C  
HETATM    5  C   UNL     1     -11.303  14.522  66.222  1.00  0.00    -0.352 C  
HETATM    6  O   UNL     1     -10.837  15.338  65.139  1.00  0.00    -0.370 OA 
HETATM    7  C   UNL     1     -12.600  13.833  65.774  1.00  0.00    -0.525 C  
HETATM    8  C   UNL     1     -10.205  13.493  66.590  1.00  0.00    -0.275 C  
HETATM    9  H   UNL     1     -10.659  14.768  64.400  1.00  0.00     0.000 HD 
BRANCH   8  10
HETATM   10  C   UNL     1      -9.935  12.423  65.570  1.00  0.00    -0.260 C  
HETATM   11  C   UNL     1     -10.012  11.105  65.819  1.00  0.00    -0.292 C  
BRANCH  11  12
HETATM   12  C   UNL     1      -9.752   9.994  64.834  1.00  0.00    -0.377 C  
HETATM   13  C   UNL     1      -9.598  10.554  63.410  1.00  0.00    -0.331 C  
HETATM   14  C   UNL     1      -8.886   9.467  62.627  1.00  0.00    -0.249 C  
HETATM   15  O   UNL     1     -10.856  10.850  62.814  1.00  0.00    -0.750 OA 
HETATM   16  H   UNL     1     -10.761  11.197  61.934  1.00  0.00     0.000 HD 
HETATM   17  C   UNL     1      -8.026   8.838  63.677  1.00  0.00    -0.158 C  
HETATM   18  O   UNL     1      -7.049   8.152  63.403  1.00  0.00    -0.082 OA 
HETATM   19  C   UNL     1      -8.477   9.157  65.089  1.00  0.00    -0.182 C  
BRANCH  19  20
HETATM   20  C   UNL     1      -8.784   7.927  65.950  1.00  0.00    -0.180 C  
BRANCH  20  21
HETATM   21  C   UNL     1     -10.119   8.053  66.686  1.00  0.00    -0.329 C  
BRANCH  21  22
HETATM   22  C   UNL     1     -10.743   6.692  66.975  1.00  0.00    -0.437 C  
BRANCH  22  23
HETATM   23  C   UNL     1     -10.782   6.433  68.483  1.00  0.00    -0.347 C  
BRANCH  23  24
HETATM   24  C   UNL     1     -10.139   7.587  69.243  1.00  0.00    -0.188 C  
BRANCH  24  25
HETATM   25  C   UNL     1     -10.307   7.440  70.753  1.00  0.00    -0.208 C  
BRANCH  25  26
HETATM   26  C   UNL     1      -9.991   8.738  71.458  1.00  0.00    -0.300 C  
HETATM   27  O   UNL     1      -8.895   9.055  71.893  1.00  0.00    -0.360 OA 
BRANCH  26  28
HETATM   28  O   UNL     1     -11.111   9.508  71.536  1.00  0.00    -0.367 OA 
HETATM   29  C   UNL     1     -12.211   8.843  72.157  1.00  0.00    -0.367 C  
ENDBRANCH  26  28
ENDBRANCH  25  26
ENDBRANCH  24  25
ENDBRANCH  23  24
ENDBRANCH  22  23
ENDBRANCH  21  22
ENDBRANCH  20  21
ENDBRANCH  19  20
ENDBRANCH  11  12
ENDBRANCH   8  10
ENDBRANCH   3   4
ENDBRANCH   2   3
TORSDOF 12
ENDMDL
MODEL      106
REMARK 921   NORMALIZED FREE ENERGY PREDICTED BY IDOCK:   -4.33 KCAL/MOL
REMARK 922        TOTAL FREE ENERGY PREDICTED BY IDOCK:   -9.41 KCAL/MOL
REMARK 923 INTER-LIGAND FREE ENERGY PREDICTED BY IDOCK:   -7.53 KCAL/MOL
REMARK 924 INTRA-LIGAND FREE ENERGY PREDICTED BY IDOCK:   -1.88 KCAL/MOL
REMARK 927      BINDING AFFINITY PREDICTED BY RF-SCORE:    0.00 PKD
ROOT
HETATM    1  C   UNL     1      -8.467   5.374  67.843  1.00  0.00    -0.098 C  
HETATM    2  C   UNL     1      -8.414   6.859  68.169  1.00  0.00    -0.124 C  
ENDROOT
BRANCH   2   3
HETATM    3  C   UNL     1      -7.763   7.079  69.531  1.00  0.00    -0.107 C  
BRANCH   3   4
HETATM    4  C   UNL     1      -8.754   6.901  70.690  1.00  0.00    -0.149 C  
HETATM    5  C   UNL     1      -9.294   8.243  71.240  1.00  0.00    -0.173 C  
HETATM    6  O   UNL     1      -8.182   8.984  71.762  1.00  0.00    -0.351 OA 
HETATM    7  C   UNL     1     -10.270   7.975  72.395  1.00  0.00    -0.347 C  
HETATM    8  C   UNL     1      -9.960   9.062  70.106  1.00  0.00    -0.216 C  
HETATM    9  H   UNL     1      -8.513   9.807  72.100  1.00  0.00     0.000 HD 
BRANCH   8  10
HETATM   10  C   UNL     1     -10.672  10.317  70.527  1.00  0.00    -0.212 C  
HETATM   11  C   UNL     1     -11.870  10.700  70.056  1.00  0.00    -0.403 C  
BRANCH  11  12
HETATM   12  C   UNL     1     -12.624  11.945  70.446  1.00  0.00    -0.153 C  
HETATM   13  C   UNL     1     -12.924  11.951  71.955  1.00  0.00    -0.329 C  
HETATM   14  C   UNL     1     -13.228  13.397  72.297  1.00  0.00    -0.570 C  
HETATM   15  O   UNL     1     -14.033  11.122  72.281  1.00  0.00    -0.189 OA 
HETATM   16  H   UNL     1     -14.218  11.125  73.213  1.00  0.00     0.000 HD 
HETATM   17  C   UNL     1     -12.358  14.137  71.330  1.00  0.00    -0.344 C  
HETATM   18  O   UNL     1     -12.042  15.310  71.492  1.00  0.00    -0.301 OA 
HETATM   19  C   UNL     1     -11.901  13.283  70.164  1.00  0.00    -0.333 C  
BRANCH  19  20
HETATM   20  C   UNL     1     -12.278  13.837  68.785  1.00  0.00    -0.221 C  
BRANCH  20  21
HETATM   21  C   UNL     1     -11.117  14.581  68.122  1.00  0.00    -0.280 C  
BRANCH  21  22
HETATM   22  C   UNL     1      -9.789  13.859  68.319  1.00  0.00    -0.231 C  
BRANCH  22  23
HETATM   23  C   UNL     1      -9.405  13.092  67.051  1.00  0.00    -0.238 C  
BRANCH  23  24
HETATM   24  C   UNL     1     -10.187  11.787  66.954  1.00  0.00    -0.236 C  
BRANCH  24  25
HETATM   25  C   UNL     1     -11.195  11.809  65.809  1.00  0.00    -0.337 C  
BRANCH  25  26
HETATM   26  C   UNL     1     -10.634  11.124  64.586  1.00  0.00    -0.318 C  
HETATM   27  O   UNL     1      -9.945  10.116  64.596  1.00  0.00    -0.328 OA 
BRANCH  26  28
HETATM   28  O   UNL     1     -11.011  11.795  63.463  1.00  0.00    -0.396 OA 
HETATM   29  C   UNL     1     -12.294  12.411  63.578  1.00  0.00    -0.546 C  
ENDBRANCH  26  28
ENDBRANCH  25  26
ENDBRANCH  24  25
ENDBRANCH  23  24
ENDBRANCH  22  23
ENDBRANCH  21  22
ENDBRANCH  20  21
ENDBRANCH  19  20
ENDBRANCH  11  12
ENDBRANCH   8  10
ENDBRANCH   3   4
ENDBRANCH   2   3
TORSDOF 12
ENDMDL
MODEL      107
REMARK 921   NORMALIZED FREE ENERGY PREDICTED BY IDOCK:   -4.31 KCAL/MOL
REMARK 922        TOTAL FREE ENERGY PREDICTED BY IDOCK:   -9.37 KCAL/MOL
REMARK 923 INTER-LIGAND FREE ENERGY PREDICTED BY IDOCK:   -7.84 KCAL/MOL
REMARK 924 INTRA-LIGAND FREE ENERGY PREDICTED BY IDOCK:   -1.53 KCAL/MOL
REMARK 927      BINDING AFFINITY PREDICTED BY RF-SCORE:    0.00 PKD
ROOT
HETATM    1  C   UNL     1      -6.494  20.212  65.380  1.00  0.00    -0.299 C  
HETATM    2  C   UNL     1      -6.976  21.014  66.581  1.00  0.00    -0.240 C  
ENDROOT
BRANCH   2   3
HETATM    3  C   UNL     1      -8.052  20.242  67.336  1.00  0.00    -0.377 C  
BRANCH   3   4
HETATM    4  C   UNL     1      -7.462  19.234  68.332  1.00  0.00    -0.346 C  
HETATM    5  C   UNL     1      -8.119  17.836  68.244  1.00  0.00    -0.283 C  
HETATM    6  O   UNL     1      -9.506  17.980  68.579  1.00  0.00    -0.300 OA 
HETATM    7  C   UNL     1      -7.476  16.895  69.273  1.00  0.00    -0.116 C  
HETATM    8  C   UNL     1      -8.002  17.275  66.803  1.00  0.00    -0.276 C  
HETATM    9  H   UNL     1      -9.910  17.122  68.525  1.00  0.00     0.000 HD 
BRANCH   8  10
HETATM   10  C   UNL     1      -8.455  15.856  66.609  1.00  0.00    -0.322 C  
HETATM   11  C   UNL     1      -9.525  15.314  67.214  1.00  0.00    -0.212 C  
BRANCH  11  12
HETATM   12  C   UNL     1     -10.020  13.900  67.053  1.00  0.00    -0.258 C  
HETATM   13  C   UNL     1      -9.230  12.940  67.959  1.00  0.00    -0.212 C  
HETATM   14  C   UNL     1     -10.095  11.699  68.078  1.00  0.00    -0.198 C  
HETATM   15  O   UNL     1      -7.962  12.607  67.406  1.00  0.00    -0.160 OA 
HETATM   16  H   UNL     1      -7.474  12.014  67.966  1.00  0.00     0.000 HD 
HETATM   17  C   UNL     1     -11.475  12.271  67.994  1.00  0.00    -0.321 C  
HETATM   18  O   UNL     1     -12.464  11.664  68.386  1.00  0.00    -0.261 OA 
HETATM   19  C   UNL     1     -11.509  13.667  67.403  1.00  0.00    -0.365 C  
BRANCH  19  20
HETATM   20  C   UNL     1     -12.399  13.810  66.163  1.00  0.00    -0.496 C  
BRANCH  20  21
HETATM   21  C   UNL     1     -12.347  12.573  65.266  1.00  0.00    -0.469 C  
BRANCH  21  22
HETATM   22  C   UNL     1     -12.077  12.933  63.809  1.00  0.00    -0.583 C  
BRANCH  22  23
HETATM   23  C   UNL     1     -10.958  12.057  63.241  1.00  0.00    -0.399 C  
BRANCH  23  24
HETATM   24  C   UNL     1     -10.035  11.576  64.355  1.00  0.00    -0.311 C  
BRANCH  24  25
HETATM   25  C   UNL     1      -9.543  10.151  64.114  1.00  0.00    -0.336 C  
BRANCH  25  26
HETATM   26  C   UNL     1      -9.090   9.514  65.406  1.00  0.00    -0.221 C  
HETATM   27  O   UNL     1      -9.665   8.605  65.984  1.00  0.00    -0.241 OA 
BRANCH  26  28
HETATM   28  O   UNL     1      -7.938  10.101  65.833  1.00  0.00    -0.123 OA 
HETATM   29  C   UNL     1      -6.811   9.797  65.012  1.00  0.00    -0.115 C  
ENDBRANCH  26  28
ENDBRANCH  25  26
ENDBRANCH  24  25
ENDBRANCH  23  24
ENDBRANCH  22  23
ENDBRANCH  21  22
ENDBRANCH  20  21
ENDBRANCH  19  20
ENDBRANCH  11  12
ENDBRANCH   8  10
ENDBRANCH   3   4
ENDBRANCH   2   3
TORSDOF 12
ENDMDL
MODEL      108
REMARK 921   NORMALIZED FREE ENERGY PREDICTED BY IDOCK:   -4.30 KCAL/MOL
REMARK 922        TOTAL FREE ENERGY PREDICTED BY IDOCK:   -9.36 KCAL/MOL
REMARK 923 INTER-LIGAND FREE ENERGY PREDICTED BY IDOCK:   -6.85 KCAL/MOL
REMARK 924 INTRA-LIGAND FREE ENERGY PREDICTED BY IDOCK:   -2.51 KCAL/MOL
REMARK 927      BINDING AFFINITY PREDICTED BY RF-SCORE:    0.00 PKD
ROOT
HETATM    1  C   UNL     1     -14.403   7.535  71.456  1.00  0.00    -0.603 C  
HETATM    2  C   UNL     1     -13.074   6.977  71.947  1.00  0.00    -0.266 C  
ENDROOT
BRANCH   2   3
HETATM    3  C   UNL     1     -12.116   6.783  70.776  1.00  0.00    -0.402 C  
BRANCH   3   4
HETATM    4  C   UNL     1     -10.696   7.270  71.093  1.00  0.00    -0.244 C  
HETATM    5  C   UNL     1     -10.189   8.351  70.107  1.00  0.00    -0.195 C  
HETATM    6  O   UNL     1     -10.140   7.764  68.799  1.00  0.00    -0.185 OA 
HETATM    7  C   UNL     1      -8.765   8.777  70.491  1.00  0.00    -0.196 C  
HETATM    8  C   UNL     1     -11.162   9.558  70.084  1.00  0.00    -0.275 C  
HETATM    9  H   UNL     1      -9.829   8.427  68.194  1.00  0.00     0.000 HD 
BRANCH   8  10
HETATM   10  C   UNL     1     -10.712  10.753  69.291  1.00  0.00    -0.268 C  
HETATM   11  C   UNL     1     -11.540  11.562  68.610  1.00  0.00    -0.375 C  
BRANCH  11  12
HETATM   12  C   UNL     1     -11.141  12.770  67.802  1.00  0.00    -0.289 C  
HETATM   13  C   UNL     1     -12.284  13.202  66.867  1.00  0.00    -0.222 C  
HETATM   14  C   UNL     1     -11.972  14.638  66.491  1.00  0.00    -0.284 C  
HETATM   15  O   UNL     1     -12.354  12.389  65.701  1.00  0.00    -0.639 OA 
HETATM   16  H   UNL     1     -13.060  12.655  65.123  1.00  0.00     0.000 HD 
HETATM   17  C   UNL     1     -11.289  15.142  67.722  1.00  0.00    -0.328 C  
HETATM   18  O   UNL     1     -11.179  16.337  67.971  1.00  0.00    -0.334 OA 
HETATM   19  C   UNL     1     -10.778  14.032  68.619  1.00  0.00    -0.269 C  
BRANCH  19  20
HETATM   20  C   UNL     1      -9.274  14.091  68.909  1.00  0.00     0.039 C  
BRANCH  20  21
HETATM   21  C   UNL     1      -8.438  13.559  67.744  1.00  0.00    -0.184 C  
BRANCH  21  22
HETATM   22  C   UNL     1      -7.647  12.313  68.130  1.00  0.00    -0.127 C  
BRANCH  22  23
HETATM   23  C   UNL     1      -6.733  11.884  66.980  1.00  0.00    -0.119 C  
BRANCH  23  24
HETATM   24  C   UNL     1      -7.095  10.483  66.499  1.00  0.00    -0.120 C  
BRANCH  24  25
HETATM   25  C   UNL     1      -8.605  10.259  66.480  1.00  0.00    -0.136 C  
BRANCH  25  26
HETATM   26  C   UNL     1      -9.191  10.665  65.149  1.00  0.00    -0.207 C  
HETATM   27  O   UNL     1      -9.627  11.773  64.879  1.00  0.00    -0.210 OA 
BRANCH  26  28
HETATM   28  O   UNL     1      -9.162   9.611  64.288  1.00  0.00    -0.246 OA 
HETATM   29  C   UNL     1      -8.394   9.863  63.112  1.00  0.00    -0.166 C  
ENDBRANCH  26  28
ENDBRANCH  25  26
ENDBRANCH  24  25
ENDBRANCH  23  24
ENDBRANCH  22  23
ENDBRANCH  21  22
ENDBRANCH  20  21
ENDBRANCH  19  20
ENDBRANCH  11  12
ENDBRANCH   8  10
ENDBRANCH   3   4
ENDBRANCH   2   3
TORSDOF 12
ENDMDL
MODEL      109
REMARK 921   NORMALIZED FREE ENERGY PREDICTED BY IDOCK:   -4.29 KCAL/MOL
REMARK 922        TOTAL FREE ENERGY PREDICTED BY IDOCK:   -9.33 KCAL/MOL
REMARK 923 INTER-LIGAND FREE ENERGY PREDICTED BY IDOCK:   -7.29 KCAL/MOL
REMARK 924 INTRA-LIGAND FREE ENERGY PREDICTED BY IDOCK:   -2.04 KCAL/MOL
REMARK 927      BINDING AFFINITY PREDICTED BY RF-SCORE:    0.00 PKD
ROOT
HETATM    1  C   UNL     1     -13.920   8.966  72.316  1.00  0.00    -0.531 C  
HETATM    2  C   UNL     1     -12.534   8.348  72.431  1.00  0.00    -0.390 C  
ENDROOT
BRANCH   2   3
HETATM    3  C   UNL     1     -12.011   7.958  71.053  1.00  0.00    -0.268 C  
BRANCH   3   4
HETATM    4  C   UNL     1     -10.597   8.490  70.789  1.00  0.00    -0.244 C  
HETATM    5  C   UNL     1     -10.564   9.643  69.756  1.00  0.00    -0.242 C  
HETATM    6  O   UNL     1     -11.048   9.130  68.508  1.00  0.00    -0.457 OA 
HETATM    7  C   UNL     1      -9.116  10.111  69.548  1.00  0.00    -0.213 C  
HETATM    8  C   UNL     1     -11.481  10.805  70.216  1.00  0.00    -0.406 C  
HETATM    9  H   UNL     1     -11.028   9.837  67.874  1.00  0.00     0.000 HD 
BRANCH   8  10
HETATM   10  C   UNL     1     -11.422  12.059  69.391  1.00  0.00    -0.361 C  
HETATM   11  C   UNL     1     -10.671  13.130  69.697  1.00  0.00     0.368 C  
BRANCH  11  12
HETATM   12  C   UNL     1     -10.576  14.408  68.905  1.00  0.00    -0.250 C  
HETATM   13  C   UNL     1     -11.440  15.510  69.542  1.00  0.00    -0.333 C  
HETATM   14  C   UNL     1     -10.907  16.813  68.979  1.00  0.00    -0.291 C  
HETATM   15  O   UNL     1     -12.818  15.359  69.219  1.00  0.00    -0.391 OA 
HETATM   16  H   UNL     1     -13.352  16.039  69.613  1.00  0.00     0.000 HD 
HETATM   17  C   UNL     1      -9.456  16.503  68.794  1.00  0.00    -0.246 C  
HETATM   18  O   UNL     1      -8.604  17.378  68.684  1.00  0.00    -0.271 OA 
HETATM   19  C   UNL     1      -9.159  15.016  68.780  1.00  0.00    -0.197 C  
BRANCH  19  20
HETATM   20  C   UNL     1      -8.452  14.521  67.514  1.00  0.00    -0.201 C  
BRANCH  20  21
HETATM   21  C   UNL     1      -9.402  13.779  66.572  1.00  0.00    -0.249 C  
BRANCH  21  22
HETATM   22  C   UNL     1      -8.971  12.334  66.347  1.00  0.00    -0.117 C  
BRANCH  22  23
HETATM   23  C   UNL     1      -9.983  11.607  65.458  1.00  0.00    -0.277 C  
BRANCH  23  24
HETATM   24  C   UNL     1     -11.358  11.587  66.116  1.00  0.00    -0.200 C  
BRANCH  24  25
HETATM   25  C   UNL     1     -12.436  12.166  65.204  1.00  0.00    -0.009 C  
BRANCH  25  26
HETATM   26  C   UNL     1     -12.535  13.664  65.373  1.00  0.00    -0.499 C  
HETATM   27  O   UNL     1     -12.716  14.244  66.432  1.00  0.00    -0.314 OA 
BRANCH  26  28
HETATM   28  O   UNL     1     -12.389  14.277  64.166  1.00  0.00    -0.630 OA 
HETATM   29  C   UNL     1     -12.109  13.369  63.101  1.00  0.00    -0.070 C  
ENDBRANCH  26  28
ENDBRANCH  25  26
ENDBRANCH  24  25
ENDBRANCH  23  24
ENDBRANCH  22  23
ENDBRANCH  21  22
ENDBRANCH  20  21
ENDBRANCH  19  20
ENDBRANCH  11  12
ENDBRANCH   8  10
ENDBRANCH   3   4
ENDBRANCH   2   3
TORSDOF 12
ENDMDL
MODEL      110
REMARK 921   NORMALIZED FREE ENERGY PREDICTED BY IDOCK:   -4.28 KCAL/MOL
REMARK 922        TOTAL FREE ENERGY PREDICTED BY IDOCK:   -9.32 KCAL/MOL
REMARK 923 INTER-LIGAND FREE ENERGY PREDICTED BY IDOCK:   -7.86 KCAL/MOL
REMARK 924 INTRA-LIGAND FREE ENERGY PREDICTED BY IDOCK:   -1.45 KCAL/MOL
REMARK 927      BINDING AFFINITY PREDICTED BY RF-SCORE:    0.00 PKD
ROOT
HETATM    1  C   UNL     1     -13.473  14.205  72.498  1.00  0.00    -0.634 C  
HETATM    2  C   UNL     1     -12.935  14.748  71.181  1.00  0.00    -0.422 C  
ENDROOT
BRANCH   2   3
HETATM    3  C   UNL     1     -12.655  13.605  70.212  1.00  0.00    -0.253 C  
BRANCH   3   4
HETATM    4  C   UNL     1     -12.404  12.273  70.932  1.00  0.00    -0.363 C  
HETATM    5  C   UNL     1     -11.851  11.171  69.998  1.00  0.00    -0.361 C  
HETATM    6  O   UNL     1     -12.838  10.912  68.989  1.00  0.00    -0.493 OA 
HETATM    7  C   UNL     1     -11.635   9.876  70.794  1.00  0.00    -0.430 C  
HETATM    8  C   UNL     1     -10.544  11.648  69.315  1.00  0.00    -0.088 C  
HETATM    9  H   UNL     1     -12.499  10.236  68.416  1.00  0.00     0.000 HD 
BRANCH   8  10
HETATM   10  C   UNL     1      -9.808  10.620  68.504  1.00  0.00    -0.175 C  
HETATM   11  C   UNL     1      -9.019   9.667  69.028  1.00  0.00    -0.148 C  
BRANCH  11  12
HETATM   12  C   UNL     1      -8.262   8.614  68.260  1.00  0.00    -0.122 C  
HETATM   13  C   UNL     1      -8.538   7.215  68.837  1.00  0.00    -0.129 C  
HETATM   14  C   UNL     1      -8.142   6.245  67.741  1.00  0.00    -0.114 C  
HETATM   15  O   UNL     1      -7.780   6.966  70.015  1.00  0.00    -0.097 OA 
HETATM   16  H   UNL     1      -7.950   6.102  70.372  1.00  0.00     0.000 HD 
HETATM   17  C   UNL     1      -8.463   7.023  66.504  1.00  0.00    -0.125 C  
HETATM   18  O   UNL     1      -8.614   6.490  65.411  1.00  0.00    -0.141 OA 
HETATM   19  C   UNL     1      -8.598   8.512  66.753  1.00  0.00    -0.119 C  
BRANCH  19  20
HETATM   20  C   UNL     1      -7.657   9.385  65.916  1.00  0.00    -0.099 C  
BRANCH  20  21
HETATM   21  C   UNL     1      -8.340   9.942  64.666  1.00  0.00    -0.166 C  
BRANCH  21  22
HETATM   22  C   UNL     1      -9.537  10.821  65.013  1.00  0.00    -0.305 C  
BRANCH  22  23
HETATM   23  C   UNL     1     -10.512  10.885  63.835  1.00  0.00    -0.359 C  
BRANCH  23  24
HETATM   24  C   UNL     1     -10.826  12.332  63.474  1.00  0.00    -0.508 C  
BRANCH  24  25
HETATM   25  C   UNL     1     -10.719  13.258  64.683  1.00  0.00    -0.415 C  
BRANCH  25  26
HETATM   26  C   UNL     1     -12.064  13.434  65.346  1.00  0.00    -0.421 C  
HETATM   27  O   UNL     1     -13.143  13.190  64.828  1.00  0.00    -0.728 OA 
BRANCH  26  28
HETATM   28  O   UNL     1     -11.899  13.904  66.612  1.00  0.00    -0.374 OA 
HETATM   29  C   UNL     1     -10.631  14.525  66.824  1.00  0.00    -0.276 C  
ENDBRANCH  26  28
ENDBRANCH  25  26
ENDBRANCH  24  25
ENDBRANCH  23  24
ENDBRANCH  22  23
ENDBRANCH  21  22
ENDBRANCH  20  21
ENDBRANCH  19  20
ENDBRANCH  11  12
ENDBRANCH   8  10
ENDBRANCH   3   4
ENDBRANCH   2   3
TORSDOF 12
ENDMDL
MODEL      111
REMARK 921   NORMALIZED FREE ENERGY PREDICTED BY IDOCK:   -4.27 KCAL/MOL
REMARK 922        TOTAL FREE ENERGY PREDICTED BY IDOCK:   -9.31 KCAL/MOL
REMARK 923 INTER-LIGAND FREE ENERGY PREDICTED BY IDOCK:   -6.88 KCAL/MOL
REMARK 924 INTRA-LIGAND FREE ENERGY PREDICTED BY IDOCK:   -2.43 KCAL/MOL
REMARK 927      BINDING AFFINITY PREDICTED BY RF-SCORE:    0.00 PKD
ROOT
HETATM    1  C   UNL     1     -10.712  14.568  66.418  1.00  0.00    -0.309 C  
HETATM    2  C   UNL     1      -9.672  13.718  67.136  1.00  0.00    -0.244 C  
ENDROOT
BRANCH   2   3
HETATM    3  C   UNL     1     -10.302  12.424  67.640  1.00  0.00    -0.223 C  
BRANCH   3   4
HETATM    4  C   UNL     1     -11.179  12.643  68.880  1.00  0.00    -0.329 C  
HETATM    5  C   UNL     1     -11.704  11.323  69.494  1.00  0.00    -0.345 C  
HETATM    6  O   UNL     1     -12.531  10.680  68.515  1.00  0.00    -0.719 OA 
HETATM    7  C   UNL     1     -12.574  11.631  70.722  1.00  0.00    -0.365 C  
HETATM    8  C   UNL     1     -10.521  10.387  69.851  1.00  0.00    -0.266 C  
HETATM    9  H   UNL     1     -12.853   9.870  68.892  1.00  0.00     0.000 HD 
BRANCH   8  10
HETATM   10  C   UNL     1     -10.874   9.135  70.605  1.00  0.00    -0.321 C  
HETATM   11  C   UNL     1     -10.693   8.973  71.926  1.00  0.00    -0.401 C  
BRANCH  11  12
HETATM   12  C   UNL     1     -11.029   7.742  72.727  1.00  0.00    -0.447 C  
HETATM   13  C   UNL     1     -12.104   6.904  72.014  1.00  0.00    -0.296 C  
HETATM   14  C   UNL     1     -12.008   5.521  72.628  1.00  0.00    -0.106 C  
HETATM   15  O   UNL     1     -13.409   7.439  72.203  1.00  0.00    -0.507 OA 
HETATM   16  H   UNL     1     -14.074   6.922  71.762  1.00  0.00     0.000 HD 
HETATM   17  C   UNL     1     -10.550   5.423  72.950  1.00  0.00    -0.229 C  
HETATM   18  O   UNL     1      -9.989   4.351  73.143  1.00  0.00    -0.137 OA 
HETATM   19  C   UNL     1      -9.854   6.769  72.987  1.00  0.00    -0.191 C  
BRANCH  19  20
HETATM   20  C   UNL     1      -9.156   7.087  74.314  1.00  0.00    -0.250 C  
BRANCH  20  21
HETATM   21  C   UNL     1      -7.886   7.917  74.117  1.00  0.00    -0.251 C  
BRANCH  21  22
HETATM   22  C   UNL     1      -7.083   7.454  72.906  1.00  0.00    -0.073 C  
BRANCH  22  23
HETATM   23  C   UNL     1      -6.871   8.616  71.932  1.00  0.00    -0.088 C  
BRANCH  23  24
HETATM   24  C   UNL     1      -7.360   8.244  70.537  1.00  0.00    -0.056 C  
BRANCH  24  25
HETATM   25  C   UNL     1      -7.420   6.732  70.336  1.00  0.00    -0.087 C  
BRANCH  25  26
HETATM   26  C   UNL     1      -8.330   6.379  69.184  1.00  0.00    -0.122 C  
HETATM   27  O   UNL     1      -8.001   6.347  68.009  1.00  0.00    -0.106 OA 
BRANCH  26  28
HETATM   28  O   UNL     1      -9.578   6.096  69.649  1.00  0.00    -0.146 OA 
HETATM   29  C   UNL     1     -10.567   6.053  68.621  1.00  0.00    -0.266 C  
ENDBRANCH  26  28
ENDBRANCH  25  26
ENDBRANCH  24  25
ENDBRANCH  23  24
ENDBRANCH  22  23
ENDBRANCH  21  22
ENDBRANCH  20  21
ENDBRANCH  19  20
ENDBRANCH  11  12
ENDBRANCH   8  10
ENDBRANCH   3   4
ENDBRANCH   2   3
TORSDOF 12
ENDMDL
MODEL      112
REMARK 921   NORMALIZED FREE ENERGY PREDICTED BY IDOCK:   -4.26 KCAL/MOL
REMARK 922        TOTAL FREE ENERGY PREDICTED BY IDOCK:   -9.29 KCAL/MOL
REMARK 923 INTER-LIGAND FREE ENERGY PREDICTED BY IDOCK:   -7.55 KCAL/MOL
REMARK 924 INTRA-LIGAND FREE ENERGY PREDICTED BY IDOCK:   -1.74 KCAL/MOL
REMARK 927      BINDING AFFINITY PREDICTED BY RF-SCORE:    0.00 PKD
ROOT
HETATM    1  C   UNL     1      -9.414  14.456  66.371  1.00  0.00    -0.309 C  
HETATM    2  C   UNL     1     -10.499  13.900  65.459  1.00  0.00    -0.333 C  
ENDROOT
BRANCH   2   3
HETATM    3  C   UNL     1     -10.833  12.463  65.848  1.00  0.00    -0.305 C  
BRANCH   3   4
HETATM    4  C   UNL     1     -10.140  12.031  67.147  1.00  0.00    -0.217 C  
HETATM    5  C   UNL     1     -10.638  10.664  67.675  1.00  0.00    -0.246 C  
HETATM    6  O   UNL     1     -12.034  10.791  67.978  1.00  0.00    -0.780 OA 
HETATM    7  C   UNL     1      -9.900  10.311  68.975  1.00  0.00    -0.215 C  
HETATM    8  C   UNL     1     -10.451   9.568  66.595  1.00  0.00    -0.241 C  
HETATM    9  H   UNL     1     -12.339   9.953  68.302  1.00  0.00     0.000 HD 
BRANCH   8  10
HETATM   10  C   UNL     1     -10.742   8.159  67.028  1.00  0.00    -0.247 C  
HETATM   11  C   UNL     1      -9.838   7.166  67.026  1.00  0.00    -0.257 C  
BRANCH  11  12
HETATM   12  C   UNL     1     -10.078   5.740  67.449  1.00  0.00    -0.207 C  
HETATM   13  C   UNL     1      -9.912   4.782  66.256  1.00  0.00    -0.242 C  
HETATM   14  C   UNL     1      -9.698   3.412  66.869  1.00  0.00     0.012 C  
HETATM   15  O   UNL     1     -11.060   4.774  65.416  1.00  0.00    -0.812 OA 
HETATM   16  H   UNL     1     -10.958   4.183  64.679  1.00  0.00     0.000 HD 
HETATM   17  C   UNL     1      -8.980   3.746  68.139  1.00  0.00    -0.125 C  
HETATM   18  O   UNL     1      -8.325   2.919  68.762  1.00  0.00    -0.062 OA 
HETATM   19  C   UNL     1      -9.132   5.198  68.547  1.00  0.00    -0.133 C  
BRANCH  19  20
HETATM   20  C   UNL     1      -9.729   5.406  69.944  1.00  0.00    -0.249 C  
BRANCH  20  21
HETATM   21  C   UNL     1     -11.104   6.074  69.893  1.00  0.00    -0.469 C  
BRANCH  21  22
HETATM   22  C   UNL     1     -11.652   6.359  71.287  1.00  0.00    -0.370 C  
BRANCH  22  23
HETATM   23  C   UNL     1     -11.982   7.846  71.437  1.00  0.00    -0.331 C  
BRANCH  23  24
HETATM   24  C   UNL     1     -11.173   8.464  72.572  1.00  0.00    -0.406 C  
BRANCH  24  25
HETATM   25  C   UNL     1     -10.264   7.442  73.248  1.00  0.00    -0.386 C  
BRANCH  25  26
HETATM   26  C   UNL     1      -8.815   7.855  73.138  1.00  0.00    -0.233 C  
HETATM   27  O   UNL     1      -7.987   7.767  74.030  1.00  0.00    -0.151 OA 
BRANCH  26  28
HETATM   28  O   UNL     1      -8.565   8.341  71.891  1.00  0.00    -0.136 OA 
HETATM   29  C   UNL     1      -7.176   8.543  71.631  1.00  0.00    -0.097 C  
ENDBRANCH  26  28
ENDBRANCH  25  26
ENDBRANCH  24  25
ENDBRANCH  23  24
ENDBRANCH  22  23
ENDBRANCH  21  22
ENDBRANCH  20  21
ENDBRANCH  19  20
ENDBRANCH  11  12
ENDBRANCH   8  10
ENDBRANCH   3   4
ENDBRANCH   2   3
TORSDOF 12
ENDMDL
MODEL      113
REMARK 921   NORMALIZED FREE ENERGY PREDICTED BY IDOCK:   -4.25 KCAL/MOL
REMARK 922        TOTAL FREE ENERGY PREDICTED BY IDOCK:   -9.27 KCAL/MOL
REMARK 923 INTER-LIGAND FREE ENERGY PREDICTED BY IDOCK:   -7.18 KCAL/MOL
REMARK 924 INTRA-LIGAND FREE ENERGY PREDICTED BY IDOCK:   -2.09 KCAL/MOL
REMARK 927      BINDING AFFINITY PREDICTED BY RF-SCORE:    0.00 PKD
ROOT
HETATM    1  C   UNL     1     -11.090  15.973  67.791  1.00  0.00    -0.273 C  
HETATM    2  C   UNL     1     -11.329  16.024  69.294  1.00  0.00    -0.356 C  
ENDROOT
BRANCH   2   3
HETATM    3  C   UNL     1     -12.011  14.744  69.766  1.00  0.00    -0.368 C  
BRANCH   3   4
HETATM    4  C   UNL     1     -12.174  13.717  68.638  1.00  0.00    -0.189 C  
HETATM    5  C   UNL     1     -11.278  12.468  68.819  1.00  0.00    -0.273 C  
HETATM    6  O   UNL     1      -9.910  12.899  68.785  1.00  0.00    -0.400 OA 
HETATM    7  C   UNL     1     -11.499  11.497  67.649  1.00  0.00    -0.357 C  
HETATM    8  C   UNL     1     -11.563  11.793  70.184  1.00  0.00    -0.281 C  
HETATM    9  H   UNL     1      -9.360  12.133  68.896  1.00  0.00     0.000 HD 
BRANCH   8  10
HETATM   10  C   UNL     1     -10.880  10.476  70.425  1.00  0.00    -0.172 C  
HETATM   11  C   UNL     1     -11.526   9.314  70.620  1.00  0.00    -0.327 C  
BRANCH  11  12
HETATM   12  C   UNL     1     -10.889   7.970  70.864  1.00  0.00    -0.248 C  
HETATM   13  C   UNL     1     -11.890   7.006  71.524  1.00  0.00    -0.314 C  
HETATM   14  C   UNL     1     -11.328   5.618  71.280  1.00  0.00    -0.059 C  
HETATM   15  O   UNL     1     -12.022   7.248  72.920  1.00  0.00    -0.541 OA 
HETATM   16  H   UNL     1     -12.640   6.652  73.327  1.00  0.00     0.000 HD 
HETATM   17  C   UNL     1     -10.645   5.785  69.960  1.00  0.00    -0.310 C  
HETATM   18  O   UNL     1     -10.358   4.833  69.243  1.00  0.00    -0.154 OA 
HETATM   19  C   UNL     1     -10.374   7.233  69.605  1.00  0.00    -0.227 C  
BRANCH  19  20
HETATM   20  C   UNL     1      -8.900   7.557  69.337  1.00  0.00    -0.136 C  
BRANCH  20  21
HETATM   21  C   UNL     1      -8.685   8.179  67.957  1.00  0.00    -0.128 C  
BRANCH  21  22
HETATM   22  C   UNL     1      -9.993   8.331  67.188  1.00  0.00    -0.307 C  
BRANCH  22  23
HETATM   23  C   UNL     1      -9.714   8.718  65.733  1.00  0.00    -0.122 C  
BRANCH  23  24
HETATM   24  C   UNL     1      -8.899  10.004  65.666  1.00  0.00    -0.184 C  
BRANCH  24  25
HETATM   25  C   UNL     1      -9.004  10.676  64.299  1.00  0.00    -0.214 C  
BRANCH  25  26
HETATM   26  C   UNL     1     -10.193  11.605  64.247  1.00  0.00    -0.311 C  
HETATM   27  O   UNL     1     -11.276  11.337  63.751  1.00  0.00    -0.359 OA 
BRANCH  26  28
HETATM   28  O   UNL     1      -9.882  12.790  64.840  1.00  0.00    -0.170 OA 
HETATM   29  C   UNL     1     -10.909  13.773  64.711  1.00  0.00    -0.401 C  
ENDBRANCH  26  28
ENDBRANCH  25  26
ENDBRANCH  24  25
ENDBRANCH  23  24
ENDBRANCH  22  23
ENDBRANCH  21  22
ENDBRANCH  20  21
ENDBRANCH  19  20
ENDBRANCH  11  12
ENDBRANCH   8  10
ENDBRANCH   3   4
ENDBRANCH   2   3
TORSDOF 12
ENDMDL
MODEL      114
REMARK 921   NORMALIZED FREE ENERGY PREDICTED BY IDOCK:   -4.24 KCAL/MOL
REMARK 922        TOTAL FREE ENERGY PREDICTED BY IDOCK:   -9.25 KCAL/MOL
REMARK 923 INTER-LIGAND FREE ENERGY PREDICTED BY IDOCK:   -7.70 KCAL/MOL
REMARK 924 INTRA-LIGAND FREE ENERGY PREDICTED BY IDOCK:   -1.55 KCAL/MOL
REMARK 927      BINDING AFFINITY PREDICTED BY RF-SCORE:    0.00 PKD
ROOT
HETATM    1  C   UNL     1      -8.181   7.762  70.120  1.00  0.00    -0.123 C  
HETATM    2  C   UNL     1      -9.389   7.232  70.880  1.00  0.00    -0.159 C  
ENDROOT
BRANCH   2   3
HETATM    3  C   UNL     1     -10.668   7.501  70.095  1.00  0.00    -0.248 C  
BRANCH   3   4
HETATM    4  C   UNL     1     -11.670   8.356  70.882  1.00  0.00    -0.269 C  
HETATM    5  C   UNL     1     -11.574   9.865  70.551  1.00  0.00    -0.309 C  
HETATM    6  O   UNL     1     -10.265  10.315  70.928  1.00  0.00    -0.195 OA 
HETATM    7  C   UNL     1     -12.603  10.646  71.382  1.00  0.00    -0.526 C  
HETATM    8  C   UNL     1     -11.770  10.098  69.031  1.00  0.00     0.003 C  
HETATM    9  H   UNL     1     -10.206  11.241  70.726  1.00  0.00     0.000 HD 
BRANCH   8  10
HETATM   10  C   UNL     1     -11.862  11.531  68.589  1.00  0.00    -0.382 C  
HETATM   11  C   UNL     1     -11.677  11.944  67.324  1.00  0.00    -0.319 C  
BRANCH  11  12
HETATM   12  C   UNL     1     -11.758  13.366  66.830  1.00  0.00    -0.429 C  
HETATM   13  C   UNL     1     -11.450  14.356  67.966  1.00  0.00    -0.310 C  
HETATM   14  C   UNL     1     -11.092  15.658  67.275  1.00  0.00    -0.238 C  
HETATM   15  O   UNL     1     -12.567  14.544  68.827  1.00  0.00    -0.555 OA 
HETATM   16  H   UNL     1     -12.377  15.155  69.529  1.00  0.00     0.000 HD 
HETATM   17  C   UNL     1     -10.451  15.176  66.012  1.00  0.00    -0.319 C  
HETATM   18  O   UNL     1      -9.719  15.887  65.332  1.00  0.00    -0.397 OA 
HETATM   19  C   UNL     1     -10.784  13.734  65.686  1.00  0.00    -0.288 C  
BRANCH  19  20
HETATM   20  C   UNL     1     -11.437  13.527  64.314  1.00  0.00    -0.414 C  
BRANCH  20  21
HETATM   21  C   UNL     1     -10.690  12.498  63.465  1.00  0.00    -0.417 C  
BRANCH  21  22
HETATM   22  C   UNL     1     -10.765  11.098  64.066  1.00  0.00    -0.409 C  
BRANCH  22  23
HETATM   23  C   UNL     1      -9.360  10.568  64.361  1.00  0.00    -0.307 C  
BRANCH  23  24
HETATM   24  C   UNL     1      -9.250  10.113  65.812  1.00  0.00    -0.221 C  
BRANCH  24  25
HETATM   25  C   UNL     1      -8.537   8.770  65.938  1.00  0.00    -0.174 C  
BRANCH  25  26
HETATM   26  C   UNL     1      -9.514   7.675  66.296  1.00  0.00    -0.110 C  
HETATM   27  O   UNL     1     -10.640   7.850  66.734  1.00  0.00    -0.326 OA 
BRANCH  26  28
HETATM   28  O   UNL     1      -8.954   6.458  66.056  1.00  0.00    -0.157 OA 
HETATM   29  C   UNL     1      -7.693   6.536  65.392  1.00  0.00    -0.099 C  
ENDBRANCH  26  28
ENDBRANCH  25  26
ENDBRANCH  24  25
ENDBRANCH  23  24
ENDBRANCH  22  23
ENDBRANCH  21  22
ENDBRANCH  20  21
ENDBRANCH  19  20
ENDBRANCH  11  12
ENDBRANCH   8  10
ENDBRANCH   3   4
ENDBRANCH   2   3
TORSDOF 12
ENDMDL
MODEL      115
REMARK 921   NORMALIZED FREE ENERGY PREDICTED BY IDOCK:   -4.20 KCAL/MOL
REMARK 922        TOTAL FREE ENERGY PREDICTED BY IDOCK:   -9.19 KCAL/MOL
REMARK 923 INTER-LIGAND FREE ENERGY PREDICTED BY IDOCK:   -7.94 KCAL/MOL
REMARK 924 INTRA-LIGAND FREE ENERGY PREDICTED BY IDOCK:   -1.25 KCAL/MOL
REMARK 927      BINDING AFFINITY PREDICTED BY RF-SCORE:    0.00 PKD
ROOT
HETATM    1  C   UNL     1     -10.622   6.628  67.436  1.00  0.00    -0.370 C  
HETATM    2  C   UNL     1     -10.198   7.791  68.322  1.00  0.00    -0.236 C  
ENDROOT
BRANCH   2   3
HETATM    3  C   UNL     1     -10.089   7.338  69.775  1.00  0.00    -0.196 C  
BRANCH   3   4
HETATM    4  C   UNL     1     -11.440   7.373  70.502  1.00  0.00    -0.281 C  
HETATM    5  C   UNL     1     -11.671   8.683  71.294  1.00  0.00    -0.289 C  
HETATM    6  O   UNL     1     -10.657   8.770  72.305  1.00  0.00    -0.337 OA 
HETATM    7  C   UNL     1     -13.037   8.633  71.993  1.00  0.00    -0.417 C  
HETATM    8  C   UNL     1     -11.553   9.909  70.353  1.00  0.00    -0.356 C  
HETATM    9  H   UNL     1     -10.799   9.574  72.791  1.00  0.00     0.000 HD 
BRANCH   8  10
HETATM   10  C   UNL     1     -11.913  11.239  70.953  1.00  0.00    -0.319 C  
HETATM   11  C   UNL     1     -12.530  12.227  70.284  1.00  0.00    -0.159 C  
BRANCH  11  12
HETATM   12  C   UNL     1     -12.913  13.575  70.839  1.00  0.00    -0.224 C  
HETATM   13  C   UNL     1     -13.130  13.497  72.359  1.00  0.00    -0.393 C  
HETATM   14  C   UNL     1     -13.028  14.928  72.852  1.00  0.00    -0.572 C  
HETATM   15  O   UNL     1     -14.402  12.951  72.688  1.00  0.00    -0.627 OA 
HETATM   16  H   UNL     1     -14.537  12.902  73.628  1.00  0.00     0.000 HD 
HETATM   17  C   UNL     1     -12.040  15.518  71.896  1.00  0.00    -0.412 C  
HETATM   18  O   UNL     1     -11.421  16.547  72.141  1.00  0.00    -0.304 OA 
HETATM   19  C   UNL     1     -11.877  14.705  70.627  1.00  0.00    -0.367 C  
BRANCH  19  20
HETATM   20  C   UNL     1     -12.159  15.481  69.336  1.00  0.00    -0.302 C  
BRANCH  20  21
HETATM   21  C   UNL     1     -11.021  15.353  68.322  1.00  0.00    -0.288 C  
BRANCH  21  22
HETATM   22  C   UNL     1     -10.241  14.054  68.499  1.00  0.00    -0.237 C  
BRANCH  22  23
HETATM   23  C   UNL     1      -9.642  13.606  67.164  1.00  0.00    -0.241 C  
BRANCH  23  24
HETATM   24  C   UNL     1      -8.403  12.748  67.392  1.00  0.00    -0.189 C  
BRANCH  24  25
HETATM   25  C   UNL     1      -7.476  13.350  68.445  1.00  0.00    -0.117 C  
BRANCH  25  26
HETATM   26  C   UNL     1      -6.058  13.428  67.931  1.00  0.00    -0.146 C  
HETATM   27  O   UNL     1      -5.627  12.832  66.957  1.00  0.00    -0.341 OA 
BRANCH  26  28
HETATM   28  O   UNL     1      -5.326  14.264  68.717  1.00  0.00    -0.082 OA 
HETATM   29  C   UNL     1      -5.951  14.558  69.966  1.00  0.00    -0.141 C  
ENDBRANCH  26  28
ENDBRANCH  25  26
ENDBRANCH  24  25
ENDBRANCH  23  24
ENDBRANCH  22  23
ENDBRANCH  21  22
ENDBRANCH  20  21
ENDBRANCH  19  20
ENDBRANCH  11  12
ENDBRANCH   8  10
ENDBRANCH   3   4
ENDBRANCH   2   3
TORSDOF 12
ENDMDL
MODEL      116
REMARK 921   NORMALIZED FREE ENERGY PREDICTED BY IDOCK:   -4.20 KCAL/MOL
REMARK 922        TOTAL FREE ENERGY PREDICTED BY IDOCK:   -9.18 KCAL/MOL
REMARK 923 INTER-LIGAND FREE ENERGY PREDICTED BY IDOCK:   -7.97 KCAL/MOL
REMARK 924 INTRA-LIGAND FREE ENERGY PREDICTED BY IDOCK:   -1.21 KCAL/MOL
REMARK 927      BINDING AFFINITY PREDICTED BY RF-SCORE:    0.00 PKD
ROOT
HETATM    1  C   UNL     1      -8.750   3.746  64.946  1.00  0.00    -0.115 C  
HETATM    2  C   UNL     1      -7.640   4.788  64.969  1.00  0.00    -0.077 C  
ENDROOT
BRANCH   2   3
HETATM    3  C   UNL     1      -7.691   5.587  66.267  1.00  0.00    -0.099 C  
BRANCH   3   4
HETATM    4  C   UNL     1      -9.123   5.967  66.666  1.00  0.00    -0.138 C  
HETATM    5  C   UNL     1      -9.300   7.481  66.931  1.00  0.00    -0.157 C  
HETATM    6  O   UNL     1      -8.458   7.835  68.037  1.00  0.00    -0.123 OA 
HETATM    7  C   UNL     1     -10.754   7.773  67.328  1.00  0.00    -0.326 C  
HETATM    8  C   UNL     1      -8.871   8.300  65.686  1.00  0.00    -0.172 C  
HETATM    9  H   UNL     1      -8.566   8.765  68.200  1.00  0.00     0.000 HD 
BRANCH   8  10
HETATM   10  C   UNL     1      -9.141   9.777  65.743  1.00  0.00    -0.221 C  
HETATM   11  C   UNL     1     -10.248  10.361  65.255  1.00  0.00    -0.332 C  
BRANCH  11  12
HETATM   12  C   UNL     1     -10.566  11.834  65.286  1.00  0.00    -0.327 C  
HETATM   13  C   UNL     1     -10.705  12.392  63.860  1.00  0.00    -0.426 C  
HETATM   14  C   UNL     1     -11.472  13.692  64.011  1.00  0.00    -0.303 C  
HETATM   15  O   UNL     1      -9.439  12.632  63.255  1.00  0.00    -0.452 OA 
HETATM   16  H   UNL     1      -9.525  12.976  62.374  1.00  0.00     0.000 HD 
HETATM   17  C   UNL     1     -12.352  13.401  65.185  1.00  0.00    -0.456 C  
HETATM   18  O   UNL     1     -13.363  14.050  65.427  1.00  0.00    -0.721 OA 
HETATM   19  C   UNL     1     -11.877  12.222  66.011  1.00  0.00    -0.409 C  
BRANCH  19  20
HETATM   20  C   UNL     1     -11.620  12.542  67.487  1.00  0.00    -0.424 C  
BRANCH  20  21
HETATM   21  C   UNL     1     -10.871  11.418  68.203  1.00  0.00    -0.259 C  
BRANCH  21  22
HETATM   22  C   UNL     1     -11.763  10.677  69.194  1.00  0.00    -0.324 C  
BRANCH  22  23
HETATM   23  C   UNL     1     -10.926  10.109  70.344  1.00  0.00    -0.386 C  
BRANCH  23  24
HETATM   24  C   UNL     1     -11.748   9.131  71.175  1.00  0.00    -0.380 C  
BRANCH  24  25
HETATM   25  C   UNL     1     -10.887   8.370  72.178  1.00  0.00    -0.407 C  
BRANCH  25  26
HETATM   26  C   UNL     1     -10.407   7.063  71.592  1.00  0.00    -0.198 C  
HETATM   27  O   UNL     1     -10.339   6.807  70.401  1.00  0.00    -0.194 OA 
BRANCH  26  28
HETATM   28  O   UNL     1     -10.058   6.207  72.592  1.00  0.00    -0.178 OA 
HETATM   29  C   UNL     1     -10.210   6.768  73.895  1.00  0.00    -0.367 C  
ENDBRANCH  26  28
ENDBRANCH  25  26
ENDBRANCH  24  25
ENDBRANCH  23  24
ENDBRANCH  22  23
ENDBRANCH  21  22
ENDBRANCH  20  21
ENDBRANCH  19  20
ENDBRANCH  11  12
ENDBRANCH   8  10
ENDBRANCH   3   4
ENDBRANCH   2   3
TORSDOF 12
ENDMDL
MODEL      117
REMARK 921   NORMALIZED FREE ENERGY PREDICTED BY IDOCK:   -4.20 KCAL/MOL
REMARK 922        TOTAL FREE ENERGY PREDICTED BY IDOCK:   -9.18 KCAL/MOL
REMARK 923 INTER-LIGAND FREE ENERGY PREDICTED BY IDOCK:   -7.36 KCAL/MOL
REMARK 924 INTRA-LIGAND FREE ENERGY PREDICTED BY IDOCK:   -1.82 KCAL/MOL
REMARK 927      BINDING AFFINITY PREDICTED BY RF-SCORE:    0.00 PKD
ROOT
HETATM    1  C   UNL     1     -14.016  15.522  72.413  1.00  0.00    -0.653 C  
HETATM    2  C   UNL     1     -13.641  14.048  72.362  1.00  0.00    -0.658 C  
ENDROOT
BRANCH   2   3
HETATM    3  C   UNL     1     -12.375  13.852  71.534  1.00  0.00    -0.327 C  
BRANCH   3   4
HETATM    4  C   UNL     1     -12.619  14.051  70.033  1.00  0.00    -0.250 C  
HETATM    5  C   UNL     1     -11.808  13.073  69.150  1.00  0.00    -0.310 C  
HETATM    6  O   UNL     1     -10.415  13.328  69.376  1.00  0.00    -0.427 OA 
HETATM    7  C   UNL     1     -12.105  13.343  67.667  1.00  0.00    -0.311 C  
HETATM    8  C   UNL     1     -12.124  11.606  69.539  1.00  0.00    -0.336 C  
HETATM    9  H   UNL     1      -9.917  12.727  68.834  1.00  0.00     0.000 HD 
BRANCH   8  10
HETATM   10  C   UNL     1     -11.529  10.546  68.656  1.00  0.00    -0.290 C  
HETATM   11  C   UNL     1     -10.350   9.945  68.887  1.00  0.00    -0.221 C  
BRANCH  11  12
HETATM   12  C   UNL     1      -9.712   8.878  68.035  1.00  0.00    -0.181 C  
HETATM   13  C   UNL     1      -8.725   9.500  67.032  1.00  0.00    -0.128 C  
HETATM   14  C   UNL     1      -7.825   8.359  66.595  1.00  0.00    -0.093 C  
HETATM   15  O   UNL     1      -9.392  10.062  65.907  1.00  0.00    -0.162 OA 
HETATM   16  H   UNL     1      -8.782  10.447  65.288  1.00  0.00     0.000 HD 
HETATM   17  C   UNL     1      -7.777   7.511  67.826  1.00  0.00    -0.115 C  
HETATM   18  O   UNL     1      -6.898   6.678  68.018  1.00  0.00    -0.071 OA 
HETATM   19  C   UNL     1      -8.901   7.806  68.800  1.00  0.00    -0.134 C  
BRANCH  19  20
HETATM   20  C   UNL     1      -9.774   6.595  69.148  1.00  0.00    -0.148 C  
BRANCH  20  21
HETATM   21  C   UNL     1     -11.255   6.959  69.254  1.00  0.00    -0.188 C  
BRANCH  21  22
HETATM   22  C   UNL     1     -11.794   6.757  70.666  1.00  0.00    -0.442 C  
BRANCH  22  23
HETATM   23  C   UNL     1     -12.279   8.087  71.248  1.00  0.00    -0.308 C  
BRANCH  23  24
HETATM   24  C   UNL     1     -11.542   8.408  72.543  1.00  0.00    -0.426 C  
BRANCH  24  25
HETATM   25  C   UNL     1     -10.841   7.181  73.120  1.00  0.00    -0.373 C  
BRANCH  25  26
HETATM   26  C   UNL     1      -9.391   7.480  73.415  1.00  0.00    -0.238 C  
HETATM   27  O   UNL     1      -8.649   6.781  74.087  1.00  0.00    -0.131 OA 
BRANCH  26  28
HETATM   28  O   UNL     1      -9.027   8.648  72.817  1.00  0.00    -0.356 OA 
HETATM   29  C   UNL     1      -7.747   8.586  72.188  1.00  0.00    -0.078 C  
ENDBRANCH  26  28
ENDBRANCH  25  26
ENDBRANCH  24  25
ENDBRANCH  23  24
ENDBRANCH  22  23
ENDBRANCH  21  22
ENDBRANCH  20  21
ENDBRANCH  19  20
ENDBRANCH  11  12
ENDBRANCH   8  10
ENDBRANCH   3   4
ENDBRANCH   2   3
TORSDOF 12
ENDMDL
MODEL      118
REMARK 921   NORMALIZED FREE ENERGY PREDICTED BY IDOCK:   -4.19 KCAL/MOL
REMARK 922        TOTAL FREE ENERGY PREDICTED BY IDOCK:   -9.18 KCAL/MOL
REMARK 923 INTER-LIGAND FREE ENERGY PREDICTED BY IDOCK:   -7.78 KCAL/MOL
REMARK 924 INTRA-LIGAND FREE ENERGY PREDICTED BY IDOCK:   -1.40 KCAL/MOL
REMARK 927      BINDING AFFINITY PREDICTED BY RF-SCORE:    0.00 PKD
ROOT
HETATM    1  C   UNL     1     -11.551  14.364  64.618  1.00  0.00    -0.414 C  
HETATM    2  C   UNL     1     -12.657  14.212  65.654  1.00  0.00    -0.495 C  
ENDROOT
BRANCH   2   3
HETATM    3  C   UNL     1     -12.059  14.042  67.046  1.00  0.00    -0.455 C  
BRANCH   3   4
HETATM    4  C   UNL     1     -10.538  13.845  67.011  1.00  0.00    -0.279 C  
HETATM    5  C   UNL     1     -10.090  12.467  67.556  1.00  0.00    -0.207 C  
HETATM    6  O   UNL     1     -10.482  12.391  68.934  1.00  0.00    -0.360 OA 
HETATM    7  C   UNL     1      -8.560  12.356  67.490  1.00  0.00    -0.177 C  
HETATM    8  C   UNL     1     -10.782  11.325  66.769  1.00  0.00    -0.323 C  
HETATM    9  H   UNL     1     -10.207  11.546  69.269  1.00  0.00     0.000 HD 
BRANCH   8  10
HETATM   10  C   UNL     1     -10.318   9.931  67.084  1.00  0.00    -0.304 C  
HETATM   11  C   UNL     1      -9.670   9.137  66.216  1.00  0.00    -0.344 C  
BRANCH  11  12
HETATM   12  C   UNL     1      -9.184   7.735  66.481  1.00  0.00    -0.229 C  
HETATM   13  C   UNL     1      -8.026   7.372  65.536  1.00  0.00    -0.122 C  
HETATM   14  C   UNL     1      -7.329   6.194  66.191  1.00  0.00    -0.080 C  
HETATM   15  O   UNL     1      -8.488   7.015  64.239  1.00  0.00    -0.341 OA 
HETATM   16  H   UNL     1      -7.773   6.791  63.655  1.00  0.00     0.000 HD 
HETATM   17  C   UNL     1      -7.534   6.479  67.645  1.00  0.00    -0.097 C  
HETATM   18  O   UNL     1      -6.846   5.965  68.520  1.00  0.00    -0.064 OA 
HETATM   19  C   UNL     1      -8.650   7.470  67.909  1.00  0.00    -0.121 C  
BRANCH  19  20
HETATM   20  C   UNL     1      -9.761   6.947  68.827  1.00  0.00    -0.137 C  
BRANCH  20  21
HETATM   21  C   UNL     1      -9.206   6.285  70.089  1.00  0.00    -0.162 C  
BRANCH  21  22
HETATM   22  C   UNL     1     -10.315   5.831  71.032  1.00  0.00    -0.291 C  
BRANCH  22  23
HETATM   23  C   UNL     1     -11.658   6.426  70.601  1.00  0.00    -0.412 C  
BRANCH  23  24
HETATM   24  C   UNL     1     -12.383   7.038  71.794  1.00  0.00    -0.391 C  
BRANCH  24  25
HETATM   25  C   UNL     1     -11.577   8.164  72.436  1.00  0.00    -0.463 C  
BRANCH  25  26
HETATM   26  C   UNL     1     -11.681   9.431  71.620  1.00  0.00    -0.398 C  
HETATM   27  O   UNL     1     -10.866   9.805  70.792  1.00  0.00    -0.297 OA 
BRANCH  26  28
HETATM   28  O   UNL     1     -12.822  10.098  71.944  1.00  0.00    -0.413 OA 
HETATM   29  C   UNL     1     -12.827  11.456  71.504  1.00  0.00    -0.403 C  
ENDBRANCH  26  28
ENDBRANCH  25  26
ENDBRANCH  24  25
ENDBRANCH  23  24
ENDBRANCH  22  23
ENDBRANCH  21  22
ENDBRANCH  20  21
ENDBRANCH  19  20
ENDBRANCH  11  12
ENDBRANCH   8  10
ENDBRANCH   3   4
ENDBRANCH   2   3
TORSDOF 12
ENDMDL
MODEL      119
REMARK 921   NORMALIZED FREE ENERGY PREDICTED BY IDOCK:   -4.19 KCAL/MOL
REMARK 922        TOTAL FREE ENERGY PREDICTED BY IDOCK:   -9.17 KCAL/MOL
REMARK 923 INTER-LIGAND FREE ENERGY PREDICTED BY IDOCK:   -7.45 KCAL/MOL
REMARK 924 INTRA-LIGAND FREE ENERGY PREDICTED BY IDOCK:   -1.73 KCAL/MOL
REMARK 927      BINDING AFFINITY PREDICTED BY RF-SCORE:    0.00 PKD
ROOT
HETATM    1  C   UNL     1     -12.378  11.609  70.637  1.00  0.00    -0.437 C  
HETATM    2  C   UNL     1     -11.613  12.360  69.555  1.00  0.00    -0.353 C  
ENDROOT
BRANCH   2   3
HETATM    3  C   UNL     1     -11.810  11.685  68.202  1.00  0.00    -0.315 C  
BRANCH   3   4
HETATM    4  C   UNL     1     -10.515  11.628  67.380  1.00  0.00    -0.239 C  
HETATM    5  C   UNL     1      -9.787  10.266  67.486  1.00  0.00    -0.173 C  
HETATM    6  O   UNL     1      -9.413  10.073  68.857  1.00  0.00    -0.156 OA 
HETATM    7  C   UNL     1      -8.505  10.296  66.642  1.00  0.00    -0.124 C  
HETATM    8  C   UNL     1     -10.731   9.116  67.052  1.00  0.00    -0.189 C  
HETATM    9  H   UNL     1      -8.966   9.237  68.922  1.00  0.00     0.000 HD 
BRANCH   8  10
HETATM   10  C   UNL     1     -10.107   7.753  66.950  1.00  0.00    -0.356 C  
HETATM   11  C   UNL     1     -10.795   6.600  67.012  1.00  0.00    -0.467 C  
BRANCH  11  12
HETATM   12  C   UNL     1     -10.219   5.211  66.915  1.00  0.00    -0.279 C  
HETATM   13  C   UNL     1     -10.208   4.727  65.456  1.00  0.00    -0.135 C  
HETATM   14  C   UNL     1      -9.208   3.587  65.419  1.00  0.00    -0.154 C  
HETATM   15  O   UNL     1     -11.490   4.273  65.035  1.00  0.00    -1.020 OA 
HETATM   16  H   UNL     1     -11.484   3.974  64.134  1.00  0.00     0.000 HD 
HETATM   17  C   UNL     1      -8.220   4.005  66.462  1.00  0.00    -0.101 C  
HETATM   18  O   UNL     1      -7.085   3.546  66.515  1.00  0.00    -0.060 OA 
HETATM   19  C   UNL     1      -8.762   5.054  67.413  1.00  0.00    -0.103 C  
BRANCH  19  20
HETATM   20  C   UNL     1      -8.722   4.652  68.892  1.00  0.00    -0.110 C  
BRANCH  20  21
HETATM   21  C   UNL     1     -10.121   4.523  69.495  1.00  0.00    -0.139 C  
BRANCH  21  22
HETATM   22  C   UNL     1     -10.299   5.412  70.722  1.00  0.00    -0.322 C  
BRANCH  22  23
HETATM   23  C   UNL     1     -11.397   6.449  70.473  1.00  0.00    -0.438 C  
BRANCH  23  24
HETATM   24  C   UNL     1     -11.793   7.135  71.776  1.00  0.00    -0.338 C  
BRANCH  24  25
HETATM   25  C   UNL     1     -10.906   8.338  72.081  1.00  0.00    -0.390 C  
BRANCH  25  26
HETATM   26  C   UNL     1      -9.942   8.024  73.200  1.00  0.00    -0.246 C  
HETATM   27  O   UNL     1     -10.191   7.328  74.171  1.00  0.00    -0.255 OA 
BRANCH  26  28
HETATM   28  O   UNL     1      -8.747   8.633  72.968  1.00  0.00    -0.380 OA 
HETATM   29  C   UNL     1      -8.322   8.542  71.608  1.00  0.00    -0.165 C  
ENDBRANCH  26  28
ENDBRANCH  25  26
ENDBRANCH  24  25
ENDBRANCH  23  24
ENDBRANCH  22  23
ENDBRANCH  21  22
ENDBRANCH  20  21
ENDBRANCH  19  20
ENDBRANCH  11  12
ENDBRANCH   8  10
ENDBRANCH   3   4
ENDBRANCH   2   3
TORSDOF 12
ENDMDL
MODEL      120
REMARK 921   NORMALIZED FREE ENERGY PREDICTED BY IDOCK:   -4.19 KCAL/MOL
REMARK 922        TOTAL FREE ENERGY PREDICTED BY IDOCK:   -9.17 KCAL/MOL
REMARK 923 INTER-LIGAND FREE ENERGY PREDICTED BY IDOCK:   -8.02 KCAL/MOL
REMARK 924 INTRA-LIGAND FREE ENERGY PREDICTED BY IDOCK:   -1.15 KCAL/MOL
REMARK 927      BINDING AFFINITY PREDICTED BY RF-SCORE:    0.00 PKD
ROOT
HETATM    1  C   UNL     1      -6.283  21.154  67.576  1.00  0.00    -0.429 C  
HETATM    2  C   UNL     1      -6.294  20.855  66.083  1.00  0.00    -0.295 C  
ENDROOT
BRANCH   2   3
HETATM    3  C   UNL     1      -7.470  19.950  65.732  1.00  0.00    -0.330 C  
BRANCH   3   4
HETATM    4  C   UNL     1      -8.471  19.815  66.886  1.00  0.00    -0.364 C  
HETATM    5  C   UNL     1      -9.619  18.822  66.583  1.00  0.00    -0.336 C  
HETATM    6  O   UNL     1     -10.354  19.328  65.460  1.00  0.00    -0.469 OA 
HETATM    7  C   UNL     1     -10.575  18.751  67.783  1.00  0.00    -0.452 C  
HETATM    8  C   UNL     1      -9.045  17.427  66.225  1.00  0.00    -0.232 C  
HETATM    9  H   UNL     1     -11.058  18.720  65.274  1.00  0.00     0.000 HD 
BRANCH   8  10
HETATM   10  C   UNL     1     -10.050  16.322  66.064  1.00  0.00    -0.377 C  
HETATM   11  C   UNL     1      -9.729  15.027  65.902  1.00  0.00    -0.376 C  
BRANCH  11  12
HETATM   12  C   UNL     1     -10.695  13.883  65.737  1.00  0.00    -0.289 C  
HETATM   13  C   UNL     1     -12.129  14.328  66.071  1.00  0.00    -0.408 C  
HETATM   14  C   UNL     1     -13.031  13.292  65.427  1.00  0.00    -0.171 C  
HETATM   15  O   UNL     1     -12.359  14.380  67.474  1.00  0.00    -0.621 OA 
HETATM   16  H   UNL     1     -13.245  14.655  67.680  1.00  0.00     0.000 HD 
HETATM   17  C   UNL     1     -12.238  12.895  64.222  1.00  0.00    -0.410 C  
HETATM   18  O   UNL     1     -12.746  12.338  63.254  1.00  0.00    -0.699 OA 
HETATM   19  C   UNL     1     -10.773  13.270  64.319  1.00  0.00    -0.408 C  
BRANCH  19  20
HETATM   20  C   UNL     1      -9.804  12.091  64.171  1.00  0.00    -0.210 C  
BRANCH  20  21
HETATM   21  C   UNL     1     -10.116  10.958  65.150  1.00  0.00    -0.352 C  
BRANCH  21  22
HETATM   22  C   UNL     1      -8.922  10.623  66.037  1.00  0.00    -0.189 C  
BRANCH  22  23
HETATM   23  C   UNL     1      -7.685  10.337  65.182  1.00  0.00    -0.136 C  
BRANCH  23  24
HETATM   24  C   UNL     1      -7.629   8.864  64.795  1.00  0.00    -0.106 C  
BRANCH  24  25
HETATM   25  C   UNL     1      -6.948   8.653  63.445  1.00  0.00    -0.089 C  
BRANCH  25  26
HETATM   26  C   UNL     1      -6.630   7.193  63.226  1.00  0.00    -0.052 C  
HETATM   27  O   UNL     1      -5.512   6.705  63.245  1.00  0.00    -0.029 OA 
BRANCH  26  28
HETATM   28  O   UNL     1      -7.778   6.497  63.004  1.00  0.00    -0.083 OA 
HETATM   29  C   UNL     1      -7.996   5.450  63.950  1.00  0.00    -0.111 C  
ENDBRANCH  26  28
ENDBRANCH  25  26
ENDBRANCH  24  25
ENDBRANCH  23  24
ENDBRANCH  22  23
ENDBRANCH  21  22
ENDBRANCH  20  21
ENDBRANCH  19  20
ENDBRANCH  11  12
ENDBRANCH   8  10
ENDBRANCH   3   4
ENDBRANCH   2   3
TORSDOF 12
ENDMDL
MODEL      121
REMARK 921   NORMALIZED FREE ENERGY PREDICTED BY IDOCK:   -4.19 KCAL/MOL
REMARK 922        TOTAL FREE ENERGY PREDICTED BY IDOCK:   -9.16 KCAL/MOL
REMARK 923 INTER-LIGAND FREE ENERGY PREDICTED BY IDOCK:   -7.69 KCAL/MOL
REMARK 924 INTRA-LIGAND FREE ENERGY PREDICTED BY IDOCK:   -1.47 KCAL/MOL
REMARK 927      BINDING AFFINITY PREDICTED BY RF-SCORE:    0.00 PKD
ROOT
HETATM    1  C   UNL     1      -9.392   8.159  72.929  1.00  0.00    -0.343 C  
HETATM    2  C   UNL     1     -10.893   8.169  72.672  1.00  0.00    -0.429 C  
ENDROOT
BRANCH   2   3
HETATM    3  C   UNL     1     -11.245   7.196  71.552  1.00  0.00    -0.273 C  
BRANCH   3   4
HETATM    4  C   UNL     1     -10.002   6.662  70.827  1.00  0.00    -0.201 C  
HETATM    5  C   UNL     1      -9.965   7.040  69.326  1.00  0.00    -0.162 C  
HETATM    6  O   UNL     1     -11.101   6.436  68.692  1.00  0.00    -0.373 OA 
HETATM    7  C   UNL     1      -8.698   6.465  68.678  1.00  0.00    -0.122 C  
HETATM    8  C   UNL     1     -10.048   8.578  69.155  1.00  0.00    -0.207 C  
HETATM    9  H   UNL     1     -11.079   6.668  67.772  1.00  0.00     0.000 HD 
BRANCH   8  10
HETATM   10  C   UNL     1      -9.861   9.098  67.758  1.00  0.00    -0.214 C  
HETATM   11  C   UNL     1      -8.858   9.910  67.382  1.00  0.00    -0.137 C  
BRANCH  11  12
HETATM   12  C   UNL     1      -8.625  10.458  65.998  1.00  0.00    -0.158 C  
HETATM   13  C   UNL     1      -7.858   9.443  65.133  1.00  0.00    -0.110 C  
HETATM   14  C   UNL     1      -8.104   9.873  63.699  1.00  0.00    -0.153 C  
HETATM   15  O   UNL     1      -6.464   9.447  65.418  1.00  0.00    -0.067 OA 
HETATM   16  H   UNL     1      -5.990   8.820  64.883  1.00  0.00     0.000 HD 
HETATM   17  C   UNL     1      -9.480  10.454  63.779  1.00  0.00    -0.305 C  
HETATM   18  O   UNL     1     -10.189  10.606  62.790  1.00  0.00    -0.115 OA 
HETATM   19  C   UNL     1      -9.899  10.807  65.192  1.00  0.00    -0.333 C  
BRANCH  19  20
HETATM   20  C   UNL     1     -10.295  12.274  65.390  1.00  0.00    -0.298 C  
BRANCH  20  21
HETATM   21  C   UNL     1     -11.580  12.423  66.206  1.00  0.00    -0.449 C  
BRANCH  21  22
HETATM   22  C   UNL     1     -12.373  13.662  65.802  1.00  0.00    -0.524 C  
BRANCH  22  23
HETATM   23  C   UNL     1     -11.709  14.356  64.610  1.00  0.00    -0.438 C  
BRANCH  23  24
HETATM   24  C   UNL     1     -11.406  15.813  64.938  1.00  0.00    -0.284 C  
BRANCH  24  25
HETATM   25  C   UNL     1     -10.141  15.958  65.780  1.00  0.00    -0.389 C  
BRANCH  25  26
HETATM   26  C   UNL     1     -10.253  17.134  66.721  1.00  0.00    -0.311 C  
HETATM   27  O   UNL     1     -10.719  17.094  67.849  1.00  0.00    -0.368 OA 
BRANCH  26  28
HETATM   28  O   UNL     1      -9.756  18.253  66.126  1.00  0.00    -0.455 OA 
HETATM   29  C   UNL     1     -10.390  19.455  66.564  1.00  0.00    -0.469 C  
ENDBRANCH  26  28
ENDBRANCH  25  26
ENDBRANCH  24  25
ENDBRANCH  23  24
ENDBRANCH  22  23
ENDBRANCH  21  22
ENDBRANCH  20  21
ENDBRANCH  19  20
ENDBRANCH  11  12
ENDBRANCH   8  10
ENDBRANCH   3   4
ENDBRANCH   2   3
TORSDOF 12
ENDMDL
MODEL      122
REMARK 921   NORMALIZED FREE ENERGY PREDICTED BY IDOCK:   -4.18 KCAL/MOL
REMARK 922        TOTAL FREE ENERGY PREDICTED BY IDOCK:   -9.16 KCAL/MOL
REMARK 923 INTER-LIGAND FREE ENERGY PREDICTED BY IDOCK:   -7.34 KCAL/MOL
REMARK 924 INTRA-LIGAND FREE ENERGY PREDICTED BY IDOCK:   -1.82 KCAL/MOL
REMARK 927      BINDING AFFINITY PREDICTED BY RF-SCORE:    0.00 PKD
ROOT
HETATM    1  C   UNL     1     -11.967  14.238  67.327  1.00  0.00    -0.439 C  
HETATM    2  C   UNL     1     -11.829  14.458  68.827  1.00  0.00    -0.360 C  
ENDROOT
BRANCH   2   3
HETATM    3  C   UNL     1     -11.888  13.125  69.566  1.00  0.00    -0.383 C  
BRANCH   3   4
HETATM    4  C   UNL     1     -11.822  11.923  68.613  1.00  0.00    -0.365 C  
HETATM    5  C   UNL     1     -10.823  10.836  69.075  1.00  0.00    -0.235 C  
HETATM    6  O   UNL     1      -9.513  11.419  69.089  1.00  0.00    -0.408 OA 
HETATM    7  C   UNL     1     -10.816   9.677  68.067  1.00  0.00    -0.250 C  
HETATM    8  C   UNL     1     -11.176  10.350  70.504  1.00  0.00    -0.395 C  
HETATM    9  H   UNL     1      -8.899  10.752  69.371  1.00  0.00     0.000 HD 
BRANCH   8  10
HETATM   10  C   UNL     1     -10.386   9.179  71.017  1.00  0.00    -0.363 C  
HETATM   11  C   UNL     1     -10.931   8.093  71.588  1.00  0.00    -0.306 C  
BRANCH  11  12
HETATM   12  C   UNL     1     -10.186   6.894  72.118  1.00  0.00    -0.213 C  
HETATM   13  C   UNL     1     -10.508   6.665  73.604  1.00  0.00    -0.330 C  
HETATM   14  C   UNL     1     -10.115   5.227  73.882  1.00  0.00    -0.232 C  
HETATM   15  O   UNL     1      -9.780   7.549  74.450  1.00  0.00    -0.367 OA 
HETATM   16  H   UNL     1      -9.979   7.407  75.368  1.00  0.00     0.000 HD 
HETATM   17  C   UNL     1     -10.391   4.568  72.567  1.00  0.00    -0.195 C  
HETATM   18  O   UNL     1     -10.534   3.356  72.455  1.00  0.00    -0.146 OA 
HETATM   19  C   UNL     1     -10.494   5.550  71.417  1.00  0.00    -0.305 C  
BRANCH  19  20
HETATM   20  C   UNL     1      -9.514   5.287  70.268  1.00  0.00    -0.225 C  
BRANCH  20  21
HETATM   21  C   UNL     1     -10.231   5.005  68.947  1.00  0.00    -0.184 C  
BRANCH  21  22
HETATM   22  C   UNL     1     -10.938   6.242  68.405  1.00  0.00    -0.409 C  
BRANCH  22  23
HETATM   23  C   UNL     1     -10.741   6.348  66.890  1.00  0.00    -0.408 C  
BRANCH  23  24
HETATM   24  C   UNL     1     -10.310   5.007  66.309  1.00  0.00    -0.332 C  
BRANCH  24  25
HETATM   25  C   UNL     1      -9.096   5.144  65.394  1.00  0.00    -0.145 C  
BRANCH  25  26
HETATM   26  C   UNL     1      -7.816   5.140  66.195  1.00  0.00    -0.103 C  
HETATM   27  O   UNL     1      -7.320   4.159  66.726  1.00  0.00    -0.071 OA 
BRANCH  26  28
HETATM   28  O   UNL     1      -7.292   6.395  66.238  1.00  0.00    -0.077 OA 
HETATM   29  C   UNL     1      -7.330   6.979  67.540  1.00  0.00    -0.092 C  
ENDBRANCH  26  28
ENDBRANCH  25  26
ENDBRANCH  24  25
ENDBRANCH  23  24
ENDBRANCH  22  23
ENDBRANCH  21  22
ENDBRANCH  20  21
ENDBRANCH  19  20
ENDBRANCH  11  12
ENDBRANCH   8  10
ENDBRANCH   3   4
ENDBRANCH   2   3
TORSDOF 12
ENDMDL
MODEL      123
REMARK 921   NORMALIZED FREE ENERGY PREDICTED BY IDOCK:   -4.17 KCAL/MOL
REMARK 922        TOTAL FREE ENERGY PREDICTED BY IDOCK:   -9.13 KCAL/MOL
REMARK 923 INTER-LIGAND FREE ENERGY PREDICTED BY IDOCK:   -7.42 KCAL/MOL
REMARK 924 INTRA-LIGAND FREE ENERGY PREDICTED BY IDOCK:   -1.71 KCAL/MOL
REMARK 927      BINDING AFFINITY PREDICTED BY RF-SCORE:    0.00 PKD
ROOT
HETATM    1  C   UNL     1     -12.314  13.128  63.412  1.00  0.00    -0.443 C  
HETATM    2  C   UNL     1     -12.024  14.325  64.308  1.00  0.00    -0.449 C  
ENDROOT
BRANCH   2   3
HETATM    3  C   UNL     1     -10.701  14.130  65.040  1.00  0.00    -0.429 C  
BRANCH   3   4
HETATM    4  C   UNL     1     -10.230  12.669  65.022  1.00  0.00    -0.294 C  
HETATM    5  C   UNL     1      -9.857  12.133  66.425  1.00  0.00    -0.227 C  
HETATM    6  O   UNL     1      -8.757  12.912  66.916  1.00  0.00    -0.262 OA 
HETATM    7  C   UNL     1      -9.393  10.673  66.316  1.00  0.00    -0.199 C  
HETATM    8  C   UNL     1     -11.056  12.282  67.396  1.00  0.00    -0.333 C  
HETATM    9  H   UNL     1      -8.528  12.583  67.777  1.00  0.00     0.000 HD 
BRANCH   8  10
HETATM   10  C   UNL     1     -10.891  11.655  68.751  1.00  0.00    -0.262 C  
HETATM   11  C   UNL     1     -11.867  11.005  69.407  1.00  0.00    -0.407 C  
BRANCH  11  12
HETATM   12  C   UNL     1     -11.753  10.360  70.764  1.00  0.00    -0.464 C  
HETATM   13  C   UNL     1     -13.131  10.268  71.441  1.00  0.00    -0.414 C  
HETATM   14  C   UNL     1     -12.977   9.213  72.521  1.00  0.00    -0.416 C  
HETATM   15  O   UNL     1     -13.527  11.508  72.014  1.00  0.00    -0.439 OA 
HETATM   16  H   UNL     1     -14.378  11.452  72.432  1.00  0.00     0.000 HD 
HETATM   17  C   UNL     1     -11.969   8.289  71.914  1.00  0.00    -0.330 C  
HETATM   18  O   UNL     1     -11.816   7.136  72.300  1.00  0.00    -0.280 OA 
HETATM   19  C   UNL     1     -11.190   8.919  70.775  1.00  0.00    -0.321 C  
BRANCH  19  20
HETATM   20  C   UNL     1      -9.670   8.919  70.970  1.00  0.00    -0.320 C  
BRANCH  20  21
HETATM   21  C   UNL     1      -8.915   8.831  69.643  1.00  0.00    -0.145 C  
BRANCH  21  22
HETATM   22  C   UNL     1      -7.531   8.214  69.811  1.00  0.00    -0.084 C  
BRANCH  22  23
HETATM   23  C   UNL     1      -7.378   6.992  68.901  1.00  0.00    -0.093 C  
BRANCH  23  24
HETATM   24  C   UNL     1      -8.463   6.980  67.831  1.00  0.00    -0.124 C  
BRANCH  24  25
HETATM   25  C   UNL     1      -7.898   7.255  66.440  1.00  0.00    -0.106 C  
BRANCH  25  26
HETATM   26  C   UNL     1      -8.479   6.300  65.425  1.00  0.00    -0.129 C  
HETATM   27  O   UNL     1      -8.182   6.262  64.242  1.00  0.00    -0.106 OA 
BRANCH  26  28
HETATM   28  O   UNL     1      -9.386   5.481  66.025  1.00  0.00    -0.159 OA 
HETATM   29  C   UNL     1      -9.599   4.259  65.318  1.00  0.00    -0.185 C  
ENDBRANCH  26  28
ENDBRANCH  25  26
ENDBRANCH  24  25
ENDBRANCH  23  24
ENDBRANCH  22  23
ENDBRANCH  21  22
ENDBRANCH  20  21
ENDBRANCH  19  20
ENDBRANCH  11  12
ENDBRANCH   8  10
ENDBRANCH   3   4
ENDBRANCH   2   3
TORSDOF 12
ENDMDL
MODEL      124
REMARK 921   NORMALIZED FREE ENERGY PREDICTED BY IDOCK:   -4.17 KCAL/MOL
REMARK 922        TOTAL FREE ENERGY PREDICTED BY IDOCK:   -9.13 KCAL/MOL
REMARK 923 INTER-LIGAND FREE ENERGY PREDICTED BY IDOCK:   -7.84 KCAL/MOL
REMARK 924 INTRA-LIGAND FREE ENERGY PREDICTED BY IDOCK:   -1.29 KCAL/MOL
REMARK 927      BINDING AFFINITY PREDICTED BY RF-SCORE:    0.00 PKD
ROOT
HETATM    1  C   UNL     1      -6.605  20.912  68.006  1.00  0.00    -0.318 C  
HETATM    2  C   UNL     1      -6.520  20.657  66.507  1.00  0.00    -0.305 C  
ENDROOT
BRANCH   2   3
HETATM    3  C   UNL     1      -7.529  19.591  66.093  1.00  0.00    -0.303 C  
BRANCH   3   4
HETATM    4  C   UNL     1      -8.473  19.200  67.238  1.00  0.00    -0.302 C  
HETATM    5  C   UNL     1      -9.589  18.222  66.799  1.00  0.00    -0.299 C  
HETATM    6  O   UNL     1     -10.392  18.885  65.813  1.00  0.00    -0.549 OA 
HETATM    7  C   UNL     1     -10.488  17.888  67.998  1.00  0.00    -0.390 C  
HETATM    8  C   UNL     1      -8.972  16.945  66.173  1.00  0.00    -0.271 C  
HETATM    9  H   UNL     1     -11.078  18.285  65.543  1.00  0.00     0.000 HD 
BRANCH   8  10
HETATM   10  C   UNL     1      -9.934  15.838  65.849  1.00  0.00    -0.380 C  
HETATM   11  C   UNL     1      -9.749  14.552  66.191  1.00  0.00    -0.340 C  
BRANCH  11  12
HETATM   12  C   UNL     1     -10.681  13.406  65.891  1.00  0.00    -0.285 C  
HETATM   13  C   UNL     1     -12.080  13.925  65.519  1.00  0.00    -0.407 C  
HETATM   14  C   UNL     1     -12.754  12.775  64.796  1.00  0.00    -0.469 C  
HETATM   15  O   UNL     1     -12.833  14.296  66.668  1.00  0.00    -0.438 OA 
HETATM   16  H   UNL     1     -13.698  14.617  66.438  1.00  0.00     0.000 HD 
HETATM   17  C   UNL     1     -11.597  12.108  64.122  1.00  0.00    -0.390 C  
HETATM   18  O   UNL     1     -11.737  11.350  63.170  1.00  0.00    -0.122 OA 
HETATM   19  C   UNL     1     -10.257  12.486  64.721  1.00  0.00    -0.304 C  
BRANCH  19  20
HETATM   20  C   UNL     1      -9.427  11.299  65.222  1.00  0.00    -0.248 C  
BRANCH  20  21
HETATM   21  C   UNL     1     -10.154  10.499  66.305  1.00  0.00    -0.290 C  
BRANCH  21  22
HETATM   22  C   UNL     1      -9.391  10.500  67.625  1.00  0.00    -0.160 C  
BRANCH  22  23
HETATM   23  C   UNL     1      -9.950   9.429  68.565  1.00  0.00    -0.190 C  
BRANCH  23  24
HETATM   24  C   UNL     1      -9.888   9.899  70.014  1.00  0.00    -0.291 C  
BRANCH  24  25
HETATM   25  C   UNL     1      -8.928   9.056  70.847  1.00  0.00    -0.300 C  
BRANCH  25  26
HETATM   26  C   UNL     1      -7.494   9.435  70.563  1.00  0.00    -0.145 C  
HETATM   27  O   UNL     1      -6.984  10.513  70.827  1.00  0.00    -0.263 OA 
BRANCH  26  28
HETATM   28  O   UNL     1      -6.847   8.395  69.969  1.00  0.00    -0.042 OA 
HETATM   29  C   UNL     1      -5.969   8.802  68.920  1.00  0.00    -0.044 C  
ENDBRANCH  26  28
ENDBRANCH  25  26
ENDBRANCH  24  25
ENDBRANCH  23  24
ENDBRANCH  22  23
ENDBRANCH  21  22
ENDBRANCH  20  21
ENDBRANCH  19  20
ENDBRANCH  11  12
ENDBRANCH   8  10
ENDBRANCH   3   4
ENDBRANCH   2   3
TORSDOF 12
ENDMDL
MODEL      125
REMARK 921   NORMALIZED FREE ENERGY PREDICTED BY IDOCK:   -4.17 KCAL/MOL
REMARK 922        TOTAL FREE ENERGY PREDICTED BY IDOCK:   -9.13 KCAL/MOL
REMARK 923 INTER-LIGAND FREE ENERGY PREDICTED BY IDOCK:   -7.58 KCAL/MOL
REMARK 924 INTRA-LIGAND FREE ENERGY PREDICTED BY IDOCK:   -1.54 KCAL/MOL
REMARK 927      BINDING AFFINITY PREDICTED BY RF-SCORE:    0.00 PKD
ROOT
HETATM    1  C   UNL     1      -6.035  19.410  64.563  1.00  0.00    -0.308 C  
HETATM    2  C   UNL     1      -6.289  20.339  65.742  1.00  0.00    -0.250 C  
ENDROOT
BRANCH   2   3
HETATM    3  C   UNL     1      -7.492  19.858  66.546  1.00  0.00    -0.296 C  
BRANCH   3   4
HETATM    4  C   UNL     1      -7.095  18.914  67.688  1.00  0.00    -0.230 C  
HETATM    5  C   UNL     1      -8.107  17.764  67.907  1.00  0.00    -0.235 C  
HETATM    6  O   UNL     1      -9.364  18.348  68.276  1.00  0.00    -0.304 OA 
HETATM    7  C   UNL     1      -7.638  16.873  69.066  1.00  0.00    -0.210 C  
HETATM    8  C   UNL     1      -8.291  16.952  66.599  1.00  0.00    -0.289 C  
HETATM    9  H   UNL     1      -9.985  17.643  68.410  1.00  0.00     0.000 HD 
BRANCH   8  10
HETATM   10  C   UNL     1      -9.124  15.706  66.707  1.00  0.00    -0.281 C  
HETATM   11  C   UNL     1      -9.746  15.121  65.670  1.00  0.00    -0.351 C  
BRANCH  11  12
HETATM   12  C   UNL     1     -10.590  13.873  65.725  1.00  0.00    -0.300 C  
HETATM   13  C   UNL     1     -11.787  14.067  66.672  1.00  0.00    -0.419 C  
HETATM   14  C   UNL     1     -12.781  12.988  66.286  1.00  0.00     0.350 C  
HETATM   15  O   UNL     1     -11.414  13.929  68.038  1.00  0.00    -0.272 OA 
HETATM   16  H   UNL     1     -12.153  14.049  68.623  1.00  0.00     0.000 HD 
HETATM   17  C   UNL     1     -12.533  12.846  64.817  1.00  0.00    -0.455 C  
HETATM   18  O   UNL     1     -13.347  12.332  64.059  1.00  0.00    -0.677 OA 
HETATM   19  C   UNL     1     -11.199  13.416  64.378  1.00  0.00    -0.408 C  
BRANCH  19  20
HETATM   20  C   UNL     1     -10.282  12.414  63.668  1.00  0.00    -0.383 C  
BRANCH  20  21
HETATM   21  C   UNL     1     -10.327  11.028  64.314  1.00  0.00    -0.430 C  
BRANCH  21  22
HETATM   22  C   UNL     1      -8.942  10.548  64.735  1.00  0.00    -0.227 C  
BRANCH  22  23
HETATM   23  C   UNL     1      -9.059   9.402  65.743  1.00  0.00    -0.249 C  
BRANCH  23  24
HETATM   24  C   UNL     1      -8.535   9.832  67.109  1.00  0.00    -0.125 C  
BRANCH  24  25
HETATM   25  C   UNL     1      -9.535  10.714  67.852  1.00  0.00    -0.168 C  
BRANCH  25  26
HETATM   26  C   UNL     1     -10.712   9.901  68.336  1.00  0.00    -0.232 C  
HETATM   27  O   UNL     1     -10.674   8.722  68.648  1.00  0.00    -0.175 OA 
BRANCH  26  28
HETATM   28  O   UNL     1     -11.828  10.680  68.376  1.00  0.00    -0.439 OA 
HETATM   29  C   UNL     1     -12.335  10.873  69.696  1.00  0.00    -0.221 C  
ENDBRANCH  26  28
ENDBRANCH  25  26
ENDBRANCH  24  25
ENDBRANCH  23  24
ENDBRANCH  22  23
ENDBRANCH  21  22
ENDBRANCH  20  21
ENDBRANCH  19  20
ENDBRANCH  11  12
ENDBRANCH   8  10
ENDBRANCH   3   4
ENDBRANCH   2   3
TORSDOF 12
ENDMDL
MODEL      126
REMARK 921   NORMALIZED FREE ENERGY PREDICTED BY IDOCK:   -4.16 KCAL/MOL
REMARK 922        TOTAL FREE ENERGY PREDICTED BY IDOCK:   -9.11 KCAL/MOL
REMARK 923 INTER-LIGAND FREE ENERGY PREDICTED BY IDOCK:   -7.66 KCAL/MOL
REMARK 924 INTRA-LIGAND FREE ENERGY PREDICTED BY IDOCK:   -1.45 KCAL/MOL
REMARK 927      BINDING AFFINITY PREDICTED BY RF-SCORE:    0.00 PKD
ROOT
HETATM    1  C   UNL     1      -8.078   4.745  63.397  1.00  0.00    -0.097 C  
HETATM    2  C   UNL     1      -9.060   3.613  63.665  1.00  0.00    -0.100 C  
ENDROOT
BRANCH   2   3
HETATM    3  C   UNL     1     -10.024   4.001  64.781  1.00  0.00    -0.210 C  
BRANCH   3   4
HETATM    4  C   UNL     1      -9.658   3.354  66.124  1.00  0.00    -0.064 C  
HETATM    5  C   UNL     1      -9.300   4.388  67.219  1.00  0.00    -0.155 C  
HETATM    6  O   UNL     1      -8.140   5.108  66.782  1.00  0.00    -0.107 OA 
HETATM    7  C   UNL     1      -8.944   3.659  68.523  1.00  0.00    -0.178 C  
HETATM    8  C   UNL     1     -10.469   5.385  67.422  1.00  0.00    -0.253 C  
HETATM    9  H   UNL     1      -7.920   5.742  67.454  1.00  0.00     0.000 HD 
BRANCH   8  10
HETATM   10  C   UNL     1     -10.326   6.346  68.568  1.00  0.00    -0.227 C  
HETATM   11  C   UNL     1     -11.275   6.566  69.493  1.00  0.00    -0.434 C  
BRANCH  11  12
HETATM   12  C   UNL     1     -11.180   7.516  70.659  1.00  0.00    -0.286 C  
HETATM   13  C   UNL     1     -11.564   6.810  71.970  1.00  0.00    -0.291 C  
HETATM   14  C   UNL     1     -10.986   7.673  73.075  1.00  0.00    -0.457 C  
HETATM   15  O   UNL     1     -12.975   6.694  72.120  1.00  0.00    -0.551 OA 
HETATM   16  H   UNL     1     -13.212   6.257  72.930  1.00  0.00     0.000 HD 
HETATM   17  C   UNL     1      -9.758   8.229  72.427  1.00  0.00    -0.303 C  
HETATM   18  O   UNL     1      -8.827   8.698  73.072  1.00  0.00    -0.355 OA 
HETATM   19  C   UNL     1      -9.782   8.128  70.914  1.00  0.00    -0.191 C  
BRANCH  19  20
HETATM   20  C   UNL     1      -9.621   9.467  70.186  1.00  0.00    -0.275 C  
BRANCH  20  21
HETATM   21  C   UNL     1     -10.968  10.095  69.824  1.00  0.00    -0.325 C  
BRANCH  21  22
HETATM   22  C   UNL     1     -11.073  10.403  68.334  1.00  0.00    -0.322 C  
BRANCH  22  23
HETATM   23  C   UNL     1     -11.655  11.803  68.118  1.00  0.00    -0.391 C  
BRANCH  23  24
HETATM   24  C   UNL     1     -11.161  12.761  69.196  1.00  0.00    -0.294 C  
BRANCH  24  25
HETATM   25  C   UNL     1     -12.289  13.630  69.747  1.00  0.00    -0.285 C  
BRANCH  25  26
HETATM   26  C   UNL     1     -11.880  15.084  69.779  1.00  0.00    -0.321 C  
HETATM   27  O   UNL     1     -11.043  15.597  69.054  1.00  0.00    -0.243 OA 
BRANCH  26  28
HETATM   28  O   UNL     1     -12.586  15.743  70.738  1.00  0.00    -0.436 OA 
HETATM   29  C   UNL     1     -11.846  15.952  71.941  1.00  0.00    -0.506 C  
ENDBRANCH  26  28
ENDBRANCH  25  26
ENDBRANCH  24  25
ENDBRANCH  23  24
ENDBRANCH  22  23
ENDBRANCH  21  22
ENDBRANCH  20  21
ENDBRANCH  19  20
ENDBRANCH  11  12
ENDBRANCH   8  10
ENDBRANCH   3   4
ENDBRANCH   2   3
TORSDOF 12
ENDMDL
MODEL      127
REMARK 921   NORMALIZED FREE ENERGY PREDICTED BY IDOCK:   -4.15 KCAL/MOL
REMARK 922        TOTAL FREE ENERGY PREDICTED BY IDOCK:   -9.09 KCAL/MOL
REMARK 923 INTER-LIGAND FREE ENERGY PREDICTED BY IDOCK:   -7.00 KCAL/MOL
REMARK 924 INTRA-LIGAND FREE ENERGY PREDICTED BY IDOCK:   -2.09 KCAL/MOL
REMARK 927      BINDING AFFINITY PREDICTED BY RF-SCORE:    0.00 PKD
ROOT
HETATM    1  C   UNL     1     -12.874   6.276  72.423  1.00  0.00     0.219 C  
HETATM    2  C   UNL     1     -11.664   7.182  72.245  1.00  0.00    -0.296 C  
ENDROOT
BRANCH   2   3
HETATM    3  C   UNL     1     -11.406   7.436  70.763  1.00  0.00    -0.303 C  
BRANCH   3   4
HETATM    4  C   UNL     1     -10.164   8.304  70.524  1.00  0.00    -0.213 C  
HETATM    5  C   UNL     1     -10.419   9.473  69.542  1.00  0.00    -0.220 C  
HETATM    6  O   UNL     1     -10.777   8.911  68.272  1.00  0.00    -0.384 OA 
HETATM    7  C   UNL     1      -9.129  10.285  69.356  1.00  0.00    -0.203 C  
HETATM    8  C   UNL     1     -11.585  10.359  70.050  1.00  0.00    -0.378 C  
HETATM    9  H   UNL     1     -10.933   9.628  67.670  1.00  0.00     0.000 HD 
BRANCH   8  10
HETATM   10  C   UNL     1     -11.837  11.624  69.280  1.00  0.00    -0.396 C  
HETATM   11  C   UNL     1     -11.763  12.857  69.807  1.00  0.00    -0.351 C  
BRANCH  11  12
HETATM   12  C   UNL     1     -12.005  14.155  69.079  1.00  0.00    -0.376 C  
HETATM   13  C   UNL     1     -11.412  15.338  69.862  1.00  0.00    -0.304 C  
HETATM   14  C   UNL     1     -11.285  16.463  68.853  1.00  0.00    -0.304 C  
HETATM   15  O   UNL     1     -12.250  15.735  70.942  1.00  0.00    -0.388 OA 
HETATM   16  H   UNL     1     -11.884  16.466  71.426  1.00  0.00     0.000 HD 
HETATM   17  C   UNL     1     -11.012  15.717  67.586  1.00  0.00    -0.315 C  
HETATM   18  O   UNL     1     -10.511  16.250  66.602  1.00  0.00    -0.300 OA 
HETATM   19  C   UNL     1     -11.394  14.252  67.661  1.00  0.00    -0.344 C  
BRANCH  19  20
HETATM   20  C   UNL     1     -12.398  13.802  66.593  1.00  0.00    -0.403 C  
BRANCH  20  21
HETATM   21  C   UNL     1     -11.871  12.636  65.755  1.00  0.00    -0.497 C  
BRANCH  21  22
HETATM   22  C   UNL     1     -10.380  12.770  65.465  1.00  0.00    -0.301 C  
BRANCH  22  23
HETATM   23  C   UNL     1      -9.685  11.413  65.609  1.00  0.00    -0.263 C  
BRANCH  23  24
HETATM   24  C   UNL     1      -8.380  11.557  66.383  1.00  0.00    -0.118 C  
BRANCH  24  25
HETATM   25  C   UNL     1      -8.211  12.960  66.962  1.00  0.00    -0.086 C  
BRANCH  25  26
HETATM   26  C   UNL     1      -6.952  13.050  67.791  1.00  0.00    -0.143 C  
HETATM   27  O   UNL     1      -6.154  12.142  67.964  1.00  0.00    -0.052 OA 
BRANCH  26  28
HETATM   28  O   UNL     1      -6.834  14.299  68.320  1.00  0.00    -0.088 OA 
HETATM   29  C   UNL     1      -7.350  15.323  67.470  1.00  0.00    -0.196 C  
ENDBRANCH  26  28
ENDBRANCH  25  26
ENDBRANCH  24  25
ENDBRANCH  23  24
ENDBRANCH  22  23
ENDBRANCH  21  22
ENDBRANCH  20  21
ENDBRANCH  19  20
ENDBRANCH  11  12
ENDBRANCH   8  10
ENDBRANCH   3   4
ENDBRANCH   2   3
TORSDOF 12
ENDMDL
MODEL      128
REMARK 921   NORMALIZED FREE ENERGY PREDICTED BY IDOCK:   -4.14 KCAL/MOL
REMARK 922        TOTAL FREE ENERGY PREDICTED BY IDOCK:   -9.07 KCAL/MOL
REMARK 923 INTER-LIGAND FREE ENERGY PREDICTED BY IDOCK:   -7.39 KCAL/MOL
REMARK 924 INTRA-LIGAND FREE ENERGY PREDICTED BY IDOCK:   -1.68 KCAL/MOL
REMARK 927      BINDING AFFINITY PREDICTED BY RF-SCORE:    0.00 PKD
ROOT
HETATM    1  C   UNL     1     -12.184  16.705  74.539  1.00  0.00    -0.342 C  
HETATM    2  C   UNL     1     -11.861  16.753  73.052  1.00  0.00    -0.153 C  
ENDROOT
BRANCH   2   3
HETATM    3  C   UNL     1     -12.960  16.065  72.249  1.00  0.00    -0.406 C  
BRANCH   3   4
HETATM    4  C   UNL     1     -13.178  14.608  72.681  1.00  0.00    -0.556 C  
HETATM    5  C   UNL     1     -13.251  13.625  71.488  1.00  0.00    -0.331 C  
HETATM    6  O   UNL     1     -14.384  13.989  70.687  1.00  0.00     0.304 OA 
HETATM    7  C   UNL     1     -13.474  12.197  72.006  1.00  0.00    -0.388 C  
HETATM    8  C   UNL     1     -11.968  13.727  70.625  1.00  0.00    -0.340 C  
HETATM    9  H   UNL     1     -14.430  13.386  69.955  1.00  0.00     0.000 HD 
BRANCH   8  10
HETATM   10  C   UNL     1     -11.831  12.715  69.523  1.00  0.00    -0.376 C  
HETATM   11  C   UNL     1     -11.495  13.016  68.258  1.00  0.00    -0.347 C  
BRANCH  11  12
HETATM   12  C   UNL     1     -11.344  12.041  67.119  1.00  0.00    -0.396 C  
HETATM   13  C   UNL     1     -11.258  12.783  65.774  1.00  0.00    -0.307 C  
HETATM   14  C   UNL     1     -10.643  11.789  64.807  1.00  0.00    -0.351 C  
HETATM   15  O   UNL     1     -12.539  13.195  65.310  1.00  0.00    -0.481 OA 
HETATM   16  H   UNL     1     -12.486  13.654  64.480  1.00  0.00     0.000 HD 
HETATM   17  C   UNL     1      -9.743  10.998  65.703  1.00  0.00    -0.232 C  
HETATM   18  O   UNL     1      -8.814  10.324  65.274  1.00  0.00    -0.161 OA 
HETATM   19  C   UNL     1     -10.089  11.137  67.172  1.00  0.00    -0.223 C  
BRANCH  19  20
HETATM   20  C   UNL     1     -10.390   9.813  67.882  1.00  0.00    -0.258 C  
BRANCH  20  21
HETATM   21  C   UNL     1      -9.277   9.408  68.849  1.00  0.00    -0.140 C  
BRANCH  21  22
HETATM   22  C   UNL     1      -9.532   9.921  70.263  1.00  0.00    -0.162 C  
BRANCH  22  23
HETATM   23  C   UNL     1     -10.681   9.147  70.912  1.00  0.00    -0.343 C  
BRANCH  23  24
HETATM   24  C   UNL     1     -10.181   8.346  72.109  1.00  0.00    -0.390 C  
BRANCH  24  25
HETATM   25  C   UNL     1     -10.671   6.901  72.074  1.00  0.00    -0.244 C  
BRANCH  25  26
HETATM   26  C   UNL     1      -9.807   6.062  71.163  1.00  0.00    -0.179 C  
HETATM   27  O   UNL     1      -8.587   6.038  71.174  1.00  0.00    -0.127 OA 
BRANCH  26  28
HETATM   28  O   UNL     1     -10.591   5.332  70.323  1.00  0.00    -0.278 OA 
HETATM   29  C   UNL     1      -9.848   4.457  69.474  1.00  0.00    -0.188 C  
ENDBRANCH  26  28
ENDBRANCH  25  26
ENDBRANCH  24  25
ENDBRANCH  23  24
ENDBRANCH  22  23
ENDBRANCH  21  22
ENDBRANCH  20  21
ENDBRANCH  19  20
ENDBRANCH  11  12
ENDBRANCH   8  10
ENDBRANCH   3   4
ENDBRANCH   2   3
TORSDOF 12
ENDMDL
MODEL      129
REMARK 921   NORMALIZED FREE ENERGY PREDICTED BY IDOCK:   -4.13 KCAL/MOL
REMARK 922        TOTAL FREE ENERGY PREDICTED BY IDOCK:   -9.06 KCAL/MOL
REMARK 923 INTER-LIGAND FREE ENERGY PREDICTED BY IDOCK:   -6.80 KCAL/MOL
REMARK 924 INTRA-LIGAND FREE ENERGY PREDICTED BY IDOCK:   -2.26 KCAL/MOL
REMARK 927      BINDING AFFINITY PREDICTED BY RF-SCORE:    0.00 PKD
ROOT
HETATM    1  C   UNL     1      -9.250   3.710  69.695  1.00  0.00    -0.221 C  
HETATM    2  C   UNL     1     -10.074   4.181  70.886  1.00  0.00    -0.119 C  
ENDROOT
BRANCH   2   3
HETATM    3  C   UNL     1      -9.864   5.674  71.117  1.00  0.00    -0.229 C  
BRANCH   3   4
HETATM    4  C   UNL     1      -9.573   6.434  69.817  1.00  0.00    -0.163 C  
HETATM    5  C   UNL     1     -10.661   7.478  69.465  1.00  0.00    -0.217 C  
HETATM    6  O   UNL     1     -11.895   6.775  69.262  1.00  0.00    -0.606 OA 
HETATM    7  C   UNL     1     -10.296   8.186  68.153  1.00  0.00    -0.251 C  
HETATM    8  C   UNL     1     -10.838   8.485  70.630  1.00  0.00    -0.255 C  
HETATM    9  H   UNL     1     -12.563   7.415  69.047  1.00  0.00     0.000 HD 
BRANCH   8  10
HETATM   10  C   UNL     1     -11.748   9.650  70.362  1.00  0.00    -0.266 C  
HETATM   11  C   UNL     1     -11.358  10.936  70.390  1.00  0.00    -0.289 C  
BRANCH  11  12
HETATM   12  C   UNL     1     -12.228  12.138  70.129  1.00  0.00    -0.308 C  
HETATM   13  C   UNL     1     -12.553  12.870  71.442  1.00  0.00    -0.220 C  
HETATM   14  C   UNL     1     -12.992  14.261  71.027  1.00  0.00    -0.411 C  
HETATM   15  O   UNL     1     -13.589  12.222  72.172  1.00  0.00    -0.461 OA 
HETATM   16  H   UNL     1     -13.790  12.674  72.983  1.00  0.00     0.000 HD 
HETATM   17  C   UNL     1     -12.176  14.492  69.795  1.00  0.00    -0.312 C  
HETATM   18  O   UNL     1     -11.971  15.611  69.341  1.00  0.00    -0.361 OA 
HETATM   19  C   UNL     1     -11.623  13.213  69.196  1.00  0.00    -0.368 C  
BRANCH  19  20
HETATM   20  C   UNL     1     -12.025  12.970  67.737  1.00  0.00    -0.344 C  
BRANCH  20  21
HETATM   21  C   UNL     1     -10.819  12.972  66.796  1.00  0.00    -0.285 C  
BRANCH  21  22
HETATM   22  C   UNL     1      -9.683  12.100  67.320  1.00  0.00    -0.193 C  
BRANCH  22  23
HETATM   23  C   UNL     1      -8.404  12.926  67.475  1.00  0.00    -0.183 C  
BRANCH  23  24
HETATM   24  C   UNL     1      -7.481  12.299  68.514  1.00  0.00    -0.113 C  
BRANCH  24  25
HETATM   25  C   UNL     1      -7.997  10.945  68.992  1.00  0.00    -0.131 C  
BRANCH  25  26
HETATM   26  C   UNL     1      -6.955  10.237  69.826  1.00  0.00    -0.129 C  
HETATM   27  O   UNL     1      -5.778  10.110  69.526  1.00  0.00    -0.037 OA 
BRANCH  26  28
HETATM   28  O   UNL     1      -7.520   9.762  70.969  1.00  0.00    -0.318 OA 
HETATM   29  C   UNL     1      -6.606   9.040  71.794  1.00  0.00    -0.008 C  
ENDBRANCH  26  28
ENDBRANCH  25  26
ENDBRANCH  24  25
ENDBRANCH  23  24
ENDBRANCH  22  23
ENDBRANCH  21  22
ENDBRANCH  20  21
ENDBRANCH  19  20
ENDBRANCH  11  12
ENDBRANCH   8  10
ENDBRANCH   3   4
ENDBRANCH   2   3
TORSDOF 12
ENDMDL
MODEL      130
REMARK 921   NORMALIZED FREE ENERGY PREDICTED BY IDOCK:   -4.12 KCAL/MOL
REMARK 922        TOTAL FREE ENERGY PREDICTED BY IDOCK:   -9.04 KCAL/MOL
REMARK 923 INTER-LIGAND FREE ENERGY PREDICTED BY IDOCK:   -7.37 KCAL/MOL
REMARK 924 INTRA-LIGAND FREE ENERGY PREDICTED BY IDOCK:   -1.68 KCAL/MOL
REMARK 927      BINDING AFFINITY PREDICTED BY RF-SCORE:    0.00 PKD
ROOT
HETATM    1  C   UNL     1     -11.885  15.781  70.170  1.00  0.00    -0.369 C  
HETATM    2  C   UNL     1     -10.836  14.780  69.707  1.00  0.00    -0.222 C  
ENDROOT
BRANCH   2   3
HETATM    3  C   UNL     1     -10.384  15.105  68.286  1.00  0.00    -0.231 C  
BRANCH   3   4
HETATM    4  C   UNL     1     -11.487  14.856  67.249  1.00  0.00    -0.350 C  
HETATM    5  C   UNL     1     -11.210  13.627  66.350  1.00  0.00    -0.308 C  
HETATM    6  O   UNL     1     -10.005  13.882  65.615  1.00  0.00    -0.363 OA 
HETATM    7  C   UNL     1     -12.354  13.453  65.341  1.00  0.00    -0.522 C  
HETATM    8  C   UNL     1     -11.014  12.358  67.217  1.00  0.00    -0.302 C  
HETATM    9  H   UNL     1      -9.835  13.128  65.063  1.00  0.00     0.000 HD 
BRANCH   8  10
HETATM   10  C   UNL     1     -10.897  11.059  66.471  1.00  0.00    -0.269 C  
HETATM   11  C   UNL     1      -9.734  10.441  66.207  1.00  0.00    -0.256 C  
BRANCH  11  12
HETATM   12  C   UNL     1      -9.562   9.141  65.464  1.00  0.00    -0.239 C  
HETATM   13  C   UNL     1      -8.616   9.319  64.265  1.00  0.00    -0.193 C  
HETATM   14  C   UNL     1      -8.152   7.920  63.909  1.00  0.00    -0.082 C  
HETATM   15  O   UNL     1      -9.272   9.920  63.153  1.00  0.00    -0.264 OA 
HETATM   16  H   UNL     1      -8.687  10.031  62.412  1.00  0.00     0.000 HD 
HETATM   17  C   UNL     1      -8.145   7.245  65.244  1.00  0.00    -0.134 C  
HETATM   18  O   UNL     1      -7.513   6.216  65.458  1.00  0.00    -0.077 OA 
HETATM   19  C   UNL     1      -8.970   7.972  66.287  1.00  0.00    -0.208 C  
BRANCH  19  20
HETATM   20  C   UNL     1     -10.078   7.126  66.924  1.00  0.00    -0.308 C  
BRANCH  20  21
HETATM   21  C   UNL     1     -10.433   7.603  68.333  1.00  0.00    -0.208 C  
BRANCH  21  22
HETATM   22  C   UNL     1      -9.224   8.173  69.066  1.00  0.00    -0.148 C  
BRANCH  22  23
HETATM   23  C   UNL     1      -9.675   9.058  70.231  1.00  0.00    -0.229 C  
BRANCH  23  24
HETATM   24  C   UNL     1      -9.809   8.238  71.509  1.00  0.00    -0.250 C  
BRANCH  24  25
HETATM   25  C   UNL     1     -11.101   8.555  72.258  1.00  0.00    -0.430 C  
BRANCH  25  26
HETATM   26  C   UNL     1     -12.208   7.618  71.839  1.00  0.00    -0.304 C  
HETATM   27  O   UNL     1     -12.178   6.401  71.939  1.00  0.00    -0.346 OA 
BRANCH  26  28
HETATM   28  O   UNL     1     -13.252   8.330  71.333  1.00  0.00    -0.298 OA 
HETATM   29  C   UNL     1     -13.985   9.044  72.328  1.00  0.00    -0.455 C  
ENDBRANCH  26  28
ENDBRANCH  25  26
ENDBRANCH  24  25
ENDBRANCH  23  24
ENDBRANCH  22  23
ENDBRANCH  21  22
ENDBRANCH  20  21
ENDBRANCH  19  20
ENDBRANCH  11  12
ENDBRANCH   8  10
ENDBRANCH   3   4
ENDBRANCH   2   3
TORSDOF 12
ENDMDL
MODEL      131
REMARK 921   NORMALIZED FREE ENERGY PREDICTED BY IDOCK:   -4.11 KCAL/MOL
REMARK 922        TOTAL FREE ENERGY PREDICTED BY IDOCK:   -9.03 KCAL/MOL
REMARK 923 INTER-LIGAND FREE ENERGY PREDICTED BY IDOCK:   -7.63 KCAL/MOL
REMARK 924 INTRA-LIGAND FREE ENERGY PREDICTED BY IDOCK:   -1.39 KCAL/MOL
REMARK 927      BINDING AFFINITY PREDICTED BY RF-SCORE:    0.00 PKD
ROOT
HETATM    1  C   UNL     1      -8.919   4.065  63.519  1.00  0.00    -0.122 C  
HETATM    2  C   UNL     1     -10.276   3.843  64.173  1.00  0.00    -0.227 C  
ENDROOT
BRANCH   2   3
HETATM    3  C   UNL     1     -10.271   4.381  65.600  1.00  0.00    -0.259 C  
BRANCH   3   4
HETATM    4  C   UNL     1      -8.935   4.136  66.314  1.00  0.00    -0.123 C  
HETATM    5  C   UNL     1      -8.787   4.951  67.622  1.00  0.00    -0.103 C  
HETATM    6  O   UNL     1      -8.819   6.343  67.278  1.00  0.00    -0.110 OA 
HETATM    7  C   UNL     1      -7.426   4.653  68.267  1.00  0.00    -0.066 C  
HETATM    8  C   UNL     1      -9.959   4.640  68.587  1.00  0.00    -0.140 C  
HETATM    9  H   UNL     1      -8.728   6.844  68.080  1.00  0.00     0.000 HD 
BRANCH   8  10
HETATM   10  C   UNL     1      -9.858   5.239  69.961  1.00  0.00    -0.288 C  
HETATM   11  C   UNL     1     -10.853   5.907  70.569  1.00  0.00    -0.366 C  
BRANCH  11  12
HETATM   12  C   UNL     1     -10.804   6.525  71.942  1.00  0.00    -0.273 C  
HETATM   13  C   UNL     1     -10.759   5.436  73.028  1.00  0.00    -0.257 C  
HETATM   14  C   UNL     1     -10.238   6.131  74.271  1.00  0.00    -0.326 C  
HETATM   15  O   UNL     1     -12.044   4.877  73.276  1.00  0.00    -0.419 OA 
HETATM   16  H   UNL     1     -12.016   4.204  73.946  1.00  0.00     0.000 HD 
HETATM   17  C   UNL     1      -9.326   7.165  73.692  1.00  0.00    -0.212 C  
HETATM   18  O   UNL     1      -8.450   7.713  74.350  1.00  0.00    -0.216 OA 
HETATM   19  C   UNL     1      -9.587   7.438  72.224  1.00  0.00    -0.186 C  
BRANCH  19  20
HETATM   20  C   UNL     1      -9.905   8.901  71.896  1.00  0.00    -0.364 C  
BRANCH  20  21
HETATM   21  C   UNL     1      -9.449   9.293  70.490  1.00  0.00    -0.317 C  
BRANCH  21  22
HETATM   22  C   UNL     1     -10.363  10.341  69.863  1.00  0.00    -0.281 C  
BRANCH  22  23
HETATM   23  C   UNL     1     -11.709  10.378  70.591  1.00  0.00    -0.444 C  
BRANCH  23  24
HETATM   24  C   UNL     1     -12.253  11.801  70.640  1.00  0.00    -0.443 C  
BRANCH  24  25
HETATM   25  C   UNL     1     -13.149  12.029  71.854  1.00  0.00    -0.475 C  
BRANCH  25  26
HETATM   26  C   UNL     1     -13.173  13.489  72.238  1.00  0.00    -0.475 C  
HETATM   27  O   UNL     1     -13.018  13.924  73.369  1.00  0.00    -0.391 OA 
BRANCH  26  28
HETATM   28  O   UNL     1     -13.390  14.256  71.135  1.00  0.00    -0.346 OA 
HETATM   29  C   UNL     1     -13.791  15.591  71.444  1.00  0.00    -0.405 C  
ENDBRANCH  26  28
ENDBRANCH  25  26
ENDBRANCH  24  25
ENDBRANCH  23  24
ENDBRANCH  22  23
ENDBRANCH  21  22
ENDBRANCH  20  21
ENDBRANCH  19  20
ENDBRANCH  11  12
ENDBRANCH   8  10
ENDBRANCH   3   4
ENDBRANCH   2   3
TORSDOF 12
ENDMDL
MODEL      132
REMARK 921   NORMALIZED FREE ENERGY PREDICTED BY IDOCK:   -4.08 KCAL/MOL
REMARK 922        TOTAL FREE ENERGY PREDICTED BY IDOCK:   -8.99 KCAL/MOL
REMARK 923 INTER-LIGAND FREE ENERGY PREDICTED BY IDOCK:   -7.14 KCAL/MOL
REMARK 924 INTRA-LIGAND FREE ENERGY PREDICTED BY IDOCK:   -1.85 KCAL/MOL
REMARK 927      BINDING AFFINITY PREDICTED BY RF-SCORE:    0.00 PKD
ROOT
HETATM    1  C   UNL     1     -14.153  15.651  72.690  1.00  0.00    -0.527 C  
HETATM    2  C   UNL     1     -13.474  14.307  72.463  1.00  0.00    -0.613 C  
ENDROOT
BRANCH   2   3
HETATM    3  C   UNL     1     -12.194  14.490  71.654  1.00  0.00    -0.403 C  
BRANCH   3   4
HETATM    4  C   UNL     1     -12.472  14.916  70.206  1.00  0.00    -0.386 C  
HETATM    5  C   UNL     1     -11.549  14.216  69.179  1.00  0.00    -0.307 C  
HETATM    6  O   UNL     1     -10.198  14.600  69.468  1.00  0.00    -0.388 OA 
HETATM    7  C   UNL     1     -11.888  14.700  67.762  1.00  0.00    -0.359 C  
HETATM    8  C   UNL     1     -11.675  12.676  69.303  1.00  0.00    -0.379 C  
HETATM    9  H   UNL     1      -9.631  14.171  68.838  1.00  0.00     0.000 HD 
BRANCH   8  10
HETATM   10  C   UNL     1     -10.957  11.868  68.259  1.00  0.00    -0.273 C  
HETATM   11  C   UNL     1      -9.831  11.171  68.485  1.00  0.00    -0.199 C  
BRANCH  11  12
HETATM   12  C   UNL     1      -9.074  10.347  67.476  1.00  0.00    -0.142 C  
HETATM   13  C   UNL     1      -9.985   9.275  66.854  1.00  0.00    -0.233 C  
HETATM   14  C   UNL     1      -9.295   8.858  65.570  1.00  0.00    -0.214 C  
HETATM   15  O   UNL     1     -10.150   8.153  67.714  1.00  0.00    -0.181 OA 
HETATM   16  H   UNL     1     -10.713   7.491  67.330  1.00  0.00     0.000 HD 
HETATM   17  C   UNL     1      -8.621  10.126  65.152  1.00  0.00    -0.164 C  
HETATM   18  O   UNL     1      -8.240  10.322  64.003  1.00  0.00    -0.159 OA 
HETATM   19  C   UNL     1      -8.483  11.130  66.279  1.00  0.00    -0.168 C  
BRANCH  19  20
HETATM   20  C   UNL     1      -7.044  11.574  66.563  1.00  0.00    -0.009 C  
BRANCH  20  21
HETATM   21  C   UNL     1      -6.896  12.212  67.945  1.00  0.00    -0.095 C  
BRANCH  21  22
HETATM   22  C   UNL     1      -5.896  13.364  67.938  1.00  0.00    -0.135 C  
BRANCH  22  23
HETATM   23  C   UNL     1      -6.576  14.663  68.379  1.00  0.00    -0.102 C  
BRANCH  23  24
HETATM   24  C   UNL     1      -6.833  15.568  67.180  1.00  0.00    -0.076 C  
BRANCH  24  25
HETATM   25  C   UNL     1      -8.282  15.492  66.706  1.00  0.00    -0.277 C  
BRANCH  25  26
HETATM   26  C   UNL     1      -8.963  16.833  66.841  1.00  0.00    -0.223 C  
HETATM   27  O   UNL     1      -9.397  17.500  65.916  1.00  0.00    -0.516 OA 
BRANCH  26  28
HETATM   28  O   UNL     1      -9.026  17.191  68.153  1.00  0.00    -0.227 OA 
HETATM   29  C   UNL     1     -10.258  17.818  68.509  1.00  0.00    -0.382 C  
ENDBRANCH  26  28
ENDBRANCH  25  26
ENDBRANCH  24  25
ENDBRANCH  23  24
ENDBRANCH  22  23
ENDBRANCH  21  22
ENDBRANCH  20  21
ENDBRANCH  19  20
ENDBRANCH  11  12
ENDBRANCH   8  10
ENDBRANCH   3   4
ENDBRANCH   2   3
TORSDOF 12
ENDMDL
MODEL      133
REMARK 921   NORMALIZED FREE ENERGY PREDICTED BY IDOCK:   -4.07 KCAL/MOL
REMARK 922        TOTAL FREE ENERGY PREDICTED BY IDOCK:   -8.97 KCAL/MOL
REMARK 923 INTER-LIGAND FREE ENERGY PREDICTED BY IDOCK:   -7.01 KCAL/MOL
REMARK 924 INTRA-LIGAND FREE ENERGY PREDICTED BY IDOCK:   -1.95 KCAL/MOL
REMARK 927      BINDING AFFINITY PREDICTED BY RF-SCORE:    0.00 PKD
ROOT
HETATM    1  C   UNL     1     -12.249   9.429  71.199  1.00  0.00    -0.402 C  
HETATM    2  C   UNL     1     -13.023  10.709  70.914  1.00  0.00    -0.429 C  
ENDROOT
BRANCH   2   3
HETATM    3  C   UNL     1     -12.679  11.777  71.947  1.00  0.00    -0.215 C  
BRANCH   3   4
HETATM    4  C   UNL     1     -13.576  13.017  71.831  1.00  0.00    -0.419 C  
HETATM    5  C   UNL     1     -12.845  14.241  71.229  1.00  0.00    -0.352 C  
HETATM    6  O   UNL     1     -11.773  14.593  72.114  1.00  0.00    -0.314 OA 
HETATM    7  C   UNL     1     -13.809  15.434  71.153  1.00  0.00    -0.452 C  
HETATM    8  C   UNL     1     -12.259  13.890  69.838  1.00  0.00    -0.393 C  
HETATM    9  H   UNL     1     -11.325  15.344  71.745  1.00  0.00     0.000 HD 
BRANCH   8  10
HETATM   10  C   UNL     1     -11.661  15.031  69.066  1.00  0.00    -0.342 C  
HETATM   11  C   UNL     1     -10.973  14.891  67.920  1.00  0.00    -0.288 C  
BRANCH  11  12
HETATM   12  C   UNL     1     -10.356  16.000  67.109  1.00  0.00    -0.295 C  
HETATM   13  C   UNL     1     -11.118  16.197  65.787  1.00  0.00     0.014 C  
HETATM   14  C   UNL     1     -10.738  17.586  65.309  1.00  0.00     0.080 C  
HETATM   15  O   UNL     1     -10.757  15.224  64.814  1.00  0.00    -0.533 OA 
HETATM   16  H   UNL     1     -11.228  15.345  63.997  1.00  0.00     0.000 HD 
HETATM   17  C   UNL     1     -10.536  18.316  66.599  1.00  0.00    -0.298 C  
HETATM   18  O   UNL     1     -10.554  19.539  66.673  1.00  0.00    -0.440 OA 
HETATM   19  C   UNL     1     -10.334  17.392  67.784  1.00  0.00    -0.358 C  
BRANCH  19  20
HETATM   20  C   UNL     1      -9.024  17.617  68.548  1.00  0.00    -0.289 C  
BRANCH  20  21
HETATM   21  C   UNL     1      -7.935  16.625  68.137  1.00  0.00    -0.177 C  
BRANCH  21  22
HETATM   22  C   UNL     1      -7.606  15.641  69.254  1.00  0.00    -0.222 C  
BRANCH  22  23
HETATM   23  C   UNL     1      -6.575  14.616  68.775  1.00  0.00    -0.090 C  
BRANCH  23  24
HETATM   24  C   UNL     1      -7.186  13.683  67.737  1.00  0.00    -0.169 C  
BRANCH  24  25
HETATM   25  C   UNL     1      -8.058  12.607  68.378  1.00  0.00    -0.137 C  
BRANCH  25  26
HETATM   26  C   UNL     1      -7.267  11.343  68.612  1.00  0.00    -0.100 C  
HETATM   27  O   UNL     1      -6.141  11.127  68.191  1.00  0.00    -0.049 OA 
BRANCH  26  28
HETATM   28  O   UNL     1      -7.993  10.473  69.367  1.00  0.00    -0.153 OA 
HETATM   29  C   UNL     1      -9.358  10.376  68.960  1.00  0.00    -0.194 C  
ENDBRANCH  26  28
ENDBRANCH  25  26
ENDBRANCH  24  25
ENDBRANCH  23  24
ENDBRANCH  22  23
ENDBRANCH  21  22
ENDBRANCH  20  21
ENDBRANCH  19  20
ENDBRANCH  11  12
ENDBRANCH   8  10
ENDBRANCH   3   4
ENDBRANCH   2   3
TORSDOF 12
ENDMDL
MODEL      134
REMARK 921   NORMALIZED FREE ENERGY PREDICTED BY IDOCK:   -4.07 KCAL/MOL
REMARK 922        TOTAL FREE ENERGY PREDICTED BY IDOCK:   -8.96 KCAL/MOL
REMARK 923 INTER-LIGAND FREE ENERGY PREDICTED BY IDOCK:   -6.94 KCAL/MOL
REMARK 924 INTRA-LIGAND FREE ENERGY PREDICTED BY IDOCK:   -2.02 KCAL/MOL
REMARK 927      BINDING AFFINITY PREDICTED BY RF-SCORE:    0.00 PKD
ROOT
HETATM    1  C   UNL     1      -6.076   6.650  68.992  1.00  0.00    -0.026 C  
HETATM    2  C   UNL     1      -6.813   6.948  67.693  1.00  0.00    -0.077 C  
ENDROOT
BRANCH   2   3
HETATM    3  C   UNL     1      -6.787   8.445  67.402  1.00  0.00    -0.070 C  
BRANCH   3   4
HETATM    4  C   UNL     1      -7.292   8.776  65.991  1.00  0.00    -0.089 C  
HETATM    5  C   UNL     1      -8.476   9.773  65.988  1.00  0.00    -0.124 C  
HETATM    6  O   UNL     1      -9.571   9.158  66.682  1.00  0.00    -0.170 OA 
HETATM    7  C   UNL     1      -8.922  10.045  64.544  1.00  0.00    -0.261 C  
HETATM    8  C   UNL     1      -8.083  11.080  66.722  1.00  0.00    -0.151 C  
HETATM    9  H   UNL     1     -10.297   9.769  66.680  1.00  0.00     0.000 HD 
BRANCH   8  10
HETATM   10  C   UNL     1      -9.081  12.201  66.656  1.00  0.00    -0.206 C  
HETATM   11  C   UNL     1      -8.757  13.493  66.488  1.00  0.00     0.087 C  
BRANCH  11  12
HETATM   12  C   UNL     1      -9.717  14.652  66.415  1.00  0.00    -0.315 C  
HETATM   13  C   UNL     1      -8.958  15.981  66.260  1.00  0.00    -0.345 C  
HETATM   14  C   UNL     1      -9.980  16.966  65.727  1.00  0.00    -0.209 C  
HETATM   15  O   UNL     1      -8.428  16.439  67.499  1.00  0.00    -0.166 OA 
HETATM   16  H   UNL     1      -7.959  17.260  67.403  1.00  0.00     0.000 HD 
HETATM   17  C   UNL     1     -10.863  16.085  64.902  1.00  0.00    -0.372 C  
HETATM   18  O   UNL     1     -11.604  16.525  64.031  1.00  0.00    -1.154 OA 
HETATM   19  C   UNL     1     -10.725  14.614  65.242  1.00  0.00    -0.396 C  
BRANCH  19  20
HETATM   20  C   UNL     1     -12.034  13.933  65.658  1.00  0.00    -0.409 C  
BRANCH  20  21
HETATM   21  C   UNL     1     -12.326  14.100  67.150  1.00  0.00    -0.213 C  
BRANCH  21  22
HETATM   22  C   UNL     1     -12.153  12.793  67.917  1.00  0.00    -0.187 C  
BRANCH  22  23
HETATM   23  C   UNL     1     -11.845  13.076  69.389  1.00  0.00    -0.380 C  
BRANCH  23  24
HETATM   24  C   UNL     1     -11.735  11.774  70.174  1.00  0.00    -0.354 C  
BRANCH  24  25
HETATM   25  C   UNL     1     -11.164  10.641  69.325  1.00  0.00    -0.332 C  
BRANCH  25  26
HETATM   26  C   UNL     1     -10.694   9.501  70.197  1.00  0.00    -0.257 C  
HETATM   27  O   UNL     1     -10.793   9.455  71.413  1.00  0.00    -0.336 OA 
BRANCH  26  28
HETATM   28  O   UNL     1     -10.143   8.524  69.426  1.00  0.00    -0.193 OA 
HETATM   29  C   UNL     1     -10.693   7.231  69.673  1.00  0.00    -0.236 C  
ENDBRANCH  26  28
ENDBRANCH  25  26
ENDBRANCH  24  25
ENDBRANCH  23  24
ENDBRANCH  22  23
ENDBRANCH  21  22
ENDBRANCH  20  21
ENDBRANCH  19  20
ENDBRANCH  11  12
ENDBRANCH   8  10
ENDBRANCH   3   4
ENDBRANCH   2   3
TORSDOF 12
ENDMDL
MODEL      135
REMARK 921   NORMALIZED FREE ENERGY PREDICTED BY IDOCK:   -4.06 KCAL/MOL
REMARK 922        TOTAL FREE ENERGY PREDICTED BY IDOCK:   -8.95 KCAL/MOL
REMARK 923 INTER-LIGAND FREE ENERGY PREDICTED BY IDOCK:   -7.39 KCAL/MOL
REMARK 924 INTRA-LIGAND FREE ENERGY PREDICTED BY IDOCK:   -1.55 KCAL/MOL
REMARK 927      BINDING AFFINITY PREDICTED BY RF-SCORE:    0.00 PKD
ROOT
HETATM    1  C   UNL     1      -9.485   5.742  71.351  1.00  0.00    -0.174 C  
HETATM    2  C   UNL     1     -10.823   6.464  71.432  1.00  0.00    -0.301 C  
ENDROOT
BRANCH   2   3
HETATM    3  C   UNL     1     -11.042   7.313  70.184  1.00  0.00    -0.281 C  
BRANCH   3   4
HETATM    4  C   UNL     1      -9.806   7.350  69.274  1.00  0.00    -0.168 C  
HETATM    5  C   UNL     1     -10.063   8.068  67.928  1.00  0.00    -0.194 C  
HETATM    6  O   UNL     1     -11.071   7.332  67.222  1.00  0.00    -0.554 OA 
HETATM    7  C   UNL     1      -8.782   8.055  67.080  1.00  0.00    -0.134 C  
HETATM    8  C   UNL     1     -10.571   9.512  68.176  1.00  0.00    -0.265 C  
HETATM    9  H   UNL     1     -11.228   7.773  66.395  1.00  0.00     0.000 HD 
BRANCH   8  10
HETATM   10  C   UNL     1     -10.708  10.381  66.958  1.00  0.00    -0.298 C  
HETATM   11  C   UNL     1     -10.028  11.524  66.765  1.00  0.00    -0.235 C  
BRANCH  11  12
HETATM   12  C   UNL     1     -10.128  12.429  65.565  1.00  0.00    -0.287 C  
HETATM   13  C   UNL     1     -10.579  11.641  64.323  1.00  0.00    -0.340 C  
HETATM   14  C   UNL     1     -11.096  12.684  63.352  1.00  0.00    -0.354 C  
HETATM   15  O   UNL     1      -9.507  10.910  63.738  1.00  0.00    -0.231 OA 
HETATM   16  H   UNL     1      -9.785  10.422  62.972  1.00  0.00     0.000 HD 
HETATM   17  C   UNL     1     -11.651  13.722  64.275  1.00  0.00    -0.369 C  
HETATM   18  O   UNL     1     -12.462  14.565  63.907  1.00  0.00    -0.814 OA 
HETATM   19  C   UNL     1     -11.127  13.603  65.693  1.00  0.00    -0.300 C  
BRANCH  19  20
HETATM   20  C   UNL     1     -10.436  14.865  66.222  1.00  0.00    -0.306 C  
BRANCH  20  21
HETATM   21  C   UNL     1     -11.149  15.448  67.443  1.00  0.00    -0.311 C  
BRANCH  21  22
HETATM   22  C   UNL     1     -11.229  14.448  68.591  1.00  0.00    -0.280 C  
BRANCH  22  23
HETATM   23  C   UNL     1      -9.843  14.221  69.199  1.00  0.00     0.006 C  
BRANCH  23  24
HETATM   24  C   UNL     1      -9.101  15.544  69.353  1.00  0.00    -0.280 C  
BRANCH  24  25
HETATM   25  C   UNL     1      -7.706  15.492  68.737  1.00  0.00    -0.159 C  
BRANCH  25  26
HETATM   26  C   UNL     1      -6.722  16.280  69.568  1.00  0.00    -0.198 C  
HETATM   27  O   UNL     1      -6.014  15.817  70.449  1.00  0.00    -0.136 OA 
BRANCH  26  28
HETATM   28  O   UNL     1      -6.736  17.587  69.190  1.00  0.00    -0.237 OA 
HETATM   29  C   UNL     1      -5.432  18.137  69.007  1.00  0.00    -0.194 C  
ENDBRANCH  26  28
ENDBRANCH  25  26
ENDBRANCH  24  25
ENDBRANCH  23  24
ENDBRANCH  22  23
ENDBRANCH  21  22
ENDBRANCH  20  21
ENDBRANCH  19  20
ENDBRANCH  11  12
ENDBRANCH   8  10
ENDBRANCH   3   4
ENDBRANCH   2   3
TORSDOF 12
ENDMDL
MODEL      136
REMARK 921   NORMALIZED FREE ENERGY PREDICTED BY IDOCK:   -4.06 KCAL/MOL
REMARK 922        TOTAL FREE ENERGY PREDICTED BY IDOCK:   -8.94 KCAL/MOL
REMARK 923 INTER-LIGAND FREE ENERGY PREDICTED BY IDOCK:   -6.44 KCAL/MOL
REMARK 924 INTRA-LIGAND FREE ENERGY PREDICTED BY IDOCK:   -2.50 KCAL/MOL
REMARK 927      BINDING AFFINITY PREDICTED BY RF-SCORE:    0.00 PKD
ROOT
HETATM    1  C   UNL     1      -6.069   8.868  64.086  1.00  0.00    -0.071 C  
HETATM    2  C   UNL     1      -6.274   8.256  65.465  1.00  0.00    -0.045 C  
ENDROOT
BRANCH   2   3
HETATM    3  C   UNL     1      -7.763   8.127  65.771  1.00  0.00    -0.092 C  
BRANCH   3   4
HETATM    4  C   UNL     1      -8.629   8.988  64.842  1.00  0.00    -0.206 C  
HETATM    5  C   UNL     1      -9.483  10.032  65.603  1.00  0.00    -0.220 C  
HETATM    6  O   UNL     1     -10.384   9.321  66.463  1.00  0.00    -0.258 OA 
HETATM    7  C   UNL     1     -10.320  10.844  64.604  1.00  0.00    -0.407 C  
HETATM    8  C   UNL     1      -8.575  10.945  66.465  1.00  0.00    -0.156 C  
HETATM    9  H   UNL     1     -10.908   9.961  66.929  1.00  0.00     0.000 HD 
BRANCH   8  10
HETATM   10  C   UNL     1      -9.252  12.109  67.133  1.00  0.00    -0.193 C  
HETATM   11  C   UNL     1      -8.623  13.004  67.912  1.00  0.00    -0.189 C  
BRANCH  11  12
HETATM   12  C   UNL     1      -9.254  14.185  68.602  1.00  0.00    -0.146 C  
HETATM   13  C   UNL     1      -8.256  15.350  68.712  1.00  0.00    -0.172 C  
HETATM   14  C   UNL     1      -9.104  16.583  68.960  1.00  0.00    -0.229 C  
HETATM   15  O   UNL     1      -7.333  15.162  69.779  1.00  0.00    -0.200 OA 
HETATM   16  H   UNL     1      -6.716  15.881  69.846  1.00  0.00     0.000 HD 
HETATM   17  C   UNL     1     -10.357  16.255  68.211  1.00  0.00    -0.272 C  
HETATM   18  O   UNL     1     -11.163  17.113  67.869  1.00  0.00    -0.200 OA 
HETATM   19  C   UNL     1     -10.504  14.777  67.909  1.00  0.00    -0.246 C  
BRANCH  19  20
HETATM   20  C   UNL     1     -11.791  14.143  68.451  1.00  0.00    -0.388 C  
BRANCH  20  21
HETATM   21  C   UNL     1     -11.872  14.209  69.976  1.00  0.00    -0.388 C  
BRANCH  21  22
HETATM   22  C   UNL     1     -12.346  12.892  70.581  1.00  0.00    -0.385 C  
BRANCH  22  23
HETATM   23  C   UNL     1     -11.863  11.712  69.734  1.00  0.00    -0.428 C  
BRANCH  23  24
HETATM   24  C   UNL     1     -11.583  10.498  70.612  1.00  0.00    -0.445 C  
BRANCH  24  25
HETATM   25  C   UNL     1     -10.263   9.822  70.249  1.00  0.00    -0.346 C  
BRANCH  25  26
HETATM   26  C   UNL     1     -10.476   8.359  69.944  1.00  0.00    -0.222 C  
HETATM   27  O   UNL     1     -11.362   7.662  70.412  1.00  0.00    -0.272 OA 
BRANCH  26  28
HETATM   28  O   UNL     1      -9.530   7.926  69.065  1.00  0.00    -0.151 OA 
HETATM   29  C   UNL     1      -8.225   8.429  69.347  1.00  0.00    -0.116 C  
ENDBRANCH  26  28
ENDBRANCH  25  26
ENDBRANCH  24  25
ENDBRANCH  23  24
ENDBRANCH  22  23
ENDBRANCH  21  22
ENDBRANCH  20  21
ENDBRANCH  19  20
ENDBRANCH  11  12
ENDBRANCH   8  10
ENDBRANCH   3   4
ENDBRANCH   2   3
TORSDOF 12
ENDMDL
MODEL      137
REMARK 921   NORMALIZED FREE ENERGY PREDICTED BY IDOCK:   -4.06 KCAL/MOL
REMARK 922        TOTAL FREE ENERGY PREDICTED BY IDOCK:   -8.94 KCAL/MOL
REMARK 923 INTER-LIGAND FREE ENERGY PREDICTED BY IDOCK:   -7.57 KCAL/MOL
REMARK 924 INTRA-LIGAND FREE ENERGY PREDICTED BY IDOCK:   -1.37 KCAL/MOL
REMARK 927      BINDING AFFINITY PREDICTED BY RF-SCORE:    0.00 PKD
ROOT
HETATM    1  C   UNL     1     -10.129  20.213  68.741  1.00  0.00    -0.334 C  
HETATM    2  C   UNL     1      -9.578  20.262  67.323  1.00  0.00    -0.581 C  
ENDROOT
BRANCH   2   3
HETATM    3  C   UNL     1      -8.552  19.153  67.114  1.00  0.00    -0.306 C  
BRANCH   3   4
HETATM    4  C   UNL     1      -8.522  18.155  68.280  1.00  0.00    -0.294 C  
HETATM    5  C   UNL     1      -9.259  16.831  67.966  1.00  0.00    -0.228 C  
HETATM    6  O   UNL     1     -10.639  17.141  67.728  1.00  0.00    -0.352 OA 
HETATM    7  C   UNL     1      -9.185  15.895  69.182  1.00  0.00    -0.253 C  
HETATM    8  C   UNL     1      -8.663  16.169  66.698  1.00  0.00    -0.300 C  
HETATM    9  H   UNL     1     -11.092  16.329  67.536  1.00  0.00     0.000 HD 
BRANCH   8  10
HETATM   10  C   UNL     1      -9.174  14.795  66.367  1.00  0.00    -0.301 C  
HETATM   11  C   UNL     1     -10.287  14.555  65.654  1.00  0.00    -0.367 C  
BRANCH  11  12
HETATM   12  C   UNL     1     -10.841  13.200  65.295  1.00  0.00    -0.314 C  
HETATM   13  C   UNL     1     -12.031  13.336  64.329  1.00  0.00    -0.421 C  
HETATM   14  C   UNL     1     -12.181  11.972  63.684  1.00  0.00    -0.642 C  
HETATM   15  O   UNL     1     -13.229  13.697  65.007  1.00  0.00    -0.729 OA 
HETATM   16  H   UNL     1     -13.964  13.782  64.411  1.00  0.00     0.000 HD 
HETATM   17  C   UNL     1     -10.767  11.486  63.649  1.00  0.00    -0.424 C  
HETATM   18  O   UNL     1     -10.399  10.583  62.906  1.00  0.00     0.015 OA 
HETATM   19  C   UNL     1      -9.853  12.235  64.599  1.00  0.00    -0.126 C  
BRANCH  19  20
HETATM   20  C   UNL     1      -9.133  11.347  65.620  1.00  0.00    -0.173 C  
BRANCH  20  21
HETATM   21  C   UNL     1     -10.045  10.939  66.778  1.00  0.00    -0.259 C  
BRANCH  21  22
HETATM   22  C   UNL     1      -9.567  11.509  68.110  1.00  0.00    -0.187 C  
BRANCH  22  23
HETATM   23  C   UNL     1      -8.144  11.034  68.414  1.00  0.00    -0.134 C  
BRANCH  23  24
HETATM   24  C   UNL     1      -8.151   9.996  69.530  1.00  0.00    -0.166 C  
BRANCH  24  25
HETATM   25  C   UNL     1      -9.282   8.984  69.363  1.00  0.00    -0.150 C  
BRANCH  25  26
HETATM   26  C   UNL     1      -8.755   7.672  68.833  1.00  0.00    -0.135 C  
HETATM   27  O   UNL     1      -7.707   7.527  68.223  1.00  0.00    -0.114 OA 
BRANCH  26  28
HETATM   28  O   UNL     1      -9.621   6.667  69.138  1.00  0.00    -0.136 OA 
HETATM   29  C   UNL     1     -10.961   6.931  68.722  1.00  0.00    -0.157 C  
ENDBRANCH  26  28
ENDBRANCH  25  26
ENDBRANCH  24  25
ENDBRANCH  23  24
ENDBRANCH  22  23
ENDBRANCH  21  22
ENDBRANCH  20  21
ENDBRANCH  19  20
ENDBRANCH  11  12
ENDBRANCH   8  10
ENDBRANCH   3   4
ENDBRANCH   2   3
TORSDOF 12
ENDMDL
MODEL      138
REMARK 921   NORMALIZED FREE ENERGY PREDICTED BY IDOCK:   -4.05 KCAL/MOL
REMARK 922        TOTAL FREE ENERGY PREDICTED BY IDOCK:   -8.93 KCAL/MOL
REMARK 923 INTER-LIGAND FREE ENERGY PREDICTED BY IDOCK:   -7.35 KCAL/MOL
REMARK 924 INTRA-LIGAND FREE ENERGY PREDICTED BY IDOCK:   -1.58 KCAL/MOL
REMARK 927      BINDING AFFINITY PREDICTED BY RF-SCORE:    0.00 PKD
ROOT
HETATM    1  C   UNL     1     -10.666   4.434  73.693  1.00  0.00    -0.339 C  
HETATM    2  C   UNL     1     -11.489   5.284  72.735  1.00  0.00    -0.317 C  
ENDROOT
BRANCH   2   3
HETATM    3  C   UNL     1     -10.677   6.485  72.262  1.00  0.00    -0.252 C  
BRANCH   3   4
HETATM    4  C   UNL     1     -11.511   7.771  72.205  1.00  0.00    -0.384 C  
HETATM    5  C   UNL     1     -10.907   8.847  71.271  1.00  0.00    -0.290 C  
HETATM    6  O   UNL     1      -9.623   9.214  71.795  1.00  0.00    -0.283 OA 
HETATM    7  C   UNL     1     -11.798  10.098  71.277  1.00  0.00    -0.448 C  
HETATM    8  C   UNL     1     -10.727   8.280  69.840  1.00  0.00    -0.234 C  
HETATM    9  H   UNL     1      -9.253   9.874  71.222  1.00  0.00     0.000 HD 
BRANCH   8  10
HETATM   10  C   UNL     1     -10.300   9.264  68.788  1.00  0.00    -0.231 C  
HETATM   11  C   UNL     1      -9.591   8.940  67.694  1.00  0.00    -0.181 C  
BRANCH  11  12
HETATM   12  C   UNL     1      -9.139   9.886  66.612  1.00  0.00    -0.171 C  
HETATM   13  C   UNL     1      -8.047   9.239  65.743  1.00  0.00    -0.115 C  
HETATM   14  C   UNL     1      -8.026  10.046  64.459  1.00  0.00    -0.148 C  
HETATM   15  O   UNL     1      -6.772   9.279  66.373  1.00  0.00    -0.070 OA 
HETATM   16  H   UNL     1      -6.097   8.879  65.837  1.00  0.00     0.000 HD 
HETATM   17  C   UNL     1      -9.458  10.458  64.325  1.00  0.00    -0.294 C  
HETATM   18  O   UNL     1      -9.939  10.831  63.262  1.00  0.00    -0.326 OA 
HETATM   19  C   UNL     1     -10.236  10.345  65.621  1.00  0.00    -0.308 C  
BRANCH  19  20
HETATM   20  C   UNL     1     -10.891  11.651  66.086  1.00  0.00    -0.343 C  
BRANCH  20  21
HETATM   21  C   UNL     1      -9.932  12.524  66.896  1.00  0.00    -0.229 C  
BRANCH  21  22
HETATM   22  C   UNL     1     -10.347  12.621  68.360  1.00  0.00    -0.241 C  
BRANCH  22  23
HETATM   23  C   UNL     1     -11.721  13.284  68.483  1.00  0.00    -0.388 C  
BRANCH  23  24
HETATM   24  C   UNL     1     -11.666  14.462  69.450  1.00  0.00    -0.362 C  
BRANCH  24  25
HETATM   25  C   UNL     1     -11.821  15.799  68.731  1.00  0.00    -0.321 C  
BRANCH  25  26
HETATM   26  C   UNL     1     -10.696  16.013  67.746  1.00  0.00    -0.323 C  
HETATM   27  O   UNL     1     -10.824  16.082  66.533  1.00  0.00    -0.276 OA 
BRANCH  26  28
HETATM   28  O   UNL     1      -9.512  16.120  68.409  1.00  0.00    -0.201 OA 
HETATM   29  C   UNL     1      -8.973  17.441  68.393  1.00  0.00    -0.277 C  
ENDBRANCH  26  28
ENDBRANCH  25  26
ENDBRANCH  24  25
ENDBRANCH  23  24
ENDBRANCH  22  23
ENDBRANCH  21  22
ENDBRANCH  20  21
ENDBRANCH  19  20
ENDBRANCH  11  12
ENDBRANCH   8  10
ENDBRANCH   3   4
ENDBRANCH   2   3
TORSDOF 12
ENDMDL
MODEL      139
REMARK 921   NORMALIZED FREE ENERGY PREDICTED BY IDOCK:   -4.05 KCAL/MOL
REMARK 922        TOTAL FREE ENERGY PREDICTED BY IDOCK:   -8.92 KCAL/MOL
REMARK 923 INTER-LIGAND FREE ENERGY PREDICTED BY IDOCK:   -7.09 KCAL/MOL
REMARK 924 INTRA-LIGAND FREE ENERGY PREDICTED BY IDOCK:   -1.83 KCAL/MOL
REMARK 927      BINDING AFFINITY PREDICTED BY RF-SCORE:    0.00 PKD
ROOT
HETATM    1  C   UNL     1     -13.373  13.592  72.565  1.00  0.00    -0.638 C  
HETATM    2  C   UNL     1     -13.307  14.442  71.303  1.00  0.00    -0.409 C  
ENDROOT
BRANCH   2   3
HETATM    3  C   UNL     1     -12.858  13.594  70.118  1.00  0.00     0.026 C  
BRANCH   3   4
HETATM    4  C   UNL     1     -11.951  12.431  70.538  1.00  0.00    -0.284 C  
HETATM    5  C   UNL     1     -11.529  11.529  69.353  1.00  0.00    -0.309 C  
HETATM    6  O   UNL     1     -12.716  10.945  68.801  1.00  0.00    -0.545 OA 
HETATM    7  C   UNL     1     -10.630  10.392  69.860  1.00  0.00    -0.299 C  
HETATM    8  C   UNL     1     -10.824  12.372  68.259  1.00  0.00    -0.264 C  
HETATM    9  H   UNL     1     -12.458  10.391  68.073  1.00  0.00     0.000 HD 
BRANCH   8  10
HETATM   10  C   UNL     1     -10.217  11.601  67.121  1.00  0.00    -0.240 C  
HETATM   11  C   UNL     1     -10.798  11.443  65.921  1.00  0.00    -0.292 C  
BRANCH  11  12
HETATM   12  C   UNL     1     -10.232  10.682  64.749  1.00  0.00    -0.401 C  
HETATM   13  C   UNL     1     -10.044  11.610  63.537  1.00  0.00    -0.425 C  
HETATM   14  C   UNL     1      -9.063  10.891  62.631  1.00  0.00    -0.364 C  
HETATM   15  O   UNL     1     -11.269  11.845  62.851  1.00  0.00    -0.623 OA 
HETATM   16  H   UNL     1     -11.153  12.419  62.102  1.00  0.00     0.000 HD 
HETATM   17  C   UNL     1      -8.209  10.157  63.616  1.00  0.00    -0.166 C  
HETATM   18  O   UNL     1      -7.095   9.730  63.332  1.00  0.00    -0.108 OA 
HETATM   19  C   UNL     1      -8.853  10.022  64.981  1.00  0.00    -0.213 C  
BRANCH  19  20
HETATM   20  C   UNL     1      -9.005   8.578  65.472  1.00  0.00    -0.182 C  
BRANCH  20  21
HETATM   21  C   UNL     1      -7.850   8.149  66.379  1.00  0.00    -0.093 C  
BRANCH  21  22
HETATM   22  C   UNL     1      -7.945   8.783  67.763  1.00  0.00    -0.106 C  
BRANCH  22  23
HETATM   23  C   UNL     1      -6.606   8.665  68.496  1.00  0.00    -0.059 C  
BRANCH  23  24
HETATM   24  C   UNL     1      -6.695   7.634  69.615  1.00  0.00    -0.040 C  
BRANCH  24  25
HETATM   25  C   UNL     1      -7.969   7.793  70.439  1.00  0.00    -0.095 C  
BRANCH  25  26
HETATM   26  C   UNL     1      -7.724   8.674  71.642  1.00  0.00    -0.108 C  
HETATM   27  O   UNL     1      -6.683   9.262  71.885  1.00  0.00    -0.293 OA 
BRANCH  26  28
HETATM   28  O   UNL     1      -8.841   8.718  72.419  1.00  0.00    -0.391 OA 
HETATM   29  C   UNL     1      -9.768   7.670  72.137  1.00  0.00    -0.173 C  
ENDBRANCH  26  28
ENDBRANCH  25  26
ENDBRANCH  24  25
ENDBRANCH  23  24
ENDBRANCH  22  23
ENDBRANCH  21  22
ENDBRANCH  20  21
ENDBRANCH  19  20
ENDBRANCH  11  12
ENDBRANCH   8  10
ENDBRANCH   3   4
ENDBRANCH   2   3
TORSDOF 12
ENDMDL
MODEL      140
REMARK 921   NORMALIZED FREE ENERGY PREDICTED BY IDOCK:   -4.04 KCAL/MOL
REMARK 922        TOTAL FREE ENERGY PREDICTED BY IDOCK:   -8.91 KCAL/MOL
REMARK 923 INTER-LIGAND FREE ENERGY PREDICTED BY IDOCK:   -6.71 KCAL/MOL
REMARK 924 INTRA-LIGAND FREE ENERGY PREDICTED BY IDOCK:   -2.20 KCAL/MOL
REMARK 927      BINDING AFFINITY PREDICTED BY RF-SCORE:    0.00 PKD
ROOT
HETATM    1  C   UNL     1      -6.065  17.629  68.940  1.00  0.00    -0.197 C  
HETATM    2  C   UNL     1      -5.650  17.586  67.476  1.00  0.00    -0.147 C  
ENDROOT
BRANCH   2   3
HETATM    3  C   UNL     1      -6.812  17.109  66.611  1.00  0.00    -0.278 C  
BRANCH   3   4
HETATM    4  C   UNL     1      -8.066  16.790  67.436  1.00  0.00    -0.190 C  
HETATM    5  C   UNL     1      -8.496  15.307  67.340  1.00  0.00    -0.179 C  
HETATM    6  O   UNL     1      -8.824  15.031  65.971  1.00  0.00    -0.471 OA 
HETATM    7  C   UNL     1      -9.756  15.076  68.187  1.00  0.00    -0.215 C  
HETATM    8  C   UNL     1      -7.334  14.379  67.779  1.00  0.00    -0.186 C  
HETATM    9  H   UNL     1      -9.089  14.121  65.913  1.00  0.00     0.000 HD 
BRANCH   8  10
HETATM   10  C   UNL     1      -7.663  12.917  67.890  1.00  0.00    -0.143 C  
HETATM   11  C   UNL     1      -7.103  11.957  67.135  1.00  0.00    -0.142 C  
BRANCH  11  12
HETATM   12  C   UNL     1      -7.397  10.481  67.207  1.00  0.00    -0.091 C  
HETATM   13  C   UNL     1      -7.864  10.087  68.619  1.00  0.00    -0.091 C  
HETATM   14  C   UNL     1      -8.567   8.753  68.450  1.00  0.00    -0.134 C  
HETATM   15  O   UNL     1      -6.775   9.961  69.526  1.00  0.00    -0.048 OA 
HETATM   16  H   UNL     1      -7.064   9.718  70.398  1.00  0.00     0.000 HD 
HETATM   17  C   UNL     1      -9.148   8.877  67.078  1.00  0.00    -0.135 C  
HETATM   18  O   UNL     1     -10.069   8.170  66.686  1.00  0.00    -0.270 OA 
HETATM   19  C   UNL     1      -8.498   9.969  66.250  1.00  0.00    -0.134 C  
BRANCH  19  20
HETATM   20  C   UNL     1      -7.900   9.488  64.923  1.00  0.00    -0.119 C  
BRANCH  20  21
HETATM   21  C   UNL     1      -8.883   9.624  63.760  1.00  0.00    -0.257 C  
BRANCH  21  22
HETATM   22  C   UNL     1     -10.064  10.524  64.111  1.00  0.00    -0.351 C  
BRANCH  22  23
HETATM   23  C   UNL     1     -10.021  11.808  63.280  1.00  0.00    -0.435 C  
BRANCH  23  24
HETATM   24  C   UNL     1     -10.836  12.909  63.949  1.00  0.00    -0.402 C  
BRANCH  24  25
HETATM   25  C   UNL     1     -10.881  12.745  65.465  1.00  0.00    -0.301 C  
BRANCH  25  26
HETATM   26  C   UNL     1     -12.227  13.159  66.011  1.00  0.00    -0.414 C  
HETATM   27  O   UNL     1     -13.035  13.867  65.432  1.00  0.00    -0.722 OA 
BRANCH  26  28
HETATM   28  O   UNL     1     -12.411  12.622  67.248  1.00  0.00    -0.352 OA 
HETATM   29  C   UNL     1     -11.416  11.660  67.601  1.00  0.00    -0.303 C  
ENDBRANCH  26  28
ENDBRANCH  25  26
ENDBRANCH  24  25
ENDBRANCH  23  24
ENDBRANCH  22  23
ENDBRANCH  21  22
ENDBRANCH  20  21
ENDBRANCH  19  20
ENDBRANCH  11  12
ENDBRANCH   8  10
ENDBRANCH   3   4
ENDBRANCH   2   3
TORSDOF 12
ENDMDL
MODEL      141
REMARK 921   NORMALIZED FREE ENERGY PREDICTED BY IDOCK:   -4.03 KCAL/MOL
REMARK 922        TOTAL FREE ENERGY PREDICTED BY IDOCK:   -8.90 KCAL/MOL
REMARK 923 INTER-LIGAND FREE ENERGY PREDICTED BY IDOCK:   -7.44 KCAL/MOL
REMARK 924 INTRA-LIGAND FREE ENERGY PREDICTED BY IDOCK:   -1.46 KCAL/MOL
REMARK 927      BINDING AFFINITY PREDICTED BY RF-SCORE:    0.00 PKD
ROOT
HETATM    1  C   UNL     1     -12.692  12.290  63.338  1.00  0.00    -0.461 C  
HETATM    2  C   UNL     1     -11.893  13.374  64.049  1.00  0.00    -0.498 C  
ENDROOT
BRANCH   2   3
HETATM    3  C   UNL     1     -12.483  13.650  65.427  1.00  0.00    -0.537 C  
BRANCH   3   4
HETATM    4  C   UNL     1     -11.403  13.871  66.495  1.00  0.00    -0.340 C  
HETATM    5  C   UNL     1     -10.850  12.550  67.083  1.00  0.00    -0.250 C  
HETATM    6  O   UNL     1     -11.934  11.870  67.732  1.00  0.00    -0.559 OA 
HETATM    7  C   UNL     1      -9.783  12.861  68.143  1.00  0.00    -0.227 C  
HETATM    8  C   UNL     1     -10.290  11.649  65.954  1.00  0.00    -0.289 C  
HETATM    9  H   UNL     1     -11.595  11.060  68.093  1.00  0.00     0.000 HD 
BRANCH   8  10
HETATM   10  C   UNL     1      -9.575  10.404  66.396  1.00  0.00    -0.225 C  
HETATM   11  C   UNL     1      -9.577   9.248  65.711  1.00  0.00    -0.341 C  
BRANCH  11  12
HETATM   12  C   UNL     1      -8.877   7.974  66.110  1.00  0.00    -0.198 C  
HETATM   13  C   UNL     1      -7.546   7.825  65.355  1.00  0.00    -0.089 C  
HETATM   14  C   UNL     1      -6.741   6.819  66.156  1.00  0.00    -0.052 C  
HETATM   15  O   UNL     1      -7.737   7.357  64.025  1.00  0.00    -0.110 OA 
HETATM   16  H   UNL     1      -6.914   7.265  63.558  1.00  0.00     0.000 HD 
HETATM   17  C   UNL     1      -7.207   7.089  67.552  1.00  0.00    -0.090 C  
HETATM   18  O   UNL     1      -6.569   6.738  68.538  1.00  0.00    -0.053 OA 
HETATM   19  C   UNL     1      -8.517   7.848  67.609  1.00  0.00    -0.127 C  
BRANCH  19  20
HETATM   20  C   UNL     1      -9.630   7.137  68.388  1.00  0.00    -0.137 C  
BRANCH  20  21
HETATM   21  C   UNL     1     -10.525   8.118  69.147  1.00  0.00    -0.217 C  
BRANCH  21  22
HETATM   22  C   UNL     1      -9.718   9.217  69.831  1.00  0.00    -0.220 C  
BRANCH  22  23
HETATM   23  C   UNL     1      -9.652   8.970  71.340  1.00  0.00    -0.356 C  
BRANCH  23  24
HETATM   24  C   UNL     1     -11.052   8.944  71.942  1.00  0.00    -0.442 C  
BRANCH  24  25
HETATM   25  C   UNL     1     -11.269   7.724  72.833  1.00  0.00    -0.434 C  
BRANCH  25  26
HETATM   26  C   UNL     1     -11.985   6.629  72.079  1.00  0.00    -0.319 C  
HETATM   27  O   UNL     1     -13.091   6.729  71.572  1.00  0.00    -0.310 OA 
BRANCH  26  28
HETATM   28  O   UNL     1     -11.214   5.508  72.044  1.00  0.00    -0.235 OA 
HETATM   29  C   UNL     1     -11.288   4.734  73.241  1.00  0.00    -0.322 C  
ENDBRANCH  26  28
ENDBRANCH  25  26
ENDBRANCH  24  25
ENDBRANCH  23  24
ENDBRANCH  22  23
ENDBRANCH  21  22
ENDBRANCH  20  21
ENDBRANCH  19  20
ENDBRANCH  11  12
ENDBRANCH   8  10
ENDBRANCH   3   4
ENDBRANCH   2   3
TORSDOF 12
ENDMDL
MODEL      142
REMARK 921   NORMALIZED FREE ENERGY PREDICTED BY IDOCK:   -4.03 KCAL/MOL
REMARK 922        TOTAL FREE ENERGY PREDICTED BY IDOCK:   -8.90 KCAL/MOL
REMARK 923 INTER-LIGAND FREE ENERGY PREDICTED BY IDOCK:   -7.71 KCAL/MOL
REMARK 924 INTRA-LIGAND FREE ENERGY PREDICTED BY IDOCK:   -1.18 KCAL/MOL
REMARK 927      BINDING AFFINITY PREDICTED BY RF-SCORE:    0.00 PKD
ROOT
HETATM    1  C   UNL     1     -10.466  19.664  66.401  1.00  0.00    -0.618 C  
HETATM    2  C   UNL     1      -9.007  19.533  66.812  1.00  0.00    -0.386 C  
ENDROOT
BRANCH   2   3
HETATM    3  C   UNL     1      -8.756  18.169  67.447  1.00  0.00    -0.245 C  
BRANCH   3   4
HETATM    4  C   UNL     1      -9.886  17.745  68.394  1.00  0.00    -0.347 C  
HETATM    5  C   UNL     1     -10.398  16.309  68.126  1.00  0.00    -0.277 C  
HETATM    6  O   UNL     1     -10.940  16.275  66.799  1.00  0.00    -0.194 OA 
HETATM    7  C   UNL     1     -11.527  15.968  69.110  1.00  0.00    -0.347 C  
HETATM    8  C   UNL     1      -9.230  15.294  68.222  1.00  0.00    -0.189 C  
HETATM    9  H   UNL     1     -11.254  15.394  66.634  1.00  0.00     0.000 HD 
BRANCH   8  10
HETATM   10  C   UNL     1      -9.608  13.843  68.143  1.00  0.00    -0.218 C  
HETATM   11  C   UNL     1     -10.318  13.300  67.140  1.00  0.00    -0.248 C  
BRANCH  11  12
HETATM   12  C   UNL     1     -10.723  11.854  67.014  1.00  0.00    -0.280 C  
HETATM   13  C   UNL     1      -9.840  11.129  65.984  1.00  0.00    -0.228 C  
HETATM   14  C   UNL     1     -10.000   9.651  66.289  1.00  0.00    -0.335 C  
HETATM   15  O   UNL     1     -10.243  11.405  64.648  1.00  0.00    -0.256 OA 
HETATM   16  H   UNL     1      -9.698  10.957  64.012  1.00  0.00     0.000 HD 
HETATM   17  C   UNL     1     -10.209   9.658  67.770  1.00  0.00    -0.205 C  
HETATM   18  O   UNL     1     -10.040   8.662  68.463  1.00  0.00    -0.180 OA 
HETATM   19  C   UNL     1     -10.620  11.014  68.309  1.00  0.00    -0.220 C  
BRANCH  19  20
HETATM   20  C   UNL     1     -11.947  11.016  69.077  1.00  0.00    -0.364 C  
BRANCH  20  21
HETATM   21  C   UNL     1     -11.758  10.696  70.561  1.00  0.00    -0.451 C  
BRANCH  21  22
HETATM   22  C   UNL     1     -12.648   9.543  71.015  1.00  0.00    -0.331 C  
BRANCH  22  23
HETATM   23  C   UNL     1     -11.793   8.356  71.467  1.00  0.00    -0.345 C  
BRANCH  23  24
HETATM   24  C   UNL     1     -10.568   8.838  72.235  1.00  0.00    -0.319 C  
BRANCH  24  25
HETATM   25  C   UNL     1      -9.422   7.832  72.172  1.00  0.00    -0.216 C  
BRANCH  25  26
HETATM   26  C   UNL     1      -8.459   8.041  73.316  1.00  0.00    -0.224 C  
HETATM   27  O   UNL     1      -7.413   8.668  73.253  1.00  0.00    -0.350 OA 
BRANCH  26  28
HETATM   28  O   UNL     1      -8.930   7.428  74.436  1.00  0.00    -0.213 OA 
HETATM   29  C   UNL     1      -8.809   6.006  74.395  1.00  0.00    -0.127 C  
ENDBRANCH  26  28
ENDBRANCH  25  26
ENDBRANCH  24  25
ENDBRANCH  23  24
ENDBRANCH  22  23
ENDBRANCH  21  22
ENDBRANCH  20  21
ENDBRANCH  19  20
ENDBRANCH  11  12
ENDBRANCH   8  10
ENDBRANCH   3   4
ENDBRANCH   2   3
TORSDOF 12
ENDMDL
MODEL      143
REMARK 921   NORMALIZED FREE ENERGY PREDICTED BY IDOCK:   -4.02 KCAL/MOL
REMARK 922        TOTAL FREE ENERGY PREDICTED BY IDOCK:   -8.88 KCAL/MOL
REMARK 923 INTER-LIGAND FREE ENERGY PREDICTED BY IDOCK:   -7.50 KCAL/MOL
REMARK 924 INTRA-LIGAND FREE ENERGY PREDICTED BY IDOCK:   -1.38 KCAL/MOL
REMARK 927      BINDING AFFINITY PREDICTED BY RF-SCORE:    0.00 PKD
ROOT
HETATM    1  C   UNL     1      -6.175   2.938  67.204  1.00  0.00    -0.028 C  
HETATM    2  C   UNL     1      -6.733   4.173  66.511  1.00  0.00    -0.050 C  
ENDROOT
BRANCH   2   3
HETATM    3  C   UNL     1      -7.621   4.962  67.467  1.00  0.00    -0.086 C  
BRANCH   3   4
HETATM    4  C   UNL     1      -7.639   6.463  67.147  1.00  0.00    -0.096 C  
HETATM    5  C   UNL     1      -9.042   7.100  67.300  1.00  0.00    -0.123 C  
HETATM    6  O   UNL     1      -9.917   6.468  66.357  1.00  0.00    -0.347 OA 
HETATM    7  C   UNL     1      -8.973   8.595  66.958  1.00  0.00    -0.152 C  
HETATM    8  C   UNL     1      -9.587   6.865  68.732  1.00  0.00    -0.134 C  
HETATM    9  H   UNL     1     -10.778   6.859  66.450  1.00  0.00     0.000 HD 
BRANCH   8  10
HETATM   10  C   UNL     1     -10.870   7.568  69.074  1.00  0.00    -0.082 C  
HETATM   11  C   UNL     1     -11.114   8.165  70.252  1.00  0.00    -0.221 C  
BRANCH  11  12
HETATM   12  C   UNL     1     -12.381   8.882  70.643  1.00  0.00     0.086 C  
HETATM   13  C   UNL     1     -12.888   8.386  72.008  1.00  0.00    -0.354 C  
HETATM   14  C   UNL     1     -13.833   9.466  72.500  1.00  0.00    -0.385 C  
HETATM   15  O   UNL     1     -13.571   7.142  71.903  1.00  0.00    -0.507 OA 
HETATM   16  H   UNL     1     -13.884   6.835  72.746  1.00  0.00     0.000 HD 
HETATM   17  C   UNL     1     -13.224  10.702  71.920  1.00  0.00    -0.423 C  
HETATM   18  O   UNL     1     -13.473  11.823  72.349  1.00  0.00    -0.326 OA 
HETATM   19  C   UNL     1     -12.267  10.419  70.779  1.00  0.00    -0.457 C  
BRANCH  19  20
HETATM   20  C   UNL     1     -12.623  11.119  69.462  1.00  0.00     0.002 C  
BRANCH  20  21
HETATM   21  C   UNL     1     -11.438  11.887  68.876  1.00  0.00    -0.358 C  
BRANCH  21  22
HETATM   22  C   UNL     1     -11.578  12.094  67.371  1.00  0.00    -0.410 C  
BRANCH  22  23
HETATM   23  C   UNL     1     -11.185  13.524  66.990  1.00  0.00    -0.330 C  
BRANCH  23  24
HETATM   24  C   UNL     1     -11.921  13.966  65.730  1.00  0.00    -0.419 C  
BRANCH  24  25
HETATM   25  C   UNL     1     -11.076  13.764  64.475  1.00  0.00    -0.388 C  
BRANCH  25  26
HETATM   26  C   UNL     1     -11.598  12.606  63.657  1.00  0.00    -0.503 C  
HETATM   27  O   UNL     1     -12.776  12.345  63.477  1.00  0.00    -0.727 OA 
BRANCH  26  28
HETATM   28  O   UNL     1     -10.557  11.894  63.144  1.00  0.00    -0.373 OA 
HETATM   29  C   UNL     1     -10.201  10.763  63.939  1.00  0.00    -0.309 C  
ENDBRANCH  26  28
ENDBRANCH  25  26
ENDBRANCH  24  25
ENDBRANCH  23  24
ENDBRANCH  22  23
ENDBRANCH  21  22
ENDBRANCH  20  21
ENDBRANCH  19  20
ENDBRANCH  11  12
ENDBRANCH   8  10
ENDBRANCH   3   4
ENDBRANCH   2   3
TORSDOF 12
ENDMDL
MODEL      144
REMARK 921   NORMALIZED FREE ENERGY PREDICTED BY IDOCK:   -4.01 KCAL/MOL
REMARK 922        TOTAL FREE ENERGY PREDICTED BY IDOCK:   -8.87 KCAL/MOL
REMARK 923 INTER-LIGAND FREE ENERGY PREDICTED BY IDOCK:   -7.88 KCAL/MOL
REMARK 924 INTRA-LIGAND FREE ENERGY PREDICTED BY IDOCK:   -0.99 KCAL/MOL
REMARK 927      BINDING AFFINITY PREDICTED BY RF-SCORE:    0.00 PKD
ROOT
HETATM    1  C   UNL     1     -11.748   6.349  72.111  1.00  0.00    -0.366 C  
HETATM    2  C   UNL     1     -10.927   5.734  70.986  1.00  0.00    -0.300 C  
ENDROOT
BRANCH   2   3
HETATM    3  C   UNL     1     -10.967   6.628  69.751  1.00  0.00    -0.367 C  
BRANCH   3   4
HETATM    4  C   UNL     1      -9.771   7.586  69.681  1.00  0.00    -0.167 C  
HETATM    5  C   UNL     1     -10.175   9.040  69.334  1.00  0.00    -0.204 C  
HETATM    6  O   UNL     1     -10.771   9.031  68.029  1.00  0.00    -0.385 OA 
HETATM    7  C   UNL     1      -8.923   9.927  69.279  1.00  0.00    -0.184 C  
HETATM    8  C   UNL     1     -11.209   9.571  70.359  1.00  0.00    -0.323 C  
HETATM    9  H   UNL     1     -11.019   9.923  67.816  1.00  0.00     0.000 HD 
BRANCH   8  10
HETATM   10  C   UNL     1     -11.570  11.024  70.240  1.00  0.00    -0.414 C  
HETATM   11  C   UNL     1     -12.542  11.622  70.949  1.00  0.00    -0.409 C  
BRANCH  11  12
HETATM   12  C   UNL     1     -12.942  13.073  70.868  1.00  0.00    -0.121 C  
HETATM   13  C   UNL     1     -13.140  13.663  72.274  1.00  0.00    -0.395 C  
HETATM   14  C   UNL     1     -13.057  15.167  72.093  1.00  0.00    -0.454 C  
HETATM   15  O   UNL     1     -14.398  13.301  72.833  1.00  0.00    -0.537 OA 
HETATM   16  H   UNL     1     -14.520  13.665  73.702  1.00  0.00     0.000 HD 
HETATM   17  C   UNL     1     -12.092  15.292  70.957  1.00  0.00    -0.342 C  
HETATM   18  O   UNL     1     -11.488  16.331  70.718  1.00  0.00    -0.401 OA 
HETATM   19  C   UNL     1     -11.929  14.009  70.166  1.00  0.00    -0.399 C  
BRANCH  19  20
HETATM   20  C   UNL     1     -12.241  14.141  68.671  1.00  0.00    -0.216 C  
BRANCH  20  21
HETATM   21  C   UNL     1     -11.752  12.934  67.869  1.00  0.00    -0.405 C  
BRANCH  21  22
HETATM   22  C   UNL     1     -10.771  13.335  66.772  1.00  0.00    -0.279 C  
BRANCH  22  23
HETATM   23  C   UNL     1      -9.483  12.515  66.883  1.00  0.00    -0.219 C  
BRANCH  23  24
HETATM   24  C   UNL     1      -9.279  11.664  65.635  1.00  0.00    -0.150 C  
BRANCH  24  25
HETATM   25  C   UNL     1     -10.263  10.499  65.571  1.00  0.00    -0.325 C  
BRANCH  25  26
HETATM   26  C   UNL     1      -9.570   9.234  65.122  1.00  0.00    -0.033 C  
HETATM   27  O   UNL     1      -9.407   8.238  65.808  1.00  0.00    -0.145 OA 
BRANCH  26  28
HETATM   28  O   UNL     1      -9.154   9.367  63.833  1.00  0.00    -0.196 OA 
HETATM   29  C   UNL     1      -7.855   8.823  63.600  1.00  0.00    -0.145 C  
ENDBRANCH  26  28
ENDBRANCH  25  26
ENDBRANCH  24  25
ENDBRANCH  23  24
ENDBRANCH  22  23
ENDBRANCH  21  22
ENDBRANCH  20  21
ENDBRANCH  19  20
ENDBRANCH  11  12
ENDBRANCH   8  10
ENDBRANCH   3   4
ENDBRANCH   2   3
TORSDOF 12
ENDMDL
MODEL      145
REMARK 921   NORMALIZED FREE ENERGY PREDICTED BY IDOCK:   -4.01 KCAL/MOL
REMARK 922        TOTAL FREE ENERGY PREDICTED BY IDOCK:   -8.87 KCAL/MOL
REMARK 923 INTER-LIGAND FREE ENERGY PREDICTED BY IDOCK:   -7.10 KCAL/MOL
REMARK 924 INTRA-LIGAND FREE ENERGY PREDICTED BY IDOCK:   -1.77 KCAL/MOL
REMARK 927      BINDING AFFINITY PREDICTED BY RF-SCORE:    0.00 PKD
ROOT
HETATM    1  C   UNL     1      -9.651   2.856  64.928  1.00  0.00    -0.078 C  
HETATM    2  C   UNL     1      -9.194   4.239  64.487  1.00  0.00    -0.155 C  
ENDROOT
BRANCH   2   3
HETATM    3  C   UNL     1      -8.981   5.139  65.700  1.00  0.00    -0.154 C  
BRANCH   3   4
HETATM    4  C   UNL     1      -7.714   5.997  65.579  1.00  0.00    -0.093 C  
HETATM    5  C   UNL     1      -7.968   7.364  64.900  1.00  0.00    -0.128 C  
HETATM    6  O   UNL     1      -8.422   7.113  63.563  1.00  0.00    -0.351 OA 
HETATM    7  C   UNL     1      -6.653   8.153  64.816  1.00  0.00    -0.059 C  
HETATM    8  C   UNL     1      -9.061   8.152  65.666  1.00  0.00    -0.092 C  
HETATM    9  H   UNL     1      -8.577   7.952  63.146  1.00  0.00     0.000 HD 
BRANCH   8  10
HETATM   10  C   UNL     1      -9.295   9.566  65.213  1.00  0.00    -0.317 C  
HETATM   11  C   UNL     1     -10.390  10.284  65.515  1.00  0.00    -0.239 C  
BRANCH  11  12
HETATM   12  C   UNL     1     -10.672  11.701  65.087  1.00  0.00    -0.351 C  
HETATM   13  C   UNL     1     -11.324  11.730  63.694  1.00  0.00    -0.436 C  
HETATM   14  C   UNL     1     -11.980  13.093  63.587  1.00  0.00    -0.580 C  
HETATM   15  O   UNL     1     -10.367  11.559  62.655  1.00  0.00    -0.601 OA 
HETATM   16  H   UNL     1     -10.769  11.576  61.794  1.00  0.00     0.000 HD 
HETATM   17  C   UNL     1     -12.370  13.364  65.006  1.00  0.00    -0.436 C  
HETATM   18  O   UNL     1     -13.220  14.193  65.308  1.00  0.00    -0.760 OA 
HETATM   19  C   UNL     1     -11.627  12.501  66.006  1.00  0.00    -0.456 C  
BRANCH  19  20
HETATM   20  C   UNL     1     -10.846  13.285  67.067  1.00  0.00    -0.278 C  
BRANCH  20  21
HETATM   21  C   UNL     1      -9.573  13.916  66.501  1.00  0.00    -0.299 C  
BRANCH  21  22
HETATM   22  C   UNL     1      -8.376  13.712  67.424  1.00  0.00    -0.198 C  
BRANCH  22  23
HETATM   23  C   UNL     1      -8.742  12.768  68.572  1.00  0.00    -0.045 C  
BRANCH  23  24
HETATM   24  C   UNL     1      -8.409  11.325  68.208  1.00  0.00    -0.150 C  
BRANCH  24  25
HETATM   25  C   UNL     1      -8.219  10.453  69.445  1.00  0.00    -0.158 C  
BRANCH  25  26
HETATM   26  C   UNL     1      -8.873   9.105  69.258  1.00  0.00    -0.144 C  
HETATM   27  O   UNL     1      -8.281   8.045  69.131  1.00  0.00    -0.126 OA 
BRANCH  26  28
HETATM   28  O   UNL     1     -10.227   9.243  69.255  1.00  0.00    -0.192 OA 
HETATM   29  C   UNL     1     -10.847   8.762  70.447  1.00  0.00    -0.228 C  
ENDBRANCH  26  28
ENDBRANCH  25  26
ENDBRANCH  24  25
ENDBRANCH  23  24
ENDBRANCH  22  23
ENDBRANCH  21  22
ENDBRANCH  20  21
ENDBRANCH  19  20
ENDBRANCH  11  12
ENDBRANCH   8  10
ENDBRANCH   3   4
ENDBRANCH   2   3
TORSDOF 12
ENDMDL
MODEL      146
REMARK 921   NORMALIZED FREE ENERGY PREDICTED BY IDOCK:   -4.01 KCAL/MOL
REMARK 922        TOTAL FREE ENERGY PREDICTED BY IDOCK:   -8.86 KCAL/MOL
REMARK 923 INTER-LIGAND FREE ENERGY PREDICTED BY IDOCK:   -7.27 KCAL/MOL
REMARK 924 INTRA-LIGAND FREE ENERGY PREDICTED BY IDOCK:   -1.60 KCAL/MOL
REMARK 927      BINDING AFFINITY PREDICTED BY RF-SCORE:    0.00 PKD
ROOT
HETATM    1  C   UNL     1      -9.232   4.430  69.848  1.00  0.00    -0.202 C  
HETATM    2  C   UNL     1     -10.158   5.428  70.531  1.00  0.00    -0.306 C  
ENDROOT
BRANCH   2   3
HETATM    3  C   UNL     1     -10.068   6.788  69.846  1.00  0.00    -0.195 C  
BRANCH   3   4
HETATM    4  C   UNL     1     -11.114   7.780  70.374  1.00  0.00    -0.259 C  
HETATM    5  C   UNL     1     -10.897   9.223  69.859  1.00  0.00    -0.234 C  
HETATM    6  O   UNL     1      -9.623   9.675  70.340  1.00  0.00    -0.251 OA 
HETATM    7  C   UNL     1     -11.978  10.148  70.436  1.00  0.00    -0.353 C  
HETATM    8  C   UNL     1     -10.890   9.248  68.309  1.00  0.00    -0.132 C  
HETATM    9  H   UNL     1      -9.490  10.560  70.025  1.00  0.00     0.000 HD 
BRANCH   8  10
HETATM   10  C   UNL     1     -10.849  10.607  67.671  1.00  0.00    -0.346 C  
HETATM   11  C   UNL     1      -9.848  11.045  66.890  1.00  0.00    -0.222 C  
BRANCH  11  12
HETATM   12  C   UNL     1      -9.760  12.396  66.226  1.00  0.00    -0.253 C  
HETATM   13  C   UNL     1     -10.369  12.350  64.815  1.00  0.00    -0.299 C  
HETATM   14  C   UNL     1     -10.659  13.795  64.457  1.00  0.00    -0.405 C  
HETATM   15  O   UNL     1      -9.476  11.776  63.867  1.00  0.00    -0.465 OA 
HETATM   16  H   UNL     1      -9.852  11.748  62.995  1.00  0.00     0.000 HD 
HETATM   17  C   UNL     1     -10.982  14.388  65.792  1.00  0.00    -0.314 C  
HETATM   18  O   UNL     1     -11.599  15.441  65.913  1.00  0.00    -0.105 OA 
HETATM   19  C   UNL     1     -10.491  13.549  66.954  1.00  0.00    -0.271 C  
BRANCH  19  20
HETATM   20  C   UNL     1      -9.549  14.283  67.915  1.00  0.00    -0.221 C  
BRANCH  20  21
HETATM   21  C   UNL     1      -8.083  14.162  67.496  1.00  0.00    -0.199 C  
BRANCH  21  22
HETATM   22  C   UNL     1      -7.133  14.606  68.603  1.00  0.00    -0.115 C  
BRANCH  22  23
HETATM   23  C   UNL     1      -7.422  16.055  69.003  1.00  0.00    -0.202 C  
BRANCH  23  24
HETATM   24  C   UNL     1      -6.647  17.023  68.115  1.00  0.00    -0.149 C  
BRANCH  24  25
HETATM   25  C   UNL     1      -7.539  18.131  67.563  1.00  0.00    -0.217 C  
BRANCH  25  26
HETATM   26  C   UNL     1      -7.976  17.815  66.152  1.00  0.00    -0.202 C  
HETATM   27  O   UNL     1      -8.936  17.124  65.849  1.00  0.00    -0.519 OA 
BRANCH  26  28
HETATM   28  O   UNL     1      -7.141  18.417  65.262  1.00  0.00    -0.530 OA 
HETATM   29  C   UNL     1      -7.003  19.821  65.477  1.00  0.00    -0.304 C  
ENDBRANCH  26  28
ENDBRANCH  25  26
ENDBRANCH  24  25
ENDBRANCH  23  24
ENDBRANCH  22  23
ENDBRANCH  21  22
ENDBRANCH  20  21
ENDBRANCH  19  20
ENDBRANCH  11  12
ENDBRANCH   8  10
ENDBRANCH   3   4
ENDBRANCH   2   3
TORSDOF 12
ENDMDL
MODEL      147
REMARK 921   NORMALIZED FREE ENERGY PREDICTED BY IDOCK:   -4.01 KCAL/MOL
REMARK 922        TOTAL FREE ENERGY PREDICTED BY IDOCK:   -8.86 KCAL/MOL
REMARK 923 INTER-LIGAND FREE ENERGY PREDICTED BY IDOCK:   -8.08 KCAL/MOL
REMARK 924 INTRA-LIGAND FREE ENERGY PREDICTED BY IDOCK:   -0.78 KCAL/MOL
REMARK 927      BINDING AFFINITY PREDICTED BY RF-SCORE:    0.00 PKD
ROOT
HETATM    1  C   UNL     1     -11.273   6.293  69.749  1.00  0.00    -0.499 C  
HETATM    2  C   UNL     1     -10.402   5.632  68.690  1.00  0.00    -0.277 C  
ENDROOT
BRANCH   2   3
HETATM    3  C   UNL     1      -9.004   6.241  68.697  1.00  0.00    -0.127 C  
BRANCH   3   4
HETATM    4  C   UNL     1      -8.422   6.389  67.285  1.00  0.00    -0.111 C  
HETATM    5  C   UNL     1      -8.969   7.622  66.527  1.00  0.00    -0.158 C  
HETATM    6  O   UNL     1     -10.384   7.451  66.371  1.00  0.00    -0.487 OA 
HETATM    7  C   UNL     1      -8.341   7.692  65.127  1.00  0.00    -0.100 C  
HETATM    8  C   UNL     1      -8.702   8.915  67.339  1.00  0.00    -0.128 C  
HETATM    9  H   UNL     1     -10.720   8.208  65.906  1.00  0.00     0.000 HD 
BRANCH   8  10
HETATM   10  C   UNL     1      -9.036  10.208  66.650  1.00  0.00    -0.156 C  
HETATM   11  C   UNL     1     -10.195  10.869  66.803  1.00  0.00    -0.277 C  
BRANCH  11  12
HETATM   12  C   UNL     1     -10.578  12.165  66.137  1.00  0.00    -0.290 C  
HETATM   13  C   UNL     1     -10.790  11.961  64.627  1.00  0.00    -0.311 C  
HETATM   14  C   UNL     1     -11.609  13.153  64.172  1.00  0.00    -0.460 C  
HETATM   15  O   UNL     1      -9.557  11.908  63.919  1.00  0.00    -0.481 OA 
HETATM   16  H   UNL     1      -9.688  11.781  62.986  1.00  0.00     0.000 HD 
HETATM   17  C   UNL     1     -12.436  13.445  65.385  1.00  0.00    -0.494 C  
HETATM   18  O   UNL     1     -13.466  14.108  65.335  1.00  0.00    -0.648 OA 
HETATM   19  C   UNL     1     -11.881  12.824  66.651  1.00  0.00    -0.462 C  
BRANCH  19  20
HETATM   20  C   UNL     1     -11.590  13.824  67.775  1.00  0.00    -0.381 C  
BRANCH  20  21
HETATM   21  C   UNL     1     -10.859  15.069  67.269  1.00  0.00    -0.310 C  
BRANCH  21  22
HETATM   22  C   UNL     1     -10.931  16.220  68.267  1.00  0.00    -0.348 C  
BRANCH  22  23
HETATM   23  C   UNL     1      -9.525  16.626  68.715  1.00  0.00    -0.258 C  
BRANCH  23  24
HETATM   24  C   UNL     1      -9.095  17.919  68.032  1.00  0.00    -0.267 C  
BRANCH  24  25
HETATM   25  C   UNL     1      -7.690  17.815  67.445  1.00  0.00    -0.214 C  
BRANCH  25  26
HETATM   26  C   UNL     1      -6.735  18.732  68.171  1.00  0.00    -0.224 C  
HETATM   27  O   UNL     1      -7.047  19.763  68.747  1.00  0.00    -0.325 OA 
BRANCH  26  28
HETATM   28  O   UNL     1      -5.468  18.240  68.092  1.00  0.00    -0.162 OA 
HETATM   29  C   UNL     1      -5.373  16.864  68.457  1.00  0.00    -0.126 C  
ENDBRANCH  26  28
ENDBRANCH  25  26
ENDBRANCH  24  25
ENDBRANCH  23  24
ENDBRANCH  22  23
ENDBRANCH  21  22
ENDBRANCH  20  21
ENDBRANCH  19  20
ENDBRANCH  11  12
ENDBRANCH   8  10
ENDBRANCH   3   4
ENDBRANCH   2   3
TORSDOF 12
ENDMDL
MODEL      148
REMARK 921   NORMALIZED FREE ENERGY PREDICTED BY IDOCK:   -4.00 KCAL/MOL
REMARK 922        TOTAL FREE ENERGY PREDICTED BY IDOCK:   -8.85 KCAL/MOL
REMARK 923 INTER-LIGAND FREE ENERGY PREDICTED BY IDOCK:   -7.55 KCAL/MOL
REMARK 924 INTRA-LIGAND FREE ENERGY PREDICTED BY IDOCK:   -1.30 KCAL/MOL
REMARK 927      BINDING AFFINITY PREDICTED BY RF-SCORE:    0.00 PKD
ROOT
HETATM    1  C   UNL     1     -10.010  18.395  66.209  1.00  0.00    -0.378 C  
HETATM    2  C   UNL     1     -10.299  16.920  66.451  1.00  0.00    -0.302 C  
ENDROOT
BRANCH   2   3
HETATM    3  C   UNL     1     -10.340  16.164  65.127  1.00  0.00    -0.202 C  
BRANCH   3   4
HETATM    4  C   UNL     1     -11.491  15.151  65.065  1.00  0.00    -0.339 C  
HETATM    5  C   UNL     1     -11.009  13.681  65.091  1.00  0.00    -0.330 C  
HETATM    6  O   UNL     1     -10.206  13.461  63.923  1.00  0.00    -0.712 OA 
HETATM    7  C   UNL     1     -12.218  12.737  65.021  1.00  0.00    -0.527 C  
HETATM    8  C   UNL     1     -10.149  13.417  66.353  1.00  0.00    -0.292 C  
HETATM    9  H   UNL     1      -9.910  12.558  63.938  1.00  0.00     0.000 HD 
BRANCH   8  10
HETATM   10  C   UNL     1      -9.747  11.989  66.592  1.00  0.00    -0.221 C  
HETATM   11  C   UNL     1     -10.155  11.255  67.640  1.00  0.00    -0.201 C  
BRANCH  11  12
HETATM   12  C   UNL     1      -9.782   9.822  67.924  1.00  0.00    -0.168 C  
HETATM   13  C   UNL     1      -9.125   9.176  66.693  1.00  0.00    -0.148 C  
HETATM   14  C   UNL     1      -8.384   7.964  67.225  1.00  0.00    -0.122 C  
HETATM   15  O   UNL     1     -10.086   8.780  65.721  1.00  0.00    -0.420 OA 
HETATM   16  H   UNL     1      -9.680   8.381  64.961  1.00  0.00     0.000 HD 
HETATM   17  C   UNL     1      -7.984   8.418  68.593  1.00  0.00    -0.121 C  
HETATM   18  O   UNL     1      -7.084   7.880  69.229  1.00  0.00    -0.067 OA 
HETATM   19  C   UNL     1      -8.784   9.607  69.086  1.00  0.00    -0.151 C  
BRANCH  19  20
HETATM   20  C   UNL     1      -9.518   9.374  70.412  1.00  0.00    -0.319 C  
BRANCH  20  21
HETATM   21  C   UNL     1     -11.016   9.140  70.212  1.00  0.00    -0.279 C  
BRANCH  21  22
HETATM   22  C   UNL     1     -11.839   9.673  71.380  1.00  0.00    -0.484 C  
BRANCH  22  23
HETATM   23  C   UNL     1     -12.480   8.517  72.151  1.00  0.00    -0.437 C  
BRANCH  23  24
HETATM   24  C   UNL     1     -11.412   7.647  72.802  1.00  0.00    -0.384 C  
BRANCH  24  25
HETATM   25  C   UNL     1     -11.394   6.235  72.224  1.00  0.00    -0.337 C  
BRANCH  25  26
HETATM   26  C   UNL     1     -10.017   5.879  71.717  1.00  0.00    -0.166 C  
HETATM   27  O   UNL     1      -9.044   5.651  72.419  1.00  0.00    -0.141 OA 
BRANCH  26  28
HETATM   28  O   UNL     1     -10.017   5.845  70.357  1.00  0.00    -0.178 OA 
HETATM   29  C   UNL     1      -9.204   4.804  69.817  1.00  0.00    -0.121 C  
ENDBRANCH  26  28
ENDBRANCH  25  26
ENDBRANCH  24  25
ENDBRANCH  23  24
ENDBRANCH  22  23
ENDBRANCH  21  22
ENDBRANCH  20  21
ENDBRANCH  19  20
ENDBRANCH  11  12
ENDBRANCH   8  10
ENDBRANCH   3   4
ENDBRANCH   2   3
TORSDOF 12
ENDMDL
MODEL      149
REMARK 921   NORMALIZED FREE ENERGY PREDICTED BY IDOCK:   -3.99 KCAL/MOL
REMARK 922        TOTAL FREE ENERGY PREDICTED BY IDOCK:   -8.84 KCAL/MOL
REMARK 923 INTER-LIGAND FREE ENERGY PREDICTED BY IDOCK:   -7.37 KCAL/MOL
REMARK 924 INTRA-LIGAND FREE ENERGY PREDICTED BY IDOCK:   -1.47 KCAL/MOL
REMARK 927      BINDING AFFINITY PREDICTED BY RF-SCORE:    0.00 PKD
ROOT
HETATM    1  C   UNL     1      -9.463   5.402  67.812  1.00  0.00    -0.132 C  
HETATM    2  C   UNL     1     -10.793   6.066  68.141  1.00  0.00    -0.365 C  
ENDROOT
BRANCH   2   3
HETATM    3  C   UNL     1     -10.760   7.540  67.752  1.00  0.00    -0.233 C  
BRANCH   3   4
HETATM    4  C   UNL     1      -9.333   8.103  67.709  1.00  0.00    -0.149 C  
HETATM    5  C   UNL     1      -9.145   9.202  66.634  1.00  0.00    -0.148 C  
HETATM    6  O   UNL     1      -9.391   8.609  65.352  1.00  0.00    -0.423 OA 
HETATM    7  C   UNL     1      -7.694   9.705  66.655  1.00  0.00    -0.098 C  
HETATM    8  C   UNL     1     -10.155  10.356  66.861  1.00  0.00    -0.269 C  
HETATM    9  H   UNL     1      -9.275   9.282  64.692  1.00  0.00     0.000 HD 
BRANCH   8  10
HETATM   10  C   UNL     1      -9.980  11.566  65.988  1.00  0.00    -0.258 C  
HETATM   11  C   UNL     1     -10.789  12.639  66.013  1.00  0.00    -0.306 C  
BRANCH  11  12
HETATM   12  C   UNL     1     -10.657  13.875  65.162  1.00  0.00    -0.391 C  
HETATM   13  C   UNL     1     -11.919  14.086  64.308  1.00  0.00    -0.435 C  
HETATM   14  C   UNL     1     -11.881  15.544  63.890  1.00  0.00     0.215 C  
HETATM   15  O   UNL     1     -11.934  13.243  63.162  1.00  0.00    -0.778 OA 
HETATM   16  H   UNL     1     -12.714  13.373  62.635  1.00  0.00     0.000 HD 
HETATM   17  C   UNL     1     -11.207  16.187  65.061  1.00  0.00    -0.220 C  
HETATM   18  O   UNL     1     -11.282  17.389  65.285  1.00  0.00    -0.206 OA 
HETATM   19  C   UNL     1     -10.454  15.201  65.933  1.00  0.00    -0.350 C  
BRANCH  19  20
HETATM   20  C   UNL     1      -8.964  15.518  66.109  1.00  0.00    -0.329 C  
BRANCH  20  21
HETATM   21  C   UNL     1      -8.318  14.673  67.208  1.00  0.00    -0.234 C  
BRANCH  21  22
HETATM   22  C   UNL     1      -7.995  15.499  68.448  1.00  0.00    -0.127 C  
BRANCH  22  23
HETATM   23  C   UNL     1      -6.959  16.576  68.117  1.00  0.00    -0.149 C  
BRANCH  23  24
HETATM   24  C   UNL     1      -7.283  17.875  68.846  1.00  0.00    -0.258 C  
BRANCH  24  25
HETATM   25  C   UNL     1      -7.085  19.096  67.952  1.00  0.00    -0.258 C  
BRANCH  25  26
HETATM   26  C   UNL     1      -8.021  19.053  66.768  1.00  0.00    -0.259 C  
HETATM   27  O   UNL     1      -7.681  19.104  65.597  1.00  0.00    -0.460 OA 
BRANCH  26  28
HETATM   28  O   UNL     1      -9.308  18.947  67.198  1.00  0.00    -0.291 OA 
HETATM   29  C   UNL     1     -10.013  20.188  67.185  1.00  0.00    -0.455 C  
ENDBRANCH  26  28
ENDBRANCH  25  26
ENDBRANCH  24  25
ENDBRANCH  23  24
ENDBRANCH  22  23
ENDBRANCH  21  22
ENDBRANCH  20  21
ENDBRANCH  19  20
ENDBRANCH  11  12
ENDBRANCH   8  10
ENDBRANCH   3   4
ENDBRANCH   2   3
TORSDOF 12
ENDMDL
MODEL      150
REMARK 921   NORMALIZED FREE ENERGY PREDICTED BY IDOCK:   -3.98 KCAL/MOL
REMARK 922        TOTAL FREE ENERGY PREDICTED BY IDOCK:   -8.81 KCAL/MOL
REMARK 923 INTER-LIGAND FREE ENERGY PREDICTED BY IDOCK:   -6.94 KCAL/MOL
REMARK 924 INTRA-LIGAND FREE ENERGY PREDICTED BY IDOCK:   -1.87 KCAL/MOL
REMARK 927      BINDING AFFINITY PREDICTED BY RF-SCORE:    0.00 PKD
ROOT
HETATM    1  C   UNL     1     -12.875  13.795  70.748  1.00  0.00    -0.302 C  
HETATM    2  C   UNL     1     -11.807  14.878  70.719  1.00  0.00    -0.368 C  
ENDROOT
BRANCH   2   3
HETATM    3  C   UNL     1     -10.915  14.711  69.493  1.00  0.00    -0.269 C  
BRANCH   3   4
HETATM    4  C   UNL     1     -11.626  13.978  68.347  1.00  0.00    -0.366 C  
HETATM    5  C   UNL     1     -10.824  12.769  67.808  1.00  0.00    -0.225 C  
HETATM    6  O   UNL     1      -9.588  13.264  67.275  1.00  0.00    -0.221 OA 
HETATM    7  C   UNL     1     -11.600  12.099  66.665  1.00  0.00    -0.416 C  
HETATM    8  C   UNL     1     -10.517  11.772  68.954  1.00  0.00    -0.182 C  
HETATM    9  H   UNL     1      -9.095  12.523  66.944  1.00  0.00     0.000 HD 
BRANCH   8  10
HETATM   10  C   UNL     1      -9.883  10.472  68.546  1.00  0.00    -0.175 C  
HETATM   11  C   UNL     1     -10.359   9.261  68.881  1.00  0.00    -0.231 C  
BRANCH  11  12
HETATM   12  C   UNL     1      -9.762   7.931  68.498  1.00  0.00    -0.167 C  
HETATM   13  C   UNL     1     -10.285   7.475  67.125  1.00  0.00    -0.280 C  
HETATM   14  C   UNL     1      -9.295   6.431  66.646  1.00  0.00    -0.175 C  
HETATM   15  O   UNL     1     -11.591   6.916  67.211  1.00  0.00    -0.668 OA 
HETATM   16  H   UNL     1     -11.914   6.634  66.363  1.00  0.00     0.000 HD 
HETATM   17  C   UNL     1      -8.014   6.917  67.245  1.00  0.00    -0.114 C  
HETATM   18  O   UNL     1      -6.916   6.561  66.831  1.00  0.00    -0.064 OA 
HETATM   19  C   UNL     1      -8.220   7.896  68.384  1.00  0.00    -0.124 C  
BRANCH  19  20
HETATM   20  C   UNL     1      -7.576   7.474  69.709  1.00  0.00    -0.094 C  
BRANCH  20  21
HETATM   21  C   UNL     1      -8.605   6.951  70.713  1.00  0.00    -0.144 C  
BRANCH  21  22
HETATM   22  C   UNL     1      -8.443   5.457  70.971  1.00  0.00    -0.124 C  
BRANCH  22  23
HETATM   23  C   UNL     1      -9.813   4.794  71.144  1.00  0.00    -0.260 C  
BRANCH  23  24
HETATM   24  C   UNL     1     -10.931   5.797  70.883  1.00  0.00    -0.305 C  
BRANCH  24  25
HETATM   25  C   UNL     1     -11.738   6.094  72.144  1.00  0.00    -0.361 C  
BRANCH  25  26
HETATM   26  C   UNL     1     -12.241   7.518  72.137  1.00  0.00    -0.248 C  
HETATM   27  O   UNL     1     -11.584   8.500  72.443  1.00  0.00    -0.372 OA 
BRANCH  26  28
HETATM   28  O   UNL     1     -13.541   7.548  71.734  1.00  0.00    -0.353 OA 
HETATM   29  C   UNL     1     -14.088   8.866  71.688  1.00  0.00    -0.330 C  
ENDBRANCH  26  28
ENDBRANCH  25  26
ENDBRANCH  24  25
ENDBRANCH  23  24
ENDBRANCH  22  23
ENDBRANCH  21  22
ENDBRANCH  20  21
ENDBRANCH  19  20
ENDBRANCH  11  12
ENDBRANCH   8  10
ENDBRANCH   3   4
ENDBRANCH   2   3
TORSDOF 12
ENDMDL
MODEL      151
REMARK 921   NORMALIZED FREE ENERGY PREDICTED BY IDOCK:   -3.97 KCAL/MOL
REMARK 922        TOTAL FREE ENERGY PREDICTED BY IDOCK:   -8.80 KCAL/MOL
REMARK 923 INTER-LIGAND FREE ENERGY PREDICTED BY IDOCK:   -7.40 KCAL/MOL
REMARK 924 INTRA-LIGAND FREE ENERGY PREDICTED BY IDOCK:   -1.40 KCAL/MOL
REMARK 927      BINDING AFFINITY PREDICTED BY RF-SCORE:    0.00 PKD
ROOT
HETATM    1  C   UNL     1      -9.537  20.801  67.303  1.00  0.00    -0.494 C  
HETATM    2  C   UNL     1     -10.474  19.842  66.581  1.00  0.00    -0.580 C  
ENDROOT
BRANCH   2   3
HETATM    3  C   UNL     1     -10.235  18.412  67.052  1.00  0.00    -0.402 C  
BRANCH   3   4
HETATM    4  C   UNL     1     -10.520  17.378  65.955  1.00  0.00    -0.256 C  
HETATM    5  C   UNL     1      -9.848  16.009  66.219  1.00  0.00    -0.308 C  
HETATM    6  O   UNL     1      -8.428  16.212  66.232  1.00  0.00    -0.310 OA 
HETATM    7  C   UNL     1     -10.179  15.039  65.076  1.00  0.00    -0.349 C  
HETATM    8  C   UNL     1     -10.291  15.447  67.594  1.00  0.00    -0.262 C  
HETATM    9  H   UNL     1      -8.015  15.372  66.394  1.00  0.00     0.000 HD 
BRANCH   8  10
HETATM   10  C   UNL     1      -9.842  14.049  67.911  1.00  0.00    -0.233 C  
HETATM   11  C   UNL     1     -10.603  12.955  67.745  1.00  0.00    -0.231 C  
BRANCH  11  12
HETATM   12  C   UNL     1     -10.201  11.534  68.047  1.00  0.00    -0.205 C  
HETATM   13  C   UNL     1     -11.388  10.577  67.845  1.00  0.00    -0.222 C  
HETATM   14  C   UNL     1     -10.772   9.198  67.702  1.00  0.00    -0.257 C  
HETATM   15  O   UNL     1     -12.288  10.604  68.947  1.00  0.00    -0.800 OA 
HETATM   16  H   UNL     1     -13.022  10.013  68.822  1.00  0.00     0.000 HD 
HETATM   17  C   UNL     1      -9.465   9.508  67.044  1.00  0.00    -0.155 C  
HETATM   18  O   UNL     1      -8.812   8.660  66.446  1.00  0.00    -0.125 OA 
HETATM   19  C   UNL     1      -9.057  10.962  67.177  1.00  0.00    -0.152 C  
BRANCH  19  20
HETATM   20  C   UNL     1      -7.693  11.181  67.840  1.00  0.00    -0.105 C  
BRANCH  20  21
HETATM   21  C   UNL     1      -6.881   9.888  67.938  1.00  0.00    -0.076 C  
BRANCH  21  22
HETATM   22  C   UNL     1      -6.641   9.473  69.386  1.00  0.00    -0.044 C  
BRANCH  22  23
HETATM   23  C   UNL     1      -7.760  10.001  70.286  1.00  0.00    -0.093 C  
BRANCH  23  24
HETATM   24  C   UNL     1      -8.602   8.851  70.827  1.00  0.00    -0.236 C  
BRANCH  24  25
HETATM   25  C   UNL     1      -9.917   9.339  71.429  1.00  0.00    -0.323 C  
BRANCH  25  26
HETATM   26  C   UNL     1     -10.944   8.232  71.447  1.00  0.00    -0.249 C  
HETATM   27  O   UNL     1     -10.712   7.059  71.693  1.00  0.00    -0.219 OA 
BRANCH  26  28
HETATM   28  O   UNL     1     -12.173   8.735  71.149  1.00  0.00    -0.291 OA 
HETATM   29  C   UNL     1     -12.977   8.984  72.302  1.00  0.00    -0.424 C  
ENDBRANCH  26  28
ENDBRANCH  25  26
ENDBRANCH  24  25
ENDBRANCH  23  24
ENDBRANCH  22  23
ENDBRANCH  21  22
ENDBRANCH  20  21
ENDBRANCH  19  20
ENDBRANCH  11  12
ENDBRANCH   8  10
ENDBRANCH   3   4
ENDBRANCH   2   3
TORSDOF 12
ENDMDL
MODEL      152
REMARK 921   NORMALIZED FREE ENERGY PREDICTED BY IDOCK:   -3.97 KCAL/MOL
REMARK 922        TOTAL FREE ENERGY PREDICTED BY IDOCK:   -8.80 KCAL/MOL
REMARK 923 INTER-LIGAND FREE ENERGY PREDICTED BY IDOCK:   -6.40 KCAL/MOL
REMARK 924 INTRA-LIGAND FREE ENERGY PREDICTED BY IDOCK:   -2.40 KCAL/MOL
REMARK 927      BINDING AFFINITY PREDICTED BY RF-SCORE:    0.00 PKD
ROOT
HETATM    1  C   UNL     1      -8.197   4.623  65.221  1.00  0.00    -0.117 C  
HETATM    2  C   UNL     1      -7.719   4.941  66.631  1.00  0.00    -0.092 C  
ENDROOT
BRANCH   2   3
HETATM    3  C   UNL     1      -7.475   6.439  66.782  1.00  0.00    -0.087 C  
BRANCH   3   4
HETATM    4  C   UNL     1      -7.646   7.197  65.459  1.00  0.00    -0.098 C  
HETATM    5  C   UNL     1      -8.564   8.438  65.583  1.00  0.00    -0.174 C  
HETATM    6  O   UNL     1      -9.868   7.982  65.967  1.00  0.00    -0.459 OA 
HETATM    7  C   UNL     1      -8.685   9.132  64.219  1.00  0.00    -0.180 C  
HETATM    8  C   UNL     1      -8.023   9.401  66.671  1.00  0.00    -0.108 C  
HETATM    9  H   UNL     1     -10.432   8.743  66.044  1.00  0.00     0.000 HD 
BRANCH   8  10
HETATM   10  C   UNL     1      -8.725  10.724  66.788  1.00  0.00    -0.145 C  
HETATM   11  C   UNL     1      -8.582  11.566  67.825  1.00  0.00    -0.138 C  
BRANCH  11  12
HETATM   12  C   UNL     1      -9.261  12.901  67.990  1.00  0.00    -0.212 C  
HETATM   13  C   UNL     1      -8.610  13.959  67.082  1.00  0.00    -0.203 C  
HETATM   14  C   UNL     1      -9.633  15.073  66.968  1.00  0.00    -0.233 C  
HETATM   15  O   UNL     1      -7.395  14.457  67.630  1.00  0.00    -0.151 OA 
HETATM   16  H   UNL     1      -6.993  15.110  67.069  1.00  0.00     0.000 HD 
HETATM   17  C   UNL     1     -10.924  14.322  67.057  1.00  0.00    -0.303 C  
HETATM   18  O   UNL     1     -11.988  14.792  66.670  1.00  0.00    -0.314 OA 
HETATM   19  C   UNL     1     -10.769  12.934  67.647  1.00  0.00    -0.237 C  
BRANCH  19  20
HETATM   20  C   UNL     1     -11.626  12.672  68.890  1.00  0.00    -0.363 C  
BRANCH  20  21
HETATM   21  C   UNL     1     -12.013  11.199  69.028  1.00  0.00    -0.389 C  
BRANCH  21  22
HETATM   22  C   UNL     1     -11.925  10.717  70.472  1.00  0.00    -0.456 C  
BRANCH  22  23
HETATM   23  C   UNL     1     -10.759   9.739  70.638  1.00  0.00    -0.394 C  
BRANCH  23  24
HETATM   24  C   UNL     1     -10.548   8.934  69.361  1.00  0.00    -0.226 C  
BRANCH  24  25
HETATM   25  C   UNL     1      -9.785   7.638  69.622  1.00  0.00    -0.171 C  
BRANCH  25  26
HETATM   26  C   UNL     1     -10.685   6.604  70.257  1.00  0.00    -0.246 C  
HETATM   27  O   UNL     1     -11.658   6.094  69.725  1.00  0.00    -0.405 OA 
BRANCH  26  28
HETATM   28  O   UNL     1     -10.249   6.320  71.515  1.00  0.00    -0.195 OA 
HETATM   29  C   UNL     1     -11.305   5.990  72.417  1.00  0.00    -0.301 C  
ENDBRANCH  26  28
ENDBRANCH  25  26
ENDBRANCH  24  25
ENDBRANCH  23  24
ENDBRANCH  22  23
ENDBRANCH  21  22
ENDBRANCH  20  21
ENDBRANCH  19  20
ENDBRANCH  11  12
ENDBRANCH   8  10
ENDBRANCH   3   4
ENDBRANCH   2   3
TORSDOF 12
ENDMDL
MODEL      153
REMARK 921   NORMALIZED FREE ENERGY PREDICTED BY IDOCK:   -3.96 KCAL/MOL
REMARK 922        TOTAL FREE ENERGY PREDICTED BY IDOCK:   -8.78 KCAL/MOL
REMARK 923 INTER-LIGAND FREE ENERGY PREDICTED BY IDOCK:   -7.48 KCAL/MOL
REMARK 924 INTRA-LIGAND FREE ENERGY PREDICTED BY IDOCK:   -1.29 KCAL/MOL
REMARK 927      BINDING AFFINITY PREDICTED BY RF-SCORE:    0.00 PKD
ROOT
HETATM    1  C   UNL     1      -6.312   3.673  69.129  1.00  0.00    -0.029 C  
HETATM    2  C   UNL     1      -7.715   4.168  69.452  1.00  0.00    -0.053 C  
ENDROOT
BRANCH   2   3
HETATM    3  C   UNL     1      -7.866   5.631  69.050  1.00  0.00    -0.096 C  
BRANCH   3   4
HETATM    4  C   UNL     1      -8.844   5.821  67.883  1.00  0.00    -0.108 C  
HETATM    5  C   UNL     1     -10.140   6.563  68.290  1.00  0.00    -0.159 C  
HETATM    6  O   UNL     1     -10.818   5.760  69.266  1.00  0.00    -0.311 OA 
HETATM    7  C   UNL     1     -11.061   6.706  67.070  1.00  0.00    -0.395 C  
HETATM    8  C   UNL     1      -9.800   7.940  68.915  1.00  0.00    -0.174 C  
HETATM    9  H   UNL     1     -11.614   6.215  69.516  1.00  0.00     0.000 HD 
BRANCH   8  10
HETATM   10  C   UNL     1     -10.968   8.838  69.209  1.00  0.00    -0.006 C  
HETATM   11  C   UNL     1     -10.858  10.131  69.557  1.00  0.00    -0.289 C  
BRANCH  11  12
HETATM   12  C   UNL     1     -11.995  11.072  69.861  1.00  0.00    -0.427 C  
HETATM   13  C   UNL     1     -12.477  10.894  71.311  1.00  0.00    -0.388 C  
HETATM   14  C   UNL     1     -13.242  12.162  71.638  1.00  0.00    -0.358 C  
HETATM   15  O   UNL     1     -13.320   9.757  71.456  1.00  0.00    -0.378 OA 
HETATM   16  H   UNL     1     -13.618   9.646  72.352  1.00  0.00     0.000 HD 
HETATM   17  C   UNL     1     -12.515  13.184  70.823  1.00  0.00    -0.308 C  
HETATM   18  O   UNL     1     -12.590  14.386  71.054  1.00  0.00    -0.306 OA 
HETATM   19  C   UNL     1     -11.675  12.579  69.715  1.00  0.00    -0.355 C  
BRANCH  19  20
HETATM   20  C   UNL     1     -12.017  13.085  68.309  1.00  0.00    -0.306 C  
BRANCH  20  21
HETATM   21  C   UNL     1     -11.198  14.316  67.921  1.00  0.00    -0.305 C  
BRANCH  21  22
HETATM   22  C   UNL     1      -9.837  14.338  68.608  1.00  0.00    -0.228 C  
BRANCH  22  23
HETATM   23  C   UNL     1      -9.640  15.656  69.360  1.00  0.00    -0.287 C  
BRANCH  23  24
HETATM   24  C   UNL     1      -8.628  16.540  68.641  1.00  0.00    -0.243 C  
BRANCH  24  25
HETATM   25  C   UNL     1      -9.292  17.739  67.969  1.00  0.00    -0.276 C  
BRANCH  25  26
HETATM   26  C   UNL     1      -9.287  17.584  66.467  1.00  0.00    -0.265 C  
HETATM   27  O   UNL     1      -9.136  16.531  65.867  1.00  0.00    -0.460 OA 
BRANCH  26  28
HETATM   28  O   UNL     1      -9.479  18.794  65.875  1.00  0.00    -0.470 OA 
HETATM   29  C   UNL     1     -10.420  19.618  66.565  1.00  0.00    -0.503 C  
ENDBRANCH  26  28
ENDBRANCH  25  26
ENDBRANCH  24  25
ENDBRANCH  23  24
ENDBRANCH  22  23
ENDBRANCH  21  22
ENDBRANCH  20  21
ENDBRANCH  19  20
ENDBRANCH  11  12
ENDBRANCH   8  10
ENDBRANCH   3   4
ENDBRANCH   2   3
TORSDOF 12
ENDMDL
MODEL      154
REMARK 921   NORMALIZED FREE ENERGY PREDICTED BY IDOCK:   -3.95 KCAL/MOL
REMARK 922        TOTAL FREE ENERGY PREDICTED BY IDOCK:   -8.77 KCAL/MOL
REMARK 923 INTER-LIGAND FREE ENERGY PREDICTED BY IDOCK:   -7.41 KCAL/MOL
REMARK 924 INTRA-LIGAND FREE ENERGY PREDICTED BY IDOCK:   -1.36 KCAL/MOL
REMARK 927      BINDING AFFINITY PREDICTED BY RF-SCORE:    0.00 PKD
ROOT
HETATM    1  C   UNL     1      -9.611   4.797  73.285  1.00  0.00    -0.145 C  
HETATM    2  C   UNL     1     -10.003   4.865  71.815  1.00  0.00    -0.252 C  
ENDROOT
BRANCH   2   3
HETATM    3  C   UNL     1      -9.286   6.023  71.129  1.00  0.00    -0.160 C  
BRANCH   3   4
HETATM    4  C   UNL     1     -10.005   7.363  71.336  1.00  0.00    -0.195 C  
HETATM    5  C   UNL     1      -9.511   8.472  70.376  1.00  0.00    -0.165 C  
HETATM    6  O   UNL     1      -8.122   8.705  70.652  1.00  0.00    -0.097 OA 
HETATM    7  C   UNL     1     -10.275   9.775  70.652  1.00  0.00    -0.290 C  
HETATM    8  C   UNL     1      -9.665   8.019  68.902  1.00  0.00    -0.159 C  
HETATM    9  H   UNL     1      -7.819   9.386  70.063  1.00  0.00     0.000 HD 
BRANCH   8  10
HETATM   10  C   UNL     1      -9.375   9.059  67.858  1.00  0.00    -0.155 C  
HETATM   11  C   UNL     1     -10.272   9.499  66.959  1.00  0.00    -0.321 C  
BRANCH  11  12
HETATM   12  C   UNL     1     -10.031  10.538  65.894  1.00  0.00    -0.313 C  
HETATM   13  C   UNL     1      -9.872   9.877  64.515  1.00  0.00    -0.058 C  
HETATM   14  C   UNL     1     -10.119  10.985  63.509  1.00  0.00    -0.428 C  
HETATM   15  O   UNL     1      -8.573   9.326  64.334  1.00  0.00    -0.182 OA 
HETATM   16  H   UNL     1      -8.475   8.917  63.482  1.00  0.00     0.000 HD 
HETATM   17  C   UNL     1     -11.114  11.842  64.226  1.00  0.00    -0.356 C  
HETATM   18  O   UNL     1     -11.830  12.649  63.644  1.00  0.00    -0.446 OA 
HETATM   19  C   UNL     1     -11.151  11.591  65.721  1.00  0.00    -0.272 C  
BRANCH  19  20
HETATM   20  C   UNL     1     -10.884  12.831  66.581  1.00  0.00    -0.288 C  
BRANCH  20  21
HETATM   21  C   UNL     1      -9.389  13.101  66.761  1.00  0.00    -0.244 C  
BRANCH  21  22
HETATM   22  C   UNL     1      -9.123  14.156  67.828  1.00  0.00    -0.190 C  
BRANCH  22  23
HETATM   23  C   UNL     1     -10.442  14.703  68.379  1.00  0.00    -0.243 C  
BRANCH  23  24
HETATM   24  C   UNL     1     -10.214  15.427  69.701  1.00  0.00    -0.283 C  
BRANCH  24  25
HETATM   25  C   UNL     1     -11.501  16.042  70.245  1.00  0.00    -0.369 C  
BRANCH  25  26
HETATM   26  C   UNL     1     -11.954  15.322  71.493  1.00  0.00    -0.366 C  
HETATM   27  O   UNL     1     -12.368  14.175  71.535  1.00  0.00    -0.341 OA 
BRANCH  26  28
HETATM   28  O   UNL     1     -11.830  16.143  72.572  1.00  0.00    -0.494 OA 
HETATM   29  C   UNL     1     -12.790  15.880  73.595  1.00  0.00    -0.599 C  
ENDBRANCH  26  28
ENDBRANCH  25  26
ENDBRANCH  24  25
ENDBRANCH  23  24
ENDBRANCH  22  23
ENDBRANCH  21  22
ENDBRANCH  20  21
ENDBRANCH  19  20
ENDBRANCH  11  12
ENDBRANCH   8  10
ENDBRANCH   3   4
ENDBRANCH   2   3
TORSDOF 12
ENDMDL
MODEL      155
REMARK 921   NORMALIZED FREE ENERGY PREDICTED BY IDOCK:   -3.95 KCAL/MOL
REMARK 922        TOTAL FREE ENERGY PREDICTED BY IDOCK:   -8.75 KCAL/MOL
REMARK 923 INTER-LIGAND FREE ENERGY PREDICTED BY IDOCK:   -7.48 KCAL/MOL
REMARK 924 INTRA-LIGAND FREE ENERGY PREDICTED BY IDOCK:   -1.27 KCAL/MOL
REMARK 927      BINDING AFFINITY PREDICTED BY RF-SCORE:    0.00 PKD
ROOT
HETATM    1  C   UNL     1     -11.395   6.257  69.806  1.00  0.00    -0.506 C  
HETATM    2  C   UNL     1     -10.423   5.644  68.808  1.00  0.00    -0.289 C  
ENDROOT
BRANCH   2   3
HETATM    3  C   UNL     1      -9.107   6.416  68.808  1.00  0.00    -0.125 C  
BRANCH   3   4
HETATM    4  C   UNL     1      -8.496   6.534  67.405  1.00  0.00    -0.119 C  
HETATM    5  C   UNL     1      -9.039   7.742  66.605  1.00  0.00    -0.161 C  
HETATM    6  O   UNL     1     -10.449   7.552  66.423  1.00  0.00    -0.488 OA 
HETATM    7  C   UNL     1      -8.383   7.783  65.217  1.00  0.00    -0.128 C  
HETATM    8  C   UNL     1      -8.803   9.058  67.389  1.00  0.00    -0.125 C  
HETATM    9  H   UNL     1     -10.783   8.293  65.932  1.00  0.00     0.000 HD 
BRANCH   8  10
HETATM   10  C   UNL     1      -9.135  10.329  66.660  1.00  0.00    -0.163 C  
HETATM   11  C   UNL     1     -10.274  11.022  66.830  1.00  0.00    -0.272 C  
BRANCH  11  12
HETATM   12  C   UNL     1     -10.654  12.299  66.126  1.00  0.00    -0.281 C  
HETATM   13  C   UNL     1     -10.910  12.042  64.631  1.00  0.00    -0.309 C  
HETATM   14  C   UNL     1     -11.722  13.231  64.153  1.00  0.00    -0.470 C  
HETATM   15  O   UNL     1      -9.697  11.943  63.892  1.00  0.00    -0.450 OA 
HETATM   16  H   UNL     1      -9.855  11.783  62.969  1.00  0.00     0.000 HD 
HETATM   17  C   UNL     1     -12.510  13.582  65.375  1.00  0.00    -0.497 C  
HETATM   18  O   UNL     1     -13.531  14.259  65.328  1.00  0.00    -0.564 OA 
HETATM   19  C   UNL     1     -11.931  12.998  66.648  1.00  0.00    -0.453 C  
BRANCH  19  20
HETATM   20  C   UNL     1     -11.594  14.035  67.726  1.00  0.00    -0.378 C  
BRANCH  20  21
HETATM   21  C   UNL     1     -10.827  15.231  67.160  1.00  0.00    -0.322 C  
BRANCH  21  22
HETATM   22  C   UNL     1     -10.219  16.094  68.261  1.00  0.00    -0.248 C  
BRANCH  22  23
HETATM   23  C   UNL     1      -9.107  15.330  68.985  1.00  0.00    -0.225 C  
BRANCH  23  24
HETATM   24  C   UNL     1      -7.737  15.791  68.502  1.00  0.00    -0.137 C  
BRANCH  24  25
HETATM   25  C   UNL     1      -7.166  14.864  67.433  1.00  0.00    -0.213 C  
BRANCH  25  26
HETATM   26  C   UNL     1      -6.294  13.799  68.055  1.00  0.00    -0.141 C  
HETATM   27  O   UNL     1      -5.800  13.855  69.169  1.00  0.00    -0.080 OA 
BRANCH  26  28
HETATM   28  O   UNL     1      -6.139  12.762  67.187  1.00  0.00    -0.289 OA 
HETATM   29  C   UNL     1      -5.990  11.499  67.838  1.00  0.00    -0.045 C  
ENDBRANCH  26  28
ENDBRANCH  25  26
ENDBRANCH  24  25
ENDBRANCH  23  24
ENDBRANCH  22  23
ENDBRANCH  21  22
ENDBRANCH  20  21
ENDBRANCH  19  20
ENDBRANCH  11  12
ENDBRANCH   8  10
ENDBRANCH   3   4
ENDBRANCH   2   3
TORSDOF 12
ENDMDL
MODEL      156
REMARK 921   NORMALIZED FREE ENERGY PREDICTED BY IDOCK:   -3.93 KCAL/MOL
REMARK 922        TOTAL FREE ENERGY PREDICTED BY IDOCK:   -8.73 KCAL/MOL
REMARK 923 INTER-LIGAND FREE ENERGY PREDICTED BY IDOCK:   -7.12 KCAL/MOL
REMARK 924 INTRA-LIGAND FREE ENERGY PREDICTED BY IDOCK:   -1.61 KCAL/MOL
REMARK 927      BINDING AFFINITY PREDICTED BY RF-SCORE:    0.00 PKD
ROOT
HETATM    1  C   UNL     1      -9.553   7.866  72.959  1.00  0.00    -0.341 C  
HETATM    2  C   UNL     1     -11.067   7.716  73.006  1.00  0.00    -0.437 C  
ENDROOT
BRANCH   2   3
HETATM    3  C   UNL     1     -11.564   6.968  71.773  1.00  0.00    -0.315 C  
BRANCH   3   4
HETATM    4  C   UNL     1     -10.415   6.482  70.879  1.00  0.00    -0.263 C  
HETATM    5  C   UNL     1     -10.495   7.032  69.434  1.00  0.00    -0.214 C  
HETATM    6  O   UNL     1     -11.708   6.544  68.845  1.00  0.00    -0.561 OA 
HETATM    7  C   UNL     1      -9.316   6.495  68.609  1.00  0.00    -0.125 C  
HETATM    8  C   UNL     1     -10.526   8.581  69.448  1.00  0.00    -0.223 C  
HETATM    9  H   UNL     1     -11.757   6.881  67.958  1.00  0.00     0.000 HD 
BRANCH   8  10
HETATM   10  C   UNL     1     -10.441   9.255  68.108  1.00  0.00    -0.263 C  
HETATM   11  C   UNL     1      -9.432  10.057  67.728  1.00  0.00    -0.157 C  
BRANCH  11  12
HETATM   12  C   UNL     1      -9.299  10.754  66.399  1.00  0.00    -0.198 C  
HETATM   13  C   UNL     1      -8.818   9.775  65.315  1.00  0.00    -0.175 C  
HETATM   14  C   UNL     1      -9.178  10.429  63.995  1.00  0.00    -0.300 C  
HETATM   15  O   UNL     1      -7.415   9.547  65.388  1.00  0.00    -0.094 OA 
HETATM   16  H   UNL     1      -7.117   8.942  64.718  1.00  0.00     0.000 HD 
HETATM   17  C   UNL     1     -10.425  11.177  64.348  1.00  0.00    -0.353 C  
HETATM   18  O   UNL     1     -11.224  11.560  63.501  1.00  0.00    -0.413 OA 
HETATM   19  C   UNL     1     -10.597  11.384  65.839  1.00  0.00    -0.317 C  
BRANCH  19  20
HETATM   20  C   UNL     1     -10.730  12.850  66.266  1.00  0.00    -0.292 C  
BRANCH  20  21
HETATM   21  C   UNL     1     -11.558  13.009  67.543  1.00  0.00    -0.405 C  
BRANCH  21  22
HETATM   22  C   UNL     1     -11.515  14.436  68.078  1.00  0.00    -0.336 C  
BRANCH  22  23
HETATM   23  C   UNL     1     -11.328  15.431  66.930  1.00  0.00    -0.147 C  
BRANCH  23  24
HETATM   24  C   UNL     1     -10.232  16.436  67.263  1.00  0.00    -0.278 C  
BRANCH  24  25
HETATM   25  C   UNL     1      -8.838  15.860  67.030  1.00  0.00    -0.240 C  
BRANCH  25  26
HETATM   26  C   UNL     1      -7.999  15.961  68.282  1.00  0.00    -0.139 C  
HETATM   27  O   UNL     1      -8.344  15.593  69.394  1.00  0.00    -0.243 OA 
BRANCH  26  28
HETATM   28  O   UNL     1      -6.795  16.524  67.989  1.00  0.00    -0.132 OA 
HETATM   29  C   UNL     1      -5.922  16.608  69.115  1.00  0.00    -0.162 C  
ENDBRANCH  26  28
ENDBRANCH  25  26
ENDBRANCH  24  25
ENDBRANCH  23  24
ENDBRANCH  22  23
ENDBRANCH  21  22
ENDBRANCH  20  21
ENDBRANCH  19  20
ENDBRANCH  11  12
ENDBRANCH   8  10
ENDBRANCH   3   4
ENDBRANCH   2   3
TORSDOF 12
ENDMDL
MODEL      157
REMARK 921   NORMALIZED FREE ENERGY PREDICTED BY IDOCK:   -3.93 KCAL/MOL
REMARK 922        TOTAL FREE ENERGY PREDICTED BY IDOCK:   -8.72 KCAL/MOL
REMARK 923 INTER-LIGAND FREE ENERGY PREDICTED BY IDOCK:   -6.62 KCAL/MOL
REMARK 924 INTRA-LIGAND FREE ENERGY PREDICTED BY IDOCK:   -2.10 KCAL/MOL
REMARK 927      BINDING AFFINITY PREDICTED BY RF-SCORE:    0.00 PKD
ROOT
HETATM    1  C   UNL     1      -6.800   5.696  67.500  1.00  0.00    -0.060 C  
HETATM    2  C   UNL     1      -7.765   6.024  66.369  1.00  0.00    -0.102 C  
ENDROOT
BRANCH   2   3
HETATM    3  C   UNL     1      -8.303   7.443  66.526  1.00  0.00    -0.124 C  
BRANCH   3   4
HETATM    4  C   UNL     1      -8.121   8.284  65.256  1.00  0.00    -0.142 C  
HETATM    5  C   UNL     1      -8.857   9.644  65.316  1.00  0.00    -0.171 C  
HETATM    6  O   UNL     1     -10.262   9.379  65.435  1.00  0.00    -0.306 OA 
HETATM    7  C   UNL     1      -8.628  10.416  64.009  1.00  0.00    -0.179 C  
HETATM    8  C   UNL     1      -8.390  10.456  66.551  1.00  0.00    -0.130 C  
HETATM    9  H   UNL     1     -10.714  10.213  65.472  1.00  0.00     0.000 HD 
BRANCH   8  10
HETATM   10  C   UNL     1      -8.903  11.865  66.647  1.00  0.00    -0.191 C  
HETATM   11  C   UNL     1      -8.305  12.840  67.353  1.00  0.00    -0.189 C  
BRANCH  11  12
HETATM   12  C   UNL     1      -8.778  14.265  67.481  1.00  0.00    -0.204 C  
HETATM   13  C   UNL     1      -7.890  15.046  68.465  1.00  0.00    -0.137 C  
HETATM   14  C   UNL     1      -8.138  16.510  68.153  1.00  0.00    -0.172 C  
HETATM   15  O   UNL     1      -8.223  14.767  69.820  1.00  0.00    -0.417 OA 
HETATM   16  H   UNL     1      -7.675  15.249  70.428  1.00  0.00     0.000 HD 
HETATM   17  C   UNL     1      -8.408  16.474  66.682  1.00  0.00    -0.262 C  
HETATM   18  O   UNL     1      -8.320  17.469  65.972  1.00  0.00    -0.495 OA 
HETATM   19  C   UNL     1      -8.772  15.093  66.174  1.00  0.00     0.014 C  
BRANCH  19  20
HETATM   20  C   UNL     1     -10.128  15.015  65.463  1.00  0.00    -0.400 C  
BRANCH  20  21
HETATM   21  C   UNL     1     -11.300  15.051  66.445  1.00  0.00    -0.275 C  
BRANCH  21  22
HETATM   22  C   UNL     1     -12.233  13.858  66.266  1.00  0.00    -0.498 C  
BRANCH  22  23
HETATM   23  C   UNL     1     -12.024  12.845  67.394  1.00  0.00    -0.360 C  
BRANCH  23  24
HETATM   24  C   UNL     1     -12.006  13.544  68.748  1.00  0.00    -0.374 C  
BRANCH  24  25
HETATM   25  C   UNL     1     -11.348  12.686  69.826  1.00  0.00    -0.108 C  
BRANCH  25  26
HETATM   26  C   UNL     1     -12.388  11.942  70.629  1.00  0.00    -0.313 C  
HETATM   27  O   UNL     1     -13.092  12.432  71.498  1.00  0.00    -0.378 OA 
BRANCH  26  28
HETATM   28  O   UNL     1     -12.429  10.638  70.240  1.00  0.00    -0.318 OA 
HETATM   29  C   UNL     1     -11.213   9.935  70.491  1.00  0.00    -0.330 C  
ENDBRANCH  26  28
ENDBRANCH  25  26
ENDBRANCH  24  25
ENDBRANCH  23  24
ENDBRANCH  22  23
ENDBRANCH  21  22
ENDBRANCH  20  21
ENDBRANCH  19  20
ENDBRANCH  11  12
ENDBRANCH   8  10
ENDBRANCH   3   4
ENDBRANCH   2   3
TORSDOF 12
ENDMDL
MODEL      158
REMARK 921   NORMALIZED FREE ENERGY PREDICTED BY IDOCK:   -3.91 KCAL/MOL
REMARK 922        TOTAL FREE ENERGY PREDICTED BY IDOCK:   -8.70 KCAL/MOL
REMARK 923 INTER-LIGAND FREE ENERGY PREDICTED BY IDOCK:   -6.32 KCAL/MOL
REMARK 924 INTRA-LIGAND FREE ENERGY PREDICTED BY IDOCK:   -2.38 KCAL/MOL
REMARK 927      BINDING AFFINITY PREDICTED BY RF-SCORE:    0.00 PKD
ROOT
HETATM    1  C   UNL     1     -11.101  15.144  65.299  1.00  0.00    -0.389 C  
HETATM    2  C   UNL     1      -9.758  15.144  66.016  1.00  0.00    -0.361 C  
ENDROOT
BRANCH   2   3
HETATM    3  C   UNL     1      -9.557  13.831  66.765  1.00  0.00    -0.283 C  
BRANCH   3   4
HETATM    4  C   UNL     1     -10.138  12.629  66.008  1.00  0.00    -0.274 C  
HETATM    5  C   UNL     1      -9.757  11.269  66.641  1.00  0.00    -0.196 C  
HETATM    6  O   UNL     1      -8.329  11.141  66.580  1.00  0.00    -0.149 OA 
HETATM    7  C   UNL     1     -10.372  10.125  65.822  1.00  0.00    -0.216 C  
HETATM    8  C   UNL     1     -10.207  11.219  68.123  1.00  0.00    -0.196 C  
HETATM    9  H   UNL     1      -8.095  10.307  66.969  1.00  0.00     0.000 HD 
BRANCH   8  10
HETATM   10  C   UNL     1     -10.045   9.897  68.818  1.00  0.00    -0.186 C  
HETATM   11  C   UNL     1     -10.538   9.618  70.036  1.00  0.00    -0.300 C  
BRANCH  11  12
HETATM   12  C   UNL     1     -10.404   8.311  70.775  1.00  0.00    -0.221 C  
HETATM   13  C   UNL     1     -10.101   8.555  72.263  1.00  0.00    -0.316 C  
HETATM   14  C   UNL     1     -10.461   7.259  72.963  1.00  0.00    -0.355 C  
HETATM   15  O   UNL     1      -8.731   8.872  72.483  1.00  0.00    -0.391 OA 
HETATM   16  H   UNL     1      -8.543   9.023  73.402  1.00  0.00     0.000 HD 
HETATM   17  C   UNL     1     -11.592   6.755  72.124  1.00  0.00    -0.288 C  
HETATM   18  O   UNL     1     -12.391   5.918  72.530  1.00  0.00    -0.158 OA 
HETATM   19  C   UNL     1     -11.653   7.398  70.753  1.00  0.00    -0.317 C  
BRANCH  19  20
HETATM   20  C   UNL     1     -11.595   6.409  69.584  1.00  0.00    -0.351 C  
BRANCH  20  21
HETATM   21  C   UNL     1     -10.446   5.410  69.726  1.00  0.00    -0.378 C  
BRANCH  21  22
HETATM   22  C   UNL     1      -9.868   5.007  68.374  1.00  0.00    -0.209 C  
BRANCH  22  23
HETATM   23  C   UNL     1     -10.164   6.082  67.325  1.00  0.00    -0.239 C  
BRANCH  23  24
HETATM   24  C   UNL     1      -8.966   6.277  66.403  1.00  0.00    -0.159 C  
BRANCH  24  25
HETATM   25  C   UNL     1      -8.158   7.519  66.770  1.00  0.00    -0.123 C  
BRANCH  25  26
HETATM   26  C   UNL     1      -6.942   7.650  65.884  1.00  0.00    -0.061 C  
HETATM   27  O   UNL     1      -6.103   6.782  65.705  1.00  0.00    -0.033 OA 
BRANCH  26  28
HETATM   28  O   UNL     1      -6.919   8.884  65.309  1.00  0.00    -0.075 OA 
HETATM   29  C   UNL     1      -7.240   8.866  63.919  1.00  0.00    -0.096 C  
ENDBRANCH  26  28
ENDBRANCH  25  26
ENDBRANCH  24  25
ENDBRANCH  23  24
ENDBRANCH  22  23
ENDBRANCH  21  22
ENDBRANCH  20  21
ENDBRANCH  19  20
ENDBRANCH  11  12
ENDBRANCH   8  10
ENDBRANCH   3   4
ENDBRANCH   2   3
TORSDOF 12
ENDMDL
MODEL      159
REMARK 921   NORMALIZED FREE ENERGY PREDICTED BY IDOCK:   -3.90 KCAL/MOL
REMARK 922        TOTAL FREE ENERGY PREDICTED BY IDOCK:   -8.68 KCAL/MOL
REMARK 923 INTER-LIGAND FREE ENERGY PREDICTED BY IDOCK:   -7.81 KCAL/MOL
REMARK 924 INTRA-LIGAND FREE ENERGY PREDICTED BY IDOCK:   -0.87 KCAL/MOL
REMARK 927      BINDING AFFINITY PREDICTED BY RF-SCORE:    0.00 PKD
ROOT
HETATM    1  C   UNL     1      -6.761   5.775  64.139  1.00  0.00    -0.045 C  
HETATM    2  C   UNL     1      -6.906   7.058  64.944  1.00  0.00    -0.047 C  
ENDROOT
BRANCH   2   3
HETATM    3  C   UNL     1      -6.325   6.875  66.342  1.00  0.00    -0.050 C  
BRANCH   3   4
HETATM    4  C   UNL     1      -6.237   8.195  67.120  1.00  0.00    -0.055 C  
HETATM    5  C   UNL     1      -7.607   8.896  67.283  1.00  0.00    -0.089 C  
HETATM    6  O   UNL     1      -8.093   9.223  65.973  1.00  0.00    -0.108 OA 
HETATM    7  C   UNL     1      -7.429  10.206  68.064  1.00  0.00    -0.087 C  
HETATM    8  C   UNL     1      -8.619   7.949  67.977  1.00  0.00    -0.126 C  
HETATM    9  H   UNL     1      -8.934   9.653  66.073  1.00  0.00     0.000 HD 
BRANCH   8  10
HETATM   10  C   UNL     1      -9.944   8.554  68.346  1.00  0.00    -0.208 C  
HETATM   11  C   UNL     1     -10.319   8.840  69.603  1.00  0.00    -0.213 C  
BRANCH  11  12
HETATM   12  C   UNL     1     -11.633   9.446  70.025  1.00  0.00    -0.046 C  
HETATM   13  C   UNL     1     -12.195   8.722  71.260  1.00  0.00    -0.287 C  
HETATM   14  C   UNL     1     -13.208   9.679  71.860  1.00  0.00    -0.538 C  
HETATM   15  O   UNL     1     -12.822   7.491  70.917  1.00  0.00    -0.559 OA 
HETATM   16  H   UNL     1     -13.169   7.044  71.680  1.00  0.00     0.000 HD 
HETATM   17  C   UNL     1     -12.617  11.011  71.521  1.00  0.00    -0.356 C  
HETATM   18  O   UNL     1     -12.933  12.040  72.108  1.00  0.00    -0.358 OA 
HETATM   19  C   UNL     1     -11.588  10.944  70.410  1.00  0.00    -0.418 C  
BRANCH  19  20
HETATM   20  C   UNL     1     -11.897  11.836  69.203  1.00  0.00    -0.389 C  
BRANCH  20  21
HETATM   21  C   UNL     1     -10.629  12.290  68.478  1.00  0.00    -0.254 C  
BRANCH  21  22
HETATM   22  C   UNL     1     -10.621  11.857  67.015  1.00  0.00    -0.260 C  
BRANCH  22  23
HETATM   23  C   UNL     1     -11.562  12.740  66.192  1.00  0.00    -0.431 C  
BRANCH  23  24
HETATM   24  C   UNL     1     -10.850  13.276  64.955  1.00  0.00    -0.335 C  
BRANCH  24  25
HETATM   25  C   UNL     1     -10.601  14.779  65.047  1.00  0.00    -0.452 C  
BRANCH  25  26
HETATM   26  C   UNL     1     -11.609  15.542  64.221  1.00  0.00    -0.194 C  
HETATM   27  O   UNL     1     -12.554  15.047  63.627  1.00  0.00    -0.680 OA 
BRANCH  26  28
HETATM   28  O   UNL     1     -11.311  16.870  64.235  1.00  0.00    -1.202 OA 
HETATM   29  C   UNL     1     -10.834  17.329  65.501  1.00  0.00    -0.023 C  
ENDBRANCH  26  28
ENDBRANCH  25  26
ENDBRANCH  24  25
ENDBRANCH  23  24
ENDBRANCH  22  23
ENDBRANCH  21  22
ENDBRANCH  20  21
ENDBRANCH  19  20
ENDBRANCH  11  12
ENDBRANCH   8  10
ENDBRANCH   3   4
ENDBRANCH   2   3
TORSDOF 12
ENDMDL
MODEL      160
REMARK 921   NORMALIZED FREE ENERGY PREDICTED BY IDOCK:   -3.90 KCAL/MOL
REMARK 922        TOTAL FREE ENERGY PREDICTED BY IDOCK:   -8.68 KCAL/MOL
REMARK 923 INTER-LIGAND FREE ENERGY PREDICTED BY IDOCK:   -7.16 KCAL/MOL
REMARK 924 INTRA-LIGAND FREE ENERGY PREDICTED BY IDOCK:   -1.52 KCAL/MOL
REMARK 927      BINDING AFFINITY PREDICTED BY RF-SCORE:    0.00 PKD
ROOT
HETATM    1  C   UNL     1      -8.179   4.739  67.996  1.00  0.00    -0.095 C  
HETATM    2  C   UNL     1      -8.718   6.163  68.007  1.00  0.00    -0.113 C  
ENDROOT
BRANCH   2   3
HETATM    3  C   UNL     1      -8.039   6.978  69.102  1.00  0.00    -0.121 C  
BRANCH   3   4
HETATM    4  C   UNL     1      -8.860   7.019  70.398  1.00  0.00    -0.155 C  
HETATM    5  C   UNL     1      -9.260   8.453  70.820  1.00  0.00    -0.159 C  
HETATM    6  O   UNL     1      -8.055   9.189  71.074  1.00  0.00    -0.179 OA 
HETATM    7  C   UNL     1     -10.071   8.403  72.123  1.00  0.00    -0.376 C  
HETATM    8  C   UNL     1     -10.047   9.150  69.682  1.00  0.00    -0.206 C  
HETATM    9  H   UNL     1      -8.300  10.069  71.334  1.00  0.00     0.000 HD 
BRANCH   8  10
HETATM   10  C   UNL     1     -10.639  10.491  70.013  1.00  0.00    -0.223 C  
HETATM   11  C   UNL     1     -11.955  10.758  70.008  1.00  0.00    -0.427 C  
BRANCH  11  12
HETATM   12  C   UNL     1     -12.598  12.082  70.333  1.00  0.00    -0.128 C  
HETATM   13  C   UNL     1     -12.851  12.209  71.845  1.00  0.00    -0.222 C  
HETATM   14  C   UNL     1     -13.031  13.694  72.098  1.00  0.00    -0.421 C  
HETATM   15  O   UNL     1     -14.012  11.494  72.252  1.00  0.00    -0.200 OA 
HETATM   16  H   UNL     1     -14.169  11.572  73.186  1.00  0.00     0.000 HD 
HETATM   17  C   UNL     1     -12.134  14.297  71.064  1.00  0.00    -0.344 C  
HETATM   18  O   UNL     1     -11.723  15.449  71.140  1.00  0.00    -0.299 OA 
HETATM   19  C   UNL     1     -11.780  13.337  69.945  1.00  0.00    -0.330 C  
BRANCH  19  20
HETATM   20  C   UNL     1     -12.153  13.830  68.543  1.00  0.00    -0.327 C  
BRANCH  20  21
HETATM   21  C   UNL     1     -11.433  13.049  67.443  1.00  0.00    -0.380 C  
BRANCH  21  22
HETATM   22  C   UNL     1     -11.791  13.559  66.051  1.00  0.00    -0.414 C  
BRANCH  22  23
HETATM   23  C   UNL     1     -10.542  14.079  65.335  1.00  0.00    -0.351 C  
BRANCH  23  24
HETATM   24  C   UNL     1     -10.248  15.518  65.744  1.00  0.00    -0.390 C  
BRANCH  24  25
HETATM   25  C   UNL     1      -8.831  15.679  66.288  1.00  0.00    -0.364 C  
BRANCH  25  26
HETATM   26  C   UNL     1      -8.842  16.422  67.603  1.00  0.00    -0.188 C  
HETATM   27  O   UNL     1      -7.852  16.814  68.199  1.00  0.00    -0.172 OA 
BRANCH  26  28
HETATM   28  O   UNL     1     -10.123  16.595  68.027  1.00  0.00    -0.247 OA 
HETATM   29  C   UNL     1     -10.328  17.825  68.723  1.00  0.00    -0.332 C  
ENDBRANCH  26  28
ENDBRANCH  25  26
ENDBRANCH  24  25
ENDBRANCH  23  24
ENDBRANCH  22  23
ENDBRANCH  21  22
ENDBRANCH  20  21
ENDBRANCH  19  20
ENDBRANCH  11  12
ENDBRANCH   8  10
ENDBRANCH   3   4
ENDBRANCH   2   3
TORSDOF 12
ENDMDL
MODEL      161
REMARK 921   NORMALIZED FREE ENERGY PREDICTED BY IDOCK:   -3.89 KCAL/MOL
REMARK 922        TOTAL FREE ENERGY PREDICTED BY IDOCK:   -8.65 KCAL/MOL
REMARK 923 INTER-LIGAND FREE ENERGY PREDICTED BY IDOCK:   -6.48 KCAL/MOL
REMARK 924 INTRA-LIGAND FREE ENERGY PREDICTED BY IDOCK:   -2.17 KCAL/MOL
REMARK 927      BINDING AFFINITY PREDICTED BY RF-SCORE:    0.00 PKD
ROOT
HETATM    1  C   UNL     1      -7.415  19.217  68.896  1.00  0.00    -0.397 C  
HETATM    2  C   UNL     1      -8.498  18.318  68.316  1.00  0.00    -0.309 C  
ENDROOT
BRANCH   2   3
HETATM    3  C   UNL     1      -7.895  16.999  67.844  1.00  0.00    -0.188 C  
BRANCH   3   4
HETATM    4  C   UNL     1      -6.970  16.369  68.894  1.00  0.00    -0.186 C  
HETATM    5  C   UNL     1      -7.201  14.849  69.074  1.00  0.00    -0.138 C  
HETATM    6  O   UNL     1      -8.543  14.661  69.544  1.00  0.00    -0.397 OA 
HETATM    7  C   UNL     1      -6.242  14.301  70.140  1.00  0.00    -0.161 C  
HETATM    8  C   UNL     1      -7.032  14.114  67.720  1.00  0.00    -0.189 C  
HETATM    9  H   UNL     1      -8.685  13.729  69.655  1.00  0.00     0.000 HD 
BRANCH   8  10
HETATM   10  C   UNL     1      -7.069  12.613  67.775  1.00  0.00    -0.126 C  
HETATM   11  C   UNL     1      -8.197  11.887  67.854  1.00  0.00    -0.150 C  
BRANCH  11  12
HETATM   12  C   UNL     1      -8.289  10.384  67.911  1.00  0.00    -0.114 C  
HETATM   13  C   UNL     1      -8.584   9.910  69.345  1.00  0.00    -0.174 C  
HETATM   14  C   UNL     1      -9.118   8.498  69.198  1.00  0.00    -0.146 C  
HETATM   15  O   UNL     1      -7.417   9.915  70.159  1.00  0.00    -0.145 OA 
HETATM   16  H   UNL     1      -7.599   9.623  71.044  1.00  0.00     0.000 HD 
HETATM   17  C   UNL     1      -9.821   8.566  67.879  1.00  0.00    -0.170 C  
HETATM   18  O   UNL     1     -10.671   7.749  67.543  1.00  0.00    -0.250 OA 
HETATM   19  C   UNL     1      -9.389   9.746  67.031  1.00  0.00    -0.178 C  
BRANCH  19  20
HETATM   20  C   UNL     1      -8.844   9.369  65.649  1.00  0.00    -0.208 C  
BRANCH  20  21
HETATM   21  C   UNL     1      -9.352  10.305  64.551  1.00  0.00    -0.328 C  
BRANCH  21  22
HETATM   22  C   UNL     1     -10.612  11.052  64.973  1.00  0.00    -0.315 C  
BRANCH  22  23
HETATM   23  C   UNL     1     -10.830  12.277  64.082  1.00  0.00    -0.412 C  
BRANCH  23  24
HETATM   24  C   UNL     1     -11.139  13.508  64.926  1.00  0.00    -0.356 C  
BRANCH  24  25
HETATM   25  C   UNL     1     -10.358  13.513  66.237  1.00  0.00    -0.293 C  
BRANCH  25  26
HETATM   26  C   UNL     1     -11.229  13.974  67.381  1.00  0.00    -0.311 C  
HETATM   27  O   UNL     1     -12.120  13.318  67.898  1.00  0.00    -0.331 OA 
BRANCH  26  28
HETATM   28  O   UNL     1     -10.875  15.234  67.755  1.00  0.00    -0.278 OA 
HETATM   29  C   UNL     1     -11.831  15.859  68.611  1.00  0.00    -0.234 C  
ENDBRANCH  26  28
ENDBRANCH  25  26
ENDBRANCH  24  25
ENDBRANCH  23  24
ENDBRANCH  22  23
ENDBRANCH  21  22
ENDBRANCH  20  21
ENDBRANCH  19  20
ENDBRANCH  11  12
ENDBRANCH   8  10
ENDBRANCH   3   4
ENDBRANCH   2   3
TORSDOF 12
ENDMDL
MODEL      162
REMARK 921   NORMALIZED FREE ENERGY PREDICTED BY IDOCK:   -3.84 KCAL/MOL
REMARK 922        TOTAL FREE ENERGY PREDICTED BY IDOCK:   -8.58 KCAL/MOL
REMARK 923 INTER-LIGAND FREE ENERGY PREDICTED BY IDOCK:   -7.12 KCAL/MOL
REMARK 924 INTRA-LIGAND FREE ENERGY PREDICTED BY IDOCK:   -1.46 KCAL/MOL
REMARK 927      BINDING AFFINITY PREDICTED BY RF-SCORE:    0.00 PKD
ROOT
HETATM    1  C   UNL     1      -7.574  19.047  69.097  1.00  0.00    -0.243 C  
HETATM    2  C   UNL     1      -8.106  18.685  67.718  1.00  0.00    -0.269 C  
ENDROOT
BRANCH   2   3
HETATM    3  C   UNL     1      -9.599  18.383  67.789  1.00  0.00    -0.300 C  
BRANCH   3   4
HETATM    4  C   UNL     1     -10.003  17.731  69.119  1.00  0.00    -0.189 C  
HETATM    5  C   UNL     1     -10.300  16.218  68.989  1.00  0.00    -0.264 C  
HETATM    6  O   UNL     1     -11.416  16.063  68.101  1.00  0.00    -0.338 OA 
HETATM    7  C   UNL     1     -10.700  15.649  70.358  1.00  0.00    -0.336 C  
HETATM    8  C   UNL     1      -9.075  15.477  68.397  1.00  0.00    -0.190 C  
HETATM    9  H   UNL     1     -11.599  15.135  68.022  1.00  0.00     0.000 HD 
BRANCH   8  10
HETATM   10  C   UNL     1      -9.163  13.977  68.364  1.00  0.00    -0.196 C  
HETATM   11  C   UNL     1      -8.234  13.178  67.814  1.00  0.00    -0.168 C  
BRANCH  11  12
HETATM   12  C   UNL     1      -8.274  11.673  67.756  1.00  0.00    -0.141 C  
HETATM   13  C   UNL     1      -8.583  11.082  69.142  1.00  0.00     0.003 C  
HETATM   14  C   UNL     1      -9.064   9.668  68.877  1.00  0.00    -0.144 C  
HETATM   15  O   UNL     1      -7.435  11.065  69.983  1.00  0.00    -0.387 OA 
HETATM   16  H   UNL     1      -7.626  10.700  70.839  1.00  0.00     0.000 HD 
HETATM   17  C   UNL     1      -9.740   9.812  67.551  1.00  0.00    -0.157 C  
HETATM   18  O   UNL     1     -10.553   8.995  67.135  1.00  0.00    -0.272 OA 
HETATM   19  C   UNL     1      -9.331  11.066  66.804  1.00  0.00    -0.199 C  
BRANCH  19  20
HETATM   20  C   UNL     1      -8.744  10.813  65.411  1.00  0.00    -0.190 C  
BRANCH  20  21
HETATM   21  C   UNL     1      -9.583  11.450  64.303  1.00  0.00    -0.214 C  
BRANCH  21  22
HETATM   22  C   UNL     1     -11.078  11.245  64.528  1.00  0.00    -0.245 C  
BRANCH  22  23
HETATM   23  C   UNL     1     -11.886  12.173  63.618  1.00  0.00    -0.608 C  
BRANCH  23  24
HETATM   24  C   UNL     1     -12.786  13.085  64.444  1.00  0.00    -0.171 C  
BRANCH  24  25
HETATM   25  C   UNL     1     -11.982  14.010  65.353  1.00  0.00    -0.386 C  
BRANCH  25  26
HETATM   26  C   UNL     1     -11.688  15.320  64.661  1.00  0.00    -0.308 C  
HETATM   27  O   UNL     1     -12.421  15.873  63.857  1.00  0.00    -0.760 OA 
BRANCH  26  28
HETATM   28  O   UNL     1     -10.480  15.798  65.068  1.00  0.00    -0.462 OA 
HETATM   29  C   UNL     1     -10.460  17.216  65.235  1.00  0.00     0.015 C  
ENDBRANCH  26  28
ENDBRANCH  25  26
ENDBRANCH  24  25
ENDBRANCH  23  24
ENDBRANCH  22  23
ENDBRANCH  21  22
ENDBRANCH  20  21
ENDBRANCH  19  20
ENDBRANCH  11  12
ENDBRANCH   8  10
ENDBRANCH   3   4
ENDBRANCH   2   3
TORSDOF 12
ENDMDL
MODEL      163
REMARK 921   NORMALIZED FREE ENERGY PREDICTED BY IDOCK:   -3.83 KCAL/MOL
REMARK 922        TOTAL FREE ENERGY PREDICTED BY IDOCK:   -8.55 KCAL/MOL
REMARK 923 INTER-LIGAND FREE ENERGY PREDICTED BY IDOCK:   -7.09 KCAL/MOL
REMARK 924 INTRA-LIGAND FREE ENERGY PREDICTED BY IDOCK:   -1.46 KCAL/MOL
REMARK 927      BINDING AFFINITY PREDICTED BY RF-SCORE:    0.00 PKD
ROOT
HETATM    1  C   UNL     1      -8.309   3.935  64.105  1.00  0.00    -0.092 C  
HETATM    2  C   UNL     1      -9.327   3.151  64.921  1.00  0.00    -0.149 C  
ENDROOT
BRANCH   2   3
HETATM    3  C   UNL     1     -10.270   4.104  65.648  1.00  0.00    -0.157 C  
BRANCH   3   4
HETATM    4  C   UNL     1      -9.770   5.555  65.626  1.00  0.00     0.077 C  
HETATM    5  C   UNL     1     -10.077   6.324  66.933  1.00  0.00    -0.183 C  
HETATM    6  O   UNL     1     -11.502   6.384  67.084  1.00  0.00    -0.720 OA 
HETATM    7  C   UNL     1      -9.550   7.762  66.825  1.00  0.00    -0.274 C  
HETATM    8  C   UNL     1      -9.470   5.582  68.151  1.00  0.00    -0.133 C  
HETATM    9  H   UNL     1     -11.691   6.856  67.885  1.00  0.00     0.000 HD 
BRANCH   8  10
HETATM   10  C   UNL     1      -9.552   6.299  69.469  1.00  0.00    -0.163 C  
HETATM   11  C   UNL     1     -10.423   5.989  70.444  1.00  0.00    -0.307 C  
BRANCH  11  12
HETATM   12  C   UNL     1     -10.545   6.675  71.781  1.00  0.00    -0.242 C  
HETATM   13  C   UNL     1     -10.762   5.646  72.903  1.00  0.00    -0.248 C  
HETATM   14  C   UNL     1     -10.394   6.367  74.185  1.00  0.00    -0.335 C  
HETATM   15  O   UNL     1     -12.111   5.196  72.960  1.00  0.00    -0.487 OA 
HETATM   16  H   UNL     1     -12.246   4.560  73.652  1.00  0.00     0.000 HD 
HETATM   17  C   UNL     1      -9.320   7.300  73.721  1.00  0.00    -0.252 C  
HETATM   18  O   UNL     1      -8.520   7.818  74.491  1.00  0.00    -0.214 OA 
HETATM   19  C   UNL     1      -9.320   7.511  72.220  1.00  0.00    -0.185 C  
BRANCH  19  20
HETATM   20  C   UNL     1      -9.462   8.974  71.784  1.00  0.00    -0.245 C  
BRANCH  20  21
HETATM   21  C   UNL     1     -10.893   9.318  71.367  1.00  0.00    -0.434 C  
BRANCH  21  22
HETATM   22  C   UNL     1     -10.944   9.981  69.994  1.00  0.00    -0.352 C  
BRANCH  22  23
HETATM   23  C   UNL     1     -12.110  10.971  69.924  1.00  0.00    -0.435 C  
BRANCH  23  24
HETATM   24  C   UNL     1     -12.090  11.731  68.602  1.00  0.00    -0.164 C  
BRANCH  24  25
HETATM   25  C   UNL     1     -10.726  12.355  68.322  1.00  0.00    -0.250 C  
BRANCH  25  26
HETATM   26  C   UNL     1     -10.860  13.555  67.415  1.00  0.00    -0.269 C  
HETATM   27  O   UNL     1     -11.806  13.779  66.677  1.00  0.00    -0.366 OA 
BRANCH  26  28
HETATM   28  O   UNL     1      -9.768  14.357  67.542  1.00  0.00    -0.212 OA 
HETATM   29  C   UNL     1      -9.298  14.873  66.297  1.00  0.00    -0.296 C  
ENDBRANCH  26  28
ENDBRANCH  25  26
ENDBRANCH  24  25
ENDBRANCH  23  24
ENDBRANCH  22  23
ENDBRANCH  21  22
ENDBRANCH  20  21
ENDBRANCH  19  20
ENDBRANCH  11  12
ENDBRANCH   8  10
ENDBRANCH   3   4
ENDBRANCH   2   3
TORSDOF 12
ENDMDL
MODEL      164
REMARK 921   NORMALIZED FREE ENERGY PREDICTED BY IDOCK:   -3.82 KCAL/MOL
REMARK 922        TOTAL FREE ENERGY PREDICTED BY IDOCK:   -8.54 KCAL/MOL
REMARK 923 INTER-LIGAND FREE ENERGY PREDICTED BY IDOCK:   -6.92 KCAL/MOL
REMARK 924 INTRA-LIGAND FREE ENERGY PREDICTED BY IDOCK:   -1.62 KCAL/MOL
REMARK 927      BINDING AFFINITY PREDICTED BY RF-SCORE:    0.00 PKD
ROOT
HETATM    1  C   UNL     1      -9.106   8.001  73.433  1.00  0.00    -0.340 C  
HETATM    2  C   UNL     1      -7.930   7.261  72.811  1.00  0.00    -0.116 C  
ENDROOT
BRANCH   2   3
HETATM    3  C   UNL     1      -8.036   7.281  71.290  1.00  0.00    -0.102 C  
BRANCH   3   4
HETATM    4  C   UNL     1      -9.459   7.591  70.805  1.00  0.00    -0.163 C  
HETATM    5  C   UNL     1      -9.527   8.821  69.868  1.00  0.00    -0.169 C  
HETATM    6  O   UNL     1      -9.089   9.966  70.612  1.00  0.00    -0.319 OA 
HETATM    7  C   UNL     1     -10.981   9.064  69.435  1.00  0.00    -0.082 C  
HETATM    8  C   UNL     1      -8.592   8.623  68.648  1.00  0.00    -0.131 C  
HETATM    9  H   UNL     1      -9.131  10.721  70.038  1.00  0.00     0.000 HD 
BRANCH   8  10
HETATM   10  C   UNL     1      -8.679   9.668  67.572  1.00  0.00    -0.126 C  
HETATM   11  C   UNL     1      -9.054   9.420  66.306  1.00  0.00    -0.204 C  
BRANCH  11  12
HETATM   12  C   UNL     1      -9.158  10.430  65.193  1.00  0.00    -0.232 C  
HETATM   13  C   UNL     1      -8.884   9.770  63.831  1.00  0.00    -0.233 C  
HETATM   14  C   UNL     1      -9.472  10.717  62.802  1.00  0.00    -0.355 C  
HETATM   15  O   UNL     1      -7.492   9.588  63.597  1.00  0.00    -0.108 OA 
HETATM   16  H   UNL     1      -7.323   9.180  62.756  1.00  0.00     0.000 HD 
HETATM   17  C   UNL     1     -10.631  11.304  63.543  1.00  0.00    -0.369 C  
HETATM   18  O   UNL     1     -11.567  11.853  62.973  1.00  0.00    -0.198 OA 
HETATM   19  C   UNL     1     -10.531  11.127  65.045  1.00  0.00    -0.357 C  
BRANCH  19  20
HETATM   20  C   UNL     1     -10.578  12.435  65.843  1.00  0.00    -0.289 C  
BRANCH  20  21
HETATM   21  C   UNL     1     -11.894  12.602  66.605  1.00  0.00    -0.449 C  
BRANCH  21  22
HETATM   22  C   UNL     1     -11.773  12.159  68.059  1.00  0.00    -0.409 C  
BRANCH  22  23
HETATM   23  C   UNL     1     -11.886  13.365  68.995  1.00  0.00    -0.378 C  
BRANCH  23  24
HETATM   24  C   UNL     1     -10.581  14.152  69.019  1.00  0.00    -0.227 C  
BRANCH  24  25
HETATM   25  C   UNL     1     -10.747  15.552  68.436  1.00  0.00    -0.263 C  
BRANCH  25  26
HETATM   26  C   UNL     1     -10.861  16.582  69.535  1.00  0.00    -0.315 C  
HETATM   27  O   UNL     1     -11.408  16.405  70.612  1.00  0.00    -0.368 OA 
BRANCH  26  28
HETATM   28  O   UNL     1     -10.262  17.741  69.149  1.00  0.00    -0.346 OA 
HETATM   29  C   UNL     1      -9.129  17.537  68.305  1.00  0.00    -0.274 C  
ENDBRANCH  26  28
ENDBRANCH  25  26
ENDBRANCH  24  25
ENDBRANCH  23  24
ENDBRANCH  22  23
ENDBRANCH  21  22
ENDBRANCH  20  21
ENDBRANCH  19  20
ENDBRANCH  11  12
ENDBRANCH   8  10
ENDBRANCH   3   4
ENDBRANCH   2   3
TORSDOF 12
ENDMDL
MODEL      165
REMARK 921   NORMALIZED FREE ENERGY PREDICTED BY IDOCK:   -3.82 KCAL/MOL
REMARK 922        TOTAL FREE ENERGY PREDICTED BY IDOCK:   -8.53 KCAL/MOL
REMARK 923 INTER-LIGAND FREE ENERGY PREDICTED BY IDOCK:   -7.00 KCAL/MOL
REMARK 924 INTRA-LIGAND FREE ENERGY PREDICTED BY IDOCK:   -1.53 KCAL/MOL
REMARK 927      BINDING AFFINITY PREDICTED BY RF-SCORE:    0.00 PKD
ROOT
HETATM    1  C   UNL     1     -10.183  20.210  68.910  1.00  0.00    -0.280 C  
HETATM    2  C   UNL     1      -9.540  20.384  67.541  1.00  0.00    -0.560 C  
ENDROOT
BRANCH   2   3
HETATM    3  C   UNL     1      -8.694  19.163  67.195  1.00  0.00    -0.306 C  
BRANCH   3   4
HETATM    4  C   UNL     1      -8.635  18.145  68.342  1.00  0.00    -0.310 C  
HETATM    5  C   UNL     1      -9.332  16.806  68.002  1.00  0.00    -0.229 C  
HETATM    6  O   UNL     1     -10.720  17.080  67.766  1.00  0.00    -0.347 OA 
HETATM    7  C   UNL     1      -9.233  15.850  69.200  1.00  0.00    -0.253 C  
HETATM    8  C   UNL     1      -8.715  16.186  66.723  1.00  0.00    -0.273 C  
HETATM    9  H   UNL     1     -11.148  16.258  67.558  1.00  0.00     0.000 HD 
BRANCH   8  10
HETATM   10  C   UNL     1      -9.185  14.804  66.365  1.00  0.00    -0.301 C  
HETATM   11  C   UNL     1     -10.239  14.546  65.574  1.00  0.00    -0.394 C  
BRANCH  11  12
HETATM   12  C   UNL     1     -10.750  13.182  65.185  1.00  0.00    -0.329 C  
HETATM   13  C   UNL     1     -11.813  13.294  64.079  1.00  0.00    -0.455 C  
HETATM   14  C   UNL     1     -11.888  11.913  63.455  1.00  0.00    -0.560 C  
HETATM   15  O   UNL     1     -13.083  13.672  64.597  1.00  0.00    -0.561 OA 
HETATM   16  H   UNL     1     -13.740  13.741  63.914  1.00  0.00     0.000 HD 
HETATM   17  C   UNL     1     -10.481  11.426  63.605  1.00  0.00    -0.414 C  
HETATM   18  O   UNL     1     -10.029  10.504  62.935  1.00  0.00    -0.272 OA 
HETATM   19  C   UNL     1      -9.687  12.199  64.639  1.00  0.00    -0.059 C  
BRANCH  19  20
HETATM   20  C   UNL     1      -9.099  11.338  65.762  1.00  0.00    -0.216 C  
BRANCH  20  21
HETATM   21  C   UNL     1      -7.894  10.521  65.296  1.00  0.00    -0.100 C  
BRANCH  21  22
HETATM   22  C   UNL     1      -8.129   9.021  65.439  1.00  0.00    -0.120 C  
BRANCH  22  23
HETATM   23  C   UNL     1      -8.955   8.728  66.695  1.00  0.00    -0.168 C  
BRANCH  23  24
HETATM   24  C   UNL     1      -8.055   8.258  67.832  1.00  0.00    -0.127 C  
BRANCH  24  25
HETATM   25  C   UNL     1      -7.886   9.329  68.907  1.00  0.00    -0.087 C  
BRANCH  25  26
HETATM   26  C   UNL     1      -6.623  10.125  68.679  1.00  0.00    -0.053 C  
HETATM   27  O   UNL     1      -5.704   9.795  67.946  1.00  0.00    -0.040 OA 
BRANCH  26  28
HETATM   28  O   UNL     1      -6.659  11.272  69.411  1.00  0.00    -0.091 OA 
HETATM   29  C   UNL     1      -6.930  12.434  68.628  1.00  0.00    -0.091 C  
ENDBRANCH  26  28
ENDBRANCH  25  26
ENDBRANCH  24  25
ENDBRANCH  23  24
ENDBRANCH  22  23
ENDBRANCH  21  22
ENDBRANCH  20  21
ENDBRANCH  19  20
ENDBRANCH  11  12
ENDBRANCH   8  10
ENDBRANCH   3   4
ENDBRANCH   2   3
TORSDOF 12
ENDMDL
MODEL      166
REMARK 921   NORMALIZED FREE ENERGY PREDICTED BY IDOCK:   -3.81 KCAL/MOL
REMARK 922        TOTAL FREE ENERGY PREDICTED BY IDOCK:   -8.51 KCAL/MOL
REMARK 923 INTER-LIGAND FREE ENERGY PREDICTED BY IDOCK:   -7.40 KCAL/MOL
REMARK 924 INTRA-LIGAND FREE ENERGY PREDICTED BY IDOCK:   -1.11 KCAL/MOL
REMARK 927      BINDING AFFINITY PREDICTED BY RF-SCORE:    0.00 PKD
ROOT
HETATM    1  C   UNL     1     -13.692  13.708  72.286  1.00  0.00    -0.687 C  
HETATM    2  C   UNL     1     -13.326  14.647  71.144  1.00  0.00    -0.433 C  
ENDROOT
BRANCH   2   3
HETATM    3  C   UNL     1     -12.779  13.854  69.961  1.00  0.00    -0.105 C  
BRANCH   3   4
HETATM    4  C   UNL     1     -11.882  12.689  70.400  1.00  0.00    -0.238 C  
HETATM    5  C   UNL     1     -11.437  11.788  69.224  1.00  0.00    -0.306 C  
HETATM    6  O   UNL     1     -12.614  11.204  68.648  1.00  0.00    -0.527 OA 
HETATM    7  C   UNL     1     -10.551  10.649  69.749  1.00  0.00    -0.233 C  
HETATM    8  C   UNL     1     -10.709  12.629  68.144  1.00  0.00    -0.242 C  
HETATM    9  H   UNL     1     -12.342  10.650  67.926  1.00  0.00     0.000 HD 
BRANCH   8  10
HETATM   10  C   UNL     1     -10.080  11.857  67.019  1.00  0.00    -0.226 C  
HETATM   11  C   UNL     1     -10.695  11.580  65.857  1.00  0.00    -0.325 C  
BRANCH  11  12
HETATM   12  C   UNL     1     -10.110  10.813  64.700  1.00  0.00    -0.410 C  
HETATM   13  C   UNL     1      -9.826  11.749  63.513  1.00  0.00    -0.365 C  
HETATM   14  C   UNL     1      -8.836  11.002  62.640  1.00  0.00    -0.334 C  
HETATM   15  O   UNL     1     -11.006  12.049  62.776  1.00  0.00    -0.502 OA 
HETATM   16  H   UNL     1     -10.831  12.628  62.043  1.00  0.00     0.000 HD 
HETATM   17  C   UNL     1      -8.061  10.216  63.650  1.00  0.00    -0.163 C  
HETATM   18  O   UNL     1      -6.955   9.745  63.410  1.00  0.00    -0.109 OA 
HETATM   19  C   UNL     1      -8.772  10.089  64.983  1.00  0.00    -0.192 C  
BRANCH  19  20
HETATM   20  C   UNL     1      -9.009   8.646  65.442  1.00  0.00    -0.181 C  
BRANCH  20  21
HETATM   21  C   UNL     1      -8.708   8.454  66.929  1.00  0.00    -0.137 C  
BRANCH  21  22
HETATM   22  C   UNL     1      -9.953   8.060  67.718  1.00  0.00    -0.224 C  
BRANCH  22  23
HETATM   23  C   UNL     1      -9.574   7.657  69.145  1.00  0.00    -0.155 C  
BRANCH  23  24
HETATM   24  C   UNL     1      -9.720   6.151  69.335  1.00  0.00    -0.172 C  
BRANCH  24  25
HETATM   25  C   UNL     1     -10.717   5.809  70.438  1.00  0.00    -0.372 C  
BRANCH  25  26
HETATM   26  C   UNL     1     -10.005   5.276  71.659  1.00  0.00    -0.180 C  
HETATM   27  O   UNL     1      -8.837   4.921  71.696  1.00  0.00    -0.127 OA 
BRANCH  26  28
HETATM   28  O   UNL     1     -10.858   5.250  72.719  1.00  0.00    -0.228 OA 
HETATM   29  C   UNL     1     -10.312   4.602  73.868  1.00  0.00    -0.228 C  
ENDBRANCH  26  28
ENDBRANCH  25  26
ENDBRANCH  24  25
ENDBRANCH  23  24
ENDBRANCH  22  23
ENDBRANCH  21  22
ENDBRANCH  20  21
ENDBRANCH  19  20
ENDBRANCH  11  12
ENDBRANCH   8  10
ENDBRANCH   3   4
ENDBRANCH   2   3
TORSDOF 12
ENDMDL
MODEL      167
REMARK 921   NORMALIZED FREE ENERGY PREDICTED BY IDOCK:   -3.79 KCAL/MOL
REMARK 922        TOTAL FREE ENERGY PREDICTED BY IDOCK:   -8.48 KCAL/MOL
REMARK 923 INTER-LIGAND FREE ENERGY PREDICTED BY IDOCK:   -7.95 KCAL/MOL
REMARK 924 INTRA-LIGAND FREE ENERGY PREDICTED BY IDOCK:   -0.53 KCAL/MOL
REMARK 927      BINDING AFFINITY PREDICTED BY RF-SCORE:    0.00 PKD
ROOT
HETATM    1  C   UNL     1      -9.998  18.559  66.552  1.00  0.00    -0.401 C  
HETATM    2  C   UNL     1     -10.577  17.919  67.806  1.00  0.00    -0.399 C  
ENDROOT
BRANCH   2   3
HETATM    3  C   UNL     1     -10.358  16.410  67.779  1.00  0.00    -0.287 C  
BRANCH   3   4
HETATM    4  C   UNL     1     -11.616  15.642  67.353  1.00  0.00     0.013 C  
HETATM    5  C   UNL     1     -11.367  14.676  66.169  1.00  0.00    -0.350 C  
HETATM    6  O   UNL     1     -10.963  15.460  65.039  1.00  0.00    -0.391 OA 
HETATM    7  C   UNL     1     -12.673  13.954  65.805  1.00  0.00    -0.503 C  
HETATM    8  C   UNL     1     -10.238  13.673  66.520  1.00  0.00    -0.284 C  
HETATM    9  H   UNL     1     -10.810  14.868  64.313  1.00  0.00     0.000 HD 
BRANCH   8  10
HETATM   10  C   UNL     1     -10.000  12.573  65.525  1.00  0.00    -0.248 C  
HETATM   11  C   UNL     1     -10.132  11.265  65.800  1.00  0.00    -0.294 C  
BRANCH  11  12
HETATM   12  C   UNL     1      -9.906  10.125  64.840  1.00  0.00    -0.390 C  
HETATM   13  C   UNL     1      -9.662  10.652  63.416  1.00  0.00    -0.339 C  
HETATM   14  C   UNL     1      -8.991   9.510  62.675  1.00  0.00    -0.249 C  
HETATM   15  O   UNL     1     -10.875  11.017  62.767  1.00  0.00    -0.780 OA 
HETATM   16  H   UNL     1     -10.724  11.343  61.888  1.00  0.00     0.000 HD 
HETATM   17  C   UNL     1      -8.214   8.845  63.766  1.00  0.00    -0.172 C  
HETATM   18  O   UNL     1      -7.272   8.094  63.540  1.00  0.00    -0.086 OA 
HETATM   19  C   UNL     1      -8.697   9.213  65.155  1.00  0.00    -0.228 C  
BRANCH  19  20
HETATM   20  C   UNL     1      -9.114   8.018  66.020  1.00  0.00    -0.193 C  
BRANCH  20  21
HETATM   21  C   UNL     1     -10.376   8.305  66.834  1.00  0.00    -0.391 C  
BRANCH  21  22
HETATM   22  C   UNL     1     -10.892   7.059  67.547  1.00  0.00    -0.338 C  
BRANCH  22  23
HETATM   23  C   UNL     1     -10.148   6.854  68.869  1.00  0.00    -0.174 C  
BRANCH  23  24
HETATM   24  C   UNL     1     -10.983   6.016  69.831  1.00  0.00    -0.458 C  
BRANCH  24  25
HETATM   25  C   UNL     1     -10.631   6.300  71.289  1.00  0.00    -0.285 C  
BRANCH  25  26
HETATM   26  C   UNL     1     -10.753   5.048  72.124  1.00  0.00    -0.159 C  
HETATM   27  O   UNL     1     -11.614   4.843  72.965  1.00  0.00    -0.290 OA 
BRANCH  26  28
HETATM   28  O   UNL     1      -9.760   4.176  71.801  1.00  0.00    -0.156 OA 
HETATM   29  C   UNL     1      -8.473   4.789  71.724  1.00  0.00    -0.118 C  
ENDBRANCH  26  28
ENDBRANCH  25  26
ENDBRANCH  24  25
ENDBRANCH  23  24
ENDBRANCH  22  23
ENDBRANCH  21  22
ENDBRANCH  20  21
ENDBRANCH  19  20
ENDBRANCH  11  12
ENDBRANCH   8  10
ENDBRANCH   3   4
ENDBRANCH   2   3
TORSDOF 12
ENDMDL
MODEL      168
REMARK 921   NORMALIZED FREE ENERGY PREDICTED BY IDOCK:   -3.79 KCAL/MOL
REMARK 922        TOTAL FREE ENERGY PREDICTED BY IDOCK:   -8.48 KCAL/MOL
REMARK 923 INTER-LIGAND FREE ENERGY PREDICTED BY IDOCK:   -6.27 KCAL/MOL
REMARK 924 INTRA-LIGAND FREE ENERGY PREDICTED BY IDOCK:   -2.21 KCAL/MOL
REMARK 927      BINDING AFFINITY PREDICTED BY RF-SCORE:    0.00 PKD
ROOT
HETATM    1  C   UNL     1     -11.867  14.484  68.025  1.00  0.00    -0.350 C  
HETATM    2  C   UNL     1     -11.330  13.240  68.720  1.00  0.00    -0.331 C  
ENDROOT
BRANCH   2   3
HETATM    3  C   UNL     1     -10.051  12.764  68.039  1.00  0.00    -0.230 C  
BRANCH   3   4
HETATM    4  C   UNL     1     -10.262  12.437  66.555  1.00  0.00    -0.244 C  
HETATM    5  C   UNL     1      -9.826  11.000  66.181  1.00  0.00    -0.225 C  
HETATM    6  O   UNL     1      -8.417  10.890  66.428  1.00  0.00    -0.151 OA 
HETATM    7  C   UNL     1     -10.066  10.758  64.683  1.00  0.00    -0.410 C  
HETATM    8  C   UNL     1     -10.576   9.963  67.056  1.00  0.00    -0.272 C  
HETATM    9  H   UNL     1      -8.149  10.008  66.199  1.00  0.00     0.000 HD 
BRANCH   8  10
HETATM   10  C   UNL     1     -10.371   8.520  66.691  1.00  0.00    -0.303 C  
HETATM   11  C   UNL     1      -9.366   7.759  67.156  1.00  0.00    -0.185 C  
BRANCH  11  12
HETATM   12  C   UNL     1      -9.116   6.311  66.823  1.00  0.00    -0.141 C  
HETATM   13  C   UNL     1      -8.028   6.180  65.744  1.00  0.00    -0.115 C  
HETATM   14  C   UNL     1      -7.536   4.748  65.843  1.00  0.00    -0.090 C  
HETATM   15  O   UNL     1      -8.537   6.439  64.440  1.00  0.00    -0.345 OA 
HETATM   16  H   UNL     1      -7.864   6.358  63.774  1.00  0.00     0.000 HD 
HETATM   17  C   UNL     1      -7.699   4.462  67.302  1.00  0.00    -0.089 C  
HETATM   18  O   UNL     1      -7.108   3.547  67.864  1.00  0.00    -0.050 OA 
HETATM   19  C   UNL     1      -8.640   5.425  67.999  1.00  0.00    -0.100 C  
BRANCH  19  20
HETATM   20  C   UNL     1      -9.825   4.757  68.705  1.00  0.00    -0.208 C  
BRANCH  20  21
HETATM   21  C   UNL     1     -10.236   5.499  69.977  1.00  0.00    -0.337 C  
BRANCH  21  22
HETATM   22  C   UNL     1     -11.528   6.287  69.788  1.00  0.00    -0.449 C  
BRANCH  22  23
HETATM   23  C   UNL     1     -11.628   7.405  70.829  1.00  0.00    -0.317 C  
BRANCH  23  24
HETATM   24  C   UNL     1     -11.045   8.703  70.282  1.00  0.00    -0.230 C  
BRANCH  24  25
HETATM   25  C   UNL     1     -10.145   9.399  71.300  1.00  0.00    -0.309 C  
BRANCH  25  26
HETATM   26  C   UNL     1      -8.695   9.057  71.057  1.00  0.00    -0.222 C  
HETATM   27  O   UNL     1      -8.138   9.074  69.971  1.00  0.00    -0.102 OA 
BRANCH  26  28
HETATM   28  O   UNL     1      -8.093   8.727  72.233  1.00  0.00    -0.356 OA 
HETATM   29  C   UNL     1      -8.495   7.452  72.735  1.00  0.00    -0.113 C  
ENDBRANCH  26  28
ENDBRANCH  25  26
ENDBRANCH  24  25
ENDBRANCH  23  24
ENDBRANCH  22  23
ENDBRANCH  21  22
ENDBRANCH  20  21
ENDBRANCH  19  20
ENDBRANCH  11  12
ENDBRANCH   8  10
ENDBRANCH   3   4
ENDBRANCH   2   3
TORSDOF 12
ENDMDL
MODEL      169
REMARK 921   NORMALIZED FREE ENERGY PREDICTED BY IDOCK:   -3.73 KCAL/MOL
REMARK 922        TOTAL FREE ENERGY PREDICTED BY IDOCK:   -8.39 KCAL/MOL
REMARK 923 INTER-LIGAND FREE ENERGY PREDICTED BY IDOCK:   -6.26 KCAL/MOL
REMARK 924 INTRA-LIGAND FREE ENERGY PREDICTED BY IDOCK:   -2.13 KCAL/MOL
REMARK 927      BINDING AFFINITY PREDICTED BY RF-SCORE:    0.00 PKD
ROOT
HETATM    1  C   UNL     1     -12.090  13.131  67.180  1.00  0.00    -0.343 C  
HETATM    2  C   UNL     1     -10.980  13.346  66.161  1.00  0.00    -0.285 C  
ENDROOT
BRANCH   2   3
HETATM    3  C   UNL     1      -9.848  12.350  66.393  1.00  0.00    -0.249 C  
BRANCH   3   4
HETATM    4  C   UNL     1      -9.550  11.501  65.150  1.00  0.00    -0.235 C  
HETATM    5  C   UNL     1      -9.097  10.061  65.492  1.00  0.00    -0.186 C  
HETATM    6  O   UNL     1      -7.871  10.150  66.232  1.00  0.00    -0.106 OA 
HETATM    7  C   UNL     1      -8.815   9.285  64.198  1.00  0.00    -0.178 C  
HETATM    8  C   UNL     1     -10.164   9.352  66.364  1.00  0.00    -0.300 C  
HETATM    9  H   UNL     1      -7.593   9.266  66.442  1.00  0.00     0.000 HD 
BRANCH   8  10
HETATM   10  C   UNL     1      -9.931   7.893  66.637  1.00  0.00    -0.316 C  
HETATM   11  C   UNL     1     -10.874   7.050  67.090  1.00  0.00    -0.427 C  
BRANCH  11  12
HETATM   12  C   UNL     1     -10.692   5.582  67.379  1.00  0.00    -0.224 C  
HETATM   13  C   UNL     1     -10.233   4.831  66.117  1.00  0.00    -0.281 C  
HETATM   14  C   UNL     1      -9.637   3.530  66.620  1.00  0.00    -0.132 C  
HETATM   15  O   UNL     1     -11.314   4.569  65.230  1.00  0.00    -1.003 OA 
HETATM   16  H   UNL     1     -11.031   4.106  64.450  1.00  0.00     0.000 HD 
HETATM   17  C   UNL     1      -9.070   3.937  67.943  1.00  0.00    -0.149 C  
HETATM   18  O   UNL     1      -8.211   3.281  68.521  1.00  0.00    -0.067 OA 
HETATM   19  C   UNL     1      -9.647   5.237  68.467  1.00  0.00    -0.180 C  
BRANCH  19  20
HETATM   20  C   UNL     1     -10.302   5.130  69.849  1.00  0.00    -0.347 C  
BRANCH  20  21
HETATM   21  C   UNL     1      -9.386   5.635  70.965  1.00  0.00    -0.181 C  
BRANCH  21  22
HETATM   22  C   UNL     1      -8.633   6.897  70.559  1.00  0.00    -0.142 C  
BRANCH  22  23
HETATM   23  C   UNL     1      -7.287   6.972  71.284  1.00  0.00    -0.080 C  
BRANCH  23  24
HETATM   24  C   UNL     1      -6.565   8.271  70.945  1.00  0.00    -0.039 C  
BRANCH  24  25
HETATM   25  C   UNL     1      -7.023   8.847  69.608  1.00  0.00    -0.054 C  
BRANCH  25  26
HETATM   26  C   UNL     1      -7.328  10.321  69.735  1.00  0.00    -0.165 C  
HETATM   27  O   UNL     1      -6.682  11.121  70.392  1.00  0.00    -0.233 OA 
BRANCH  26  28
HETATM   28  O   UNL     1      -8.435  10.630  69.004  1.00  0.00    -0.143 OA 
HETATM   29  C   UNL     1      -9.649  10.171  69.597  1.00  0.00    -0.210 C  
ENDBRANCH  26  28
ENDBRANCH  25  26
ENDBRANCH  24  25
ENDBRANCH  23  24
ENDBRANCH  22  23
ENDBRANCH  21  22
ENDBRANCH  20  21
ENDBRANCH  19  20
ENDBRANCH  11  12
ENDBRANCH   8  10
ENDBRANCH   3   4
ENDBRANCH   2   3
TORSDOF 12
ENDMDL
MODEL      170
REMARK 921   NORMALIZED FREE ENERGY PREDICTED BY IDOCK:   -3.73 KCAL/MOL
REMARK 922        TOTAL FREE ENERGY PREDICTED BY IDOCK:   -8.38 KCAL/MOL
REMARK 923 INTER-LIGAND FREE ENERGY PREDICTED BY IDOCK:   -6.67 KCAL/MOL
REMARK 924 INTRA-LIGAND FREE ENERGY PREDICTED BY IDOCK:   -1.72 KCAL/MOL
REMARK 927      BINDING AFFINITY PREDICTED BY RF-SCORE:    0.00 PKD
ROOT
HETATM    1  C   UNL     1      -9.463  11.663  65.796  1.00  0.00    -0.244 C  
HETATM    2  C   UNL     1      -9.978  12.632  66.852  1.00  0.00    -0.232 C  
ENDROOT
BRANCH   2   3
HETATM    3  C   UNL     1     -11.422  12.300  67.215  1.00  0.00    -0.426 C  
BRANCH   3   4
HETATM    4  C   UNL     1     -11.779  12.724  68.646  1.00  0.00    -0.360 C  
HETATM    5  C   UNL     1     -11.977  11.524  69.603  1.00  0.00    -0.339 C  
HETATM    6  O   UNL     1     -13.083  10.751  69.116  1.00  0.00    -0.299 OA 
HETATM    7  C   UNL     1     -12.335  12.033  71.007  1.00  0.00    -0.340 C  
HETATM    8  C   UNL     1     -10.708  10.634  69.623  1.00  0.00    -0.290 C  
HETATM    9  H   UNL     1     -13.206  10.015  69.704  1.00  0.00     0.000 HD 
BRANCH   8  10
HETATM   10  C   UNL     1     -10.699   9.521  70.632  1.00  0.00    -0.375 C  
HETATM   11  C   UNL     1      -9.799   8.523  70.648  1.00  0.00    -0.218 C  
BRANCH  11  12
HETATM   12  C   UNL     1      -9.745   7.386  71.635  1.00  0.00    -0.169 C  
HETATM   13  C   UNL     1      -9.873   7.909  73.076  1.00  0.00    -0.289 C  
HETATM   14  C   UNL     1     -10.284   6.706  73.904  1.00  0.00    -0.379 C  
HETATM   15  O   UNL     1      -8.648   8.447  73.559  1.00  0.00    -0.304 OA 
HETATM   16  H   UNL     1      -8.727   8.770  74.449  1.00  0.00     0.000 HD 
HETATM   17  C   UNL     1     -11.098   5.918  72.927  1.00  0.00    -0.269 C  
HETATM   18  O   UNL     1     -11.894   5.055  73.279  1.00  0.00    -0.245 OA 
HETATM   19  C   UNL     1     -10.851   6.315  71.485  1.00  0.00    -0.303 C  
BRANCH  19  20
HETATM   20  C   UNL     1     -10.391   5.166  70.580  1.00  0.00    -0.305 C  
BRANCH  20  21
HETATM   21  C   UNL     1      -8.943   4.756  70.855  1.00  0.00    -0.160 C  
BRANCH  21  22
HETATM   22  C   UNL     1      -8.249   4.235  69.601  1.00  0.00    -0.066 C  
BRANCH  22  23
HETATM   23  C   UNL     1      -9.217   3.395  68.765  1.00  0.00    -0.229 C  
BRANCH  23  24
HETATM   24  C   UNL     1      -8.794   3.386  67.300  1.00  0.00    -0.152 C  
BRANCH  24  25
HETATM   25  C   UNL     1      -9.565   4.415  66.477  1.00  0.00    -0.209 C  
BRANCH  25  26
HETATM   26  C   UNL     1      -8.678   5.582  66.110  1.00  0.00    -0.133 C  
HETATM   27  O   UNL     1      -7.462   5.542  66.020  1.00  0.00    -0.080 OA 
BRANCH  26  28
HETATM   28  O   UNL     1      -9.438   6.690  65.891  1.00  0.00    -0.014 OA 
HETATM   29  C   UNL     1     -10.122   7.146  67.059  1.00  0.00    -0.238 C  
ENDBRANCH  26  28
ENDBRANCH  25  26
ENDBRANCH  24  25
ENDBRANCH  23  24
ENDBRANCH  22  23
ENDBRANCH  21  22
ENDBRANCH  20  21
ENDBRANCH  19  20
ENDBRANCH  11  12
ENDBRANCH   8  10
ENDBRANCH   3   4
ENDBRANCH   2   3
TORSDOF 12
ENDMDL
MODEL      171
REMARK 921   NORMALIZED FREE ENERGY PREDICTED BY IDOCK:   -3.72 KCAL/MOL
REMARK 922        TOTAL FREE ENERGY PREDICTED BY IDOCK:   -8.37 KCAL/MOL
REMARK 923 INTER-LIGAND FREE ENERGY PREDICTED BY IDOCK:   -7.41 KCAL/MOL
REMARK 924 INTRA-LIGAND FREE ENERGY PREDICTED BY IDOCK:   -0.97 KCAL/MOL
REMARK 927      BINDING AFFINITY PREDICTED BY RF-SCORE:    0.00 PKD
ROOT
HETATM    1  C   UNL     1     -10.323  14.497  64.849  1.00  0.00    -0.401 C  
HETATM    2  C   UNL     1     -11.256  14.408  66.049  1.00  0.00    -0.333 C  
ENDROOT
BRANCH   2   3
HETATM    3  C   UNL     1     -10.490  13.945  67.283  1.00  0.00    -0.271 C  
BRANCH   3   4
HETATM    4  C   UNL     1      -9.314  13.023  66.931  1.00  0.00    -0.241 C  
HETATM    5  C   UNL     1      -9.491  11.581  67.465  1.00  0.00    -0.169 C  
HETATM    6  O   UNL     1      -9.548  11.646  68.897  1.00  0.00    -0.378 OA 
HETATM    7  C   UNL     1      -8.273  10.730  67.075  1.00  0.00    -0.126 C  
HETATM    8  C   UNL     1     -10.811  10.968  66.934  1.00  0.00    -0.324 C  
HETATM    9  H   UNL     1      -9.656  10.761  69.224  1.00  0.00     0.000 HD 
BRANCH   8  10
HETATM   10  C   UNL     1     -11.035   9.514  67.240  1.00  0.00    -0.062 C  
HETATM   11  C   UNL     1     -10.112   8.708  67.792  1.00  0.00    -0.266 C  
BRANCH  11  12
HETATM   12  C   UNL     1     -10.286   7.247  68.120  1.00  0.00    -0.222 C  
HETATM   13  C   UNL     1      -9.350   6.381  67.260  1.00  0.00    -0.119 C  
HETATM   14  C   UNL     1      -9.256   5.052  67.984  1.00  0.00    -0.139 C  
HETATM   15  O   UNL     1      -9.858   6.193  65.944  1.00  0.00    -0.385 OA 
HETATM   16  H   UNL     1      -9.279   5.658  65.412  1.00  0.00     0.000 HD 
HETATM   17  C   UNL     1      -9.390   5.465  69.415  1.00  0.00    -0.124 C  
HETATM   18  O   UNL     1      -9.031   4.750  70.343  1.00  0.00    -0.099 OA 
HETATM   19  C   UNL     1      -9.986   6.849  69.584  1.00  0.00    -0.179 C  
BRANCH  19  20
HETATM   20  C   UNL     1     -11.257   6.892  70.441  1.00  0.00    -0.359 C  
BRANCH  20  21
HETATM   21  C   UNL     1     -10.969   7.308  71.884  1.00  0.00    -0.260 C  
BRANCH  21  22
HETATM   22  C   UNL     1     -11.586   8.660  72.224  1.00  0.00    -0.424 C  
BRANCH  22  23
HETATM   23  C   UNL     1     -11.767   9.498  70.956  1.00  0.00    -0.419 C  
BRANCH  23  24
HETATM   24  C   UNL     1     -13.077  10.275  71.008  1.00  0.00    -0.458 C  
BRANCH  24  25
HETATM   25  C   UNL     1     -12.917  11.618  71.714  1.00  0.00    -0.483 C  
BRANCH  25  26
HETATM   26  C   UNL     1     -12.633  12.719  70.719  1.00  0.00    -0.225 C  
HETATM   27  O   UNL     1     -12.053  12.574  69.655  1.00  0.00    -0.279 OA 
BRANCH  26  28
HETATM   28  O   UNL     1     -13.122  13.901  71.183  1.00  0.00    -0.323 OA 
HETATM   29  C   UNL     1     -12.112  14.891  71.380  1.00  0.00    -0.337 C  
ENDBRANCH  26  28
ENDBRANCH  25  26
ENDBRANCH  24  25
ENDBRANCH  23  24
ENDBRANCH  22  23
ENDBRANCH  21  22
ENDBRANCH  20  21
ENDBRANCH  19  20
ENDBRANCH  11  12
ENDBRANCH   8  10
ENDBRANCH   3   4
ENDBRANCH   2   3
TORSDOF 12
ENDMDL
MODEL      172
REMARK 921   NORMALIZED FREE ENERGY PREDICTED BY IDOCK:   -3.69 KCAL/MOL
REMARK 922        TOTAL FREE ENERGY PREDICTED BY IDOCK:   -8.32 KCAL/MOL
REMARK 923 INTER-LIGAND FREE ENERGY PREDICTED BY IDOCK:   -6.94 KCAL/MOL
REMARK 924 INTRA-LIGAND FREE ENERGY PREDICTED BY IDOCK:   -1.38 KCAL/MOL
REMARK 927      BINDING AFFINITY PREDICTED BY RF-SCORE:    0.00 PKD
ROOT
HETATM    1  C   UNL     1      -5.209  17.997  67.339  1.00  0.00    -0.144 C  
HETATM    2  C   UNL     1      -6.196  18.963  67.979  1.00  0.00    -0.224 C  
ENDROOT
BRANCH   2   3
HETATM    3  C   UNL     1      -7.366  18.198  68.589  1.00  0.00    -0.295 C  
BRANCH   3   4
HETATM    4  C   UNL     1      -8.713  18.595  67.968  1.00  0.00    -0.325 C  
HETATM    5  C   UNL     1      -9.155  17.653  66.823  1.00  0.00    -0.260 C  
HETATM    6  O   UNL     1      -8.178  17.744  65.776  1.00  0.00    -0.538 OA 
HETATM    7  C   UNL     1     -10.503  18.122  66.257  1.00  0.00    -0.374 C  
HETATM    8  C   UNL     1      -9.223  16.188  67.325  1.00  0.00    -0.218 C  
HETATM    9  H   UNL     1      -8.449  17.167  65.073  1.00  0.00     0.000 HD 
BRANCH   8  10
HETATM   10  C   UNL     1      -9.794  15.186  66.362  1.00  0.00    -0.300 C  
HETATM   11  C   UNL     1     -10.704  14.255  66.692  1.00  0.00    -0.290 C  
BRANCH  11  12
HETATM   12  C   UNL     1     -11.308  13.230  65.766  1.00  0.00    -0.328 C  
HETATM   13  C   UNL     1     -11.758  13.884  64.449  1.00  0.00    -0.404 C  
HETATM   14  C   UNL     1     -11.884  12.743  63.458  1.00  0.00    -0.618 C  
HETATM   15  O   UNL     1     -13.004  14.558  64.587  1.00  0.00    -0.550 OA 
HETATM   16  H   UNL     1     -13.282  14.962  63.774  1.00  0.00     0.000 HD 
HETATM   17  C   UNL     1     -10.821  11.801  63.928  1.00  0.00    -0.404 C  
HETATM   18  O   UNL     1     -10.358  10.920  63.213  1.00  0.00    -0.325 OA 
HETATM   19  C   UNL     1     -10.373  12.069  65.351  1.00  0.00    -0.301 C  
BRANCH  19  20
HETATM   20  C   UNL     1     -10.521  10.873  66.299  1.00  0.00    -0.304 C  
BRANCH  20  21
HETATM   21  C   UNL     1      -9.295  10.688  67.194  1.00  0.00    -0.172 C  
BRANCH  21  22
HETATM   22  C   UNL     1      -8.012  11.148  66.510  1.00  0.00    -0.158 C  
BRANCH  22  23
HETATM   23  C   UNL     1      -6.790  10.538  67.201  1.00  0.00    -0.084 C  
BRANCH  23  24
HETATM   24  C   UNL     1      -6.039   9.616  66.248  1.00  0.00    -0.064 C  
BRANCH  24  25
HETATM   25  C   UNL     1      -6.441   8.155  66.431  1.00  0.00    -0.051 C  
BRANCH  25  26
HETATM   26  C   UNL     1      -6.130   7.352  65.190  1.00  0.00    -0.038 C  
HETATM   27  O   UNL     1      -5.601   6.253  65.175  1.00  0.00    -0.020 OA 
BRANCH  26  28
HETATM   28  O   UNL     1      -6.530   8.037  64.083  1.00  0.00    -0.060 OA 
HETATM   29  C   UNL     1      -7.388   7.279  63.230  1.00  0.00    -0.086 C  
ENDBRANCH  26  28
ENDBRANCH  25  26
ENDBRANCH  24  25
ENDBRANCH  23  24
ENDBRANCH  22  23
ENDBRANCH  21  22
ENDBRANCH  20  21
ENDBRANCH  19  20
ENDBRANCH  11  12
ENDBRANCH   8  10
ENDBRANCH   3   4
ENDBRANCH   2   3
TORSDOF 12
ENDMDL
MODEL      173
REMARK 921   NORMALIZED FREE ENERGY PREDICTED BY IDOCK:   -3.66 KCAL/MOL
REMARK 922        TOTAL FREE ENERGY PREDICTED BY IDOCK:   -8.27 KCAL/MOL
REMARK 923 INTER-LIGAND FREE ENERGY PREDICTED BY IDOCK:   -7.54 KCAL/MOL
REMARK 924 INTRA-LIGAND FREE ENERGY PREDICTED BY IDOCK:   -0.72 KCAL/MOL
REMARK 927      BINDING AFFINITY PREDICTED BY RF-SCORE:    0.00 PKD
ROOT
HETATM    1  C   UNL     1      -5.704  19.202  67.155  1.00  0.00    -0.170 C  
HETATM    2  C   UNL     1      -6.616  19.950  68.119  1.00  0.00    -0.302 C  
ENDROOT
BRANCH   2   3
HETATM    3  C   UNL     1      -7.757  19.047  68.576  1.00  0.00    -0.368 C  
BRANCH   3   4
HETATM    4  C   UNL     1      -9.084  19.382  67.882  1.00  0.00    -0.377 C  
HETATM    5  C   UNL     1      -9.477  18.356  66.792  1.00  0.00    -0.297 C  
HETATM    6  O   UNL     1      -8.464  18.384  65.776  1.00  0.00    -0.468 OA 
HETATM    7  C   UNL     1     -10.808  18.768  66.147  1.00  0.00    -0.160 C  
HETATM    8  C   UNL     1      -9.549  16.930  67.395  1.00  0.00    -0.241 C  
HETATM    9  H   UNL     1      -8.705  17.755  65.107  1.00  0.00     0.000 HD 
BRANCH   8  10
HETATM   10  C   UNL     1     -10.076  15.855  66.487  1.00  0.00    -0.293 C  
HETATM   11  C   UNL     1     -11.146  15.091  66.763  1.00  0.00    -0.326 C  
BRANCH  11  12
HETATM   12  C   UNL     1     -11.714  14.003  65.888  1.00  0.00    -0.373 C  
HETATM   13  C   UNL     1     -11.537  14.351  64.401  1.00  0.00    -0.334 C  
HETATM   14  C   UNL     1     -11.686  13.036  63.661  1.00  0.00    -0.550 C  
HETATM   15  O   UNL     1     -12.513  15.284  63.952  1.00  0.00    -0.964 OA 
HETATM   16  H   UNL     1     -12.404  15.500  63.033  1.00  0.00     0.000 HD 
HETATM   17  C   UNL     1     -11.136  12.057  64.649  1.00  0.00    -0.322 C  
HETATM   18  O   UNL     1     -10.757  10.937  64.326  1.00  0.00    -0.353 OA 
HETATM   19  C   UNL     1     -11.079  12.603  66.062  1.00  0.00    -0.321 C  
BRANCH  19  20
HETATM   20  C   UNL     1     -11.846  11.771  67.096  1.00  0.00    -0.157 C  
BRANCH  20  21
HETATM   21  C   UNL     1     -10.914  10.945  67.984  1.00  0.00    -0.317 C  
BRANCH  21  22
HETATM   22  C   UNL     1     -10.393   9.704  67.267  1.00  0.00    -0.310 C  
BRANCH  22  23
HETATM   23  C   UNL     1      -8.869   9.762  67.140  1.00  0.00    -0.141 C  
BRANCH  23  24
HETATM   24  C   UNL     1      -8.235   8.487  67.687  1.00  0.00    -0.118 C  
BRANCH  24  25
HETATM   25  C   UNL     1      -6.875   8.754  68.325  1.00  0.00    -0.066 C  
BRANCH  25  26
HETATM   26  C   UNL     1      -6.138   9.844  67.583  1.00  0.00    -0.054 C  
HETATM   27  O   UNL     1      -5.875   9.832  66.391  1.00  0.00    -0.052 OA 
BRANCH  26  28
HETATM   28  O   UNL     1      -5.808  10.848  68.440  1.00  0.00    -0.044 OA 
HETATM   29  C   UNL     1      -6.685  11.971  68.359  1.00  0.00    -0.065 C  
ENDBRANCH  26  28
ENDBRANCH  25  26
ENDBRANCH  24  25
ENDBRANCH  23  24
ENDBRANCH  22  23
ENDBRANCH  21  22
ENDBRANCH  20  21
ENDBRANCH  19  20
ENDBRANCH  11  12
ENDBRANCH   8  10
ENDBRANCH   3   4
ENDBRANCH   2   3
TORSDOF 12
ENDMDL
MODEL      174
REMARK 921   NORMALIZED FREE ENERGY PREDICTED BY IDOCK:   -3.65 KCAL/MOL
REMARK 922        TOTAL FREE ENERGY PREDICTED BY IDOCK:   -8.25 KCAL/MOL
REMARK 923 INTER-LIGAND FREE ENERGY PREDICTED BY IDOCK:   -6.57 KCAL/MOL
REMARK 924 INTRA-LIGAND FREE ENERGY PREDICTED BY IDOCK:   -1.68 KCAL/MOL
REMARK 927      BINDING AFFINITY PREDICTED BY RF-SCORE:    0.00 PKD
ROOT
HETATM    1  C   UNL     1     -11.173  15.130  66.247  1.00  0.00    -0.273 C  
HETATM    2  C   UNL     1      -9.657  15.180  66.370  1.00  0.00    -0.309 C  
ENDROOT
BRANCH   2   3
HETATM    3  C   UNL     1      -9.123  13.844  66.878  1.00  0.00    -0.257 C  
BRANCH   3   4
HETATM    4  C   UNL     1      -9.820  12.645  66.221  1.00  0.00    -0.266 C  
HETATM    5  C   UNL     1      -9.435  11.291  66.863  1.00  0.00    -0.177 C  
HETATM    6  O   UNL     1      -8.027  11.099  66.676  1.00  0.00    -0.149 OA 
HETATM    7  C   UNL     1     -10.170  10.149  66.146  1.00  0.00    -0.285 C  
HETATM    8  C   UNL     1      -9.747  11.307  68.382  1.00  0.00    -0.194 C  
HETATM    9  H   UNL     1      -7.790  10.268  67.070  1.00  0.00     0.000 HD 
BRANCH   8  10
HETATM   10  C   UNL     1      -9.574  10.001  69.105  1.00  0.00    -0.217 C  
HETATM   11  C   UNL     1     -10.386   9.567  70.083  1.00  0.00    -0.300 C  
BRANCH  11  12
HETATM   12  C   UNL     1     -10.257   8.268  70.838  1.00  0.00    -0.224 C  
HETATM   13  C   UNL     1      -9.955   8.529  72.323  1.00  0.00    -0.315 C  
HETATM   14  C   UNL     1     -10.320   7.242  73.038  1.00  0.00    -0.334 C  
HETATM   15  O   UNL     1      -8.584   8.844  72.541  1.00  0.00    -0.396 OA 
HETATM   16  H   UNL     1      -8.397   9.006  73.458  1.00  0.00     0.000 HD 
HETATM   17  C   UNL     1     -11.451   6.732  72.204  1.00  0.00    -0.282 C  
HETATM   18  O   UNL     1     -12.253   5.902  72.618  1.00  0.00    -0.147 OA 
HETATM   19  C   UNL     1     -11.508   7.359  70.825  1.00  0.00    -0.313 C  
BRANCH  19  20
HETATM   20  C   UNL     1     -11.452   6.355  69.668  1.00  0.00    -0.446 C  
BRANCH  20  21
HETATM   21  C   UNL     1     -10.141   5.567  69.647  1.00  0.00    -0.309 C  
BRANCH  21  22
HETATM   22  C   UNL     1      -9.720   5.195  68.229  1.00  0.00    -0.191 C  
BRANCH  22  23
HETATM   23  C   UNL     1     -10.546   5.977  67.205  1.00  0.00    -0.374 C  
BRANCH  23  24
HETATM   24  C   UNL     1     -10.778   5.141  65.951  1.00  0.00    -0.130 C  
BRANCH  24  25
HETATM   25  C   UNL     1      -9.643   4.151  65.706  1.00  0.00    -0.190 C  
BRANCH  25  26
HETATM   26  C   UNL     1      -8.827   4.556  64.502  1.00  0.00    -0.151 C  
HETATM   27  O   UNL     1      -8.301   5.646  64.341  1.00  0.00    -0.131 OA 
BRANCH  26  28
HETATM   28  O   UNL     1      -8.761   3.524  63.618  1.00  0.00    -0.093 OA 
HETATM   29  C   UNL     1      -9.214   2.284  64.162  1.00  0.00    -0.117 C  
ENDBRANCH  26  28
ENDBRANCH  25  26
ENDBRANCH  24  25
ENDBRANCH  23  24
ENDBRANCH  22  23
ENDBRANCH  21  22
ENDBRANCH  20  21
ENDBRANCH  19  20
ENDBRANCH  11  12
ENDBRANCH   8  10
ENDBRANCH   3   4
ENDBRANCH   2   3
TORSDOF 12
ENDMDL
MODEL      175
REMARK 921   NORMALIZED FREE ENERGY PREDICTED BY IDOCK:   -3.64 KCAL/MOL
REMARK 922        TOTAL FREE ENERGY PREDICTED BY IDOCK:   -8.23 KCAL/MOL
REMARK 923 INTER-LIGAND FREE ENERGY PREDICTED BY IDOCK:   -5.92 KCAL/MOL
REMARK 924 INTRA-LIGAND FREE ENERGY PREDICTED BY IDOCK:   -2.31 KCAL/MOL
REMARK 927      BINDING AFFINITY PREDICTED BY RF-SCORE:    0.00 PKD
ROOT
HETATM    1  C   UNL     1     -10.959  12.700  63.760  1.00  0.00    -0.481 C  
HETATM    2  C   UNL     1     -12.258  13.453  64.015  1.00  0.00    -0.466 C  
ENDROOT
BRANCH   2   3
HETATM    3  C   UNL     1     -12.472  13.648  65.513  1.00  0.00    -0.544 C  
BRANCH   3   4
HETATM    4  C   UNL     1     -11.153  13.844  66.273  1.00  0.00    -0.304 C  
HETATM    5  C   UNL     1     -11.008  12.901  67.492  1.00  0.00    -0.255 C  
HETATM    6  O   UNL     1     -12.063  13.208  68.414  1.00  0.00    -0.318 OA 
HETATM    7  C   UNL     1      -9.669  13.166  68.196  1.00  0.00    -0.228 C  
HETATM    8  C   UNL     1     -11.139  11.422  67.048  1.00  0.00    -0.364 C  
HETATM    9  H   UNL     1     -11.974  12.630  69.162  1.00  0.00     0.000 HD 
BRANCH   8  10
HETATM   10  C   UNL     1     -10.858  10.389  68.102  1.00  0.00    -0.311 C  
HETATM   11  C   UNL     1     -10.409   9.149  67.844  1.00  0.00    -0.285 C  
BRANCH  11  12
HETATM   12  C   UNL     1     -10.112   8.078  68.862  1.00  0.00    -0.209 C  
HETATM   13  C   UNL     1     -10.377   6.681  68.276  1.00  0.00    -0.190 C  
HETATM   14  C   UNL     1      -9.613   5.721  69.169  1.00  0.00    -0.171 C  
HETATM   15  O   UNL     1     -11.763   6.358  68.275  1.00  0.00    -0.457 OA 
HETATM   16  H   UNL     1     -11.927   5.495  67.913  1.00  0.00     0.000 HD 
HETATM   17  C   UNL     1      -8.441   6.550  69.588  1.00  0.00    -0.131 C  
HETATM   18  O   UNL     1      -7.410   6.056  70.031  1.00  0.00    -0.071 OA 
HETATM   19  C   UNL     1      -8.657   8.037  69.386  1.00  0.00    -0.136 C  
BRANCH  19  20
HETATM   20  C   UNL     1      -8.501   8.880  70.656  1.00  0.00    -0.211 C  
BRANCH  20  21
HETATM   21  C   UNL     1      -7.083   9.431  70.816  1.00  0.00    -0.119 C  
BRANCH  21  22
HETATM   22  C   UNL     1      -6.380   9.598  69.473  1.00  0.00    -0.044 C  
BRANCH  22  23
HETATM   23  C   UNL     1      -6.786  10.922  68.819  1.00  0.00    -0.070 C  
BRANCH  23  24
HETATM   24  C   UNL     1      -6.313  10.973  67.371  1.00  0.00    -0.063 C  
BRANCH  24  25
HETATM   25  C   UNL     1      -7.354  10.404  66.410  1.00  0.00    -0.120 C  
BRANCH  25  26
HETATM   26  C   UNL     1      -6.691   9.813  65.189  1.00  0.00    -0.101 C  
HETATM   27  O   UNL     1      -6.034  10.437  64.371  1.00  0.00    -0.138 OA 
BRANCH  26  28
HETATM   28  O   UNL     1      -6.932   8.475  65.132  1.00  0.00    -0.073 OA 
HETATM   29  C   UNL     1      -6.434   7.860  63.943  1.00  0.00    -0.062 C  
ENDBRANCH  26  28
ENDBRANCH  25  26
ENDBRANCH  24  25
ENDBRANCH  23  24
ENDBRANCH  22  23
ENDBRANCH  21  22
ENDBRANCH  20  21
ENDBRANCH  19  20
ENDBRANCH  11  12
ENDBRANCH   8  10
ENDBRANCH   3   4
ENDBRANCH   2   3
TORSDOF 12
ENDMDL
MODEL      176
REMARK 921   NORMALIZED FREE ENERGY PREDICTED BY IDOCK:   -3.63 KCAL/MOL
REMARK 922        TOTAL FREE ENERGY PREDICTED BY IDOCK:   -8.22 KCAL/MOL
REMARK 923 INTER-LIGAND FREE ENERGY PREDICTED BY IDOCK:   -7.00 KCAL/MOL
REMARK 924 INTRA-LIGAND FREE ENERGY PREDICTED BY IDOCK:   -1.22 KCAL/MOL
REMARK 927      BINDING AFFINITY PREDICTED BY RF-SCORE:    0.00 PKD
ROOT
HETATM    1  C   UNL     1      -5.140  17.877  67.219  1.00  0.00    -0.144 C  
HETATM    2  C   UNL     1      -6.011  18.951  67.856  1.00  0.00    -0.201 C  
ENDROOT
BRANCH   2   3
HETATM    3  C   UNL     1      -7.245  18.322  68.494  1.00  0.00    -0.293 C  
BRANCH   3   4
HETATM    4  C   UNL     1      -8.553  18.854  67.893  1.00  0.00    -0.323 C  
HETATM    5  C   UNL     1      -9.095  17.973  66.742  1.00  0.00    -0.273 C  
HETATM    6  O   UNL     1      -8.125  17.982  65.686  1.00  0.00    -0.500 OA 
HETATM    7  C   UNL     1     -10.397  18.577  66.195  1.00  0.00    -0.457 C  
HETATM    8  C   UNL     1      -9.300  16.516  67.229  1.00  0.00    -0.227 C  
HETATM    9  H   UNL     1      -8.458  17.442  64.979  1.00  0.00     0.000 HD 
BRANCH   8  10
HETATM   10  C   UNL     1      -9.975  15.585  66.261  1.00  0.00    -0.313 C  
HETATM   11  C   UNL     1     -10.980  14.755  66.587  1.00  0.00    -0.326 C  
BRANCH  11  12
HETATM   12  C   UNL     1     -11.690  13.805  65.657  1.00  0.00    -0.360 C  
HETATM   13  C   UNL     1     -11.978  14.480  64.305  1.00  0.00    -0.397 C  
HETATM   14  C   UNL     1     -12.231  13.342  63.335  1.00  0.00    -0.476 C  
HETATM   15  O   UNL     1     -13.113  15.337  64.369  1.00  0.00    -0.122 OA 
HETATM   16  H   UNL     1     -13.291  15.754  63.534  1.00  0.00     0.000 HD 
HETATM   17  C   UNL     1     -11.343  12.266  63.878  1.00  0.00    -0.429 C  
HETATM   18  O   UNL     1     -10.988  11.305  63.206  1.00  0.00    -0.301 OA 
HETATM   19  C   UNL     1     -10.923  12.506  65.314  1.00  0.00    -0.329 C  
BRANCH  19  20
HETATM   20  C   UNL     1     -11.291  11.374  66.281  1.00  0.00    -0.140 C  
BRANCH  20  21
HETATM   21  C   UNL     1     -10.060  10.757  66.946  1.00  0.00    -0.255 C  
BRANCH  21  22
HETATM   22  C   UNL     1      -8.866  10.701  66.000  1.00  0.00    -0.187 C  
BRANCH  22  23
HETATM   23  C   UNL     1      -7.873   9.630  66.457  1.00  0.00    -0.108 C  
BRANCH  23  24
HETATM   24  C   UNL     1      -8.608   8.429  67.041  1.00  0.00    -0.124 C  
BRANCH  24  25
HETATM   25  C   UNL     1      -7.796   7.738  68.133  1.00  0.00    -0.121 C  
BRANCH  25  26
HETATM   26  C   UNL     1      -8.681   6.857  68.984  1.00  0.00    -0.131 C  
HETATM   27  O   UNL     1      -8.373   5.758  69.418  1.00  0.00    -0.109 OA 
BRANCH  26  28
HETATM   28  O   UNL     1      -9.876   7.471  69.200  1.00  0.00    -0.165 OA 
HETATM   29  C   UNL     1     -10.070   7.868  70.557  1.00  0.00    -0.192 C  
ENDBRANCH  26  28
ENDBRANCH  25  26
ENDBRANCH  24  25
ENDBRANCH  23  24
ENDBRANCH  22  23
ENDBRANCH  21  22
ENDBRANCH  20  21
ENDBRANCH  19  20
ENDBRANCH  11  12
ENDBRANCH   8  10
ENDBRANCH   3   4
ENDBRANCH   2   3
TORSDOF 12
ENDMDL
MODEL      177
REMARK 921   NORMALIZED FREE ENERGY PREDICTED BY IDOCK:   -3.62 KCAL/MOL
REMARK 922        TOTAL FREE ENERGY PREDICTED BY IDOCK:   -8.21 KCAL/MOL
REMARK 923 INTER-LIGAND FREE ENERGY PREDICTED BY IDOCK:   -6.79 KCAL/MOL
REMARK 924 INTRA-LIGAND FREE ENERGY PREDICTED BY IDOCK:   -1.41 KCAL/MOL
REMARK 927      BINDING AFFINITY PREDICTED BY RF-SCORE:    0.00 PKD
ROOT
HETATM    1  C   UNL     1      -5.966   3.171  66.937  1.00  0.00    -0.024 C  
HETATM    2  C   UNL     1      -6.804   4.101  66.071  1.00  0.00    -0.057 C  
ENDROOT
BRANCH   2   3
HETATM    3  C   UNL     1      -7.390   5.226  66.917  1.00  0.00    -0.086 C  
BRANCH   3   4
HETATM    4  C   UNL     1      -7.466   6.555  66.153  1.00  0.00    -0.081 C  
HETATM    5  C   UNL     1      -8.817   7.287  66.339  1.00  0.00    -0.149 C  
HETATM    6  O   UNL     1      -9.849   6.448  65.804  1.00  0.00    -0.367 OA 
HETATM    7  C   UNL     1      -8.810   8.599  65.541  1.00  0.00    -0.220 C  
HETATM    8  C   UNL     1      -9.094   7.534  67.844  1.00  0.00    -0.130 C  
HETATM    9  H   UNL     1     -10.678   6.897  65.917  1.00  0.00     0.000 HD 
BRANCH   8  10
HETATM   10  C   UNL     1     -10.295   8.379  68.164  1.00  0.00    -0.255 C  
HETATM   11  C   UNL     1     -10.347   9.266  69.172  1.00  0.00    -0.222 C  
BRANCH  11  12
HETATM   12  C   UNL     1     -11.523  10.136  69.534  1.00  0.00    -0.227 C  
HETATM   13  C   UNL     1     -11.851  10.013  71.031  1.00  0.00    -0.386 C  
HETATM   14  C   UNL     1     -12.683  11.238  71.361  1.00  0.00    -0.501 C  
HETATM   15  O   UNL     1     -12.582   8.827  71.322  1.00  0.00    -0.364 OA 
HETATM   16  H   UNL     1     -12.784   8.750  72.247  1.00  0.00     0.000 HD 
HETATM   17  C   UNL     1     -12.121  12.258  70.423  1.00  0.00    -0.300 C  
HETATM   18  O   UNL     1     -12.271  13.463  70.594  1.00  0.00    -0.356 OA 
HETATM   19  C   UNL     1     -11.342  11.650  69.274  1.00  0.00    -0.353 C  
BRANCH  19  20
HETATM   20  C   UNL     1     -11.854  12.039  67.882  1.00  0.00    -0.320 C  
BRANCH  20  21
HETATM   21  C   UNL     1     -10.772  12.704  67.031  1.00  0.00    -0.268 C  
BRANCH  21  22
HETATM   22  C   UNL     1     -10.616  14.185  67.359  1.00  0.00    -0.279 C  
BRANCH  22  23
HETATM   23  C   UNL     1      -9.155  14.508  67.684  1.00  0.00    -0.195 C  
BRANCH  23  24
HETATM   24  C   UNL     1      -9.052  15.257  69.007  1.00  0.00    -0.225 C  
BRANCH  24  25
HETATM   25  C   UNL     1      -8.325  16.590  68.854  1.00  0.00    -0.241 C  
BRANCH  25  26
HETATM   26  C   UNL     1      -9.209  17.610  68.176  1.00  0.00    -0.282 C  
HETATM   27  O   UNL     1     -10.414  17.717  68.339  1.00  0.00    -0.364 OA 
BRANCH  26  28
HETATM   28  O   UNL     1      -8.463  18.398  67.354  1.00  0.00    -0.249 OA 
HETATM   29  C   UNL     1      -7.680  17.656  66.418  1.00  0.00    -0.290 C  
ENDBRANCH  26  28
ENDBRANCH  25  26
ENDBRANCH  24  25
ENDBRANCH  23  24
ENDBRANCH  22  23
ENDBRANCH  21  22
ENDBRANCH  20  21
ENDBRANCH  19  20
ENDBRANCH  11  12
ENDBRANCH   8  10
ENDBRANCH   3   4
ENDBRANCH   2   3
TORSDOF 12
ENDMDL
MODEL      178
REMARK 921   NORMALIZED FREE ENERGY PREDICTED BY IDOCK:   -3.62 KCAL/MOL
REMARK 922        TOTAL FREE ENERGY PREDICTED BY IDOCK:   -8.20 KCAL/MOL
REMARK 923 INTER-LIGAND FREE ENERGY PREDICTED BY IDOCK:   -5.82 KCAL/MOL
REMARK 924 INTRA-LIGAND FREE ENERGY PREDICTED BY IDOCK:   -2.38 KCAL/MOL
REMARK 927      BINDING AFFINITY PREDICTED BY RF-SCORE:    0.00 PKD
ROOT
HETATM    1  C   UNL     1     -12.331  12.194  70.652  1.00  0.00    -0.385 C  
HETATM    2  C   UNL     1     -11.908  13.055  69.470  1.00  0.00    -0.385 C  
ENDROOT
BRANCH   2   3
HETATM    3  C   UNL     1     -11.936  12.238  68.182  1.00  0.00    -0.256 C  
BRANCH   3   4
HETATM    4  C   UNL     1     -10.646  12.386  67.365  1.00  0.00    -0.237 C  
HETATM    5  C   UNL     1      -9.735  11.137  67.436  1.00  0.00    -0.173 C  
HETATM    6  O   UNL     1      -9.337  10.959  68.802  1.00  0.00    -0.179 OA 
HETATM    7  C   UNL     1      -8.469  11.371  66.599  1.00  0.00    -0.171 C  
HETATM    8  C   UNL     1     -10.508   9.879  66.966  1.00  0.00    -0.296 C  
HETATM    9  H   UNL     1      -8.778  10.193  68.846  1.00  0.00     0.000 HD 
BRANCH   8  10
HETATM   10  C   UNL     1      -9.699   8.620  66.829  1.00  0.00    -0.298 C  
HETATM   11  C   UNL     1     -10.181   7.385  67.046  1.00  0.00    -0.357 C  
BRANCH  11  12
HETATM   12  C   UNL     1      -9.414   6.094  66.922  1.00  0.00    -0.151 C  
HETATM   13  C   UNL     1      -9.838   5.327  65.658  1.00  0.00     0.028 C  
HETATM   14  C   UNL     1      -8.713   4.346  65.388  1.00  0.00    -0.125 C  
HETATM   15  O   UNL     1     -11.066   4.632  65.843  1.00  0.00    -0.667 OA 
HETATM   16  H   UNL     1     -11.329   4.159  65.062  1.00  0.00     0.000 HD 
HETATM   17  C   UNL     1      -7.519   5.094  65.889  1.00  0.00    -0.082 C  
HETATM   18  O   UNL     1      -6.375   4.810  65.553  1.00  0.00    -0.033 OA 
HETATM   19  C   UNL     1      -7.876   6.234  66.822  1.00  0.00    -0.104 C  
BRANCH  19  20
HETATM   20  C   UNL     1      -7.221   6.152  68.206  1.00  0.00    -0.084 C  
BRANCH  20  21
HETATM   21  C   UNL     1      -8.229   5.810  69.305  1.00  0.00    -0.105 C  
BRANCH  21  22
HETATM   22  C   UNL     1      -7.896   6.504  70.621  1.00  0.00    -0.106 C  
BRANCH  22  23
HETATM   23  C   UNL     1      -7.751   8.012  70.407  1.00  0.00    -0.085 C  
BRANCH  23  24
HETATM   24  C   UNL     1      -8.642   8.781  71.377  1.00  0.00    -0.254 C  
BRANCH  24  25
HETATM   25  C   UNL     1      -9.808   7.932  71.877  1.00  0.00    -0.233 C  
BRANCH  25  26
HETATM   26  C   UNL     1     -11.039   8.158  71.032  1.00  0.00    -0.253 C  
HETATM   27  O   UNL     1     -11.174   9.047  70.206  1.00  0.00    -0.245 OA 
BRANCH  26  28
HETATM   28  O   UNL     1     -11.981   7.221  71.325  1.00  0.00    -0.294 OA 
HETATM   29  C   UNL     1     -11.451   6.075  71.991  1.00  0.00    -0.287 C  
ENDBRANCH  26  28
ENDBRANCH  25  26
ENDBRANCH  24  25
ENDBRANCH  23  24
ENDBRANCH  22  23
ENDBRANCH  21  22
ENDBRANCH  20  21
ENDBRANCH  19  20
ENDBRANCH  11  12
ENDBRANCH   8  10
ENDBRANCH   3   4
ENDBRANCH   2   3
TORSDOF 12
ENDMDL
MODEL      179
REMARK 921   NORMALIZED FREE ENERGY PREDICTED BY IDOCK:   -3.62 KCAL/MOL
REMARK 922        TOTAL FREE ENERGY PREDICTED BY IDOCK:   -8.20 KCAL/MOL
REMARK 923 INTER-LIGAND FREE ENERGY PREDICTED BY IDOCK:   -6.45 KCAL/MOL
REMARK 924 INTRA-LIGAND FREE ENERGY PREDICTED BY IDOCK:   -1.75 KCAL/MOL
REMARK 927      BINDING AFFINITY PREDICTED BY RF-SCORE:    0.00 PKD
ROOT
HETATM    1  C   UNL     1     -12.019  13.644  64.300  1.00  0.00    -0.488 C  
HETATM    2  C   UNL     1     -12.974  13.943  65.447  1.00  0.00    -0.368 C  
ENDROOT
BRANCH   2   3
HETATM    3  C   UNL     1     -12.199  14.126  66.747  1.00  0.00    -0.429 C  
BRANCH   3   4
HETATM    4  C   UNL     1     -10.696  13.864  66.577  1.00  0.00    -0.277 C  
HETATM    5  C   UNL     1     -10.187  12.671  67.421  1.00  0.00    -0.217 C  
HETATM    6  O   UNL     1     -10.393  12.991  68.804  1.00  0.00    -0.355 OA 
HETATM    7  C   UNL     1      -8.680  12.482  67.196  1.00  0.00    -0.200 C  
HETATM    8  C   UNL     1     -10.983  11.387  67.074  1.00  0.00    -0.347 C  
HETATM    9  H   UNL     1     -10.081  12.259  69.322  1.00  0.00     0.000 HD 
BRANCH   8  10
HETATM   10  C   UNL     1     -10.489  10.114  67.701  1.00  0.00    -0.293 C  
HETATM   11  C   UNL     1     -10.414   8.936  67.061  1.00  0.00    -0.326 C  
BRANCH  11  12
HETATM   12  C   UNL     1      -9.926   7.634  67.643  1.00  0.00    -0.225 C  
HETATM   13  C   UNL     1      -9.987   6.511  66.593  1.00  0.00    -0.143 C  
HETATM   14  C   UNL     1      -9.060   5.428  67.110  1.00  0.00    -0.111 C  
HETATM   15  O   UNL     1     -11.306   5.999  66.436  1.00  0.00    -0.732 OA 
HETATM   16  H   UNL     1     -11.344   5.306  65.787  1.00  0.00     0.000 HD 
HETATM   17  C   UNL     1      -8.019   6.226  67.830  1.00  0.00    -0.114 C  
HETATM   18  O   UNL     1      -6.912   5.773  68.100  1.00  0.00    -0.065 OA 
HETATM   19  C   UNL     1      -8.468   7.635  68.160  1.00  0.00    -0.124 C  
BRANCH  19  20
HETATM   20  C   UNL     1      -8.410   7.987  69.651  1.00  0.00    -0.126 C  
BRANCH  20  21
HETATM   21  C   UNL     1      -7.168   8.806  70.006  1.00  0.00    -0.052 C  
BRANCH  21  22
HETATM   22  C   UNL     1      -6.503   8.312  71.286  1.00  0.00    -0.046 C  
BRANCH  22  23
HETATM   23  C   UNL     1      -6.813   6.830  71.510  1.00  0.00    -0.066 C  
BRANCH  23  24
HETATM   24  C   UNL     1      -7.413   6.610  72.894  1.00  0.00    -0.088 C  
BRANCH  24  25
HETATM   25  C   UNL     1      -8.814   6.008  72.821  1.00  0.00    -0.123 C  
BRANCH  25  26
HETATM   26  C   UNL     1      -9.819   6.900  73.510  1.00  0.00    -0.242 C  
HETATM   27  O   UNL     1     -10.409   6.630  74.543  1.00  0.00    -0.328 OA 
BRANCH  26  28
HETATM   28  O   UNL     1      -9.969   8.057  72.808  1.00  0.00    -0.250 OA 
HETATM   29  C   UNL     1     -11.186   8.111  72.063  1.00  0.00    -0.310 C  
ENDBRANCH  26  28
ENDBRANCH  25  26
ENDBRANCH  24  25
ENDBRANCH  23  24
ENDBRANCH  22  23
ENDBRANCH  21  22
ENDBRANCH  20  21
ENDBRANCH  19  20
ENDBRANCH  11  12
ENDBRANCH   8  10
ENDBRANCH   3   4
ENDBRANCH   2   3
TORSDOF 12
ENDMDL
MODEL      180
REMARK 921   NORMALIZED FREE ENERGY PREDICTED BY IDOCK:   -3.61 KCAL/MOL
REMARK 922        TOTAL FREE ENERGY PREDICTED BY IDOCK:   -8.18 KCAL/MOL
REMARK 923 INTER-LIGAND FREE ENERGY PREDICTED BY IDOCK:   -6.24 KCAL/MOL
REMARK 924 INTRA-LIGAND FREE ENERGY PREDICTED BY IDOCK:   -1.94 KCAL/MOL
REMARK 927      BINDING AFFINITY PREDICTED BY RF-SCORE:    0.00 PKD
ROOT
HETATM    1  C   UNL     1     -10.031  17.811  68.039  1.00  0.00    -0.333 C  
HETATM    2  C   UNL     1      -9.865  16.765  66.946  1.00  0.00    -0.269 C  
ENDROOT
BRANCH   2   3
HETATM    3  C   UNL     1     -10.856  15.624  67.150  1.00  0.00    -0.297 C  
BRANCH   3   4
HETATM    4  C   UNL     1     -11.163  15.371  68.632  1.00  0.00    -0.312 C  
HETATM    5  C   UNL     1     -11.479  13.888  68.943  1.00  0.00    -0.301 C  
HETATM    6  O   UNL     1     -12.659  13.527  68.213  1.00  0.00    -0.094 OA 
HETATM    7  C   UNL     1     -11.778  13.725  70.440  1.00  0.00    -0.242 C  
HETATM    8  C   UNL     1     -10.306  12.981  68.491  1.00  0.00    -0.247 C  
HETATM    9  H   UNL     1     -12.853  12.617  68.403  1.00  0.00     0.000 HD 
BRANCH   8  10
HETATM   10  C   UNL     1     -10.406  11.532  68.877  1.00  0.00    -0.191 C  
HETATM   11  C   UNL     1      -9.352  10.705  68.985  1.00  0.00    -0.191 C  
BRANCH  11  12
HETATM   12  C   UNL     1      -9.398   9.249  69.369  1.00  0.00    -0.164 C  
HETATM   13  C   UNL     1      -9.524   9.090  70.894  1.00  0.00    -0.267 C  
HETATM   14  C   UNL     1     -10.033   7.678  71.109  1.00  0.00    -0.188 C  
HETATM   15  O   UNL     1      -8.276   9.272  71.553  1.00  0.00    -0.327 OA 
HETATM   16  H   UNL     1      -8.353   9.174  72.495  1.00  0.00     0.000 HD 
HETATM   17  C   UNL     1     -10.877   7.461  69.893  1.00  0.00    -0.246 C  
HETATM   18  O   UNL     1     -11.737   6.590  69.834  1.00  0.00    -0.406 OA 
HETATM   19  C   UNL     1     -10.570   8.435  68.772  1.00  0.00    -0.154 C  
BRANCH  19  20
HETATM   20  C   UNL     1     -10.168   7.774  67.448  1.00  0.00    -0.320 C  
BRANCH  20  21
HETATM   21  C   UNL     1      -8.675   7.925  67.154  1.00  0.00    -0.133 C  
BRANCH  21  22
HETATM   22  C   UNL     1      -8.351   7.657  65.689  1.00  0.00    -0.143 C  
BRANCH  22  23
HETATM   23  C   UNL     1      -8.771   8.847  64.823  1.00  0.00    -0.162 C  
BRANCH  23  24
HETATM   24  C   UNL     1      -8.640  10.151  65.601  1.00  0.00    -0.166 C  
BRANCH  24  25
HETATM   25  C   UNL     1      -9.282  11.323  64.864  1.00  0.00    -0.130 C  
BRANCH  25  26
HETATM   26  C   UNL     1     -10.774  11.352  65.097  1.00  0.00    -0.269 C  
HETATM   27  O   UNL     1     -11.365  10.726  65.962  1.00  0.00     0.101 OA 
BRANCH  26  28
HETATM   28  O   UNL     1     -11.367  12.183  64.197  1.00  0.00    -0.331 OA 
HETATM   29  C   UNL     1     -12.468  12.911  64.742  1.00  0.00    -0.455 C  
ENDBRANCH  26  28
ENDBRANCH  25  26
ENDBRANCH  24  25
ENDBRANCH  23  24
ENDBRANCH  22  23
ENDBRANCH  21  22
ENDBRANCH  20  21
ENDBRANCH  19  20
ENDBRANCH  11  12
ENDBRANCH   8  10
ENDBRANCH   3   4
ENDBRANCH   2   3
TORSDOF 12
ENDMDL
MODEL      181
REMARK 921   NORMALIZED FREE ENERGY PREDICTED BY IDOCK:   -3.60 KCAL/MOL
REMARK 922        TOTAL FREE ENERGY PREDICTED BY IDOCK:   -8.17 KCAL/MOL
REMARK 923 INTER-LIGAND FREE ENERGY PREDICTED BY IDOCK:   -7.45 KCAL/MOL
REMARK 924 INTRA-LIGAND FREE ENERGY PREDICTED BY IDOCK:   -0.72 KCAL/MOL
REMARK 927      BINDING AFFINITY PREDICTED BY RF-SCORE:    0.00 PKD
ROOT
HETATM    1  C   UNL     1     -10.569  18.823  66.970  1.00  0.00    -0.483 C  
HETATM    2  C   UNL     1     -10.118  18.092  68.227  1.00  0.00    -0.398 C  
ENDROOT
BRANCH   2   3
HETATM    3  C   UNL     1      -9.838  16.626  67.916  1.00  0.00    -0.248 C  
BRANCH   3   4
HETATM    4  C   UNL     1     -11.113  15.847  67.565  1.00  0.00    -0.235 C  
HETATM    5  C   UNL     1     -10.928  14.888  66.365  1.00  0.00    -0.336 C  
HETATM    6  O   UNL     1     -10.603  15.680  65.215  1.00  0.00    -0.377 OA 
HETATM    7  C   UNL     1     -12.247  14.154  66.079  1.00  0.00    -0.464 C  
HETATM    8  C   UNL     1      -9.770  13.895  66.640  1.00  0.00    -0.295 C  
HETATM    9  H   UNL     1     -10.490  15.092  64.478  1.00  0.00     0.000 HD 
BRANCH   8  10
HETATM   10  C   UNL     1      -9.583  12.801  65.627  1.00  0.00    -0.054 C  
HETATM   11  C   UNL     1     -10.011  11.538  65.792  1.00  0.00    -0.271 C  
BRANCH  11  12
HETATM   12  C   UNL     1      -9.849  10.407  64.809  1.00  0.00    -0.406 C  
HETATM   13  C   UNL     1      -9.801  10.940  63.368  1.00  0.00    -0.362 C  
HETATM   14  C   UNL     1      -9.173   9.828  62.550  1.00  0.00    -0.281 C  
HETATM   15  O   UNL     1     -11.098  11.248  62.869  1.00  0.00    -0.818 OA 
HETATM   16  H   UNL     1     -11.069  11.578  61.979  1.00  0.00     0.000 HD 
HETATM   17  C   UNL     1      -8.241   9.202  63.538  1.00  0.00    -0.178 C  
HETATM   18  O   UNL     1      -7.300   8.494  63.199  1.00  0.00    -0.097 OA 
HETATM   19  C   UNL     1      -8.571   9.552  64.976  1.00  0.00    -0.187 C  
BRANCH  19  20
HETATM   20  C   UNL     1      -8.827   8.342  65.882  1.00  0.00    -0.212 C  
BRANCH  20  21
HETATM   21  C   UNL     1     -10.125   8.480  66.679  1.00  0.00    -0.364 C  
BRANCH  21  22
HETATM   22  C   UNL     1     -10.680   7.125  67.106  1.00  0.00    -0.422 C  
BRANCH  22  23
HETATM   23  C   UNL     1      -9.601   6.046  66.989  1.00  0.00    -0.148 C  
BRANCH  23  24
HETATM   24  C   UNL     1     -10.224   4.698  66.645  1.00  0.00    -0.250 C  
BRANCH  24  25
HETATM   25  C   UNL     1     -10.562   4.587  65.161  1.00  0.00    -0.132 C  
BRANCH  25  26
HETATM   26  C   UNL     1      -9.366   4.110  64.371  1.00  0.00    -0.160 C  
HETATM   27  O   UNL     1      -9.389   3.751  63.205  1.00  0.00    -0.101 OA 
BRANCH  26  28
HETATM   28  O   UNL     1      -8.252   4.141  65.152  1.00  0.00    -0.100 OA 
HETATM   29  C   UNL     1      -7.380   3.032  64.936  1.00  0.00    -0.071 C  
ENDBRANCH  26  28
ENDBRANCH  25  26
ENDBRANCH  24  25
ENDBRANCH  23  24
ENDBRANCH  22  23
ENDBRANCH  21  22
ENDBRANCH  20  21
ENDBRANCH  19  20
ENDBRANCH  11  12
ENDBRANCH   8  10
ENDBRANCH   3   4
ENDBRANCH   2   3
TORSDOF 12
ENDMDL
MODEL      182
REMARK 921   NORMALIZED FREE ENERGY PREDICTED BY IDOCK:   -3.60 KCAL/MOL
REMARK 922        TOTAL FREE ENERGY PREDICTED BY IDOCK:   -8.17 KCAL/MOL
REMARK 923 INTER-LIGAND FREE ENERGY PREDICTED BY IDOCK:   -8.95 KCAL/MOL
REMARK 924 INTRA-LIGAND FREE ENERGY PREDICTED BY IDOCK:    0.78 KCAL/MOL
REMARK 927      BINDING AFFINITY PREDICTED BY RF-SCORE:    0.00 PKD
ROOT
HETATM    1  C   UNL     1     -11.994  17.210  74.528  1.00  0.00     0.003 C  
HETATM    2  C   UNL     1     -12.118  16.463  73.207  1.00  0.00    -0.553 C  
ENDROOT
BRANCH   2   3
HETATM    3  C   UNL     1     -13.480  15.782  73.110  1.00  0.00    -0.652 C  
BRANCH   3   4
HETATM    4  C   UNL     1     -13.365  14.281  72.813  1.00  0.00    -0.621 C  
HETATM    5  C   UNL     1     -13.055  13.977  71.328  1.00  0.00    -0.329 C  
HETATM    6  O   UNL     1     -14.148  14.468  70.540  1.00  0.00    -0.241 OA 
HETATM    7  C   UNL     1     -12.962  12.458  71.118  1.00  0.00    -0.232 C  
HETATM    8  C   UNL     1     -11.753  14.695  70.891  1.00  0.00    -0.335 C  
HETATM    9  H   UNL     1     -13.957  14.282  69.629  1.00  0.00     0.000 HD 
BRANCH   8  10
HETATM   10  C   UNL     1     -11.242  14.360  69.519  1.00  0.00    -0.294 C  
HETATM   11  C   UNL     1     -11.174  13.114  69.022  1.00  0.00    -0.309 C  
BRANCH  11  12
HETATM   12  C   UNL     1     -10.672  12.725  67.655  1.00  0.00    -0.236 C  
HETATM   13  C   UNL     1     -11.684  11.813  66.941  1.00  0.00    -0.139 C  
HETATM   14  C   UNL     1     -11.324  11.887  65.470  1.00  0.00    -0.334 C  
HETATM   15  O   UNL     1     -11.608  10.469  67.402  1.00  0.00    -0.498 OA 
HETATM   16  H   UNL     1     -12.233   9.905  66.962  1.00  0.00     0.000 HD 
HETATM   17  C   UNL     1     -10.801  13.284  65.347  1.00  0.00    -0.291 C  
HETATM   18  O   UNL     1     -10.721  13.864  64.270  1.00  0.00    -0.339 OA 
HETATM   19  C   UNL     1     -10.412  13.896  66.678  1.00  0.00    -0.272 C  
BRANCH  19  20
HETATM   20  C   UNL     1      -8.957  14.371  66.757  1.00  0.00    -0.256 C  
BRANCH  20  21
HETATM   21  C   UNL     1      -8.842  15.802  67.287  1.00  0.00    -0.212 C  
BRANCH  21  22
HETATM   22  C   UNL     1      -8.135  16.723  66.298  1.00  0.00    -0.365 C  
BRANCH  22  23
HETATM   23  C   UNL     1      -7.399  17.840  67.042  1.00  0.00    -0.220 C  
BRANCH  23  24
HETATM   24  C   UNL     1      -7.722  19.197  66.429  1.00  0.00    -0.288 C  
BRANCH  24  25
HETATM   25  C   UNL     1      -8.514  20.083  67.387  1.00  0.00    -0.391 C  
BRANCH  25  26
HETATM   26  C   UNL     1      -9.732  19.357  67.907  1.00  0.00    -0.352 C  
HETATM   27  O   UNL     1      -9.728  18.517  68.793  1.00  0.00    -0.357 OA 
BRANCH  26  28
HETATM   28  O   UNL     1     -10.843  19.779  67.242  1.00  0.00    -0.444 OA 
HETATM   29  C   UNL     1     -10.714  19.705  65.823  1.00  0.00    -0.392 C  
ENDBRANCH  26  28
ENDBRANCH  25  26
ENDBRANCH  24  25
ENDBRANCH  23  24
ENDBRANCH  22  23
ENDBRANCH  21  22
ENDBRANCH  20  21
ENDBRANCH  19  20
ENDBRANCH  11  12
ENDBRANCH   8  10
ENDBRANCH   3   4
ENDBRANCH   2   3
TORSDOF 12
ENDMDL
MODEL      183
REMARK 921   NORMALIZED FREE ENERGY PREDICTED BY IDOCK:   -3.59 KCAL/MOL
REMARK 922        TOTAL FREE ENERGY PREDICTED BY IDOCK:   -8.15 KCAL/MOL
REMARK 923 INTER-LIGAND FREE ENERGY PREDICTED BY IDOCK:   -7.03 KCAL/MOL
REMARK 924 INTRA-LIGAND FREE ENERGY PREDICTED BY IDOCK:   -1.12 KCAL/MOL
REMARK 927      BINDING AFFINITY PREDICTED BY RF-SCORE:    0.00 PKD
ROOT
HETATM    1  C   UNL     1     -10.209  19.805  65.970  1.00  0.00    -0.600 C  
HETATM    2  C   UNL     1     -10.684  18.364  65.849  1.00  0.00    -0.209 C  
ENDROOT
BRANCH   2   3
HETATM    3  C   UNL     1      -9.569  17.403  66.247  1.00  0.00    -0.260 C  
BRANCH   3   4
HETATM    4  C   UNL     1      -9.819  15.974  65.746  1.00  0.00    -0.357 C  
HETATM    5  C   UNL     1      -9.668  14.905  66.855  1.00  0.00    -0.240 C  
HETATM    6  O   UNL     1      -8.313  14.944  67.322  1.00  0.00    -0.182 OA 
HETATM    7  C   UNL     1      -9.929  13.510  66.270  1.00  0.00    -0.302 C  
HETATM    8  C   UNL     1     -10.620  15.217  68.038  1.00  0.00    -0.261 C  
HETATM    9  H   UNL     1      -8.220  14.289  68.002  1.00  0.00     0.000 HD 
BRANCH   8  10
HETATM   10  C   UNL     1     -10.697  14.174  69.117  1.00  0.00    -0.216 C  
HETATM   11  C   UNL     1     -11.801  13.464  69.403  1.00  0.00    -0.390 C  
BRANCH  11  12
HETATM   12  C   UNL     1     -11.930  12.409  70.471  1.00  0.00    -0.284 C  
HETATM   13  C   UNL     1     -13.038  12.779  71.472  1.00  0.00    -0.286 C  
HETATM   14  C   UNL     1     -13.395  11.482  72.173  1.00  0.00    -0.284 C  
HETATM   15  O   UNL     1     -12.600  13.748  72.418  1.00  0.00    -0.172 OA 
HETATM   16  H   UNL     1     -13.284  13.977  73.036  1.00  0.00     0.000 HD 
HETATM   17  C   UNL     1     -13.157  10.470  71.097  1.00  0.00    -0.358 C  
HETATM   18  O   UNL     1     -13.643   9.346  71.131  1.00  0.00    -0.316 OA 
HETATM   19  C   UNL     1     -12.284  10.988  69.971  1.00  0.00    -0.418 C  
BRANCH  19  20
HETATM   20  C   UNL     1     -11.019  10.160  69.715  1.00  0.00    -0.325 C  
BRANCH  20  21
HETATM   21  C   UNL     1     -10.415   9.609  71.008  1.00  0.00    -0.327 C  
BRANCH  21  22
HETATM   22  C   UNL     1      -8.938   9.266  70.848  1.00  0.00    -0.273 C  
BRANCH  22  23
HETATM   23  C   UNL     1      -8.561   8.095  71.758  1.00  0.00    -0.191 C  
BRANCH  23  24
HETATM   24  C   UNL     1      -8.046   6.919  70.936  1.00  0.00    -0.114 C  
BRANCH  24  25
HETATM   25  C   UNL     1      -9.075   6.443  69.913  1.00  0.00    -0.142 C  
BRANCH  25  26
HETATM   26  C   UNL     1      -9.110   4.935  69.848  1.00  0.00    -0.117 C  
HETATM   27  O   UNL     1      -8.695   4.182  70.715  1.00  0.00    -0.077 OA 
BRANCH  26  28
HETATM   28  O   UNL     1      -9.677   4.534  68.678  1.00  0.00    -0.157 OA 
HETATM   29  C   UNL     1     -10.502   5.533  68.079  1.00  0.00    -0.172 C  
ENDBRANCH  26  28
ENDBRANCH  25  26
ENDBRANCH  24  25
ENDBRANCH  23  24
ENDBRANCH  22  23
ENDBRANCH  21  22
ENDBRANCH  20  21
ENDBRANCH  19  20
ENDBRANCH  11  12
ENDBRANCH   8  10
ENDBRANCH   3   4
ENDBRANCH   2   3
TORSDOF 12
ENDMDL
MODEL      184
REMARK 921   NORMALIZED FREE ENERGY PREDICTED BY IDOCK:   -3.59 KCAL/MOL
REMARK 922        TOTAL FREE ENERGY PREDICTED BY IDOCK:   -8.15 KCAL/MOL
REMARK 923 INTER-LIGAND FREE ENERGY PREDICTED BY IDOCK:   -5.83 KCAL/MOL
REMARK 924 INTRA-LIGAND FREE ENERGY PREDICTED BY IDOCK:   -2.32 KCAL/MOL
REMARK 927      BINDING AFFINITY PREDICTED BY RF-SCORE:    0.00 PKD
ROOT
HETATM    1  C   UNL     1      -9.336  10.554  63.405  1.00  0.00    -0.335 C  
HETATM    2  C   UNL     1      -8.233   9.529  63.625  1.00  0.00    -0.165 C  
ENDROOT
BRANCH   2   3
HETATM    3  C   UNL     1      -7.366   9.931  64.814  1.00  0.00    -0.136 C  
BRANCH   3   4
HETATM    4  C   UNL     1      -6.682   8.726  65.475  1.00  0.00    -0.071 C  
HETATM    5  C   UNL     1      -7.039   8.572  66.973  1.00  0.00    -0.075 C  
HETATM    6  O   UNL     1      -6.567   9.739  67.660  1.00  0.00    -0.067 OA 
HETATM    7  C   UNL     1      -6.312   7.351  67.556  1.00  0.00    -0.052 C  
HETATM    8  C   UNL     1      -8.574   8.464  67.154  1.00  0.00    -0.123 C  
HETATM    9  H   UNL     1      -6.786   9.644  68.580  1.00  0.00     0.000 HD 
BRANCH   8  10
HETATM   10  C   UNL     1      -9.055   8.148  68.542  1.00  0.00    -0.136 C  
HETATM   11  C   UNL     1     -10.074   7.317  68.818  1.00  0.00    -0.179 C  
BRANCH  11  12
HETATM   12  C   UNL     1     -10.594   6.967  70.189  1.00  0.00    -0.249 C  
HETATM   13  C   UNL     1      -9.924   5.686  70.714  1.00  0.00    -0.195 C  
HETATM   14  C   UNL     1     -10.142   5.707  72.215  1.00  0.00    -0.224 C  
HETATM   15  O   UNL     1     -10.498   4.514  70.148  1.00  0.00    -0.040 OA 
HETATM   16  H   UNL     1     -10.084   3.722  70.472  1.00  0.00     0.000 HD 
HETATM   17  C   UNL     1     -10.131   7.173  72.512  1.00  0.00    -0.182 C  
HETATM   18  O   UNL     1      -9.934   7.616  73.638  1.00  0.00    -0.312 OA 
HETATM   19  C   UNL     1     -10.363   8.033  71.285  1.00  0.00    -0.230 C  
BRANCH  19  20
HETATM   20  C   UNL     1     -11.560   8.985  71.394  1.00  0.00    -0.396 C  
BRANCH  20  21
HETATM   21  C   UNL     1     -11.285  10.339  70.737  1.00  0.00    -0.373 C  
BRANCH  21  22
HETATM   22  C   UNL     1     -12.402  10.748  69.783  1.00  0.00    -0.305 C  
BRANCH  22  23
HETATM   23  C   UNL     1     -11.864  11.694  68.706  1.00  0.00    -0.387 C  
BRANCH  23  24
HETATM   24  C   UNL     1     -11.322  10.906  67.520  1.00  0.00    -0.309 C  
BRANCH  24  25
HETATM   25  C   UNL     1     -11.258  11.753  66.252  1.00  0.00    -0.370 C  
BRANCH  25  26
HETATM   26  C   UNL     1     -10.061  12.672  66.280  1.00  0.00    -0.253 C  
HETATM   27  O   UNL     1     -10.040  13.815  65.852  1.00  0.00    -0.299 OA 
BRANCH  26  28
HETATM   28  O   UNL     1      -9.003  12.039  66.857  1.00  0.00    -0.187 OA 
HETATM   29  C   UNL     1      -8.023  12.937  67.377  1.00  0.00    -0.178 C  
ENDBRANCH  26  28
ENDBRANCH  25  26
ENDBRANCH  24  25
ENDBRANCH  23  24
ENDBRANCH  22  23
ENDBRANCH  21  22
ENDBRANCH  20  21
ENDBRANCH  19  20
ENDBRANCH  11  12
ENDBRANCH   8  10
ENDBRANCH   3   4
ENDBRANCH   2   3
TORSDOF 12
ENDMDL
MODEL      185
REMARK 921   NORMALIZED FREE ENERGY PREDICTED BY IDOCK:   -3.58 KCAL/MOL
REMARK 922        TOTAL FREE ENERGY PREDICTED BY IDOCK:   -8.13 KCAL/MOL
REMARK 923 INTER-LIGAND FREE ENERGY PREDICTED BY IDOCK:   -6.71 KCAL/MOL
REMARK 924 INTRA-LIGAND FREE ENERGY PREDICTED BY IDOCK:   -1.42 KCAL/MOL
REMARK 927      BINDING AFFINITY PREDICTED BY RF-SCORE:    0.00 PKD
ROOT
HETATM    1  C   UNL     1      -9.732   2.282  64.436  1.00  0.00    -0.071 C  
HETATM    2  C   UNL     1      -8.980   3.560  64.782  1.00  0.00    -0.129 C  
ENDROOT
BRANCH   2   3
HETATM    3  C   UNL     1      -9.665   4.281  65.938  1.00  0.00    -0.211 C  
BRANCH   3   4
HETATM    4  C   UNL     1      -8.667   4.787  66.988  1.00  0.00    -0.103 C  
HETATM    5  C   UNL     1      -8.487   6.324  66.964  1.00  0.00    -0.108 C  
HETATM    6  O   UNL     1      -7.952   6.684  65.682  1.00  0.00    -0.102 OA 
HETATM    7  C   UNL     1      -7.472   6.744  68.037  1.00  0.00    -0.099 C  
HETATM    8  C   UNL     1      -9.852   7.031  67.159  1.00  0.00    -0.225 C  
HETATM    9  H   UNL     1      -7.841   7.627  65.667  1.00  0.00     0.000 HD 
BRANCH   8  10
HETATM   10  C   UNL     1      -9.806   8.524  67.318  1.00  0.00    -0.259 C  
HETATM   11  C   UNL     1     -10.401   9.391  66.482  1.00  0.00    -0.268 C  
BRANCH  11  12
HETATM   12  C   UNL     1     -10.385  10.894  66.598  1.00  0.00    -0.289 C  
HETATM   13  C   UNL     1      -9.949  11.538  65.270  1.00  0.00    -0.260 C  
HETATM   14  C   UNL     1     -10.423  12.976  65.348  1.00  0.00    -0.308 C  
HETATM   15  O   UNL     1      -8.538  11.491  65.094  1.00  0.00    -0.375 OA 
HETATM   16  H   UNL     1      -8.268  11.888  64.274  1.00  0.00     0.000 HD 
HETATM   17  C   UNL     1     -11.666  12.851  66.170  1.00  0.00    -0.396 C  
HETATM   18  O   UNL     1     -12.536  13.715  66.185  1.00  0.00    -0.433 OA 
HETATM   19  C   UNL     1     -11.740  11.553  66.950  1.00  0.00    -0.038 C  
BRANCH  19  20
HETATM   20  C   UNL     1     -11.892  11.730  68.465  1.00  0.00    -0.365 C  
BRANCH  20  21
HETATM   21  C   UNL     1     -10.885  12.729  69.037  1.00  0.00    -0.192 C  
BRANCH  21  22
HETATM   22  C   UNL     1     -11.565  13.984  69.572  1.00  0.00    -0.350 C  
BRANCH  22  23
HETATM   23  C   UNL     1     -10.600  15.172  69.533  1.00  0.00    -0.277 C  
BRANCH  23  24
HETATM   24  C   UNL     1     -11.097  16.236  68.562  1.00  0.00    -0.368 C  
BRANCH  24  25
HETATM   25  C   UNL     1     -10.405  17.579  68.782  1.00  0.00    -0.358 C  
BRANCH  25  26
HETATM   26  C   UNL     1      -9.062  17.611  68.091  1.00  0.00    -0.276 C  
HETATM   27  O   UNL     1      -8.012  17.961  68.607  1.00  0.00    -0.290 OA 
BRANCH  26  28
HETATM   28  O   UNL     1      -9.193  17.190  66.804  1.00  0.00    -0.236 OA 
HETATM   29  C   UNL     1      -8.098  16.392  66.356  1.00  0.00    -0.322 C  
ENDBRANCH  26  28
ENDBRANCH  25  26
ENDBRANCH  24  25
ENDBRANCH  23  24
ENDBRANCH  22  23
ENDBRANCH  21  22
ENDBRANCH  20  21
ENDBRANCH  19  20
ENDBRANCH  11  12
ENDBRANCH   8  10
ENDBRANCH   3   4
ENDBRANCH   2   3
TORSDOF 12
ENDMDL
MODEL      186
REMARK 921   NORMALIZED FREE ENERGY PREDICTED BY IDOCK:   -3.58 KCAL/MOL
REMARK 922        TOTAL FREE ENERGY PREDICTED BY IDOCK:   -8.12 KCAL/MOL
REMARK 923 INTER-LIGAND FREE ENERGY PREDICTED BY IDOCK:   -6.99 KCAL/MOL
REMARK 924 INTRA-LIGAND FREE ENERGY PREDICTED BY IDOCK:   -1.13 KCAL/MOL
REMARK 927      BINDING AFFINITY PREDICTED BY RF-SCORE:    0.00 PKD
ROOT
HETATM    1  C   UNL     1     -10.212  17.872  66.517  1.00  0.00    -0.379 C  
HETATM    2  C   UNL     1     -10.599  16.409  66.682  1.00  0.00    -0.239 C  
ENDROOT
BRANCH   2   3
HETATM    3  C   UNL     1     -10.266  15.627  65.415  1.00  0.00    -0.401 C  
BRANCH   3   4
HETATM    4  C   UNL     1     -11.327  14.570  65.081  1.00  0.00    -0.366 C  
HETATM    5  C   UNL     1     -10.732  13.160  64.857  1.00  0.00    -0.346 C  
HETATM    6  O   UNL     1      -9.851  13.228  63.727  1.00  0.00    -0.641 OA 
HETATM    7  C   UNL     1     -11.856  12.168  64.525  1.00  0.00    -0.418 C  
HETATM    8  C   UNL     1      -9.924  12.712  66.102  1.00  0.00    -0.269 C  
HETATM    9  H   UNL     1      -9.486  12.362  63.589  1.00  0.00     0.000 HD 
BRANCH   8  10
HETATM   10  C   UNL     1      -9.423  11.295  66.089  1.00  0.00    -0.232 C  
HETATM   11  C   UNL     1      -9.910  10.315  66.867  1.00  0.00    -0.244 C  
BRANCH  11  12
HETATM   12  C   UNL     1      -9.445   8.882  66.893  1.00  0.00    -0.230 C  
HETATM   13  C   UNL     1      -8.472   8.604  65.733  1.00  0.00    -0.151 C  
HETATM   14  C   UNL     1      -7.727   7.344  66.129  1.00  0.00    -0.094 C  
HETATM   15  O   UNL     1      -9.155   8.408  64.500  1.00  0.00    -0.342 OA 
HETATM   16  H   UNL     1      -8.555   8.237  63.784  1.00  0.00     0.000 HD 
HETATM   17  C   UNL     1      -7.679   7.464  67.619  1.00  0.00    -0.112 C  
HETATM   18  O   UNL     1      -6.878   6.839  68.305  1.00  0.00    -0.071 OA 
HETATM   19  C   UNL     1      -8.696   8.443  68.173  1.00  0.00    -0.143 C  
BRANCH  19  20
HETATM   20  C   UNL     1      -9.661   7.842  69.201  1.00  0.00    -0.155 C  
BRANCH  20  21
HETATM   21  C   UNL     1     -10.580   6.785  68.586  1.00  0.00    -0.263 C  
BRANCH  21  22
HETATM   22  C   UNL     1     -11.456   6.108  69.635  1.00  0.00    -0.332 C  
BRANCH  22  23
HETATM   23  C   UNL     1     -10.646   5.823  70.902  1.00  0.00    -0.329 C  
BRANCH  23  24
HETATM   24  C   UNL     1     -11.279   6.507  72.109  1.00  0.00    -0.308 C  
BRANCH  24  25
HETATM   25  C   UNL     1     -10.734   5.961  73.426  1.00  0.00    -0.293 C  
BRANCH  25  26
HETATM   26  C   UNL     1      -9.490   6.708  73.844  1.00  0.00    -0.189 C  
HETATM   27  O   UNL     1      -9.374   7.923  73.877  1.00  0.00    -0.249 OA 
BRANCH  26  28
HETATM   28  O   UNL     1      -8.510   5.825  74.182  1.00  0.00    -0.113 OA 
HETATM   29  C   UNL     1      -7.193   6.342  73.992  1.00  0.00    -0.085 C  
ENDBRANCH  26  28
ENDBRANCH  25  26
ENDBRANCH  24  25
ENDBRANCH  23  24
ENDBRANCH  22  23
ENDBRANCH  21  22
ENDBRANCH  20  21
ENDBRANCH  19  20
ENDBRANCH  11  12
ENDBRANCH   8  10
ENDBRANCH   3   4
ENDBRANCH   2   3
TORSDOF 12
ENDMDL
MODEL      187
REMARK 921   NORMALIZED FREE ENERGY PREDICTED BY IDOCK:   -3.57 KCAL/MOL
REMARK 922        TOTAL FREE ENERGY PREDICTED BY IDOCK:   -8.11 KCAL/MOL
REMARK 923 INTER-LIGAND FREE ENERGY PREDICTED BY IDOCK:   -7.34 KCAL/MOL
REMARK 924 INTRA-LIGAND FREE ENERGY PREDICTED BY IDOCK:   -0.77 KCAL/MOL
REMARK 927      BINDING AFFINITY PREDICTED BY RF-SCORE:    0.00 PKD
ROOT
HETATM    1  C   UNL     1     -12.380  13.610  63.832  1.00  0.00    -0.375 C  
HETATM    2  C   UNL     1     -11.933  14.848  64.596  1.00  0.00    -0.407 C  
ENDROOT
BRANCH   2   3
HETATM    3  C   UNL     1     -10.633  14.569  65.342  1.00  0.00    -0.385 C  
BRANCH   3   4
HETATM    4  C   UNL     1     -10.194  13.103  65.229  1.00  0.00    -0.299 C  
HETATM    5  C   UNL     1      -9.869  12.458  66.598  1.00  0.00    -0.223 C  
HETATM    6  O   UNL     1      -8.765  13.173  67.170  1.00  0.00    -0.205 OA 
HETATM    7  C   UNL     1      -9.436  10.998  66.394  1.00  0.00    -0.218 C  
HETATM    8  C   UNL     1     -11.089  12.565  67.548  1.00  0.00    -0.311 C  
HETATM    9  H   UNL     1      -8.566  12.777  68.010  1.00  0.00     0.000 HD 
BRANCH   8  10
HETATM   10  C   UNL     1     -10.972  11.838  68.858  1.00  0.00    -0.288 C  
HETATM   11  C   UNL     1     -11.972  11.146  69.429  1.00  0.00    -0.420 C  
BRANCH  11  12
HETATM   12  C   UNL     1     -11.907  10.401  70.737  1.00  0.00    -0.466 C  
HETATM   13  C   UNL     1     -13.275  10.412  71.440  1.00  0.00    -0.364 C  
HETATM   14  C   UNL     1     -13.220   9.276  72.443  1.00  0.00    -0.501 C  
HETATM   15  O   UNL     1     -13.523  11.646  72.104  1.00  0.00    -0.537 OA 
HETATM   16  H   UNL     1     -14.369  11.653  72.537  1.00  0.00     0.000 HD 
HETATM   17  C   UNL     1     -12.330   8.292  71.752  1.00  0.00    -0.328 C  
HETATM   18  O   UNL     1     -12.297   7.106  72.058  1.00  0.00    -0.304 OA 
HETATM   19  C   UNL     1     -11.506   8.910  70.640  1.00  0.00    -0.280 C  
BRANCH  19  20
HETATM   20  C   UNL     1      -9.991   8.732  70.797  1.00  0.00    -0.263 C  
BRANCH  20  21
HETATM   21  C   UNL     1      -9.309   8.371  69.477  1.00  0.00    -0.158 C  
BRANCH  21  22
HETATM   22  C   UNL     1      -8.060   7.524  69.691  1.00  0.00    -0.127 C  
BRANCH  22  23
HETATM   23  C   UNL     1      -8.439   6.053  69.882  1.00  0.00    -0.130 C  
BRANCH  23  24
HETATM   24  C   UNL     1      -7.427   5.350  70.780  1.00  0.00    -0.080 C  
BRANCH  24  25
HETATM   25  C   UNL     1      -8.103   4.609  71.930  1.00  0.00    -0.101 C  
BRANCH  25  26
HETATM   26  C   UNL     1      -9.533   4.269  71.584  1.00  0.00    -0.148 C  
HETATM   27  O   UNL     1     -10.502   4.975  71.815  1.00  0.00    -0.211 OA 
BRANCH  26  28
HETATM   28  O   UNL     1      -9.586   3.054  70.971  1.00  0.00    -0.151 OA 
HETATM   29  C   UNL     1      -8.444   2.239  71.235  1.00  0.00    -0.058 C  
ENDBRANCH  26  28
ENDBRANCH  25  26
ENDBRANCH  24  25
ENDBRANCH  23  24
ENDBRANCH  22  23
ENDBRANCH  21  22
ENDBRANCH  20  21
ENDBRANCH  19  20
ENDBRANCH  11  12
ENDBRANCH   8  10
ENDBRANCH   3   4
ENDBRANCH   2   3
TORSDOF 12
ENDMDL
MODEL      188
REMARK 921   NORMALIZED FREE ENERGY PREDICTED BY IDOCK:   -3.54 KCAL/MOL
REMARK 922        TOTAL FREE ENERGY PREDICTED BY IDOCK:   -8.06 KCAL/MOL
REMARK 923 INTER-LIGAND FREE ENERGY PREDICTED BY IDOCK:   -5.98 KCAL/MOL
REMARK 924 INTRA-LIGAND FREE ENERGY PREDICTED BY IDOCK:   -2.09 KCAL/MOL
REMARK 927      BINDING AFFINITY PREDICTED BY RF-SCORE:    0.00 PKD
ROOT
HETATM    1  C   UNL     1     -11.862  15.588  69.152  1.00  0.00    -0.373 C  
HETATM    2  C   UNL     1     -10.878  14.426  69.145  1.00  0.00    -0.275 C  
ENDROOT
BRANCH   2   3
HETATM    3  C   UNL     1     -10.173  14.338  67.795  1.00  0.00    -0.235 C  
BRANCH   3   4
HETATM    4  C   UNL     1     -11.147  14.065  66.641  1.00  0.00    -0.312 C  
HETATM    5  C   UNL     1     -10.771  12.814  65.811  1.00  0.00    -0.272 C  
HETATM    6  O   UNL     1      -9.487  13.049  65.218  1.00  0.00    -0.468 OA 
HETATM    7  C   UNL     1     -11.790  12.617  64.679  1.00  0.00    -0.437 C  
HETATM    8  C   UNL     1     -10.684  11.566  66.727  1.00  0.00    -0.311 C  
HETATM    9  H   UNL     1      -9.256  12.282  64.708  1.00  0.00     0.000 HD 
BRANCH   8  10
HETATM   10  C   UNL     1     -10.486  10.249  66.031  1.00  0.00    -0.181 C  
HETATM   11  C   UNL     1      -9.453   9.422  66.260  1.00  0.00    -0.273 C  
BRANCH  11  12
HETATM   12  C   UNL     1      -9.208   8.094  65.591  1.00  0.00    -0.040 C  
HETATM   13  C   UNL     1      -7.955   8.154  64.702  1.00  0.00    -0.149 C  
HETATM   14  C   UNL     1      -7.547   6.709  64.486  1.00  0.00    -0.103 C  
HETATM   15  O   UNL     1      -8.216   8.785  63.454  1.00  0.00    -0.167 OA 
HETATM   16  H   UNL     1      -7.442   8.823  62.905  1.00  0.00     0.000 HD 
HETATM   17  C   UNL     1      -7.974   6.069  65.769  1.00  0.00    -0.113 C  
HETATM   18  O   UNL     1      -7.529   4.992  66.148  1.00  0.00    -0.083 OA 
HETATM   19  C   UNL     1      -8.982   6.895  66.543  1.00  0.00    -0.166 C  
BRANCH  19  20
HETATM   20  C   UNL     1     -10.299   6.172  66.846  1.00  0.00    -0.307 C  
BRANCH  20  21
HETATM   21  C   UNL     1     -11.172   6.945  67.835  1.00  0.00    -0.103 C  
BRANCH  21  22
HETATM   22  C   UNL     1     -11.082   6.374  69.246  1.00  0.00    -0.437 C  
BRANCH  22  23
HETATM   23  C   UNL     1     -11.195   7.494  70.283  1.00  0.00    -0.253 C  
BRANCH  23  24
HETATM   24  C   UNL     1     -10.476   8.748  69.800  1.00  0.00    -0.222 C  
BRANCH  24  25
HETATM   25  C   UNL     1      -9.256   9.072  70.657  1.00  0.00    -0.279 C  
BRANCH  25  26
HETATM   26  C   UNL     1      -8.063   9.399  69.790  1.00  0.00    -0.133 C  
HETATM   27  O   UNL     1      -7.469   8.604  69.079  1.00  0.00    -0.085 OA 
BRANCH  26  28
HETATM   28  O   UNL     1      -7.744  10.716  69.917  1.00  0.00    -0.092 OA 
HETATM   29  C   UNL     1      -7.404  11.337  68.678  1.00  0.00    -0.109 C  
ENDBRANCH  26  28
ENDBRANCH  25  26
ENDBRANCH  24  25
ENDBRANCH  23  24
ENDBRANCH  22  23
ENDBRANCH  21  22
ENDBRANCH  20  21
ENDBRANCH  19  20
ENDBRANCH  11  12
ENDBRANCH   8  10
ENDBRANCH   3   4
ENDBRANCH   2   3
TORSDOF 12
ENDMDL
MODEL      189
REMARK 921   NORMALIZED FREE ENERGY PREDICTED BY IDOCK:   -3.52 KCAL/MOL
REMARK 922        TOTAL FREE ENERGY PREDICTED BY IDOCK:   -8.03 KCAL/MOL
REMARK 923 INTER-LIGAND FREE ENERGY PREDICTED BY IDOCK:   -5.66 KCAL/MOL
REMARK 924 INTRA-LIGAND FREE ENERGY PREDICTED BY IDOCK:   -2.36 KCAL/MOL
REMARK 927      BINDING AFFINITY PREDICTED BY RF-SCORE:    0.00 PKD
ROOT
HETATM    1  C   UNL     1      -7.588   5.516  67.745  1.00  0.00    -0.088 C  
HETATM    2  C   UNL     1      -7.685   7.032  67.638  1.00  0.00    -0.112 C  
ENDROOT
BRANCH   2   3
HETATM    3  C   UNL     1      -7.025   7.691  68.845  1.00  0.00    -0.070 C  
BRANCH   3   4
HETATM    4  C   UNL     1      -7.903   7.625  70.102  1.00  0.00    -0.097 C  
HETATM    5  C   UNL     1      -8.523   8.990  70.483  1.00  0.00    -0.200 C  
HETATM    6  O   UNL     1      -7.449   9.893  70.780  1.00  0.00    -0.313 OA 
HETATM    7  C   UNL     1      -9.378   8.836  71.749  1.00  0.00    -0.350 C  
HETATM    8  C   UNL     1      -9.348   9.557  69.300  1.00  0.00    -0.171 C  
HETATM    9  H   UNL     1      -7.829  10.731  71.015  1.00  0.00     0.000 HD 
BRANCH   8  10
HETATM   10  C   UNL     1     -10.140  10.802  69.585  1.00  0.00    -0.053 C  
HETATM   11  C   UNL     1     -11.371  11.041  69.102  1.00  0.00    -0.348 C  
BRANCH  11  12
HETATM   12  C   UNL     1     -12.206  12.270  69.357  1.00  0.00    -0.120 C  
HETATM   13  C   UNL     1     -12.316  12.551  70.865  1.00  0.00    -0.255 C  
HETATM   14  C   UNL     1     -12.734  14.004  70.973  1.00  0.00    -0.431 C  
HETATM   15  O   UNL     1     -13.278  11.711  71.494  1.00  0.00    -0.363 OA 
HETATM   16  H   UNL     1     -13.346  11.884  72.426  1.00  0.00     0.000 HD 
HETATM   17  C   UNL     1     -12.078  14.608  69.772  1.00  0.00    -0.324 C  
HETATM   18  O   UNL     1     -11.878  15.813  69.667  1.00  0.00    -0.345 OA 
HETATM   19  C   UNL     1     -11.676  13.582  68.731  1.00  0.00    -0.373 C  
BRANCH  19  20
HETATM   20  C   UNL     1     -12.279  13.816  67.342  1.00  0.00    -0.290 C  
BRANCH  20  21
HETATM   21  C   UNL     1     -11.207  13.962  66.261  1.00  0.00    -0.310 C  
BRANCH  21  22
HETATM   22  C   UNL     1     -10.228  15.089  66.574  1.00  0.00    -0.281 C  
BRANCH  22  23
HETATM   23  C   UNL     1      -8.787  14.619  66.361  1.00  0.00    -0.113 C  
BRANCH  23  24
HETATM   24  C   UNL     1      -8.065  14.475  67.696  1.00  0.00    -0.190 C  
BRANCH  24  25
HETATM   25  C   UNL     1      -7.733  13.019  68.011  1.00  0.00    -0.145 C  
BRANCH  25  26
HETATM   26  C   UNL     1      -6.606  12.930  69.013  1.00  0.00    -0.102 C  
HETATM   27  O   UNL     1      -6.283  13.813  69.791  1.00  0.00    -0.119 OA 
BRANCH  26  28
HETATM   28  O   UNL     1      -6.000  11.714  68.923  1.00  0.00    -0.047 OA 
HETATM   29  C   UNL     1      -6.172  11.090  67.650  1.00  0.00    -0.052 C  
ENDBRANCH  26  28
ENDBRANCH  25  26
ENDBRANCH  24  25
ENDBRANCH  23  24
ENDBRANCH  22  23
ENDBRANCH  21  22
ENDBRANCH  20  21
ENDBRANCH  19  20
ENDBRANCH  11  12
ENDBRANCH   8  10
ENDBRANCH   3   4
ENDBRANCH   2   3
TORSDOF 12
ENDMDL
MODEL      190
REMARK 921   NORMALIZED FREE ENERGY PREDICTED BY IDOCK:   -3.52 KCAL/MOL
REMARK 922        TOTAL FREE ENERGY PREDICTED BY IDOCK:   -8.02 KCAL/MOL
REMARK 923 INTER-LIGAND FREE ENERGY PREDICTED BY IDOCK:   -7.73 KCAL/MOL
REMARK 924 INTRA-LIGAND FREE ENERGY PREDICTED BY IDOCK:   -0.30 KCAL/MOL
REMARK 927      BINDING AFFINITY PREDICTED BY RF-SCORE:    0.00 PKD
ROOT
HETATM    1  C   UNL     1     -12.243  10.922  70.091  1.00  0.00    -0.423 C  
HETATM    2  C   UNL     1     -12.331  12.339  70.642  1.00  0.00    -0.375 C  
ENDROOT
BRANCH   2   3
HETATM    3  C   UNL     1     -13.138  12.354  71.936  1.00  0.00    -0.471 C  
BRANCH   3   4
HETATM    4  C   UNL     1     -13.637  13.759  72.300  1.00  0.00    -0.656 C  
HETATM    5  C   UNL     1     -12.606  14.870  71.985  1.00  0.00    -0.326 C  
HETATM    6  O   UNL     1     -11.441  14.629  72.785  1.00  0.00    -0.046 OA 
HETATM    7  C   UNL     1     -13.181  16.238  72.382  1.00  0.00     0.128 C  
HETATM    8  C   UNL     1     -12.210  14.829  70.487  1.00  0.00    -0.385 C  
HETATM    9  H   UNL     1     -10.808  15.311  72.592  1.00  0.00     0.000 HD 
BRANCH   8  10
HETATM   10  C   UNL     1     -11.338  15.953  70.004  1.00  0.00    -0.358 C  
HETATM   11  C   UNL     1     -10.617  15.917  68.871  1.00  0.00    -0.244 C  
BRANCH  11  12
HETATM   12  C   UNL     1      -9.730  17.014  68.342  1.00  0.00    -0.279 C  
HETATM   13  C   UNL     1     -10.274  18.396  68.746  1.00  0.00    -0.302 C  
HETATM   14  C   UNL     1      -9.102  19.347  68.595  1.00  0.00    -0.423 C  
HETATM   15  O   UNL     1     -11.354  18.807  67.915  1.00  0.00    -0.052 OA 
HETATM   16  H   UNL     1     -11.690  19.660  68.164  1.00  0.00     0.000 HD 
HETATM   17  C   UNL     1      -7.940  18.466  68.928  1.00  0.00    -0.189 C  
HETATM   18  O   UNL     1      -6.847  18.913  69.258  1.00  0.00    -0.301 OA 
HETATM   19  C   UNL     1      -8.264  16.988  68.836  1.00  0.00    -0.204 C  
BRANCH  19  20
HETATM   20  C   UNL     1      -7.369  16.200  67.874  1.00  0.00    -0.142 C  
BRANCH  20  21
HETATM   21  C   UNL     1      -8.177  15.310  66.927  1.00  0.00    -0.263 C  
BRANCH  21  22
HETATM   22  C   UNL     1      -8.140  13.845  67.348  1.00  0.00    -0.190 C  
BRANCH  22  23
HETATM   23  C   UNL     1      -9.195  13.043  66.581  1.00  0.00    -0.222 C  
BRANCH  23  24
HETATM   24  C   UNL     1     -10.414  12.783  67.458  1.00  0.00    -0.223 C  
BRANCH  24  25
HETATM   25  C   UNL     1     -11.720  13.069  66.720  1.00  0.00    -0.440 C  
BRANCH  25  26
HETATM   26  C   UNL     1     -11.916  12.097  65.581  1.00  0.00    -0.208 C  
HETATM   27  O   UNL     1     -11.309  11.048  65.436  1.00  0.00     0.070 OA 
BRANCH  26  28
HETATM   28  O   UNL     1     -12.876  12.561  64.735  1.00  0.00    -0.755 OA 
HETATM   29  C   UNL     1     -12.533  12.416  63.357  1.00  0.00    -0.446 C  
ENDBRANCH  26  28
ENDBRANCH  25  26
ENDBRANCH  24  25
ENDBRANCH  23  24
ENDBRANCH  22  23
ENDBRANCH  21  22
ENDBRANCH  20  21
ENDBRANCH  19  20
ENDBRANCH  11  12
ENDBRANCH   8  10
ENDBRANCH   3   4
ENDBRANCH   2   3
TORSDOF 12
ENDMDL
MODEL      191
REMARK 921   NORMALIZED FREE ENERGY PREDICTED BY IDOCK:   -3.51 KCAL/MOL
REMARK 922        TOTAL FREE ENERGY PREDICTED BY IDOCK:   -8.01 KCAL/MOL
REMARK 923 INTER-LIGAND FREE ENERGY PREDICTED BY IDOCK:   -6.48 KCAL/MOL
REMARK 924 INTRA-LIGAND FREE ENERGY PREDICTED BY IDOCK:   -1.53 KCAL/MOL
REMARK 927      BINDING AFFINITY PREDICTED BY RF-SCORE:    0.00 PKD
ROOT
HETATM    1  C   UNL     1      -6.202   3.748  65.294  1.00  0.00    -0.027 C  
HETATM    2  C   UNL     1      -6.214   5.269  65.355  1.00  0.00    -0.034 C  
ENDROOT
BRANCH   2   3
HETATM    3  C   UNL     1      -6.810   5.740  66.677  1.00  0.00    -0.059 C  
BRANCH   3   4
HETATM    4  C   UNL     1      -6.842   7.270  66.794  1.00  0.00    -0.065 C  
HETATM    5  C   UNL     1      -8.271   7.837  66.971  1.00  0.00    -0.117 C  
HETATM    6  O   UNL     1      -9.027   7.499  65.799  1.00  0.00    -0.312 OA 
HETATM    7  C   UNL     1      -8.213   9.368  67.073  1.00  0.00    -0.116 C  
HETATM    8  C   UNL     1      -8.952   7.205  68.212  1.00  0.00    -0.125 C  
HETATM    9  H   UNL     1      -9.904   7.846  65.907  1.00  0.00     0.000 HD 
BRANCH   8  10
HETATM   10  C   UNL     1     -10.284   7.781  68.599  1.00  0.00    -0.217 C  
HETATM   11  C   UNL     1     -10.572   8.268  69.817  1.00  0.00    -0.228 C  
BRANCH  11  12
HETATM   12  C   UNL     1     -11.888   8.856  70.255  1.00  0.00     0.116 C  
HETATM   13  C   UNL     1     -12.313   8.286  71.619  1.00  0.00    -0.315 C  
HETATM   14  C   UNL     1     -13.340   9.263  72.160  1.00  0.00    -0.537 C  
HETATM   15  O   UNL     1     -12.880   6.986  71.501  1.00  0.00    -0.376 OA 
HETATM   16  H   UNL     1     -13.142   6.634  72.344  1.00  0.00     0.000 HD 
HETATM   17  C   UNL     1     -12.862  10.563  71.595  1.00  0.00    -0.475 C  
HETATM   18  O   UNL     1     -13.202  11.646  72.057  1.00  0.00    -0.501 OA 
HETATM   19  C   UNL     1     -11.913  10.394  70.425  1.00  0.00    -0.409 C  
BRANCH  19  20
HETATM   20  C   UNL     1     -12.365  11.086  69.134  1.00  0.00    -0.079 C  
BRANCH  20  21
HETATM   21  C   UNL     1     -11.188  11.449  68.228  1.00  0.00    -0.326 C  
BRANCH  21  22
HETATM   22  C   UNL     1     -11.640  12.186  66.971  1.00  0.00    -0.406 C  
BRANCH  22  23
HETATM   23  C   UNL     1     -12.013  13.632  67.306  1.00  0.00    -0.420 C  
BRANCH  23  24
HETATM   24  C   UNL     1     -11.481  14.585  66.242  1.00  0.00    -0.358 C  
BRANCH  24  25
HETATM   25  C   UNL     1     -10.025  14.291  65.889  1.00  0.00    -0.340 C  
BRANCH  25  26
HETATM   26  C   UNL     1      -9.120  14.573  67.065  1.00  0.00    -0.239 C  
HETATM   27  O   UNL     1      -9.117  15.601  67.723  1.00  0.00    -0.180 OA 
BRANCH  26  28
HETATM   28  O   UNL     1      -8.304  13.506  67.288  1.00  0.00    -0.186 OA 
HETATM   29  C   UNL     1      -6.950  13.876  67.548  1.00  0.00    -0.144 C  
ENDBRANCH  26  28
ENDBRANCH  25  26
ENDBRANCH  24  25
ENDBRANCH  23  24
ENDBRANCH  22  23
ENDBRANCH  21  22
ENDBRANCH  20  21
ENDBRANCH  19  20
ENDBRANCH  11  12
ENDBRANCH   8  10
ENDBRANCH   3   4
ENDBRANCH   2   3
TORSDOF 12
ENDMDL
MODEL      192
REMARK 921   NORMALIZED FREE ENERGY PREDICTED BY IDOCK:   -3.50 KCAL/MOL
REMARK 922        TOTAL FREE ENERGY PREDICTED BY IDOCK:   -8.00 KCAL/MOL
REMARK 923 INTER-LIGAND FREE ENERGY PREDICTED BY IDOCK:   -6.92 KCAL/MOL
REMARK 924 INTRA-LIGAND FREE ENERGY PREDICTED BY IDOCK:   -1.09 KCAL/MOL
REMARK 927      BINDING AFFINITY PREDICTED BY RF-SCORE:    0.00 PKD
ROOT
HETATM    1  C   UNL     1     -12.074  17.219  74.451  1.00  0.00     0.101 C  
HETATM    2  C   UNL     1     -11.907  16.407  73.174  1.00  0.00    -0.436 C  
ENDROOT
BRANCH   2   3
HETATM    3  C   UNL     1     -13.240  15.797  72.756  1.00  0.00    -0.609 C  
BRANCH   3   4
HETATM    4  C   UNL     1     -13.266  14.272  72.925  1.00  0.00    -0.593 C  
HETATM    5  C   UNL     1     -13.169  13.509  71.582  1.00  0.00    -0.366 C  
HETATM    6  O   UNL     1     -14.319  13.853  70.797  1.00  0.00     0.356 OA 
HETATM    7  C   UNL     1     -13.207  11.996  71.842  1.00  0.00    -0.469 C  
HETATM    8  C   UNL     1     -11.889  13.926  70.816  1.00  0.00    -0.257 C  
HETATM    9  H   UNL     1     -14.260  13.385  69.973  1.00  0.00     0.000 HD 
BRANCH   8  10
HETATM   10  C   UNL     1     -11.582  13.147  69.569  1.00  0.00    -0.347 C  
HETATM   11  C   UNL     1     -12.179  13.352  68.383  1.00  0.00    -0.127 C  
BRANCH  11  12
HETATM   12  C   UNL     1     -11.908  12.600  67.105  1.00  0.00    -0.399 C  
HETATM   13  C   UNL     1     -11.722  13.574  65.929  1.00  0.00    -0.352 C  
HETATM   14  C   UNL     1     -11.003  12.776  64.858  1.00  0.00    -0.324 C  
HETATM   15  O   UNL     1     -12.967  14.056  65.435  1.00  0.00    -0.726 OA 
HETATM   16  H   UNL     1     -12.853  14.657  64.708  1.00  0.00     0.000 HD 
HETATM   17  C   UNL     1     -10.167  11.841  65.674  1.00  0.00    -0.246 C  
HETATM   18  O   UNL     1      -9.189  11.262  65.215  1.00  0.00    -0.218 OA 
HETATM   19  C   UNL     1     -10.643  11.710  67.107  1.00  0.00    -0.269 C  
BRANCH  19  20
HETATM   20  C   UNL     1     -10.974  10.277  67.538  1.00  0.00    -0.344 C  
BRANCH  20  21
HETATM   21  C   UNL     1     -10.187   9.847  68.777  1.00  0.00    -0.205 C  
BRANCH  21  22
HETATM   22  C   UNL     1     -10.450   8.391  69.145  1.00  0.00    -0.218 C  
BRANCH  22  23
HETATM   23  C   UNL     1      -9.226   7.530  68.824  1.00  0.00    -0.145 C  
BRANCH  23  24
HETATM   24  C   UNL     1      -9.301   6.998  67.398  1.00  0.00    -0.141 C  
BRANCH  24  25
HETATM   25  C   UNL     1      -7.935   6.989  66.718  1.00  0.00    -0.108 C  
BRANCH  25  26
HETATM   26  C   UNL     1      -8.076   6.773  65.230  1.00  0.00    -0.130 C  
HETATM   27  O   UNL     1      -8.002   7.646  64.381  1.00  0.00    -0.136 OA 
BRANCH  26  28
HETATM   28  O   UNL     1      -8.298   5.455  64.972  1.00  0.00    -0.134 OA 
HETATM   29  C   UNL     1      -7.318   4.593  65.551  1.00  0.00    -0.076 C  
ENDBRANCH  26  28
ENDBRANCH  25  26
ENDBRANCH  24  25
ENDBRANCH  23  24
ENDBRANCH  22  23
ENDBRANCH  21  22
ENDBRANCH  20  21
ENDBRANCH  19  20
ENDBRANCH  11  12
ENDBRANCH   8  10
ENDBRANCH   3   4
ENDBRANCH   2   3
TORSDOF 12
ENDMDL
MODEL      193
REMARK 921   NORMALIZED FREE ENERGY PREDICTED BY IDOCK:   -3.49 KCAL/MOL
REMARK 922        TOTAL FREE ENERGY PREDICTED BY IDOCK:   -7.97 KCAL/MOL
REMARK 923 INTER-LIGAND FREE ENERGY PREDICTED BY IDOCK:   -6.49 KCAL/MOL
REMARK 924 INTRA-LIGAND FREE ENERGY PREDICTED BY IDOCK:   -1.49 KCAL/MOL
REMARK 927      BINDING AFFINITY PREDICTED BY RF-SCORE:    0.00 PKD
ROOT
HETATM    1  C   UNL     1     -10.776   4.188  73.940  1.00  0.00    -0.320 C  
HETATM    2  C   UNL     1     -11.615   4.966  72.936  1.00  0.00    -0.227 C  
ENDROOT
BRANCH   2   3
HETATM    3  C   UNL     1     -10.753   5.988  72.203  1.00  0.00    -0.270 C  
BRANCH   3   4
HETATM    4  C   UNL     1     -11.513   7.285  71.896  1.00  0.00    -0.302 C  
HETATM    5  C   UNL     1     -10.762   8.212  70.910  1.00  0.00    -0.221 C  
HETATM    6  O   UNL     1      -9.525   8.597  71.525  1.00  0.00    -0.200 OA 
HETATM    7  C   UNL     1     -11.587   9.483  70.663  1.00  0.00    -0.350 C  
HETATM    8  C   UNL     1     -10.458   7.460  69.589  1.00  0.00    -0.237 C  
HETATM    9  H   UNL     1      -9.064   9.166  70.920  1.00  0.00     0.000 HD 
BRANCH   8  10
HETATM   10  C   UNL     1      -9.875   8.287  68.479  1.00  0.00    -0.188 C  
HETATM   11  C   UNL     1      -8.892   7.870  67.662  1.00  0.00    -0.128 C  
BRANCH  11  12
HETATM   12  C   UNL     1      -8.274   8.658  66.536  1.00  0.00    -0.107 C  
HETATM   13  C   UNL     1      -6.970   7.995  66.060  1.00  0.00    -0.058 C  
HETATM   14  C   UNL     1      -6.715   8.564  64.677  1.00  0.00    -0.069 C  
HETATM   15  O   UNL     1      -5.878   8.287  66.924  1.00  0.00    -0.046 OA 
HETATM   16  H   UNL     1      -5.072   7.877  66.629  1.00  0.00     0.000 HD 
HETATM   17  C   UNL     1      -8.104   8.784  64.168  1.00  0.00    -0.162 C  
HETATM   18  O   UNL     1      -8.356   8.909  62.975  1.00  0.00    -0.183 OA 
HETATM   19  C   UNL     1      -9.146   8.811  65.268  1.00  0.00    -0.156 C  
BRANCH  19  20
HETATM   20  C   UNL     1      -9.980  10.097  65.321  1.00  0.00    -0.381 C  
BRANCH  20  21
HETATM   21  C   UNL     1      -9.118  11.338  65.557  1.00  0.00    -0.184 C  
BRANCH  21  22
HETATM   22  C   UNL     1      -9.482  12.048  66.856  1.00  0.00    -0.206 C  
BRANCH  22  23
HETATM   23  C   UNL     1     -10.937  11.758  67.233  1.00  0.00    -0.318 C  
BRANCH  23  24
HETATM   24  C   UNL     1     -11.561  12.961  67.931  1.00  0.00    -0.391 C  
BRANCH  24  25
HETATM   25  C   UNL     1     -12.601  13.654  67.054  1.00  0.00     0.070 C  
BRANCH  25  26
HETATM   26  C   UNL     1     -12.371  13.335  65.596  1.00  0.00    -0.465 C  
HETATM   27  O   UNL     1     -12.982  12.497  64.952  1.00  0.00    -0.821 OA 
BRANCH  26  28
HETATM   28  O   UNL     1     -11.380  14.125  65.099  1.00  0.00    -0.313 OA 
HETATM   29  C   UNL     1     -11.862  15.180  64.267  1.00  0.00    -0.251 C  
ENDBRANCH  26  28
ENDBRANCH  25  26
ENDBRANCH  24  25
ENDBRANCH  23  24
ENDBRANCH  22  23
ENDBRANCH  21  22
ENDBRANCH  20  21
ENDBRANCH  19  20
ENDBRANCH  11  12
ENDBRANCH   8  10
ENDBRANCH   3   4
ENDBRANCH   2   3
TORSDOF 12
ENDMDL
MODEL      194
REMARK 921   NORMALIZED FREE ENERGY PREDICTED BY IDOCK:   -3.48 KCAL/MOL
REMARK 922        TOTAL FREE ENERGY PREDICTED BY IDOCK:   -7.96 KCAL/MOL
REMARK 923 INTER-LIGAND FREE ENERGY PREDICTED BY IDOCK:   -6.31 KCAL/MOL
REMARK 924 INTRA-LIGAND FREE ENERGY PREDICTED BY IDOCK:   -1.65 KCAL/MOL
REMARK 927      BINDING AFFINITY PREDICTED BY RF-SCORE:    0.00 PKD
ROOT
HETATM    1  C   UNL     1     -12.731  14.531  73.093  1.00  0.00    -0.497 C  
HETATM    2  C   UNL     1     -13.142  14.519  71.627  1.00  0.00    -0.416 C  
ENDROOT
BRANCH   2   3
HETATM    3  C   UNL     1     -13.737  13.165  71.254  1.00  0.00     0.337 C  
BRANCH   3   4
HETATM    4  C   UNL     1     -12.902  11.992  71.784  1.00  0.00    -0.377 C  
HETATM    5  C   UNL     1     -12.417  11.037  70.667  1.00  0.00    -0.373 C  
HETATM    6  O   UNL     1     -13.575  10.467  70.042  1.00  0.00    -0.304 OA 
HETATM    7  C   UNL     1     -11.597   9.893  71.281  1.00  0.00    -0.456 C  
HETATM    8  C   UNL     1     -11.603  11.819  69.605  1.00  0.00    -0.393 C  
HETATM    9  H   UNL     1     -13.278   9.880  69.357  1.00  0.00     0.000 HD 
BRANCH   8  10
HETATM   10  C   UNL     1     -10.933  10.991  68.545  1.00  0.00    -0.276 C  
HETATM   11  C   UNL     1      -9.651  10.591  68.596  1.00  0.00    -0.171 C  
BRANCH  11  12
HETATM   12  C   UNL     1      -8.934   9.762  67.563  1.00  0.00    -0.138 C  
HETATM   13  C   UNL     1      -9.672   8.434  67.322  1.00  0.00    -0.184 C  
HETATM   14  C   UNL     1      -9.166   7.931  65.983  1.00  0.00    -0.162 C  
HETATM   15  O   UNL     1      -9.400   7.480  68.342  1.00  0.00    -0.142 OA 
HETATM   16  H   UNL     1      -9.856   6.660  68.194  1.00  0.00     0.000 HD 
HETATM   17  C   UNL     1      -8.902   9.208  65.250  1.00  0.00    -0.199 C  
HETATM   18  O   UNL     1      -8.808   9.260  64.029  1.00  0.00    -0.205 OA 
HETATM   19  C   UNL     1      -8.786  10.411  66.166  1.00  0.00    -0.172 C  
BRANCH  19  20
HETATM   20  C   UNL     1      -7.463  11.176  66.047  1.00  0.00     0.036 C  
BRANCH  20  21
HETATM   21  C   UNL     1      -7.014  11.768  67.383  1.00  0.00    -0.121 C  
BRANCH  21  22
HETATM   22  C   UNL     1      -7.097  13.291  67.390  1.00  0.00    -0.111 C  
BRANCH  22  23
HETATM   23  C   UNL     1      -8.491  13.748  67.825  1.00  0.00    -0.181 C  
BRANCH  23  24
HETATM   24  C   UNL     1      -8.748  15.185  67.385  1.00  0.00    -0.205 C  
BRANCH  24  25
HETATM   25  C   UNL     1      -8.999  15.286  65.883  1.00  0.00    -0.011 C  
BRANCH  25  26
HETATM   26  C   UNL     1     -10.269  14.563  65.501  1.00  0.00    -0.370 C  
HETATM   27  O   UNL     1     -10.364  13.720  64.623  1.00  0.00    -0.426 OA 
BRANCH  26  28
HETATM   28  O   UNL     1     -11.298  14.988  66.284  1.00  0.00    -0.341 OA 
HETATM   29  C   UNL     1     -12.276  13.977  66.530  1.00  0.00    -0.451 C  
ENDBRANCH  26  28
ENDBRANCH  25  26
ENDBRANCH  24  25
ENDBRANCH  23  24
ENDBRANCH  22  23
ENDBRANCH  21  22
ENDBRANCH  20  21
ENDBRANCH  19  20
ENDBRANCH  11  12
ENDBRANCH   8  10
ENDBRANCH   3   4
ENDBRANCH   2   3
TORSDOF 12
ENDMDL
MODEL      195
REMARK 921   NORMALIZED FREE ENERGY PREDICTED BY IDOCK:   -3.45 KCAL/MOL
REMARK 922        TOTAL FREE ENERGY PREDICTED BY IDOCK:   -7.91 KCAL/MOL
REMARK 923 INTER-LIGAND FREE ENERGY PREDICTED BY IDOCK:   -5.65 KCAL/MOL
REMARK 924 INTRA-LIGAND FREE ENERGY PREDICTED BY IDOCK:   -2.27 KCAL/MOL
REMARK 927      BINDING AFFINITY PREDICTED BY RF-SCORE:    0.00 PKD
ROOT
HETATM    1  C   UNL     1     -12.939  14.722  70.460  1.00  0.00    -0.336 C  
HETATM    2  C   UNL     1     -11.653  15.507  70.680  1.00  0.00    -0.378 C  
ENDROOT
BRANCH   2   3
HETATM    3  C   UNL     1     -10.672  15.246  69.542  1.00  0.00    -0.270 C  
BRANCH   3   4
HETATM    4  C   UNL     1     -11.339  14.575  68.335  1.00  0.00    -0.311 C  
HETATM    5  C   UNL     1     -10.692  13.220  67.958  1.00  0.00    -0.240 C  
HETATM    6  O   UNL     1      -9.330  13.472  67.586  1.00  0.00    -0.201 OA 
HETATM    7  C   UNL     1     -11.413  12.621  66.742  1.00  0.00    -0.410 C  
HETATM    8  C   UNL     1     -10.716  12.255  69.170  1.00  0.00    -0.089 C  
HETATM    9  H   UNL     1      -8.932  12.641  67.354  1.00  0.00     0.000 HD 
BRANCH   8  10
HETATM   10  C   UNL     1     -10.266  10.847  68.902  1.00  0.00    -0.213 C  
HETATM   11  C   UNL     1     -10.732   9.768  69.553  1.00  0.00    -0.255 C  
BRANCH  11  12
HETATM   12  C   UNL     1     -10.315   8.338  69.322  1.00  0.00    -0.223 C  
HETATM   13  C   UNL     1     -11.213   7.374  70.116  1.00  0.00    -0.218 C  
HETATM   14  C   UNL     1     -11.031   6.021  69.455  1.00  0.00    -0.467 C  
HETATM   15  O   UNL     1     -10.842   7.308  71.488  1.00  0.00    -0.224 OA 
HETATM   16  H   UNL     1     -11.397   6.713  71.979  1.00  0.00     0.000 HD 
HETATM   17  C   UNL     1     -10.790   6.400  68.028  1.00  0.00    -0.316 C  
HETATM   18  O   UNL     1     -10.932   5.608  67.104  1.00  0.00    -0.218 OA 
HETATM   19  C   UNL     1     -10.381   7.849  67.856  1.00  0.00    -0.281 C  
BRANCH  19  20
HETATM   20  C   UNL     1      -9.037   8.050  67.144  1.00  0.00    -0.159 C  
BRANCH  20  21
HETATM   21  C   UNL     1      -7.847   7.765  68.062  1.00  0.00    -0.124 C  
BRANCH  21  22
HETATM   22  C   UNL     1      -6.986   6.618  67.543  1.00  0.00    -0.082 C  
BRANCH  22  23
HETATM   23  C   UNL     1      -6.376   5.839  68.711  1.00  0.00    -0.037 C  
BRANCH  23  24
HETATM   24  C   UNL     1      -7.324   5.830  69.905  1.00  0.00    -0.070 C  
BRANCH  24  25
HETATM   25  C   UNL     1      -6.616   6.221  71.199  1.00  0.00    -0.050 C  
BRANCH  25  26
HETATM   26  C   UNL     1      -7.369   7.318  71.914  1.00  0.00    -0.080 C  
HETATM   27  O   UNL     1      -7.316   8.505  71.637  1.00  0.00    -0.087 OA 
BRANCH  26  28
HETATM   28  O   UNL     1      -8.121   6.787  72.916  1.00  0.00    -0.105 OA 
HETATM   29  C   UNL     1      -8.272   7.661  74.034  1.00  0.00    -0.200 C  
ENDBRANCH  26  28
ENDBRANCH  25  26
ENDBRANCH  24  25
ENDBRANCH  23  24
ENDBRANCH  22  23
ENDBRANCH  21  22
ENDBRANCH  20  21
ENDBRANCH  19  20
ENDBRANCH  11  12
ENDBRANCH   8  10
ENDBRANCH   3   4
ENDBRANCH   2   3
TORSDOF 12
ENDMDL
MODEL      196
REMARK 921   NORMALIZED FREE ENERGY PREDICTED BY IDOCK:   -3.45 KCAL/MOL
REMARK 922        TOTAL FREE ENERGY PREDICTED BY IDOCK:   -7.90 KCAL/MOL
REMARK 923 INTER-LIGAND FREE ENERGY PREDICTED BY IDOCK:   -6.47 KCAL/MOL
REMARK 924 INTRA-LIGAND FREE ENERGY PREDICTED BY IDOCK:   -1.43 KCAL/MOL
REMARK 927      BINDING AFFINITY PREDICTED BY RF-SCORE:    0.00 PKD
ROOT
HETATM    1  C   UNL     1      -8.161   9.497  63.210  1.00  0.00    -0.151 C  
HETATM    2  C   UNL     1      -8.191   8.011  62.881  1.00  0.00    -0.095 C  
ENDROOT
BRANCH   2   3
HETATM    3  C   UNL     1      -7.217   7.251  63.774  1.00  0.00    -0.075 C  
BRANCH   3   4
HETATM    4  C   UNL     1      -7.845   5.993  64.389  1.00  0.00    -0.113 C  
HETATM    5  C   UNL     1      -7.954   6.060  65.932  1.00  0.00    -0.111 C  
HETATM    6  O   UNL     1      -6.625   6.158  66.463  1.00  0.00    -0.051 OA 
HETATM    7  C   UNL     1      -8.585   4.766  66.464  1.00  0.00    -0.109 C  
HETATM    8  C   UNL     1      -8.763   7.311  66.361  1.00  0.00    -0.152 C  
HETATM    9  H   UNL     1      -6.692   6.199  67.409  1.00  0.00     0.000 HD 
BRANCH   8  10
HETATM   10  C   UNL     1      -9.086   7.418  67.824  1.00  0.00    -0.129 C  
HETATM   11  C   UNL     1     -10.326   7.583  68.314  1.00  0.00    -0.233 C  
BRANCH  11  12
HETATM   12  C   UNL     1     -10.703   7.695  69.769  1.00  0.00    -0.243 C  
HETATM   13  C   UNL     1     -10.246   6.450  70.547  1.00  0.00    -0.189 C  
HETATM   14  C   UNL     1     -10.235   6.870  72.005  1.00  0.00    -0.206 C  
HETATM   15  O   UNL     1     -11.128   5.349  70.357  1.00  0.00    -0.149 OA 
HETATM   16  H   UNL     1     -10.845   4.580  70.838  1.00  0.00     0.000 HD 
HETATM   17  C   UNL     1      -9.875   8.319  71.909  1.00  0.00    -0.232 C  
HETATM   18  O   UNL     1      -9.430   8.951  72.860  1.00  0.00    -0.128 OA 
HETATM   19  C   UNL     1     -10.098   8.901  70.527  1.00  0.00    -0.248 C  
BRANCH  19  20
HETATM   20  C   UNL     1     -11.042  10.108  70.490  1.00  0.00    -0.400 C  
BRANCH  20  21
HETATM   21  C   UNL     1     -10.698  11.078  69.359  1.00  0.00    -0.247 C  
BRANCH  21  22
HETATM   22  C   UNL     1     -11.756  11.073  68.261  1.00  0.00    -0.301 C  
BRANCH  22  23
HETATM   23  C   UNL     1     -11.276  11.884  67.054  1.00  0.00    -0.379 C  
BRANCH  23  24
HETATM   24  C   UNL     1     -11.979  13.236  67.002  1.00  0.00    -0.419 C  
BRANCH  24  25
HETATM   25  C   UNL     1     -12.493  13.559  65.601  1.00  0.00    -0.528 C  
BRANCH  25  26
HETATM   26  C   UNL     1     -11.487  14.387  64.838  1.00  0.00    -0.386 C  
HETATM   27  O   UNL     1     -11.452  15.607  64.812  1.00  0.00    -0.366 OA 
BRANCH  26  28
HETATM   28  O   UNL     1     -10.618  13.571  64.180  1.00  0.00    -0.365 OA 
HETATM   29  C   UNL     1     -11.253  12.459  63.551  1.00  0.00    -0.469 C  
ENDBRANCH  26  28
ENDBRANCH  25  26
ENDBRANCH  24  25
ENDBRANCH  23  24
ENDBRANCH  22  23
ENDBRANCH  21  22
ENDBRANCH  20  21
ENDBRANCH  19  20
ENDBRANCH  11  12
ENDBRANCH   8  10
ENDBRANCH   3   4
ENDBRANCH   2   3
TORSDOF 12
ENDMDL
MODEL      197
REMARK 921   NORMALIZED FREE ENERGY PREDICTED BY IDOCK:   -3.44 KCAL/MOL
REMARK 922        TOTAL FREE ENERGY PREDICTED BY IDOCK:   -7.90 KCAL/MOL
REMARK 923 INTER-LIGAND FREE ENERGY PREDICTED BY IDOCK:   -6.39 KCAL/MOL
REMARK 924 INTRA-LIGAND FREE ENERGY PREDICTED BY IDOCK:   -1.50 KCAL/MOL
REMARK 927      BINDING AFFINITY PREDICTED BY RF-SCORE:    0.00 PKD
ROOT
HETATM    1  C   UNL     1     -10.861  20.187  65.561  1.00  0.00    -0.108 C  
HETATM    2  C   UNL     1      -9.544  20.014  66.305  1.00  0.00    -0.516 C  
ENDROOT
BRANCH   2   3
HETATM    3  C   UNL     1      -9.154  18.541  66.355  1.00  0.00    -0.276 C  
BRANCH   3   4
HETATM    4  C   UNL     1     -10.167  17.691  67.134  1.00  0.00    -0.342 C  
HETATM    5  C   UNL     1     -10.409  16.300  66.501  1.00  0.00    -0.307 C  
HETATM    6  O   UNL     1     -10.962  16.502  65.193  1.00  0.00    -0.446 OA 
HETATM    7  C   UNL     1     -11.435  15.521  67.336  1.00  0.00    -0.140 C  
HETATM    8  C   UNL     1      -9.071  15.527  66.371  1.00  0.00    -0.351 C  
HETATM    9  H   UNL     1     -11.111  15.648  64.804  1.00  0.00     0.000 HD 
BRANCH   8  10
HETATM   10  C   UNL     1      -9.176  14.098  65.920  1.00  0.00     0.093 C  
HETATM   11  C   UNL     1     -10.317  13.515  65.516  1.00  0.00    -0.309 C  
BRANCH  11  12
HETATM   12  C   UNL     1     -10.475  12.088  65.055  1.00  0.00    -0.327 C  
HETATM   13  C   UNL     1     -10.689  12.028  63.533  1.00  0.00    -0.455 C  
HETATM   14  C   UNL     1     -10.356  10.602  63.137  1.00  0.00     0.060 C  
HETATM   15  O   UNL     1     -12.029  12.341  63.171  1.00  0.00    -0.706 OA 
HETATM   16  H   UNL     1     -12.162  12.305  62.230  1.00  0.00     0.000 HD 
HETATM   17  C   UNL     1      -9.295  10.243  64.129  1.00  0.00    -0.287 C  
HETATM   18  O   UNL     1      -8.517   9.312  63.953  1.00  0.00    -0.174 OA 
HETATM   19  C   UNL     1      -9.274  11.155  65.339  1.00  0.00    -0.225 C  
BRANCH  19  20
HETATM   20  C   UNL     1      -9.440  10.433  66.682  1.00  0.00    -0.199 C  
BRANCH  20  21
HETATM   21  C   UNL     1      -8.363  10.832  67.691  1.00  0.00    -0.119 C  
BRANCH  21  22
HETATM   22  C   UNL     1      -7.049  11.203  67.010  1.00  0.00    -0.124 C  
BRANCH  22  23
HETATM   23  C   UNL     1      -6.395  12.389  67.723  1.00  0.00    -0.109 C  
BRANCH  23  24
HETATM   24  C   UNL     1      -7.389  13.069  68.658  1.00  0.00    -0.097 C  
BRANCH  24  25
HETATM   25  C   UNL     1      -6.725  14.145  69.512  1.00  0.00    -0.112 C  
BRANCH  25  26
HETATM   26  C   UNL     1      -7.582  15.388  69.572  1.00  0.00    -0.212 C  
HETATM   27  O   UNL     1      -8.796  15.401  69.698  1.00  0.00    -0.256 OA 
BRANCH  26  28
HETATM   28  O   UNL     1      -6.799  16.496  69.467  1.00  0.00    -0.229 OA 
HETATM   29  C   UNL     1      -5.976  16.499  68.301  1.00  0.00    -0.120 C  
ENDBRANCH  26  28
ENDBRANCH  25  26
ENDBRANCH  24  25
ENDBRANCH  23  24
ENDBRANCH  22  23
ENDBRANCH  21  22
ENDBRANCH  20  21
ENDBRANCH  19  20
ENDBRANCH  11  12
ENDBRANCH   8  10
ENDBRANCH   3   4
ENDBRANCH   2   3
TORSDOF 12
ENDMDL
MODEL      198
REMARK 921   NORMALIZED FREE ENERGY PREDICTED BY IDOCK:   -3.42 KCAL/MOL
REMARK 922        TOTAL FREE ENERGY PREDICTED BY IDOCK:   -7.86 KCAL/MOL
REMARK 923 INTER-LIGAND FREE ENERGY PREDICTED BY IDOCK:   -6.44 KCAL/MOL
REMARK 924 INTRA-LIGAND FREE ENERGY PREDICTED BY IDOCK:   -1.42 KCAL/MOL
REMARK 927      BINDING AFFINITY PREDICTED BY RF-SCORE:    0.00 PKD
ROOT
HETATM    1  C   UNL     1     -10.496  18.294  66.554  1.00  0.00    -0.378 C  
HETATM    2  C   UNL     1     -10.720  16.799  66.732  1.00  0.00    -0.117 C  
ENDROOT
BRANCH   2   3
HETATM    3  C   UNL     1     -10.412  16.058  65.435  1.00  0.00    -0.415 C  
BRANCH   3   4
HETATM    4  C   UNL     1     -11.486  15.019  65.084  1.00  0.00    -0.339 C  
HETATM    5  C   UNL     1     -10.963  13.564  65.135  1.00  0.00    -0.320 C  
HETATM    6  O   UNL     1      -9.928  13.433  64.151  1.00  0.00    -0.757 OA 
HETATM    7  C   UNL     1     -12.094  12.593  64.767  1.00  0.00    -0.495 C  
HETATM    8  C   UNL     1     -10.373  13.251  66.534  1.00  0.00    -0.285 C  
HETATM    9  H   UNL     1      -9.607  12.540  64.182  1.00  0.00     0.000 HD 
BRANCH   8  10
HETATM   10  C   UNL     1      -9.974  11.824  66.779  1.00  0.00    -0.224 C  
HETATM   11  C   UNL     1     -10.353  11.106  67.849  1.00  0.00    -0.211 C  
BRANCH  11  12
HETATM   12  C   UNL     1      -9.982   9.675  68.140  1.00  0.00    -0.185 C  
HETATM   13  C   UNL     1     -10.600   9.212  69.471  1.00  0.00    -0.223 C  
HETATM   14  C   UNL     1     -10.575   7.696  69.418  1.00  0.00    -0.217 C  
HETATM   15  O   UNL     1      -9.860   9.679  70.593  1.00  0.00    -0.265 OA 
HETATM   16  H   UNL     1     -10.241   9.394  71.415  1.00  0.00     0.000 HD 
HETATM   17  C   UNL     1     -10.750   7.432  67.956  1.00  0.00    -0.127 C  
HETATM   18  O   UNL     1     -11.125   6.348  67.523  1.00  0.00    -0.352 OA 
HETATM   19  C   UNL     1     -10.441   8.636  67.089  1.00  0.00    -0.360 C  
BRANCH  19  20
HETATM   20  C   UNL     1      -9.354   8.398  66.035  1.00  0.00    -0.244 C  
BRANCH  20  21
HETATM   21  C   UNL     1      -7.998   8.074  66.663  1.00  0.00    -0.102 C  
BRANCH  21  22
HETATM   22  C   UNL     1      -6.981   7.616  65.623  1.00  0.00    -0.060 C  
BRANCH  22  23
HETATM   23  C   UNL     1      -6.862   6.090  65.629  1.00  0.00    -0.056 C  
BRANCH  23  24
HETATM   24  C   UNL     1      -7.525   5.494  64.392  1.00  0.00    -0.068 C  
BRANCH  24  25
HETATM   25  C   UNL     1      -8.800   4.732  64.739  1.00  0.00    -0.153 C  
BRANCH  25  26
HETATM   26  C   UNL     1      -8.655   3.265  64.409  1.00  0.00    -0.093 C  
HETATM   27  O   UNL     1      -7.663   2.588  64.625  1.00  0.00    -0.071 OA 
BRANCH  26  28
HETATM   28  O   UNL     1      -9.800   2.803  63.834  1.00  0.00    -0.139 OA 
HETATM   29  C   UNL     1     -10.877   3.739  63.889  1.00  0.00    -0.180 C  
ENDBRANCH  26  28
ENDBRANCH  25  26
ENDBRANCH  24  25
ENDBRANCH  23  24
ENDBRANCH  22  23
ENDBRANCH  21  22
ENDBRANCH  20  21
ENDBRANCH  19  20
ENDBRANCH  11  12
ENDBRANCH   8  10
ENDBRANCH   3   4
ENDBRANCH   2   3
TORSDOF 12
ENDMDL
MODEL      199
REMARK 921   NORMALIZED FREE ENERGY PREDICTED BY IDOCK:   -3.40 KCAL/MOL
REMARK 922        TOTAL FREE ENERGY PREDICTED BY IDOCK:   -7.82 KCAL/MOL
REMARK 923 INTER-LIGAND FREE ENERGY PREDICTED BY IDOCK:   -6.92 KCAL/MOL
REMARK 924 INTRA-LIGAND FREE ENERGY PREDICTED BY IDOCK:   -0.90 KCAL/MOL
REMARK 927      BINDING AFFINITY PREDICTED BY RF-SCORE:    0.00 PKD
ROOT
HETATM    1  C   UNL     1     -11.472  15.354  64.344  1.00  0.00    -0.260 C  
HETATM    2  C   UNL     1     -11.018  15.255  65.794  1.00  0.00    -0.340 C  
ENDROOT
BRANCH   2   3
HETATM    3  C   UNL     1      -9.789  14.359  65.904  1.00  0.00    -0.336 C  
BRANCH   3   4
HETATM    4  C   UNL     1     -10.096  12.897  65.554  1.00  0.00    -0.270 C  
HETATM    5  C   UNL     1      -9.873  11.928  66.740  1.00  0.00    -0.197 C  
HETATM    6  O   UNL     1      -8.485  11.981  67.098  1.00  0.00    -0.166 OA 
HETATM    7  C   UNL     1     -10.197  10.491  66.304  1.00  0.00    -0.296 C  
HETATM    8  C   UNL     1     -10.727  12.362  67.959  1.00  0.00    -0.247 C  
HETATM    9  H   UNL     1      -8.349  11.386  67.825  1.00  0.00     0.000 HD 
BRANCH   8  10
HETATM   10  C   UNL     1     -10.734  11.420  69.129  1.00  0.00    -0.229 C  
HETATM   11  C   UNL     1     -11.831  11.103  69.838  1.00  0.00    -0.439 C  
BRANCH  11  12
HETATM   12  C   UNL     1     -11.891  10.166  71.016  1.00  0.00    -0.475 C  
HETATM   13  C   UNL     1     -13.290  10.185  71.656  1.00  0.00    -0.366 C  
HETATM   14  C   UNL     1     -13.374   8.910  72.473  1.00  0.00    -0.451 C  
HETATM   15  O   UNL     1     -13.479  11.321  72.492  1.00  0.00    -0.493 OA 
HETATM   16  H   UNL     1     -14.343  11.333  72.886  1.00  0.00     0.000 HD 
HETATM   17  C   UNL     1     -12.526   7.971  71.675  1.00  0.00    -0.320 C  
HETATM   18  O   UNL     1     -12.600   6.754  71.795  1.00  0.00    -0.357 OA 
HETATM   19  C   UNL     1     -11.599   8.679  70.706  1.00  0.00    -0.273 C  
BRANCH  19  20
HETATM   20  C   UNL     1     -10.113   8.355  70.896  1.00  0.00    -0.234 C  
BRANCH  20  21
HETATM   21  C   UNL     1      -9.750   6.967  70.364  1.00  0.00    -0.178 C  
BRANCH  21  22
HETATM   22  C   UNL     1      -8.401   6.963  69.653  1.00  0.00    -0.133 C  
BRANCH  22  23
HETATM   23  C   UNL     1      -8.420   5.980  68.480  1.00  0.00    -0.113 C  
BRANCH  23  24
HETATM   24  C   UNL     1      -7.697   4.689  68.848  1.00  0.00    -0.071 C  
BRANCH  24  25
HETATM   25  C   UNL     1      -7.579   3.741  67.658  1.00  0.00    -0.067 C  
BRANCH  25  26
HETATM   26  C   UNL     1      -8.878   3.008  67.424  1.00  0.00    -0.139 C  
HETATM   27  O   UNL     1      -9.563   2.491  68.292  1.00  0.00    -0.201 OA 
BRANCH  26  28
HETATM   28  O   UNL     1      -9.178   3.008  66.096  1.00  0.00    -0.148 OA 
HETATM   29  C   UNL     1      -8.879   1.772  65.449  1.00  0.00    -0.120 C  
ENDBRANCH  26  28
ENDBRANCH  25  26
ENDBRANCH  24  25
ENDBRANCH  23  24
ENDBRANCH  22  23
ENDBRANCH  21  22
ENDBRANCH  20  21
ENDBRANCH  19  20
ENDBRANCH  11  12
ENDBRANCH   8  10
ENDBRANCH   3   4
ENDBRANCH   2   3
TORSDOF 12
ENDMDL
MODEL      200
REMARK 921   NORMALIZED FREE ENERGY PREDICTED BY IDOCK:   -3.40 KCAL/MOL
REMARK 922        TOTAL FREE ENERGY PREDICTED BY IDOCK:   -7.82 KCAL/MOL
REMARK 923 INTER-LIGAND FREE ENERGY PREDICTED BY IDOCK:   -6.34 KCAL/MOL
REMARK 924 INTRA-LIGAND FREE ENERGY PREDICTED BY IDOCK:   -1.47 KCAL/MOL
REMARK 927      BINDING AFFINITY PREDICTED BY RF-SCORE:    0.00 PKD
ROOT
HETATM    1  C   UNL     1     -12.399   9.147  71.431  1.00  0.00    -0.404 C  
HETATM    2  C   UNL     1     -13.277  10.375  71.231  1.00  0.00    -0.431 C  
ENDROOT
BRANCH   2   3
HETATM    3  C   UNL     1     -12.845  11.493  72.173  1.00  0.00    -0.067 C  
BRANCH   3   4
HETATM    4  C   UNL     1     -13.585  12.810  71.899  1.00  0.00    -0.343 C  
HETATM    5  C   UNL     1     -12.840  13.729  70.901  1.00  0.00    -0.271 C  
HETATM    6  O   UNL     1     -11.579  14.082  71.485  1.00  0.00    -0.258 OA 
HETATM    7  C   UNL     1     -13.643  15.021  70.688  1.00  0.00    -0.132 C  
HETATM    8  C   UNL     1     -12.589  12.984  69.565  1.00  0.00     0.310 C  
HETATM    9  H   UNL     1     -11.122  14.646  70.873  1.00  0.00     0.000 HD 
BRANCH   8  10
HETATM   10  C   UNL     1     -12.017  13.809  68.447  1.00  0.00    -0.395 C  
HETATM   11  C   UNL     1     -11.639  13.310  67.258  1.00  0.00    -0.404 C  
BRANCH  11  12
HETATM   12  C   UNL     1     -11.063  14.092  66.106  1.00  0.00    -0.312 C  
HETATM   13  C   UNL     1     -12.120  14.308  65.010  1.00  0.00    -0.425 C  
HETATM   14  C   UNL     1     -11.603  15.465  64.176  1.00  0.00    -0.081 C  
HETATM   15  O   UNL     1     -12.291  13.151  64.198  1.00  0.00    -0.517 OA 
HETATM   16  H   UNL     1     -12.944  13.284  63.522  1.00  0.00     0.000 HD 
HETATM   17  C   UNL     1     -10.871  16.280  65.194  1.00  0.00    -0.318 C  
HETATM   18  O   UNL     1     -10.595  17.461  65.017  1.00  0.00    -0.617 OA 
HETATM   19  C   UNL     1     -10.534  15.504  66.452  1.00  0.00    -0.310 C  
BRANCH  19  20
HETATM   20  C   UNL     1      -9.040  15.468  66.795  1.00  0.00    -0.282 C  
BRANCH  20  21
HETATM   21  C   UNL     1      -8.434  14.078  66.600  1.00  0.00     0.117 C  
BRANCH  21  22
HETATM   22  C   UNL     1      -8.268  13.335  67.922  1.00  0.00    -0.163 C  
BRANCH  22  23
HETATM   23  C   UNL     1      -7.921  11.866  67.668  1.00  0.00    -0.146 C  
BRANCH  23  24
HETATM   24  C   UNL     1      -7.173  11.710  66.349  1.00  0.00     0.132 C  
BRANCH  24  25
HETATM   25  C   UNL     1      -7.578  10.438  65.610  1.00  0.00    -0.150 C  
BRANCH  25  26
HETATM   26  C   UNL     1      -9.028  10.499  65.190  1.00  0.00    -0.191 C  
HETATM   27  O   UNL     1      -9.579  11.470  64.697  1.00  0.00    -0.226 OA 
BRANCH  26  28
HETATM   28  O   UNL     1      -9.633   9.307  65.442  1.00  0.00    -0.259 OA 
HETATM   29  C   UNL     1      -9.687   8.982  66.831  1.00  0.00    -0.200 C  
ENDBRANCH  26  28
ENDBRANCH  25  26
ENDBRANCH  24  25
ENDBRANCH  23  24
ENDBRANCH  22  23
ENDBRANCH  21  22
ENDBRANCH  20  21
ENDBRANCH  19  20
ENDBRANCH  11  12
ENDBRANCH   8  10
ENDBRANCH   3   4
ENDBRANCH   2   3
TORSDOF 12
ENDMDL
MODEL      201
REMARK 921   NORMALIZED FREE ENERGY PREDICTED BY IDOCK:   -3.39 KCAL/MOL
REMARK 922        TOTAL FREE ENERGY PREDICTED BY IDOCK:   -7.80 KCAL/MOL
REMARK 923 INTER-LIGAND FREE ENERGY PREDICTED BY IDOCK:   -6.59 KCAL/MOL
REMARK 924 INTRA-LIGAND FREE ENERGY PREDICTED BY IDOCK:   -1.21 KCAL/MOL
REMARK 927      BINDING AFFINITY PREDICTED BY RF-SCORE:    0.00 PKD
ROOT
HETATM    1  C   UNL     1      -7.056   7.698  74.135  1.00  0.00    -0.132 C  
HETATM    2  C   UNL     1      -8.531   8.057  74.250  1.00  0.00    -0.251 C  
ENDROOT
BRANCH   2   3
HETATM    3  C   UNL     1      -9.181   8.073  72.870  1.00  0.00    -0.332 C  
BRANCH   3   4
HETATM    4  C   UNL     1      -8.268   7.487  71.785  1.00  0.00    -0.114 C  
HETATM    5  C   UNL     1      -8.583   8.027  70.369  1.00  0.00    -0.131 C  
HETATM    6  O   UNL     1      -9.921   7.633  70.036  1.00  0.00    -0.187 OA 
HETATM    7  C   UNL     1      -7.631   7.389  69.347  1.00  0.00    -0.096 C  
HETATM    8  C   UNL     1      -8.491   9.574  70.349  1.00  0.00    -0.238 C  
HETATM    9  H   UNL     1     -10.115   7.964  69.167  1.00  0.00     0.000 HD 
BRANCH   8  10
HETATM   10  C   UNL     1      -8.615  10.225  69.000  1.00  0.00    -0.162 C  
HETATM   11  C   UNL     1      -9.729  10.827  68.552  1.00  0.00    -0.184 C  
BRANCH  11  12
HETATM   12  C   UNL     1      -9.904  11.494  67.211  1.00  0.00    -0.208 C  
HETATM   13  C   UNL     1     -10.515  10.517  66.193  1.00  0.00    -0.168 C  
HETATM   14  C   UNL     1     -11.075  11.390  65.086  1.00  0.00    -0.203 C  
HETATM   15  O   UNL     1      -9.545   9.617  65.669  1.00  0.00    -0.233 OA 
HETATM   16  H   UNL     1      -9.922   9.013  65.040  1.00  0.00     0.000 HD 
HETATM   17  C   UNL     1     -11.483  12.620  65.835  1.00  0.00    -0.363 C  
HETATM   18  O   UNL     1     -12.284  13.430  65.383  1.00  0.00    -0.397 OA 
HETATM   19  C   UNL     1     -10.826  12.736  67.196  1.00  0.00    -0.282 C  
BRANCH  19  20
HETATM   20  C   UNL     1     -10.023  14.025  67.406  1.00  0.00    -0.243 C  
BRANCH  20  21
HETATM   21  C   UNL     1      -9.559  14.190  68.854  1.00  0.00    -0.053 C  
BRANCH  21  22
HETATM   22  C   UNL     1      -9.264  15.646  69.197  1.00  0.00    -0.254 C  
BRANCH  22  23
HETATM   23  C   UNL     1     -10.548  16.368  69.612  1.00  0.00    -0.307 C  
BRANCH  23  24
HETATM   24  C   UNL     1     -11.053  15.840  70.950  1.00  0.00    -0.354 C  
BRANCH  24  25
HETATM   25  C   UNL     1     -12.560  15.600  70.939  1.00  0.00    -0.503 C  
BRANCH  25  26
HETATM   26  C   UNL     1     -13.016  14.986  72.241  1.00  0.00    -0.349 C  
HETATM   27  O   UNL     1     -13.165  13.791  72.442  1.00  0.00    -0.436 OA 
BRANCH  26  28
HETATM   28  O   UNL     1     -13.237  15.963  73.162  1.00  0.00    -0.525 OA 
HETATM   29  C   UNL     1     -12.873  15.580  74.489  1.00  0.00     0.113 C  
ENDBRANCH  26  28
ENDBRANCH  25  26
ENDBRANCH  24  25
ENDBRANCH  23  24
ENDBRANCH  22  23
ENDBRANCH  21  22
ENDBRANCH  20  21
ENDBRANCH  19  20
ENDBRANCH  11  12
ENDBRANCH   8  10
ENDBRANCH   3   4
ENDBRANCH   2   3
TORSDOF 12
ENDMDL
MODEL      202
REMARK 921   NORMALIZED FREE ENERGY PREDICTED BY IDOCK:   -3.38 KCAL/MOL
REMARK 922        TOTAL FREE ENERGY PREDICTED BY IDOCK:   -7.79 KCAL/MOL
REMARK 923 INTER-LIGAND FREE ENERGY PREDICTED BY IDOCK:   -6.57 KCAL/MOL
REMARK 924 INTRA-LIGAND FREE ENERGY PREDICTED BY IDOCK:   -1.22 KCAL/MOL
REMARK 927      BINDING AFFINITY PREDICTED BY RF-SCORE:    0.00 PKD
ROOT
HETATM    1  C   UNL     1      -9.774   2.389  62.566  1.00  0.00    -0.088 C  
HETATM    2  C   UNL     1      -9.980   3.758  63.200  1.00  0.00    -0.160 C  
ENDROOT
BRANCH   2   3
HETATM    3  C   UNL     1      -9.556   3.732  64.665  1.00  0.00    -0.173 C  
BRANCH   3   4
HETATM    4  C   UNL     1     -10.572   4.427  65.582  1.00  0.00    -0.179 C  
HETATM    5  C   UNL     1      -9.914   5.402  66.588  1.00  0.00    -0.195 C  
HETATM    6  O   UNL     1      -9.049   4.638  67.439  1.00  0.00    -0.115 OA 
HETATM    7  C   UNL     1     -10.995   6.049  67.466  1.00  0.00    -0.335 C  
HETATM    8  C   UNL     1      -9.074   6.467  65.837  1.00  0.00    -0.074 C  
HETATM    9  H   UNL     1      -8.646   5.236  68.057  1.00  0.00     0.000 HD 
BRANCH   8  10
HETATM   10  C   UNL     1      -8.509   7.576  66.679  1.00  0.00    -0.130 C  
HETATM   11  C   UNL     1      -8.730   8.882  66.454  1.00  0.00    -0.148 C  
BRANCH  11  12
HETATM   12  C   UNL     1      -8.188  10.030  67.267  1.00  0.00    -0.117 C  
HETATM   13  C   UNL     1      -7.271  10.919  66.410  1.00  0.00    -0.140 C  
HETATM   14  C   UNL     1      -7.188  12.240  67.150  1.00  0.00    -0.100 C  
HETATM   15  O   UNL     1      -5.973  10.355  66.258  1.00  0.00    -0.068 OA 
HETATM   16  H   UNL     1      -5.407  10.904  65.728  1.00  0.00     0.000 HD 
HETATM   17  C   UNL     1      -8.536  12.323  67.793  1.00  0.00    -0.170 C  
HETATM   18  O   UNL     1      -9.009  13.378  68.199  1.00  0.00    -0.179 OA 
HETATM   19  C   UNL     1      -9.247  10.986  67.865  1.00  0.00    -0.155 C  
BRANCH  19  20
HETATM   20  C   UNL     1      -9.647  10.554  69.280  1.00  0.00    -0.199 C  
BRANCH  20  21
HETATM   21  C   UNL     1     -11.129  10.187  69.378  1.00  0.00    -0.288 C  
BRANCH  21  22
HETATM   22  C   UNL     1     -11.987  11.377  69.793  1.00  0.00    -0.422 C  
BRANCH  22  23
HETATM   23  C   UNL     1     -12.684  11.093  71.126  1.00  0.00    -0.510 C  
BRANCH  23  24
HETATM   24  C   UNL     1     -13.216  12.382  71.740  1.00  0.00    -0.435 C  
BRANCH  24  25
HETATM   25  C   UNL     1     -12.519  13.616  71.173  1.00  0.00    -0.442 C  
BRANCH  25  26
HETATM   26  C   UNL     1     -13.188  14.881  71.655  1.00  0.00    -0.359 C  
HETATM   27  O   UNL     1     -14.360  14.978  71.982  1.00  0.00    -0.488 OA 
BRANCH  26  28
HETATM   28  O   UNL     1     -12.289  15.902  71.674  1.00  0.00    -0.421 OA 
HETATM   29  C   UNL     1     -12.060  16.429  72.981  1.00  0.00    -0.482 C  
ENDBRANCH  26  28
ENDBRANCH  25  26
ENDBRANCH  24  25
ENDBRANCH  23  24
ENDBRANCH  22  23
ENDBRANCH  21  22
ENDBRANCH  20  21
ENDBRANCH  19  20
ENDBRANCH  11  12
ENDBRANCH   8  10
ENDBRANCH   3   4
ENDBRANCH   2   3
TORSDOF 12
ENDMDL
MODEL      203
REMARK 921   NORMALIZED FREE ENERGY PREDICTED BY IDOCK:   -3.38 KCAL/MOL
REMARK 922        TOTAL FREE ENERGY PREDICTED BY IDOCK:   -7.79 KCAL/MOL
REMARK 923 INTER-LIGAND FREE ENERGY PREDICTED BY IDOCK:   -6.53 KCAL/MOL
REMARK 924 INTRA-LIGAND FREE ENERGY PREDICTED BY IDOCK:   -1.26 KCAL/MOL
REMARK 927      BINDING AFFINITY PREDICTED BY RF-SCORE:    0.00 PKD
ROOT
HETATM    1  C   UNL     1     -10.545  19.346  66.754  1.00  0.00    -0.574 C  
HETATM    2  C   UNL     1      -9.387  18.532  67.314  1.00  0.00    -0.286 C  
ENDROOT
BRANCH   2   3
HETATM    3  C   UNL     1      -9.309  17.176  66.620  1.00  0.00    -0.277 C  
BRANCH   3   4
HETATM    4  C   UNL     1     -10.518  16.284  66.937  1.00  0.00    -0.302 C  
HETATM    5  C   UNL     1     -10.343  14.827  66.448  1.00  0.00    -0.293 C  
HETATM    6  O   UNL     1     -10.217  14.854  65.020  1.00  0.00    -0.380 OA 
HETATM    7  C   UNL     1     -11.594  14.008  66.799  1.00  0.00    -0.406 C  
HETATM    8  C   UNL     1      -9.062  14.203  67.057  1.00  0.00    -0.255 C  
HETATM    9  H   UNL     1     -10.110  13.960  64.719  1.00  0.00     0.000 HD 
BRANCH   8  10
HETATM   10  C   UNL     1      -8.852  12.738  66.797  1.00  0.00    -0.161 C  
HETATM   11  C   UNL     1      -7.669  12.113  66.910  1.00  0.00    -0.049 C  
BRANCH  11  12
HETATM   12  C   UNL     1      -7.406  10.650  66.662  1.00  0.00    -0.129 C  
HETATM   13  C   UNL     1      -6.245  10.466  65.669  1.00  0.00    -0.126 C  
HETATM   14  C   UNL     1      -5.771   9.038  65.868  1.00  0.00    -0.050 C  
HETATM   15  O   UNL     1      -6.658  10.667  64.322  1.00  0.00    -0.354 OA 
HETATM   16  H   UNL     1      -5.941  10.553  63.709  1.00  0.00     0.000 HD 
HETATM   17  C   UNL     1      -6.039   8.820  67.323  1.00  0.00    -0.055 C  
HETATM   18  O   UNL     1      -5.495   7.929  67.966  1.00  0.00    -0.031 OA 
HETATM   19  C   UNL     1      -7.020   9.817  67.907  1.00  0.00    -0.078 C  
BRANCH  19  20
HETATM   20  C   UNL     1      -8.256   9.185  68.556  1.00  0.00    -0.115 C  
BRANCH  20  21
HETATM   21  C   UNL     1      -8.932   8.162  67.643  1.00  0.00    -0.135 C  
BRANCH  21  22
HETATM   22  C   UNL     1     -10.400   7.957  68.002  1.00  0.00    -0.264 C  
BRANCH  22  23
HETATM   23  C   UNL     1     -10.671   6.484  68.317  1.00  0.00    -0.341 C  
BRANCH  23  24
HETATM   24  C   UNL     1     -11.583   6.354  69.532  1.00  0.00    -0.303 C  
BRANCH  24  25
HETATM   25  C   UNL     1     -11.350   7.473  70.544  1.00  0.00    -0.279 C  
BRANCH  25  26
HETATM   26  C   UNL     1     -12.223   7.286  71.762  1.00  0.00    -0.334 C  
HETATM   27  O   UNL     1     -12.280   6.273  72.440  1.00  0.00    -0.229 OA 
BRANCH  26  28
HETATM   28  O   UNL     1     -12.939   8.419  71.997  1.00  0.00    -0.335 OA 
HETATM   29  C   UNL     1     -12.207   9.616  71.735  1.00  0.00    -0.384 C  
ENDBRANCH  26  28
ENDBRANCH  25  26
ENDBRANCH  24  25
ENDBRANCH  23  24
ENDBRANCH  22  23
ENDBRANCH  21  22
ENDBRANCH  20  21
ENDBRANCH  19  20
ENDBRANCH  11  12
ENDBRANCH   8  10
ENDBRANCH   3   4
ENDBRANCH   2   3
TORSDOF 12
ENDMDL
MODEL      204
REMARK 921   NORMALIZED FREE ENERGY PREDICTED BY IDOCK:   -3.35 KCAL/MOL
REMARK 922        TOTAL FREE ENERGY PREDICTED BY IDOCK:   -7.73 KCAL/MOL
REMARK 923 INTER-LIGAND FREE ENERGY PREDICTED BY IDOCK:   -6.20 KCAL/MOL
REMARK 924 INTRA-LIGAND FREE ENERGY PREDICTED BY IDOCK:   -1.53 KCAL/MOL
REMARK 927      BINDING AFFINITY PREDICTED BY RF-SCORE:    0.00 PKD
ROOT
HETATM    1  C   UNL     1      -5.573   4.147  69.925  1.00  0.00    -0.016 C  
HETATM    2  C   UNL     1      -6.318   4.696  71.135  1.00  0.00    -0.019 C  
ENDROOT
BRANCH   2   3
HETATM    3  C   UNL     1      -6.872   6.084  70.830  1.00  0.00    -0.062 C  
BRANCH   3   4
HETATM    4  C   UNL     1      -8.384   6.178  71.073  1.00  0.00    -0.124 C  
HETATM    5  C   UNL     1      -9.005   7.492  70.541  1.00  0.00    -0.152 C  
HETATM    6  O   UNL     1      -8.407   8.582  71.256  1.00  0.00    -0.127 OA 
HETATM    7  C   UNL     1     -10.514   7.506  70.828  1.00  0.00    -0.217 C  
HETATM    8  C   UNL     1      -8.709   7.655  69.029  1.00  0.00    -0.136 C  
HETATM    9  H   UNL     1      -8.788   9.388  70.930  1.00  0.00     0.000 HD 
BRANCH   8  10
HETATM   10  C   UNL     1      -9.388   8.806  68.343  1.00  0.00    -0.141 C  
HETATM   11  C   UNL     1      -9.010  10.089  68.467  1.00  0.00    -0.124 C  
BRANCH  11  12
HETATM   12  C   UNL     1      -9.656  11.277  67.802  1.00  0.00    -0.181 C  
HETATM   13  C   UNL     1      -8.860  11.704  66.556  1.00  0.00    -0.188 C  
HETATM   14  C   UNL     1      -9.821  12.543  65.735  1.00  0.00    -0.244 C  
HETATM   15  O   UNL     1      -7.706  12.464  66.896  1.00  0.00    -0.340 OA 
HETATM   16  H   UNL     1      -7.214  12.727  66.127  1.00  0.00     0.000 HD 
HETATM   17  C   UNL     1     -11.138  11.910  66.054  1.00  0.00    -0.322 C  
HETATM   18  O   UNL     1     -12.128  12.059  65.346  1.00  0.00    -0.444 OA 
HETATM   19  C   UNL     1     -11.107  11.064  67.311  1.00  0.00    -0.359 C  
BRANCH  19  20
HETATM   20  C   UNL     1     -12.121  11.481  68.383  1.00  0.00    -0.119 C  
BRANCH  20  21
HETATM   21  C   UNL     1     -11.598  12.613  69.267  1.00  0.00    -0.376 C  
BRANCH  21  22
HETATM   22  C   UNL     1     -11.667  12.260  70.749  1.00  0.00     0.353 C  
BRANCH  22  23
HETATM   23  C   UNL     1     -13.119  12.022  71.173  1.00  0.00    -0.123 C  
BRANCH  23  24
HETATM   24  C   UNL     1     -13.680  13.250  71.881  1.00  0.00    -0.403 C  
BRANCH  24  25
HETATM   25  C   UNL     1     -12.578  14.114  72.486  1.00  0.00    -0.279 C  
BRANCH  25  26
HETATM   26  C   UNL     1     -12.639  15.522  71.942  1.00  0.00    -0.405 C  
HETATM   27  O   UNL     1     -13.063  15.834  70.840  1.00  0.00    -0.516 OA 
BRANCH  26  28
HETATM   28  O   UNL     1     -12.152  16.397  72.863  1.00  0.00    -0.516 OA 
HETATM   29  C   UNL     1     -12.345  15.965  74.210  1.00  0.00    -0.619 C  
ENDBRANCH  26  28
ENDBRANCH  25  26
ENDBRANCH  24  25
ENDBRANCH  23  24
ENDBRANCH  22  23
ENDBRANCH  21  22
ENDBRANCH  20  21
ENDBRANCH  19  20
ENDBRANCH  11  12
ENDBRANCH   8  10
ENDBRANCH   3   4
ENDBRANCH   2   3
TORSDOF 12
ENDMDL
MODEL      205
REMARK 921   NORMALIZED FREE ENERGY PREDICTED BY IDOCK:   -3.34 KCAL/MOL
REMARK 922        TOTAL FREE ENERGY PREDICTED BY IDOCK:   -7.71 KCAL/MOL
REMARK 923 INTER-LIGAND FREE ENERGY PREDICTED BY IDOCK:   -6.48 KCAL/MOL
REMARK 924 INTRA-LIGAND FREE ENERGY PREDICTED BY IDOCK:   -1.23 KCAL/MOL
REMARK 927      BINDING AFFINITY PREDICTED BY RF-SCORE:    0.00 PKD
ROOT
HETATM    1  C   UNL     1     -13.674  15.018  71.098  1.00  0.00    -0.484 C  
HETATM    2  C   UNL     1     -12.406  15.688  71.609  1.00  0.00    -0.494 C  
ENDROOT
BRANCH   2   3
HETATM    3  C   UNL     1     -11.390  15.829  70.480  1.00  0.00    -0.400 C  
BRANCH   3   4
HETATM    4  C   UNL     1     -12.000  15.539  69.102  1.00  0.00    -0.331 C  
HETATM    5  C   UNL     1     -11.266  14.411  68.337  1.00  0.00    -0.273 C  
HETATM    6  O   UNL     1      -9.917  14.841  68.107  1.00  0.00    -0.214 OA 
HETATM    7  C   UNL     1     -11.934  14.190  66.972  1.00  0.00    -0.471 C  
HETATM    8  C   UNL     1     -11.246  13.112  69.182  1.00  0.00    -0.303 C  
HETATM    9  H   UNL     1      -9.467  14.149  67.637  1.00  0.00     0.000 HD 
BRANCH   8  10
HETATM   10  C   UNL     1     -10.707  11.888  68.497  1.00  0.00    -0.254 C  
HETATM   11  C   UNL     1     -11.058  10.630  68.812  1.00  0.00    -0.316 C  
BRANCH  11  12
HETATM   12  C   UNL     1     -10.548   9.371  68.158  1.00  0.00    -0.261 C  
HETATM   13  C   UNL     1      -9.795   9.700  66.858  1.00  0.00    -0.200 C  
HETATM   14  C   UNL     1      -8.948   8.476  66.565  1.00  0.00    -0.194 C  
HETATM   15  O   UNL     1     -10.684   9.957  65.777  1.00  0.00     0.050 OA 
HETATM   16  H   UNL     1     -10.218  10.160  64.974  1.00  0.00     0.000 HD 
HETATM   17  C   UNL     1      -8.634   7.977  67.940  1.00  0.00    -0.129 C  
HETATM   18  O   UNL     1      -7.702   7.214  68.167  1.00  0.00    -0.111 OA 
HETATM   19  C   UNL     1      -9.565   8.527  69.003  1.00  0.00    -0.167 C  
BRANCH  19  20
HETATM   20  C   UNL     1     -10.307   7.458  69.813  1.00  0.00    -0.226 C  
BRANCH  20  21
HETATM   21  C   UNL     1     -10.566   6.189  68.998  1.00  0.00    -0.341 C  
BRANCH  21  22
HETATM   22  C   UNL     1      -9.972   4.952  69.664  1.00  0.00    -0.302 C  
BRANCH  22  23
HETATM   23  C   UNL     1      -9.759   3.842  68.631  1.00  0.00    -0.114 C  
BRANCH  23  24
HETATM   24  C   UNL     1      -9.285   4.426  67.305  1.00  0.00    -0.160 C  
BRANCH  24  25
HETATM   25  C   UNL     1      -9.035   3.342  66.260  1.00  0.00    -0.151 C  
BRANCH  25  26
HETATM   26  C   UNL     1      -9.439   3.818  64.885  1.00  0.00    -0.167 C  
HETATM   27  O   UNL     1     -10.588   3.978  64.504  1.00  0.00    -0.257 OA 
BRANCH  26  28
HETATM   28  O   UNL     1      -8.331   4.045  64.129  1.00  0.00    -0.090 OA 
HETATM   29  C   UNL     1      -8.208   5.401  63.699  1.00  0.00    -0.121 C  
ENDBRANCH  26  28
ENDBRANCH  25  26
ENDBRANCH  24  25
ENDBRANCH  23  24
ENDBRANCH  22  23
ENDBRANCH  21  22
ENDBRANCH  20  21
ENDBRANCH  19  20
ENDBRANCH  11  12
ENDBRANCH   8  10
ENDBRANCH   3   4
ENDBRANCH   2   3
TORSDOF 12
ENDMDL
MODEL      206
REMARK 921   NORMALIZED FREE ENERGY PREDICTED BY IDOCK:   -3.32 KCAL/MOL
REMARK 922        TOTAL FREE ENERGY PREDICTED BY IDOCK:   -7.69 KCAL/MOL
REMARK 923 INTER-LIGAND FREE ENERGY PREDICTED BY IDOCK:   -6.49 KCAL/MOL
REMARK 924 INTRA-LIGAND FREE ENERGY PREDICTED BY IDOCK:   -1.20 KCAL/MOL
REMARK 927      BINDING AFFINITY PREDICTED BY RF-SCORE:    0.00 PKD
ROOT
HETATM    1  C   UNL     1     -12.098  17.434  74.446  1.00  0.00     0.239 C  
HETATM    2  C   UNL     1     -12.012  16.505  73.243  1.00  0.00    -0.448 C  
ENDROOT
BRANCH   2   3
HETATM    3  C   UNL     1     -13.393  15.962  72.893  1.00  0.00    -0.635 C  
BRANCH   3   4
HETATM    4  C   UNL     1     -13.472  14.434  73.014  1.00  0.00    -0.376 C  
HETATM    5  C   UNL     1     -13.299  13.707  71.659  1.00  0.00    -0.346 C  
HETATM    6  O   UNL     1     -14.379  14.106  70.805  1.00  0.00     0.006 OA 
HETATM    7  C   UNL     1     -13.396  12.189  71.869  1.00  0.00    -0.421 C  
HETATM    8  C   UNL     1     -11.956  14.109  70.998  1.00  0.00    -0.351 C  
HETATM    9  H   UNL     1     -14.274  13.660  69.973  1.00  0.00     0.000 HD 
BRANCH   8  10
HETATM   10  C   UNL     1     -11.581  13.356  69.753  1.00  0.00    -0.305 C  
HETATM   11  C   UNL     1     -12.175  13.526  68.560  1.00  0.00    -0.160 C  
BRANCH  11  12
HETATM   12  C   UNL     1     -11.837  12.799  67.284  1.00  0.00    -0.414 C  
HETATM   13  C   UNL     1     -11.537  13.796  66.152  1.00  0.00    -0.352 C  
HETATM   14  C   UNL     1     -10.768  13.002  65.113  1.00  0.00    -0.324 C  
HETATM   15  O   UNL     1     -12.727  14.331  65.585  1.00  0.00    -0.471 OA 
HETATM   16  H   UNL     1     -12.542  14.947  64.885  1.00  0.00     0.000 HD 
HETATM   17  C   UNL     1     -10.023  12.019  65.959  1.00  0.00    -0.234 C  
HETATM   18  O   UNL     1      -9.033  11.419  65.554  1.00  0.00    -0.183 OA 
HETATM   19  C   UNL     1     -10.604  11.867  67.351  1.00  0.00    -0.257 C  
BRANCH  19  20
HETATM   20  C   UNL     1     -11.010  10.435  67.716  1.00  0.00    -0.369 C  
BRANCH  20  21
HETATM   21  C   UNL     1      -9.871   9.659  68.378  1.00  0.00    -0.170 C  
BRANCH  21  22
HETATM   22  C   UNL     1      -9.111  10.511  69.390  1.00  0.00    -0.123 C  
BRANCH  22  23
HETATM   23  C   UNL     1      -7.653  10.055  69.482  1.00  0.00    -0.133 C  
BRANCH  23  24
HETATM   24  C   UNL     1      -6.836  10.629  68.330  1.00  0.00    -0.064 C  
BRANCH  24  25
HETATM   25  C   UNL     1      -5.467  11.124  68.791  1.00  0.00    -0.039 C  
BRANCH  25  26
HETATM   26  C   UNL     1      -5.558  11.761  70.157  1.00  0.00    -0.131 C  
HETATM   27  O   UNL     1      -5.308  11.203  71.214  1.00  0.00    -0.228 OA 
BRANCH  26  28
HETATM   28  O   UNL     1      -5.960  13.056  70.039  1.00  0.00    -0.132 OA 
HETATM   29  C   UNL     1      -5.218  13.792  69.066  1.00  0.00    -0.070 C  
ENDBRANCH  26  28
ENDBRANCH  25  26
ENDBRANCH  24  25
ENDBRANCH  23  24
ENDBRANCH  22  23
ENDBRANCH  21  22
ENDBRANCH  20  21
ENDBRANCH  19  20
ENDBRANCH  11  12
ENDBRANCH   8  10
ENDBRANCH   3   4
ENDBRANCH   2   3
TORSDOF 12
ENDMDL
MODEL      207
REMARK 921   NORMALIZED FREE ENERGY PREDICTED BY IDOCK:   -3.31 KCAL/MOL
REMARK 922        TOTAL FREE ENERGY PREDICTED BY IDOCK:   -7.67 KCAL/MOL
REMARK 923 INTER-LIGAND FREE ENERGY PREDICTED BY IDOCK:   -6.34 KCAL/MOL
REMARK 924 INTRA-LIGAND FREE ENERGY PREDICTED BY IDOCK:   -1.33 KCAL/MOL
REMARK 927      BINDING AFFINITY PREDICTED BY RF-SCORE:    0.00 PKD
ROOT
HETATM    1  C   UNL     1      -8.913   8.787  71.694  1.00  0.00    -0.301 C  
HETATM    2  C   UNL     1      -8.284   8.276  70.405  1.00  0.00    -0.114 C  
ENDROOT
BRANCH   2   3
HETATM    3  C   UNL     1      -7.434   9.367  69.762  1.00  0.00    -0.087 C  
BRANCH   3   4
HETATM    4  C   UNL     1      -7.691   9.498  68.254  1.00  0.00    -0.086 C  
HETATM    5  C   UNL     1      -8.620  10.683  67.897  1.00  0.00    -0.124 C  
HETATM    6  O   UNL     1      -9.894  10.443  68.511  1.00  0.00    -0.157 OA 
HETATM    7  C   UNL     1      -8.828  10.739  66.377  1.00  0.00    -0.174 C  
HETATM    8  C   UNL     1      -8.036  12.010  68.444  1.00  0.00    -0.154 C  
HETATM    9  H   UNL     1     -10.465  11.170  68.291  1.00  0.00     0.000 HD 
BRANCH   8  10
HETATM   10  C   UNL     1      -8.752  13.266  68.032  1.00  0.00    -0.186 C  
HETATM   11  C   UNL     1      -8.648  14.440  68.676  1.00  0.00    -0.161 C  
BRANCH  11  12
HETATM   12  C   UNL     1      -9.343  15.725  68.304  1.00  0.00    -0.193 C  
HETATM   13  C   UNL     1      -9.971  16.383  69.545  1.00  0.00    -0.161 C  
HETATM   14  C   UNL     1     -10.198  17.832  69.158  1.00  0.00    -0.211 C  
HETATM   15  O   UNL     1     -11.203  15.769  69.906  1.00  0.00    -0.277 OA 
HETATM   16  H   UNL     1     -11.592  16.175  70.673  1.00  0.00     0.000 HD 
HETATM   17  C   UNL     1      -9.064  18.085  68.216  1.00  0.00    -0.278 C  
HETATM   18  O   UNL     1      -8.677  19.215  67.940  1.00  0.00    -0.290 OA 
HETATM   19  C   UNL     1      -8.444  16.814  67.671  1.00  0.00    -0.197 C  
BRANCH  19  20
HETATM   20  C   UNL     1      -8.444  16.712  66.142  1.00  0.00    -0.308 C  
BRANCH  20  21
HETATM   21  C   UNL     1      -9.854  16.796  65.555  1.00  0.00     0.021 C  
BRANCH  21  22
HETATM   22  C   UNL     1     -10.412  15.420  65.209  1.00  0.00    -0.440 C  
BRANCH  22  23
HETATM   23  C   UNL     1     -11.489  15.012  66.217  1.00  0.00    -0.214 C  
BRANCH  23  24
HETATM   24  C   UNL     1     -12.410  13.953  65.621  1.00  0.00    -0.511 C  
BRANCH  24  25
HETATM   25  C   UNL     1     -12.283  13.875  64.102  1.00  0.00    -0.436 C  
BRANCH  25  26
HETATM   26  C   UNL     1     -12.491  12.459  63.618  1.00  0.00    -0.508 C  
HETATM   27  O   UNL     1     -13.406  11.726  63.956  1.00  0.00    -0.541 OA 
BRANCH  26  28
HETATM   28  O   UNL     1     -11.505  12.119  62.743  1.00  0.00     0.140 OA 
HETATM   29  C   UNL     1     -10.441  11.384  63.349  1.00  0.00    -0.390 C  
ENDBRANCH  26  28
ENDBRANCH  25  26
ENDBRANCH  24  25
ENDBRANCH  23  24
ENDBRANCH  22  23
ENDBRANCH  21  22
ENDBRANCH  20  21
ENDBRANCH  19  20
ENDBRANCH  11  12
ENDBRANCH   8  10
ENDBRANCH   3   4
ENDBRANCH   2   3
TORSDOF 12
ENDMDL
MODEL      208
REMARK 921   NORMALIZED FREE ENERGY PREDICTED BY IDOCK:   -3.30 KCAL/MOL
REMARK 922        TOTAL FREE ENERGY PREDICTED BY IDOCK:   -7.66 KCAL/MOL
REMARK 923 INTER-LIGAND FREE ENERGY PREDICTED BY IDOCK:   -6.70 KCAL/MOL
REMARK 924 INTRA-LIGAND FREE ENERGY PREDICTED BY IDOCK:   -0.97 KCAL/MOL
REMARK 927      BINDING AFFINITY PREDICTED BY RF-SCORE:    0.00 PKD
ROOT
HETATM    1  C   UNL     1     -10.050  20.090  65.929  1.00  0.00    -0.497 C  
HETATM    2  C   UNL     1     -10.757  18.745  65.840  1.00  0.00    -0.323 C  
ENDROOT
BRANCH   2   3
HETATM    3  C   UNL     1      -9.905  17.655  66.482  1.00  0.00    -0.323 C  
BRANCH   3   4
HETATM    4  C   UNL     1     -10.251  16.255  65.960  1.00  0.00    -0.376 C  
HETATM    5  C   UNL     1     -10.037  15.142  67.013  1.00  0.00    -0.244 C  
HETATM    6  O   UNL     1      -8.643  15.120  67.352  1.00  0.00    -0.163 OA 
HETATM    7  C   UNL     1     -10.401  13.778  66.409  1.00  0.00    -0.290 C  
HETATM    8  C   UNL     1     -10.863  15.441  68.290  1.00  0.00    -0.269 C  
HETATM    9  H   UNL     1      -8.511  14.437  67.999  1.00  0.00     0.000 HD 
BRANCH   8  10
HETATM   10  C   UNL     1     -10.878  14.362  69.336  1.00  0.00    -0.227 C  
HETATM   11  C   UNL     1     -11.946  13.597  69.617  1.00  0.00    -0.402 C  
BRANCH  11  12
HETATM   12  C   UNL     1     -12.012  12.505  70.653  1.00  0.00    -0.196 C  
HETATM   13  C   UNL     1     -13.256  12.671  71.541  1.00  0.00    -0.221 C  
HETATM   14  C   UNL     1     -13.472  11.315  72.185  1.00  0.00    -0.197 C  
HETATM   15  O   UNL     1     -13.069  13.668  72.540  1.00  0.00    -0.426 OA 
HETATM   16  H   UNL     1     -13.837  13.771  73.088  1.00  0.00     0.000 HD 
HETATM   17  C   UNL     1     -12.976  10.383  71.126  1.00  0.00    -0.412 C  
HETATM   18  O   UNL     1     -13.282   9.196  71.096  1.00  0.00    -0.266 OA 
HETATM   19  C   UNL     1     -12.089  11.061  70.101  1.00  0.00    -0.438 C  
BRANCH  19  20
HETATM   20  C   UNL     1     -10.692  10.446  69.962  1.00  0.00    -0.321 C  
BRANCH  20  21
HETATM   21  C   UNL     1     -10.693   9.198  69.077  1.00  0.00    -0.176 C  
BRANCH  21  22
HETATM   22  C   UNL     1      -9.314   8.554  68.995  1.00  0.00    -0.146 C  
BRANCH  22  23
HETATM   23  C   UNL     1      -9.236   7.612  67.791  1.00  0.00    -0.141 C  
BRANCH  23  24
HETATM   24  C   UNL     1      -8.289   8.169  66.734  1.00  0.00    -0.115 C  
BRANCH  24  25
HETATM   25  C   UNL     1      -8.596   7.618  65.344  1.00  0.00    -0.074 C  
BRANCH  25  26
HETATM   26  C   UNL     1      -7.860   8.398  64.281  1.00  0.00    -0.143 C  
HETATM   27  O   UNL     1      -7.846   8.129  63.091  1.00  0.00    -0.135 OA 
BRANCH  26  28
HETATM   28  O   UNL     1      -7.211   9.453  64.847  1.00  0.00    -0.099 OA 
HETATM   29  C   UNL     1      -6.568  10.298  63.892  1.00  0.00    -0.075 C  
ENDBRANCH  26  28
ENDBRANCH  25  26
ENDBRANCH  24  25
ENDBRANCH  23  24
ENDBRANCH  22  23
ENDBRANCH  21  22
ENDBRANCH  20  21
ENDBRANCH  19  20
ENDBRANCH  11  12
ENDBRANCH   8  10
ENDBRANCH   3   4
ENDBRANCH   2   3
TORSDOF 12
ENDMDL
MODEL      209
REMARK 921   NORMALIZED FREE ENERGY PREDICTED BY IDOCK:   -3.29 KCAL/MOL
REMARK 922        TOTAL FREE ENERGY PREDICTED BY IDOCK:   -7.63 KCAL/MOL
REMARK 923 INTER-LIGAND FREE ENERGY PREDICTED BY IDOCK:   -6.12 KCAL/MOL
REMARK 924 INTRA-LIGAND FREE ENERGY PREDICTED BY IDOCK:   -1.51 KCAL/MOL
REMARK 927      BINDING AFFINITY PREDICTED BY RF-SCORE:    0.00 PKD
ROOT
HETATM    1  C   UNL     1      -8.813   3.085  64.094  1.00  0.00    -0.098 C  
HETATM    2  C   UNL     1      -8.312   4.507  63.881  1.00  0.00    -0.112 C  
ENDROOT
BRANCH   2   3
HETATM    3  C   UNL     1      -8.396   5.299  65.181  1.00  0.00    -0.145 C  
BRANCH   3   4
HETATM    4  C   UNL     1      -7.199   6.240  65.373  1.00  0.00    -0.070 C  
HETATM    5  C   UNL     1      -7.459   7.670  64.840  1.00  0.00    -0.092 C  
HETATM    6  O   UNL     1      -7.686   7.578  63.427  1.00  0.00    -0.118 OA 
HETATM    7  C   UNL     1      -6.215   8.542  65.066  1.00  0.00    -0.060 C  
HETATM    8  C   UNL     1      -8.714   8.278  65.516  1.00  0.00    -0.173 C  
HETATM    9  H   UNL     1      -7.845   8.455  63.099  1.00  0.00     0.000 HD 
BRANCH   8  10
HETATM   10  C   UNL     1      -8.993   9.723  65.213  1.00  0.00    -0.233 C  
HETATM   11  C   UNL     1     -10.202  10.298  65.323  1.00  0.00    -0.308 C  
BRANCH  11  12
HETATM   12  C   UNL     1     -10.533  11.740  65.033  1.00  0.00    -0.332 C  
HETATM   13  C   UNL     1     -11.107  11.892  63.613  1.00  0.00    -0.440 C  
HETATM   14  C   UNL     1     -11.826  13.227  63.613  1.00  0.00    -0.515 C  
HETATM   15  O   UNL     1     -10.086  11.880  62.622  1.00  0.00    -0.412 OA 
HETATM   16  H   UNL     1     -10.440  11.973  61.745  1.00  0.00     0.000 HD 
HETATM   17  C   UNL     1     -12.307  13.323  65.026  1.00  0.00    -0.448 C  
HETATM   18  O   UNL     1     -13.215  14.075  65.363  1.00  0.00    -0.761 OA 
HETATM   19  C   UNL     1     -11.577  12.390  65.971  1.00  0.00    -0.455 C  
BRANCH  19  20
HETATM   20  C   UNL     1     -10.899  13.087  67.156  1.00  0.00    -0.278 C  
BRANCH  20  21
HETATM   21  C   UNL     1      -9.418  13.366  66.894  1.00  0.00    -0.253 C  
BRANCH  21  22
HETATM   22  C   UNL     1      -8.511  12.457  67.717  1.00  0.00    -0.169 C  
BRANCH  22  23
HETATM   23  C   UNL     1      -7.151  12.301  67.034  1.00  0.00    -0.040 C  
BRANCH  23  24
HETATM   24  C   UNL     1      -6.215  13.436  67.432  1.00  0.00     0.033 C  
BRANCH  24  25
HETATM   25  C   UNL     1      -6.235  13.691  68.937  1.00  0.00    -0.092 C  
BRANCH  25  26
HETATM   26  C   UNL     1      -6.244  15.173  69.231  1.00  0.00    -0.112 C  
HETATM   27  O   UNL     1      -5.584  15.724  70.097  1.00  0.00    -0.146 OA 
BRANCH  26  28
HETATM   28  O   UNL     1      -7.098  15.809  68.383  1.00  0.00    -0.112 OA 
HETATM   29  C   UNL     1      -6.872  17.216  68.303  1.00  0.00    -0.177 C  
ENDBRANCH  26  28
ENDBRANCH  25  26
ENDBRANCH  24  25
ENDBRANCH  23  24
ENDBRANCH  22  23
ENDBRANCH  21  22
ENDBRANCH  20  21
ENDBRANCH  19  20
ENDBRANCH  11  12
ENDBRANCH   8  10
ENDBRANCH   3   4
ENDBRANCH   2   3
TORSDOF 12
ENDMDL
MODEL      210
REMARK 921   NORMALIZED FREE ENERGY PREDICTED BY IDOCK:   -3.27 KCAL/MOL
REMARK 922        TOTAL FREE ENERGY PREDICTED BY IDOCK:   -7.60 KCAL/MOL
REMARK 923 INTER-LIGAND FREE ENERGY PREDICTED BY IDOCK:   -6.07 KCAL/MOL
REMARK 924 INTRA-LIGAND FREE ENERGY PREDICTED BY IDOCK:   -1.53 KCAL/MOL
REMARK 927      BINDING AFFINITY PREDICTED BY RF-SCORE:    0.00 PKD
ROOT
HETATM    1  C   UNL     1     -11.992  15.016  72.058  1.00  0.00    -0.464 C  
HETATM    2  C   UNL     1     -13.008  14.321  71.163  1.00  0.00    -0.423 C  
ENDROOT
BRANCH   2   3
HETATM    3  C   UNL     1     -12.564  12.892  70.866  1.00  0.00    -0.355 C  
BRANCH   3   4
HETATM    4  C   UNL     1     -13.273  11.861  71.754  1.00  0.00    -0.426 C  
HETATM    5  C   UNL     1     -12.901  10.400  71.405  1.00  0.00    -0.452 C  
HETATM    6  O   UNL     1     -13.329  10.146  70.060  1.00  0.00    -0.463 OA 
HETATM    7  C   UNL     1     -13.654   9.437  72.333  1.00  0.00    -0.498 C  
HETATM    8  C   UNL     1     -11.366  10.198  71.494  1.00  0.00     0.023 C  
HETATM    9  H   UNL     1     -13.101   9.250  69.845  1.00  0.00     0.000 HD 
BRANCH   8  10
HETATM   10  C   UNL     1     -10.876   8.786  71.338  1.00  0.00    -0.359 C  
HETATM   11  C   UNL     1      -9.906   8.236  72.087  1.00  0.00    -0.342 C  
BRANCH  11  12
HETATM   12  C   UNL     1      -9.380   6.829  71.971  1.00  0.00    -0.144 C  
HETATM   13  C   UNL     1      -8.740   6.376  73.295  1.00  0.00    -0.124 C  
HETATM   14  C   UNL     1      -8.696   4.861  73.220  1.00  0.00    -0.104 C  
HETATM   15  O   UNL     1      -7.428   6.901  73.459  1.00  0.00    -0.081 OA 
HETATM   16  H   UNL     1      -7.033   6.622  74.277  1.00  0.00     0.000 HD 
HETATM   17  C   UNL     1      -9.913   4.553  72.408  1.00  0.00    -0.171 C  
HETATM   18  O   UNL     1     -10.436   3.444  72.400  1.00  0.00    -0.127 OA 
HETATM   19  C   UNL     1     -10.431   5.746  71.629  1.00  0.00    -0.286 C  
BRANCH  19  20
HETATM   20  C   UNL     1     -10.526   5.524  70.116  1.00  0.00    -0.370 C  
BRANCH  20  21
HETATM   21  C   UNL     1      -9.178   5.710  69.417  1.00  0.00    -0.145 C  
BRANCH  21  22
HETATM   22  C   UNL     1      -9.280   6.649  68.219  1.00  0.00    -0.121 C  
BRANCH  22  23
HETATM   23  C   UNL     1      -7.938   7.342  67.969  1.00  0.00    -0.119 C  
BRANCH  23  24
HETATM   24  C   UNL     1      -7.404   6.997  66.584  1.00  0.00    -0.080 C  
BRANCH  24  25
HETATM   25  C   UNL     1      -6.819   5.588  66.532  1.00  0.00    -0.059 C  
BRANCH  25  26
HETATM   26  C   UNL     1      -7.597   4.718  65.574  1.00  0.00    -0.085 C  
HETATM   27  O   UNL     1      -8.460   5.111  64.805  1.00  0.00    -0.141 OA 
BRANCH  26  28
HETATM   28  O   UNL     1      -7.193   3.423  65.691  1.00  0.00    -0.065 OA 
HETATM   29  C   UNL     1      -8.276   2.496  65.745  1.00  0.00    -0.087 C  
ENDBRANCH  26  28
ENDBRANCH  25  26
ENDBRANCH  24  25
ENDBRANCH  23  24
ENDBRANCH  22  23
ENDBRANCH  21  22
ENDBRANCH  20  21
ENDBRANCH  19  20
ENDBRANCH  11  12
ENDBRANCH   8  10
ENDBRANCH   3   4
ENDBRANCH   2   3
TORSDOF 12
ENDMDL
MODEL      211
REMARK 921   NORMALIZED FREE ENERGY PREDICTED BY IDOCK:   -3.23 KCAL/MOL
REMARK 922        TOTAL FREE ENERGY PREDICTED BY IDOCK:   -7.53 KCAL/MOL
REMARK 923 INTER-LIGAND FREE ENERGY PREDICTED BY IDOCK:   -6.24 KCAL/MOL
REMARK 924 INTRA-LIGAND FREE ENERGY PREDICTED BY IDOCK:   -1.29 KCAL/MOL
REMARK 927      BINDING AFFINITY PREDICTED BY RF-SCORE:    0.00 PKD
ROOT
HETATM    1  C   UNL     1     -10.084  13.290  66.258  1.00  0.00    -0.294 C  
HETATM    2  C   UNL     1     -10.628  13.460  67.669  1.00  0.00    -0.249 C  
ENDROOT
BRANCH   2   3
HETATM    3  C   UNL     1     -11.137  12.126  68.204  1.00  0.00    -0.295 C  
BRANCH   3   4
HETATM    4  C   UNL     1     -11.799  12.260  69.582  1.00  0.00    -0.393 C  
HETATM    5  C   UNL     1     -12.012  10.900  70.290  1.00  0.00    -0.361 C  
HETATM    6  O   UNL     1     -12.903  10.119  69.482  1.00  0.00    -0.400 OA 
HETATM    7  C   UNL     1     -12.681  11.124  71.654  1.00  0.00    -0.466 C  
HETATM    8  C   UNL     1     -10.664  10.148  70.430  1.00  0.00    -0.329 C  
HETATM    9  H   UNL     1     -13.034   9.284  69.916  1.00  0.00     0.000 HD 
BRANCH   8  10
HETATM   10  C   UNL     1     -10.695   8.885  71.242  1.00  0.00    -0.357 C  
HETATM   11  C   UNL     1      -9.607   8.157  71.548  1.00  0.00    -0.226 C  
BRANCH  11  12
HETATM   12  C   UNL     1      -9.584   6.886  72.358  1.00  0.00    -0.167 C  
HETATM   13  C   UNL     1      -9.782   7.189  73.853  1.00  0.00    -0.293 C  
HETATM   14  C   UNL     1     -10.215   5.874  74.474  1.00  0.00    -0.293 C  
HETATM   15  O   UNL     1      -8.585   7.655  74.466  1.00  0.00    -0.335 OA 
HETATM   16  H   UNL     1      -8.708   7.843  75.389  1.00  0.00     0.000 HD 
HETATM   17  C   UNL     1     -10.976   5.236  73.356  1.00  0.00    -0.316 C  
HETATM   18  O   UNL     1     -11.776   4.326  73.539  1.00  0.00    -0.204 OA 
HETATM   19  C   UNL     1     -10.670   5.844  72.001  1.00  0.00    -0.282 C  
BRANCH  19  20
HETATM   20  C   UNL     1     -10.156   4.844  70.958  1.00  0.00    -0.288 C  
BRANCH  20  21
HETATM   21  C   UNL     1      -8.735   4.369  71.261  1.00  0.00    -0.135 C  
BRANCH  21  22
HETATM   22  C   UNL     1      -7.979   3.981  69.994  1.00  0.00    -0.052 C  
BRANCH  22  23
HETATM   23  C   UNL     1      -8.961   3.585  68.888  1.00  0.00    -0.181 C  
BRANCH  23  24
HETATM   24  C   UNL     1      -8.702   2.156  68.426  1.00  0.00    -0.126 C  
BRANCH  24  25
HETATM   25  C   UNL     1      -8.315   2.093  66.951  1.00  0.00    -0.091 C  
BRANCH  25  26
HETATM   26  C   UNL     1      -6.837   2.346  66.772  1.00  0.00    -0.044 C  
HETATM   27  O   UNL     1      -5.989   2.220  67.642  1.00  0.00    -0.022 OA 
BRANCH  26  28
HETATM   28  O   UNL     1      -6.584   2.735  65.492  1.00  0.00    -0.034 OA 
HETATM   29  C   UNL     1      -5.479   2.050  64.901  1.00  0.00    -0.008 C  
ENDBRANCH  26  28
ENDBRANCH  25  26
ENDBRANCH  24  25
ENDBRANCH  23  24
ENDBRANCH  22  23
ENDBRANCH  21  22
ENDBRANCH  20  21
ENDBRANCH  19  20
ENDBRANCH  11  12
ENDBRANCH   8  10
ENDBRANCH   3   4
ENDBRANCH   2   3
TORSDOF 12
ENDMDL
MODEL      212
REMARK 921   NORMALIZED FREE ENERGY PREDICTED BY IDOCK:   -3.22 KCAL/MOL
REMARK 922        TOTAL FREE ENERGY PREDICTED BY IDOCK:   -7.51 KCAL/MOL
REMARK 923 INTER-LIGAND FREE ENERGY PREDICTED BY IDOCK:   -6.20 KCAL/MOL
REMARK 924 INTRA-LIGAND FREE ENERGY PREDICTED BY IDOCK:   -1.32 KCAL/MOL
REMARK 927      BINDING AFFINITY PREDICTED BY RF-SCORE:    0.00 PKD
ROOT
HETATM    1  C   UNL     1     -12.004  13.690  64.274  1.00  0.00    -0.488 C  
HETATM    2  C   UNL     1     -12.908  13.860  65.487  1.00  0.00    -0.471 C  
ENDROOT
BRANCH   2   3
HETATM    3  C   UNL     1     -12.070  14.053  66.748  1.00  0.00    -0.480 C  
BRANCH   3   4
HETATM    4  C   UNL     1     -10.603  13.653  66.544  1.00  0.00    -0.282 C  
HETATM    5  C   UNL     1     -10.175  12.445  67.411  1.00  0.00    -0.208 C  
HETATM    6  O   UNL     1     -10.310  12.822  68.788  1.00  0.00    -0.351 OA 
HETATM    7  C   UNL     1      -8.698  12.116  67.151  1.00  0.00    -0.190 C  
HETATM    8  C   UNL     1     -11.091  11.227  67.128  1.00  0.00    -0.364 C  
HETATM    9  H   UNL     1     -10.048  12.081  69.321  1.00  0.00     0.000 HD 
BRANCH   8  10
HETATM   10  C   UNL     1     -10.691   9.934  67.781  1.00  0.00    -0.332 C  
HETATM   11  C   UNL     1     -10.305   8.837  67.110  1.00  0.00    -0.364 C  
BRANCH  11  12
HETATM   12  C   UNL     1      -9.894   7.519  67.716  1.00  0.00    -0.191 C  
HETATM   13  C   UNL     1      -8.833   6.826  66.845  1.00  0.00    -0.119 C  
HETATM   14  C   UNL     1      -8.171   5.808  67.754  1.00  0.00    -0.101 C  
HETATM   15  O   UNL     1      -9.411   6.179  65.716  1.00  0.00    -0.350 OA 
HETATM   16  H   UNL     1      -8.755   5.750  65.178  1.00  0.00     0.000 HD 
HETATM   17  C   UNL     1      -8.252   6.482  69.087  1.00  0.00    -0.116 C  
HETATM   18  O   UNL     1      -7.538   6.162  70.031  1.00  0.00    -0.090 OA 
HETATM   19  C   UNL     1      -9.278   7.596  69.133  1.00  0.00    -0.141 C  
BRANCH  19  20
HETATM   20  C   UNL     1     -10.352   7.427  70.214  1.00  0.00    -0.217 C  
BRANCH  20  21
HETATM   21  C   UNL     1      -9.850   7.838  71.599  1.00  0.00    -0.201 C  
BRANCH  21  22
HETATM   22  C   UNL     1     -10.014   6.719  72.622  1.00  0.00    -0.186 C  
BRANCH  22  23
HETATM   23  C   UNL     1     -10.987   5.658  72.101  1.00  0.00    -0.307 C  
BRANCH  23  24
HETATM   24  C   UNL     1     -10.228   4.508  71.449  1.00  0.00    -0.183 C  
BRANCH  24  25
HETATM   25  C   UNL     1      -9.620   3.565  72.484  1.00  0.00    -0.194 C  
BRANCH  25  26
HETATM   26  C   UNL     1      -8.123   3.470  72.309  1.00  0.00    -0.072 C  
HETATM   27  O   UNL     1      -7.553   2.805  71.459  1.00  0.00    -0.040 OA 
BRANCH  26  28
HETATM   28  O   UNL     1      -7.497   4.239  73.241  1.00  0.00    -0.073 OA 
HETATM   29  C   UNL     1      -8.063   4.117  74.547  1.00  0.00    -0.087 C  
ENDBRANCH  26  28
ENDBRANCH  25  26
ENDBRANCH  24  25
ENDBRANCH  23  24
ENDBRANCH  22  23
ENDBRANCH  21  22
ENDBRANCH  20  21
ENDBRANCH  19  20
ENDBRANCH  11  12
ENDBRANCH   8  10
ENDBRANCH   3   4
ENDBRANCH   2   3
TORSDOF 12
ENDMDL
MODEL      213
REMARK 921   NORMALIZED FREE ENERGY PREDICTED BY IDOCK:   -3.22 KCAL/MOL
REMARK 922        TOTAL FREE ENERGY PREDICTED BY IDOCK:   -7.51 KCAL/MOL
REMARK 923 INTER-LIGAND FREE ENERGY PREDICTED BY IDOCK:   -5.89 KCAL/MOL
REMARK 924 INTRA-LIGAND FREE ENERGY PREDICTED BY IDOCK:   -1.62 KCAL/MOL
REMARK 927      BINDING AFFINITY PREDICTED BY RF-SCORE:    0.00 PKD
ROOT
HETATM    1  C   UNL     1      -7.739  10.114  63.751  1.00  0.00    -0.141 C  
HETATM    2  C   UNL     1      -9.236  10.093  63.474  1.00  0.00    -0.322 C  
ENDROOT
BRANCH   2   3
HETATM    3  C   UNL     1     -10.017  10.122  64.784  1.00  0.00    -0.334 C  
BRANCH   3   4
HETATM    4  C   UNL     1      -9.100  10.137  66.014  1.00  0.00    -0.185 C  
HETATM    5  C   UNL     1      -9.209   8.852  66.870  1.00  0.00    -0.147 C  
HETATM    6  O   UNL     1     -10.554   8.765  67.362  1.00  0.00    -0.313 OA 
HETATM    7  C   UNL     1      -8.267   8.952  68.078  1.00  0.00    -0.110 C  
HETATM    8  C   UNL     1      -8.904   7.602  66.007  1.00  0.00    -0.186 C  
HETATM    9  H   UNL     1     -10.621   7.977  67.888  1.00  0.00     0.000 HD 
BRANCH   8  10
HETATM   10  C   UNL     1      -8.816   6.296  66.745  1.00  0.00    -0.126 C  
HETATM   11  C   UNL     1      -9.753   5.334  66.693  1.00  0.00    -0.177 C  
BRANCH  11  12
HETATM   12  C   UNL     1      -9.712   4.010  67.412  1.00  0.00    -0.190 C  
HETATM   13  C   UNL     1      -8.963   2.959  66.575  1.00  0.00    -0.152 C  
HETATM   14  C   UNL     1      -8.573   1.869  67.555  1.00  0.00    -0.107 C  
HETATM   15  O   UNL     1      -9.779   2.423  65.539  1.00  0.00    -0.356 OA 
HETATM   16  H   UNL     1      -9.316   1.774  65.022  1.00  0.00     0.000 HD 
HETATM   17  C   UNL     1      -8.364   2.645  68.817  1.00  0.00    -0.064 C  
HETATM   18  O   UNL     1      -7.716   2.206  69.760  1.00  0.00    -0.043 OA 
HETATM   19  C   UNL     1      -9.009   4.017  68.790  1.00  0.00    -0.166 C  
BRANCH  19  20
HETATM   20  C   UNL     1     -10.011   4.270  69.922  1.00  0.00    -0.179 C  
BRANCH  20  21
HETATM   21  C   UNL     1      -9.574   5.414  70.838  1.00  0.00    -0.226 C  
BRANCH  21  22
HETATM   22  C   UNL     1     -10.306   5.386  72.176  1.00  0.00    -0.265 C  
BRANCH  22  23
HETATM   23  C   UNL     1     -10.577   6.811  72.665  1.00  0.00    -0.252 C  
BRANCH  23  24
HETATM   24  C   UNL     1      -9.327   7.672  72.532  1.00  0.00    -0.215 C  
BRANCH  24  25
HETATM   25  C   UNL     1      -9.603   8.966  71.771  1.00  0.00    -0.353 C  
BRANCH  25  26
HETATM   26  C   UNL     1     -10.940   8.904  71.072  1.00  0.00    -0.276 C  
HETATM   27  O   UNL     1     -11.167   8.296  70.038  1.00  0.00    -0.203 OA 
BRANCH  26  28
HETATM   28  O   UNL     1     -11.861   9.626  71.766  1.00  0.00    -0.386 OA 
HETATM   29  C   UNL     1     -12.528  10.606  70.971  1.00  0.00    -0.413 C  
ENDBRANCH  26  28
ENDBRANCH  25  26
ENDBRANCH  24  25
ENDBRANCH  23  24
ENDBRANCH  22  23
ENDBRANCH  21  22
ENDBRANCH  20  21
ENDBRANCH  19  20
ENDBRANCH  11  12
ENDBRANCH   8  10
ENDBRANCH   3   4
ENDBRANCH   2   3
TORSDOF 12
ENDMDL
MODEL      214
REMARK 921   NORMALIZED FREE ENERGY PREDICTED BY IDOCK:   -3.22 KCAL/MOL
REMARK 922        TOTAL FREE ENERGY PREDICTED BY IDOCK:   -7.51 KCAL/MOL
REMARK 923 INTER-LIGAND FREE ENERGY PREDICTED BY IDOCK:   -6.58 KCAL/MOL
REMARK 924 INTRA-LIGAND FREE ENERGY PREDICTED BY IDOCK:   -0.93 KCAL/MOL
REMARK 927      BINDING AFFINITY PREDICTED BY RF-SCORE:    0.00 PKD
ROOT
HETATM    1  C   UNL     1     -12.329  13.557  67.142  1.00  0.00    -0.220 C  
HETATM    2  C   UNL     1     -11.525  13.964  65.915  1.00  0.00    -0.328 C  
ENDROOT
BRANCH   2   3
HETATM    3  C   UNL     1     -10.162  13.279  65.923  1.00  0.00    -0.295 C  
BRANCH   3   4
HETATM    4  C   UNL     1      -9.977  12.326  64.734  1.00  0.00    -0.215 C  
HETATM    5  C   UNL     1      -9.460  10.928  65.150  1.00  0.00    -0.227 C  
HETATM    6  O   UNL     1      -8.167  11.096  65.746  1.00  0.00    -0.312 OA 
HETATM    7  C   UNL     1      -9.299  10.044  63.905  1.00  0.00    -0.315 C  
HETATM    8  C   UNL     1     -10.416  10.286  66.187  1.00  0.00    -0.200 C  
HETATM    9  H   UNL     1      -7.850  10.238  66.001  1.00  0.00     0.000 HD 
BRANCH   8  10
HETATM   10  C   UNL     1     -10.126   8.860  66.560  1.00  0.00    -0.356 C  
HETATM   11  C   UNL     1     -10.752   8.193  67.544  1.00  0.00    -0.227 C  
BRANCH  11  12
HETATM   12  C   UNL     1     -10.498   6.766  67.955  1.00  0.00    -0.253 C  
HETATM   13  C   UNL     1     -10.156   5.899  66.732  1.00  0.00    -0.192 C  
HETATM   14  C   UNL     1      -9.473   4.666  67.293  1.00  0.00    -0.173 C  
HETATM   15  O   UNL     1     -11.319   5.529  65.999  1.00  0.00    -0.753 OA 
HETATM   16  H   UNL     1     -11.107   4.993  65.243  1.00  0.00     0.000 HD 
HETATM   17  C   UNL     1      -8.779   5.216  68.499  1.00  0.00    -0.097 C  
HETATM   18  O   UNL     1      -7.845   4.637  69.042  1.00  0.00    -0.070 OA 
HETATM   19  C   UNL     1      -9.334   6.552  68.951  1.00  0.00    -0.131 C  
BRANCH  19  20
HETATM   20  C   UNL     1      -9.833   6.575  70.401  1.00  0.00    -0.193 C  
BRANCH  20  21
HETATM   21  C   UNL     1     -10.456   7.920  70.778  1.00  0.00    -0.218 C  
BRANCH  21  22
HETATM   22  C   UNL     1     -10.147   8.308  72.220  1.00  0.00    -0.370 C  
BRANCH  22  23
HETATM   23  C   UNL     1     -10.906   7.401  73.191  1.00  0.00    -0.435 C  
BRANCH  23  24
HETATM   24  C   UNL     1      -9.991   6.932  74.316  1.00  0.00    -0.308 C  
BRANCH  24  25
HETATM   25  C   UNL     1      -9.051   5.819  73.861  1.00  0.00    -0.126 C  
BRANCH  25  26
HETATM   26  C   UNL     1      -9.792   4.509  73.735  1.00  0.00    -0.143 C  
HETATM   27  O   UNL     1     -10.998   4.393  73.584  1.00  0.00    -0.253 OA 
BRANCH  26  28
HETATM   28  O   UNL     1      -8.916   3.471  73.811  1.00  0.00    -0.087 OA 
HETATM   29  C   UNL     1      -9.291   2.354  73.005  1.00  0.00    -0.084 C  
ENDBRANCH  26  28
ENDBRANCH  25  26
ENDBRANCH  24  25
ENDBRANCH  23  24
ENDBRANCH  22  23
ENDBRANCH  21  22
ENDBRANCH  20  21
ENDBRANCH  19  20
ENDBRANCH  11  12
ENDBRANCH   8  10
ENDBRANCH   3   4
ENDBRANCH   2   3
TORSDOF 12
ENDMDL
MODEL      215
REMARK 921   NORMALIZED FREE ENERGY PREDICTED BY IDOCK:   -3.21 KCAL/MOL
REMARK 922        TOTAL FREE ENERGY PREDICTED BY IDOCK:   -7.50 KCAL/MOL
REMARK 923 INTER-LIGAND FREE ENERGY PREDICTED BY IDOCK:   -6.37 KCAL/MOL
REMARK 924 INTRA-LIGAND FREE ENERGY PREDICTED BY IDOCK:   -1.14 KCAL/MOL
REMARK 927      BINDING AFFINITY PREDICTED BY RF-SCORE:    0.00 PKD
ROOT
HETATM    1  C   UNL     1      -8.159   2.363  63.720  1.00  0.00    -0.081 C  
HETATM    2  C   UNL     1      -7.905   3.680  64.441  1.00  0.00    -0.085 C  
ENDROOT
BRANCH   2   3
HETATM    3  C   UNL     1      -8.407   3.603  65.879  1.00  0.00    -0.106 C  
BRANCH   3   4
HETATM    4  C   UNL     1      -9.690   4.417  66.097  1.00  0.00    -0.220 C  
HETATM    5  C   UNL     1      -9.522   5.547  67.141  1.00  0.00    -0.122 C  
HETATM    6  O   UNL     1      -9.203   4.939  68.400  1.00  0.00    -0.113 OA 
HETATM    7  C   UNL     1     -10.847   6.306  67.302  1.00  0.00    -0.457 C  
HETATM    8  C   UNL     1      -8.366   6.494  66.730  1.00  0.00    -0.111 C  
HETATM    9  H   UNL     1      -9.101   5.632  69.041  1.00  0.00     0.000 HD 
BRANCH   8  10
HETATM   10  C   UNL     1      -8.195   7.730  67.568  1.00  0.00    -0.124 C  
HETATM   11  C   UNL     1      -7.576   8.846  67.150  1.00  0.00    -0.092 C  
BRANCH  11  12
HETATM   12  C   UNL     1      -7.379  10.109  67.948  1.00  0.00    -0.087 C  
HETATM   13  C   UNL     1      -5.949  10.181  68.510  1.00  0.00    -0.041 C  
HETATM   14  C   UNL     1      -5.726  11.641  68.855  1.00  0.00    -0.047 C  
HETATM   15  O   UNL     1      -5.789   9.369  69.668  1.00  0.00    -0.033 OA 
HETATM   16  H   UNL     1      -4.905   9.413  70.014  1.00  0.00     0.000 HD 
HETATM   17  C   UNL     1      -6.554  12.336  67.820  1.00  0.00    -0.108 C  
HETATM   18  O   UNL     1      -6.389  13.514  67.527  1.00  0.00    -0.225 OA 
HETATM   19  C   UNL     1      -7.585  11.432  67.173  1.00  0.00    -0.145 C  
BRANCH  19  20
HETATM   20  C   UNL     1      -9.030  11.927  67.295  1.00  0.00    -0.176 C  
BRANCH  20  21
HETATM   21  C   UNL     1     -10.011  11.052  66.512  1.00  0.00    -0.253 C  
BRANCH  21  22
HETATM   22  C   UNL     1     -10.813  11.860  65.497  1.00  0.00    -0.343 C  
BRANCH  22  23
HETATM   23  C   UNL     1     -12.023  12.511  66.171  1.00  0.00    -0.432 C  
BRANCH  23  24
HETATM   24  C   UNL     1     -12.309  13.878  65.559  1.00  0.00    -0.506 C  
BRANCH  24  25
HETATM   25  C   UNL     1     -11.142  14.844  65.750  1.00  0.00    -0.342 C  
BRANCH  25  26
HETATM   26  C   UNL     1     -11.249  16.011  64.797  1.00  0.00    -0.339 C  
HETATM   27  O   UNL     1     -11.995  16.067  63.832  1.00  0.00    -0.855 OA 
BRANCH  26  28
HETATM   28  O   UNL     1     -10.391  16.997  65.174  1.00  0.00    -0.632 OA 
HETATM   29  C   UNL     1      -9.833  16.796  66.472  1.00  0.00    -0.290 C  
ENDBRANCH  26  28
ENDBRANCH  25  26
ENDBRANCH  24  25
ENDBRANCH  23  24
ENDBRANCH  22  23
ENDBRANCH  21  22
ENDBRANCH  20  21
ENDBRANCH  19  20
ENDBRANCH  11  12
ENDBRANCH   8  10
ENDBRANCH   3   4
ENDBRANCH   2   3
TORSDOF 12
ENDMDL
MODEL      216
REMARK 921   NORMALIZED FREE ENERGY PREDICTED BY IDOCK:   -3.20 KCAL/MOL
REMARK 922        TOTAL FREE ENERGY PREDICTED BY IDOCK:   -7.48 KCAL/MOL
REMARK 923 INTER-LIGAND FREE ENERGY PREDICTED BY IDOCK:   -6.11 KCAL/MOL
REMARK 924 INTRA-LIGAND FREE ENERGY PREDICTED BY IDOCK:   -1.37 KCAL/MOL
REMARK 927      BINDING AFFINITY PREDICTED BY RF-SCORE:    0.00 PKD
ROOT
HETATM    1  C   UNL     1     -12.655  13.042  65.179  1.00  0.00    -0.530 C  
HETATM    2  C   UNL     1     -11.629  13.432  64.124  1.00  0.00    -0.440 C  
ENDROOT
BRANCH   2   3
HETATM    3  C   UNL     1     -10.299  12.738  64.398  1.00  0.00    -0.388 C  
BRANCH   3   4
HETATM    4  C   UNL     1     -10.040  11.566  63.441  1.00  0.00    -0.454 C  
HETATM    5  C   UNL     1      -9.211  10.428  64.083  1.00  0.00    -0.259 C  
HETATM    6  O   UNL     1      -7.927  10.962  64.434  1.00  0.00    -0.358 OA 
HETATM    7  C   UNL     1      -8.994   9.303  63.060  1.00  0.00    -0.108 C  
HETATM    8  C   UNL     1      -9.911   9.909  65.365  1.00  0.00    -0.384 C  
HETATM    9  H   UNL     1      -7.418  10.264  64.828  1.00  0.00     0.000 HD 
BRANCH   8  10
HETATM   10  C   UNL     1      -9.301   8.693  66.004  1.00  0.00    -0.284 C  
HETATM   11  C   UNL     1      -9.998   7.612  66.390  1.00  0.00    -0.142 C  
BRANCH  11  12
HETATM   12  C   UNL     1      -9.436   6.371  67.033  1.00  0.00    -0.159 C  
HETATM   13  C   UNL     1      -7.944   6.210  66.696  1.00  0.00    -0.105 C  
HETATM   14  C   UNL     1      -7.396   5.258  67.741  1.00  0.00    -0.076 C  
HETATM   15  O   UNL     1      -7.747   5.678  65.391  1.00  0.00    -0.081 OA 
HETATM   16  H   UNL     1      -6.825   5.580  65.182  1.00  0.00     0.000 HD 
HETATM   17  C   UNL     1      -8.241   5.583  68.932  1.00  0.00    -0.099 C  
HETATM   18  O   UNL     1      -7.909   5.289  70.075  1.00  0.00    -0.077 OA 
HETATM   19  C   UNL     1      -9.517   6.320  68.577  1.00  0.00    -0.123 C  
BRANCH  19  20
HETATM   20  C   UNL     1     -10.802   5.626  69.042  1.00  0.00    -0.251 C  
BRANCH  20  21
HETATM   21  C   UNL     1     -10.925   5.594  70.566  1.00  0.00    -0.267 C  
BRANCH  21  22
HETATM   22  C   UNL     1     -10.706   6.969  71.187  1.00  0.00    -0.253 C  
BRANCH  22  23
HETATM   23  C   UNL     1     -10.057   6.834  72.567  1.00  0.00    -0.190 C  
BRANCH  23  24
HETATM   24  C   UNL     1      -9.636   8.200  73.099  1.00  0.00    -0.307 C  
BRANCH  24  25
HETATM   25  C   UNL     1      -8.159   8.234  73.480  1.00  0.00    -0.237 C  
BRANCH  25  26
HETATM   26  C   UNL     1      -7.286   8.242  72.247  1.00  0.00    -0.105 C  
HETATM   27  O   UNL     1      -6.357   7.479  72.035  1.00  0.00    -0.042 OA 
BRANCH  26  28
HETATM   28  O   UNL     1      -7.689   9.228  71.400  1.00  0.00    -0.334 OA 
HETATM   29  C   UNL     1      -7.398   8.950  70.030  1.00  0.00    -0.056 C  
ENDBRANCH  26  28
ENDBRANCH  25  26
ENDBRANCH  24  25
ENDBRANCH  23  24
ENDBRANCH  22  23
ENDBRANCH  21  22
ENDBRANCH  20  21
ENDBRANCH  19  20
ENDBRANCH  11  12
ENDBRANCH   8  10
ENDBRANCH   3   4
ENDBRANCH   2   3
TORSDOF 12
ENDMDL
MODEL      217
REMARK 921   NORMALIZED FREE ENERGY PREDICTED BY IDOCK:   -3.20 KCAL/MOL
REMARK 922        TOTAL FREE ENERGY PREDICTED BY IDOCK:   -7.48 KCAL/MOL
REMARK 923 INTER-LIGAND FREE ENERGY PREDICTED BY IDOCK:   -5.86 KCAL/MOL
REMARK 924 INTRA-LIGAND FREE ENERGY PREDICTED BY IDOCK:   -1.61 KCAL/MOL
REMARK 927      BINDING AFFINITY PREDICTED BY RF-SCORE:    0.00 PKD
ROOT
HETATM    1  C   UNL     1     -12.019  14.872  71.972  1.00  0.00    -0.428 C  
HETATM    2  C   UNL     1     -12.987  14.062  71.121  1.00  0.00    -0.402 C  
ENDROOT
BRANCH   2   3
HETATM    3  C   UNL     1     -12.458  12.647  70.918  1.00  0.00    -0.368 C  
BRANCH   3   4
HETATM    4  C   UNL     1     -13.211  11.612  71.765  1.00  0.00    -0.438 C  
HETATM    5  C   UNL     1     -12.780  10.155  71.469  1.00  0.00    -0.436 C  
HETATM    6  O   UNL     1     -13.096   9.872  70.099  1.00  0.00    -0.474 OA 
HETATM    7  C   UNL     1     -13.582   9.187  72.351  1.00  0.00    -0.544 C  
HETATM    8  C   UNL     1     -11.253   9.990  71.680  1.00  0.00     0.188 C  
HETATM    9  H   UNL     1     -12.833   8.978  69.917  1.00  0.00     0.000 HD 
BRANCH   8  10
HETATM   10  C   UNL     1     -10.721   8.588  71.584  1.00  0.00    -0.351 C  
HETATM   11  C   UNL     1     -10.083   7.953  72.581  1.00  0.00    -0.343 C  
BRANCH  11  12
HETATM   12  C   UNL     1      -9.532   6.551  72.537  1.00  0.00    -0.148 C  
HETATM   13  C   UNL     1      -8.915   6.165  73.892  1.00  0.00    -0.128 C  
HETATM   14  C   UNL     1      -8.845   4.650  73.883  1.00  0.00    -0.104 C  
HETATM   15  O   UNL     1      -7.615   6.719  74.064  1.00  0.00    -0.095 OA 
HETATM   16  H   UNL     1      -7.234   6.481  74.901  1.00  0.00     0.000 HD 
HETATM   17  C   UNL     1     -10.038   4.287  73.058  1.00  0.00    -0.152 C  
HETATM   18  O   UNL     1     -10.543   3.170  73.085  1.00  0.00    -0.155 OA 
HETATM   19  C   UNL     1     -10.557   5.437  72.218  1.00  0.00    -0.280 C  
BRANCH  19  20
HETATM   20  C   UNL     1     -10.614   5.151  70.714  1.00  0.00    -0.205 C  
BRANCH  20  21
HETATM   21  C   UNL     1      -9.225   5.124  70.075  1.00  0.00    -0.180 C  
BRANCH  21  22
HETATM   22  C   UNL     1      -9.167   5.951  68.795  1.00  0.00    -0.120 C  
BRANCH  22  23
HETATM   23  C   UNL     1      -8.303   7.197  69.003  1.00  0.00    -0.126 C  
BRANCH  23  24
HETATM   24  C   UNL     1      -8.406   8.129  67.801  1.00  0.00    -0.128 C  
BRANCH  24  25
HETATM   25  C   UNL     1      -7.278   7.898  66.800  1.00  0.00    -0.088 C  
BRANCH  25  26
HETATM   26  C   UNL     1      -6.838   9.201  66.175  1.00  0.00    -0.085 C  
HETATM   27  O   UNL     1      -7.192  10.311  66.539  1.00  0.00    -0.099 OA 
BRANCH  26  28
HETATM   28  O   UNL     1      -5.984   8.956  65.144  1.00  0.00    -0.057 OA 
HETATM   29  C   UNL     1      -6.278   9.719  63.974  1.00  0.00    -0.116 C  
ENDBRANCH  26  28
ENDBRANCH  25  26
ENDBRANCH  24  25
ENDBRANCH  23  24
ENDBRANCH  22  23
ENDBRANCH  21  22
ENDBRANCH  20  21
ENDBRANCH  19  20
ENDBRANCH  11  12
ENDBRANCH   8  10
ENDBRANCH   3   4
ENDBRANCH   2   3
TORSDOF 12
ENDMDL
MODEL      218
REMARK 921   NORMALIZED FREE ENERGY PREDICTED BY IDOCK:   -3.18 KCAL/MOL
REMARK 922        TOTAL FREE ENERGY PREDICTED BY IDOCK:   -7.46 KCAL/MOL
REMARK 923 INTER-LIGAND FREE ENERGY PREDICTED BY IDOCK:   -6.21 KCAL/MOL
REMARK 924 INTRA-LIGAND FREE ENERGY PREDICTED BY IDOCK:   -1.24 KCAL/MOL
REMARK 927      BINDING AFFINITY PREDICTED BY RF-SCORE:    0.00 PKD
ROOT
HETATM    1  C   UNL     1      -5.157   2.428  65.690  1.00  0.00    -0.005 C  
HETATM    2  C   UNL     1      -6.009   2.387  64.429  1.00  0.00    -0.014 C  
ENDROOT
BRANCH   2   3
HETATM    3  C   UNL     1      -6.599   3.764  64.144  1.00  0.00    -0.042 C  
BRANCH   3   4
HETATM    4  C   UNL     1      -8.101   3.707  63.837  1.00  0.00    -0.089 C  
HETATM    5  C   UNL     1      -8.982   4.188  65.016  1.00  0.00    -0.137 C  
HETATM    6  O   UNL     1      -8.755   3.305  66.123  1.00  0.00    -0.116 OA 
HETATM    7  C   UNL     1     -10.464   4.094  64.628  1.00  0.00    -0.189 C  
HETATM    8  C   UNL     1      -8.588   5.629  65.429  1.00  0.00    -0.150 C  
HETATM    9  H   UNL     1      -9.295   3.600  66.846  1.00  0.00     0.000 HD 
BRANCH   8  10
HETATM   10  C   UNL     1      -9.468   6.285  66.455  1.00  0.00    -0.181 C  
HETATM   11  C   UNL     1      -9.081   6.573  67.709  1.00  0.00    -0.112 C  
BRANCH  11  12
HETATM   12  C   UNL     1      -9.922   7.229  68.774  1.00  0.00    -0.167 C  
HETATM   13  C   UNL     1      -9.967   6.361  70.043  1.00  0.00    -0.169 C  
HETATM   14  C   UNL     1     -10.403   7.299  71.153  1.00  0.00    -0.207 C  
HETATM   15  O   UNL     1     -10.886   5.282  69.918  1.00  0.00    -0.241 OA 
HETATM   16  H   UNL     1     -10.914   4.746  70.702  1.00  0.00     0.000 HD 
HETATM   17  C   UNL     1      -9.812   8.600  70.713  1.00  0.00    -0.192 C  
HETATM   18  O   UNL     1      -9.635   9.537  71.484  1.00  0.00    -0.207 OA 
HETATM   19  C   UNL     1      -9.442   8.623  69.244  1.00  0.00    -0.158 C  
BRANCH  19  20
HETATM   20  C   UNL     1     -10.111   9.741  68.437  1.00  0.00    -0.189 C  
BRANCH  20  21
HETATM   21  C   UNL     1      -9.268  11.016  68.402  1.00  0.00    -0.175 C  
BRANCH  21  22
HETATM   22  C   UNL     1      -9.754  11.995  67.338  1.00  0.00    -0.185 C  
BRANCH  22  23
HETATM   23  C   UNL     1     -11.246  11.789  67.066  1.00  0.00    -0.382 C  
BRANCH  23  24
HETATM   24  C   UNL     1     -11.828  12.989  66.329  1.00  0.00    -0.466 C  
BRANCH  24  25
HETATM   25  C   UNL     1     -11.020  13.341  65.083  1.00  0.00    -0.314 C  
BRANCH  25  26
HETATM   26  C   UNL     1     -11.806  13.039  63.829  1.00  0.00    -0.502 C  
HETATM   27  O   UNL     1     -12.572  13.811  63.274  1.00  0.00    -0.830 OA 
BRANCH  26  28
HETATM   28  O   UNL     1     -11.535  11.775  63.405  1.00  0.00    -0.402 OA 
HETATM   29  C   UNL     1     -10.146  11.448  63.455  1.00  0.00    -0.395 C  
ENDBRANCH  26  28
ENDBRANCH  25  26
ENDBRANCH  24  25
ENDBRANCH  23  24
ENDBRANCH  22  23
ENDBRANCH  21  22
ENDBRANCH  20  21
ENDBRANCH  19  20
ENDBRANCH  11  12
ENDBRANCH   8  10
ENDBRANCH   3   4
ENDBRANCH   2   3
TORSDOF 12
ENDMDL
MODEL      219
REMARK 921   NORMALIZED FREE ENERGY PREDICTED BY IDOCK:   -3.18 KCAL/MOL
REMARK 922        TOTAL FREE ENERGY PREDICTED BY IDOCK:   -7.44 KCAL/MOL
REMARK 923 INTER-LIGAND FREE ENERGY PREDICTED BY IDOCK:   -5.69 KCAL/MOL
REMARK 924 INTRA-LIGAND FREE ENERGY PREDICTED BY IDOCK:   -1.75 KCAL/MOL
REMARK 927      BINDING AFFINITY PREDICTED BY RF-SCORE:    0.00 PKD
ROOT
HETATM    1  C   UNL     1      -5.674   2.259  66.152  1.00  0.00    -0.021 C  
HETATM    2  C   UNL     1      -6.505   2.527  64.905  1.00  0.00    -0.027 C  
ENDROOT
BRANCH   2   3
HETATM    3  C   UNL     1      -6.886   4.002  64.830  1.00  0.00    -0.049 C  
BRANCH   3   4
HETATM    4  C   UNL     1      -8.398   4.211  64.674  1.00  0.00    -0.104 C  
HETATM    5  C   UNL     1      -9.110   4.518  66.014  1.00  0.00    -0.130 C  
HETATM    6  O   UNL     1      -8.939   3.382  66.873  1.00  0.00    -0.132 OA 
HETATM    7  C   UNL     1     -10.615   4.707  65.770  1.00  0.00    -0.264 C  
HETATM    8  C   UNL     1      -8.479   5.762  66.687  1.00  0.00    -0.113 C  
HETATM    9  H   UNL     1      -9.376   3.570  67.695  1.00  0.00     0.000 HD 
BRANCH   8  10
HETATM   10  C   UNL     1      -9.175   6.273  67.917  1.00  0.00    -0.116 C  
HETATM   11  C   UNL     1      -8.619   6.313  69.139  1.00  0.00    -0.120 C  
BRANCH  11  12
HETATM   12  C   UNL     1      -9.273   6.814  70.401  1.00  0.00    -0.156 C  
HETATM   13  C   UNL     1      -9.265   5.726  71.488  1.00  0.00    -0.146 C  
HETATM   14  C   UNL     1      -9.486   6.464  72.795  1.00  0.00    -0.147 C  
HETATM   15  O   UNL     1     -10.292   4.762  71.285  1.00  0.00    -0.187 OA 
HETATM   16  H   UNL     1     -10.287   4.090  71.956  1.00  0.00     0.000 HD 
HETATM   17  C   UNL     1      -8.822   7.777  72.528  1.00  0.00    -0.150 C  
HETATM   18  O   UNL     1      -8.473   8.534  73.427  1.00  0.00    -0.367 OA 
HETATM   19  C   UNL     1      -8.612   8.052  71.052  1.00  0.00    -0.142 C  
BRANCH  19  20
HETATM   20  C   UNL     1      -9.254   9.351  70.550  1.00  0.00    -0.314 C  
BRANCH  20  21
HETATM   21  C   UNL     1      -8.394  10.053  69.498  1.00  0.00    -0.180 C  
BRANCH  21  22
HETATM   22  C   UNL     1      -9.107  10.155  68.153  1.00  0.00    -0.128 C  
BRANCH  22  23
HETATM   23  C   UNL     1     -10.568   9.720  68.289  1.00  0.00    -0.271 C  
BRANCH  23  24
HETATM   24  C   UNL     1     -11.500  10.917  68.139  1.00  0.00    -0.368 C  
BRANCH  24  25
HETATM   25  C   UNL     1     -10.776  12.139  67.581  1.00  0.00    -0.252 C  
BRANCH  25  26
HETATM   26  C   UNL     1     -11.713  12.989  66.756  1.00  0.00    -0.382 C  
HETATM   27  O   UNL     1     -11.965  14.165  66.963  1.00  0.00    -0.408 OA 
BRANCH  26  28
HETATM   28  O   UNL     1     -12.238  12.249  65.741  1.00  0.00    -0.622 OA 
HETATM   29  C   UNL     1     -12.368  12.977  64.520  1.00  0.00    -0.398 C  
ENDBRANCH  26  28
ENDBRANCH  25  26
ENDBRANCH  24  25
ENDBRANCH  23  24
ENDBRANCH  22  23
ENDBRANCH  21  22
ENDBRANCH  20  21
ENDBRANCH  19  20
ENDBRANCH  11  12
ENDBRANCH   8  10
ENDBRANCH   3   4
ENDBRANCH   2   3
TORSDOF 12
ENDMDL
MODEL      220
REMARK 921   NORMALIZED FREE ENERGY PREDICTED BY IDOCK:   -3.18 KCAL/MOL
REMARK 922        TOTAL FREE ENERGY PREDICTED BY IDOCK:   -7.44 KCAL/MOL
REMARK 923 INTER-LIGAND FREE ENERGY PREDICTED BY IDOCK:   -6.14 KCAL/MOL
REMARK 924 INTRA-LIGAND FREE ENERGY PREDICTED BY IDOCK:   -1.30 KCAL/MOL
REMARK 927      BINDING AFFINITY PREDICTED BY RF-SCORE:    0.00 PKD
ROOT
HETATM    1  C   UNL     1      -5.547   3.877  69.664  1.00  0.00    -0.017 C  
HETATM    2  C   UNL     1      -6.973   4.408  69.705  1.00  0.00    -0.049 C  
ENDROOT
BRANCH   2   3
HETATM    3  C   UNL     1      -7.663   4.176  68.364  1.00  0.00    -0.070 C  
BRANCH   3   4
HETATM    4  C   UNL     1      -7.744   5.454  67.518  1.00  0.00    -0.092 C  
HETATM    5  C   UNL     1      -9.134   6.132  67.572  1.00  0.00    -0.109 C  
HETATM    6  O   UNL     1     -10.092   5.216  67.025  1.00  0.00    -0.177 OA 
HETATM    7  C   UNL     1      -9.129   7.394  66.697  1.00  0.00    -0.184 C  
HETATM    8  C   UNL     1      -9.520   6.453  69.038  1.00  0.00    -0.131 C  
HETATM    9  H   UNL     1     -10.945   5.633  67.058  1.00  0.00     0.000 HD 
BRANCH   8  10
HETATM   10  C   UNL     1     -10.773   7.260  69.229  1.00  0.00    -0.212 C  
HETATM   11  C   UNL     1     -10.893   8.275  70.100  1.00  0.00    -0.237 C  
BRANCH  11  12
HETATM   12  C   UNL     1     -12.124   9.114  70.329  1.00  0.00     0.210 C  
HETATM   13  C   UNL     1     -12.984   8.522  71.459  1.00  0.00    -0.303 C  
HETATM   14  C   UNL     1     -13.885   9.655  71.912  1.00  0.00    -0.291 C  
HETATM   15  O   UNL     1     -13.763   7.418  71.013  1.00  0.00    -0.621 OA 
HETATM   16  H   UNL     1     -14.294   7.052  71.711  1.00  0.00     0.000 HD 
HETATM   17  C   UNL     1     -13.021  10.853  71.680  1.00  0.00    -0.464 C  
HETATM   18  O   UNL     1     -13.230  11.931  72.225  1.00  0.00    -0.451 OA 
HETATM   19  C   UNL     1     -11.867  10.585  70.734  1.00  0.00    -0.465 C  
BRANCH  19  20
HETATM   20  C   UNL     1     -11.829  11.499  69.504  1.00  0.00    -0.419 C  
BRANCH  20  21
HETATM   21  C   UNL     1     -11.522  10.729  68.219  1.00  0.00    -0.353 C  
BRANCH  21  22
HETATM   22  C   UNL     1     -10.103  10.986  67.723  1.00  0.00    -0.201 C  
BRANCH  22  23
HETATM   23  C   UNL     1     -10.132  11.698  66.368  1.00  0.00    -0.246 C  
BRANCH  23  24
HETATM   24  C   UNL     1      -8.922  12.613  66.216  1.00  0.00     0.018 C  
BRANCH  24  25
HETATM   25  C   UNL     1      -8.735  13.519  67.430  1.00  0.00    -0.220 C  
BRANCH  25  26
HETATM   26  C   UNL     1      -9.758  14.629  67.434  1.00  0.00    -0.218 C  
HETATM   27  O   UNL     1      -9.929  15.435  66.533  1.00  0.00    -0.249 OA 
BRANCH  26  28
HETATM   28  O   UNL     1     -10.469  14.601  68.595  1.00  0.00    -0.230 OA 
HETATM   29  C   UNL     1     -11.500  15.586  68.650  1.00  0.00    -0.359 C  
ENDBRANCH  26  28
ENDBRANCH  25  26
ENDBRANCH  24  25
ENDBRANCH  23  24
ENDBRANCH  22  23
ENDBRANCH  21  22
ENDBRANCH  20  21
ENDBRANCH  19  20
ENDBRANCH  11  12
ENDBRANCH   8  10
ENDBRANCH   3   4
ENDBRANCH   2   3
TORSDOF 12
ENDMDL
MODEL      221
REMARK 921   NORMALIZED FREE ENERGY PREDICTED BY IDOCK:   -3.15 KCAL/MOL
REMARK 922        TOTAL FREE ENERGY PREDICTED BY IDOCK:   -7.40 KCAL/MOL
REMARK 923 INTER-LIGAND FREE ENERGY PREDICTED BY IDOCK:   -5.72 KCAL/MOL
REMARK 924 INTRA-LIGAND FREE ENERGY PREDICTED BY IDOCK:   -1.67 KCAL/MOL
REMARK 927      BINDING AFFINITY PREDICTED BY RF-SCORE:    0.00 PKD
ROOT
HETATM    1  C   UNL     1     -10.176  15.810  65.900  1.00  0.00    -0.377 C  
HETATM    2  C   UNL     1      -9.132  14.861  66.472  1.00  0.00    -0.309 C  
ENDROOT
BRANCH   2   3
HETATM    3  C   UNL     1      -9.770  13.520  66.819  1.00  0.00    -0.271 C  
BRANCH   3   4
HETATM    4  C   UNL     1     -10.737  13.620  68.007  1.00  0.00    -0.258 C  
HETATM    5  C   UNL     1     -11.288  12.247  68.460  1.00  0.00    -0.286 C  
HETATM    6  O   UNL     1     -12.035  11.690  67.370  1.00  0.00    -0.621 OA 
HETATM    7  C   UNL     1     -12.246  12.437  69.645  1.00  0.00    -0.171 C  
HETATM    8  C   UNL     1     -10.122  11.289  68.816  1.00  0.00    -0.204 C  
HETATM    9  H   UNL     1     -12.373  10.848  67.648  1.00  0.00     0.000 HD 
BRANCH   8  10
HETATM   10  C   UNL     1     -10.512   9.972  69.426  1.00  0.00    -0.252 C  
HETATM   11  C   UNL     1     -10.469   9.707  70.742  1.00  0.00    -0.375 C  
BRANCH  11  12
HETATM   12  C   UNL     1     -10.849   8.407  71.403  1.00  0.00    -0.304 C  
HETATM   13  C   UNL     1     -12.120   7.823  70.765  1.00  0.00    -0.100 C  
HETATM   14  C   UNL     1     -12.124   6.355  71.150  1.00  0.00    -0.211 C  
HETATM   15  O   UNL     1     -13.299   8.462  71.242  1.00  0.00    -0.495 OA 
HETATM   16  H   UNL     1     -14.084   8.101  70.847  1.00  0.00     0.000 HD 
HETATM   17  C   UNL     1     -10.662   6.045  71.209  1.00  0.00    -0.263 C  
HETATM   18  O   UNL     1     -10.229   4.899  71.150  1.00  0.00    -0.213 OA 
HETATM   19  C   UNL     1      -9.792   7.281  71.323  1.00  0.00    -0.183 C  
BRANCH  19  20
HETATM   20  C   UNL     1      -8.870   7.298  72.548  1.00  0.00    -0.146 C  
BRANCH  20  21
HETATM   21  C   UNL     1      -7.735   8.312  72.406  1.00  0.00    -0.168 C  
BRANCH  21  22
HETATM   22  C   UNL     1      -6.511   7.709  71.725  1.00  0.00    -0.042 C  
BRANCH  22  23
HETATM   23  C   UNL     1      -6.017   8.626  70.603  1.00  0.00    -0.032 C  
BRANCH  23  24
HETATM   24  C   UNL     1      -7.194   9.256  69.867  1.00  0.00    -0.071 C  
BRANCH  24  25
HETATM   25  C   UNL     1      -6.959   9.318  68.361  1.00  0.00    -0.067 C  
BRANCH  25  26
HETATM   26  C   UNL     1      -6.491  10.693  67.947  1.00  0.00    -0.059 C  
HETATM   27  O   UNL     1      -5.628  11.345  68.513  1.00  0.00    -0.043 OA 
BRANCH  26  28
HETATM   28  O   UNL     1      -7.176  11.103  66.844  1.00  0.00    -0.122 OA 
HETATM   29  C   UNL     1      -6.593  10.657  65.619  1.00  0.00    -0.079 C  
ENDBRANCH  26  28
ENDBRANCH  25  26
ENDBRANCH  24  25
ENDBRANCH  23  24
ENDBRANCH  22  23
ENDBRANCH  21  22
ENDBRANCH  20  21
ENDBRANCH  19  20
ENDBRANCH  11  12
ENDBRANCH   8  10
ENDBRANCH   3   4
ENDBRANCH   2   3
TORSDOF 12
ENDMDL
MODEL      222
REMARK 921   NORMALIZED FREE ENERGY PREDICTED BY IDOCK:   -3.14 KCAL/MOL
REMARK 922        TOTAL FREE ENERGY PREDICTED BY IDOCK:   -7.38 KCAL/MOL
REMARK 923 INTER-LIGAND FREE ENERGY PREDICTED BY IDOCK:   -5.74 KCAL/MOL
REMARK 924 INTRA-LIGAND FREE ENERGY PREDICTED BY IDOCK:   -1.64 KCAL/MOL
REMARK 927      BINDING AFFINITY PREDICTED BY RF-SCORE:    0.00 PKD
ROOT
HETATM    1  C   UNL     1     -12.320  15.385  70.276  1.00  0.00    -0.425 C  
HETATM    2  C   UNL     1     -11.242  16.454  70.158  1.00  0.00    -0.260 C  
ENDROOT
BRANCH   2   3
HETATM    3  C   UNL     1     -10.734  16.538  68.723  1.00  0.00    -0.339 C  
BRANCH   3   4
HETATM    4  C   UNL     1     -11.562  15.680  67.756  1.00  0.00    -0.139 C  
HETATM    5  C   UNL     1     -10.691  14.813  66.815  1.00  0.00    -0.309 C  
HETATM    6  O   UNL     1      -9.903  15.697  66.006  1.00  0.00    -0.282 OA 
HETATM    7  C   UNL     1     -11.593  13.993  65.882  1.00  0.00    -0.350 C  
HETATM    8  C   UNL     1      -9.745  13.904  67.641  1.00  0.00    -0.226 C  
HETATM    9  H   UNL     1      -9.368  15.166  65.429  1.00  0.00     0.000 HD 
BRANCH   8  10
HETATM   10  C   UNL     1      -8.955  12.892  66.861  1.00  0.00    -0.210 C  
HETATM   11  C   UNL     1      -9.105  11.562  66.979  1.00  0.00    -0.175 C  
BRANCH  11  12
HETATM   12  C   UNL     1      -8.341  10.507  66.221  1.00  0.00    -0.152 C  
HETATM   13  C   UNL     1      -8.784  10.464  64.749  1.00  0.00    -0.186 C  
HETATM   14  C   UNL     1      -7.664   9.754  64.014  1.00  0.00    -0.134 C  
HETATM   15  O   UNL     1     -10.010   9.760  64.582  1.00  0.00    -0.409 OA 
HETATM   16  H   UNL     1     -10.284   9.734  63.673  1.00  0.00     0.000 HD 
HETATM   17  C   UNL     1      -6.462  10.164  64.804  1.00  0.00    -0.128 C  
HETATM   18  O   UNL     1      -5.324  10.092  64.357  1.00  0.00    -0.072 OA 
HETATM   19  C   UNL     1      -6.805  10.690  66.184  1.00  0.00    -0.135 C  
BRANCH  19  20
HETATM   20  C   UNL     1      -6.129   9.938  67.336  1.00  0.00    -0.058 C  
BRANCH  20  21
HETATM   21  C   UNL     1      -7.086   8.973  68.039  1.00  0.00    -0.079 C  
BRANCH  21  22
HETATM   22  C   UNL     1      -6.718   7.515  67.783  1.00  0.00    -0.066 C  
BRANCH  22  23
HETATM   23  C   UNL     1      -7.911   6.604  68.081  1.00  0.00    -0.110 C  
BRANCH  23  24
HETATM   24  C   UNL     1      -8.865   7.273  69.064  1.00  0.00    -0.132 C  
BRANCH  24  25
HETATM   25  C   UNL     1     -10.279   6.705  68.964  1.00  0.00    -0.196 C  
BRANCH  25  26
HETATM   26  C   UNL     1     -11.184   7.331  69.999  1.00  0.00    -0.209 C  
HETATM   27  O   UNL     1     -12.154   6.791  70.505  1.00  0.00    -0.386 OA 
BRANCH  26  28
HETATM   28  O   UNL     1     -10.756   8.590  70.288  1.00  0.00    -0.223 OA 
HETATM   29  C   UNL     1     -11.417   9.167  71.414  1.00  0.00    -0.350 C  
ENDBRANCH  26  28
ENDBRANCH  25  26
ENDBRANCH  24  25
ENDBRANCH  23  24
ENDBRANCH  22  23
ENDBRANCH  21  22
ENDBRANCH  20  21
ENDBRANCH  19  20
ENDBRANCH  11  12
ENDBRANCH   8  10
ENDBRANCH   3   4
ENDBRANCH   2   3
TORSDOF 12
ENDMDL
MODEL      223
REMARK 921   NORMALIZED FREE ENERGY PREDICTED BY IDOCK:   -3.12 KCAL/MOL
REMARK 922        TOTAL FREE ENERGY PREDICTED BY IDOCK:   -7.35 KCAL/MOL
REMARK 923 INTER-LIGAND FREE ENERGY PREDICTED BY IDOCK:   -5.94 KCAL/MOL
REMARK 924 INTRA-LIGAND FREE ENERGY PREDICTED BY IDOCK:   -1.41 KCAL/MOL
REMARK 927      BINDING AFFINITY PREDICTED BY RF-SCORE:    0.00 PKD
ROOT
HETATM    1  C   UNL     1     -12.875  14.542  72.876  1.00  0.00    -0.534 C  
HETATM    2  C   UNL     1     -13.591  13.800  71.757  1.00  0.00    -0.450 C  
ENDROOT
BRANCH   2   3
HETATM    3  C   UNL     1     -12.804  12.556  71.358  1.00  0.00    -0.359 C  
BRANCH   3   4
HETATM    4  C   UNL     1     -13.351  11.280  72.012  1.00  0.00    -0.386 C  
HETATM    5  C   UNL     1     -12.862   9.985  71.322  1.00  0.00    -0.402 C  
HETATM    6  O   UNL     1     -13.347   9.995  69.972  1.00  0.00    -0.380 OA 
HETATM    7  C   UNL     1     -13.458   8.761  72.032  1.00  0.00    -0.461 C  
HETATM    8  C   UNL     1     -11.312   9.937  71.302  1.00  0.00    -0.404 C  
HETATM    9  H   UNL     1     -13.047   9.199  69.548  1.00  0.00     0.000 HD 
BRANCH   8  10
HETATM   10  C   UNL     1     -10.698   8.659  70.806  1.00  0.00    -0.260 C  
HETATM   11  C   UNL     1      -9.459   8.245  71.120  1.00  0.00    -0.206 C  
BRANCH  11  12
HETATM   12  C   UNL     1      -8.798   6.974  70.651  1.00  0.00    -0.150 C  
HETATM   13  C   UNL     1      -7.776   6.477  71.688  1.00  0.00    -0.099 C  
HETATM   14  C   UNL     1      -7.549   5.014  71.357  1.00  0.00    -0.088 C  
HETATM   15  O   UNL     1      -6.550   7.196  71.615  1.00  0.00    -0.047 OA 
HETATM   16  H   UNL     1      -5.919   6.889  72.255  1.00  0.00     0.000 HD 
HETATM   17  C   UNL     1      -8.885   4.604  70.823  1.00  0.00    -0.119 C  
HETATM   18  O   UNL     1      -9.237   3.432  70.760  1.00  0.00    -0.105 OA 
HETATM   19  C   UNL     1      -9.746   5.778  70.400  1.00  0.00    -0.224 C  
BRANCH  19  20
HETATM   20  C   UNL     1     -10.207   5.733  68.939  1.00  0.00    -0.267 C  
BRANCH  20  21
HETATM   21  C   UNL     1      -9.046   5.497  67.971  1.00  0.00    -0.110 C  
BRANCH  21  22
HETATM   22  C   UNL     1      -9.190   6.316  66.693  1.00  0.00    -0.158 C  
BRANCH  22  23
HETATM   23  C   UNL     1      -7.988   6.087  65.774  1.00  0.00    -0.113 C  
BRANCH  23  24
HETATM   24  C   UNL     1      -7.017   7.259  65.856  1.00  0.00    -0.061 C  
BRANCH  24  25
HETATM   25  C   UNL     1      -7.723   8.599  65.673  1.00  0.00    -0.091 C  
BRANCH  25  26
HETATM   26  C   UNL     1      -7.846   9.326  66.991  1.00  0.00    -0.098 C  
HETATM   27  O   UNL     1      -7.310   8.991  68.034  1.00  0.00    -0.082 OA 
BRANCH  26  28
HETATM   28  O   UNL     1      -8.646  10.418  66.845  1.00  0.00    -0.126 OA 
HETATM   29  C   UNL     1      -9.564  10.594  67.923  1.00  0.00    -0.162 C  
ENDBRANCH  26  28
ENDBRANCH  25  26
ENDBRANCH  24  25
ENDBRANCH  23  24
ENDBRANCH  22  23
ENDBRANCH  21  22
ENDBRANCH  20  21
ENDBRANCH  19  20
ENDBRANCH  11  12
ENDBRANCH   8  10
ENDBRANCH   3   4
ENDBRANCH   2   3
TORSDOF 12
ENDMDL
MODEL      224
REMARK 921   NORMALIZED FREE ENERGY PREDICTED BY IDOCK:   -3.11 KCAL/MOL
REMARK 922        TOTAL FREE ENERGY PREDICTED BY IDOCK:   -7.33 KCAL/MOL
REMARK 923 INTER-LIGAND FREE ENERGY PREDICTED BY IDOCK:   -5.94 KCAL/MOL
REMARK 924 INTRA-LIGAND FREE ENERGY PREDICTED BY IDOCK:   -1.39 KCAL/MOL
REMARK 927      BINDING AFFINITY PREDICTED BY RF-SCORE:    0.00 PKD
ROOT
HETATM    1  C   UNL     1     -11.994  15.697  70.176  1.00  0.00    -0.387 C  
HETATM    2  C   UNL     1     -10.967  14.642  69.789  1.00  0.00    -0.232 C  
ENDROOT
BRANCH   2   3
HETATM    3  C   UNL     1     -10.551  14.817  68.332  1.00  0.00    -0.242 C  
BRANCH   3   4
HETATM    4  C   UNL     1     -11.681  14.472  67.353  1.00  0.00    -0.425 C  
HETATM    5  C   UNL     1     -11.346  13.273  66.435  1.00  0.00    -0.312 C  
HETATM    6  O   UNL     1     -10.209  13.633  65.638  1.00  0.00    -0.291 OA 
HETATM    7  C   UNL     1     -12.523  12.999  65.487  1.00  0.00    -0.496 C  
HETATM    8  C   UNL     1     -10.993  12.025  67.284  1.00  0.00    -0.313 C  
HETATM    9  H   UNL     1     -10.003  12.897  65.074  1.00  0.00     0.000 HD 
BRANCH   8  10
HETATM   10  C   UNL     1     -10.803  10.742  66.526  1.00  0.00    -0.196 C  
HETATM   11  C   UNL     1      -9.606  10.194  66.257  1.00  0.00    -0.245 C  
BRANCH  11  12
HETATM   12  C   UNL     1      -9.362   8.912  65.503  1.00  0.00    -0.214 C  
HETATM   13  C   UNL     1      -8.441   9.158  64.295  1.00  0.00    -0.187 C  
HETATM   14  C   UNL     1      -7.894   7.793  63.924  1.00  0.00    -0.126 C  
HETATM   15  O   UNL     1      -9.144   9.724  63.195  1.00  0.00    -0.252 OA 
HETATM   16  H   UNL     1      -8.576   9.876  62.449  1.00  0.00     0.000 HD 
HETATM   17  C   UNL     1      -7.830   7.110  65.254  1.00  0.00    -0.121 C  
HETATM   18  O   UNL     1      -7.133   6.122  65.454  1.00  0.00    -0.061 OA 
HETATM   19  C   UNL     1      -8.689   7.777  66.310  1.00  0.00    -0.174 C  
BRANCH  19  20
HETATM   20  C   UNL     1      -9.734   6.859  66.952  1.00  0.00    -0.222 C  
BRANCH  20  21
HETATM   21  C   UNL     1      -9.817   7.045  68.468  1.00  0.00    -0.147 C  
BRANCH  21  22
HETATM   22  C   UNL     1     -11.224   6.791  68.999  1.00  0.00    -0.214 C  
BRANCH  22  23
HETATM   23  C   UNL     1     -11.182   6.492  70.500  1.00  0.00    -0.401 C  
BRANCH  23  24
HETATM   24  C   UNL     1      -9.887   7.012  71.115  1.00  0.00    -0.180 C  
BRANCH  24  25
HETATM   25  C   UNL     1      -9.302   6.032  72.127  1.00  0.00    -0.155 C  
BRANCH  25  26
HETATM   26  C   UNL     1      -8.414   5.019  71.443  1.00  0.00    -0.119 C  
HETATM   27  O   UNL     1      -7.382   5.278  70.843  1.00  0.00    -0.069 OA 
BRANCH  26  28
HETATM   28  O   UNL     1      -8.932   3.770  71.596  1.00  0.00    -0.100 OA 
HETATM   29  C   UNL     1      -7.937   2.768  71.808  1.00  0.00    -0.057 C  
ENDBRANCH  26  28
ENDBRANCH  25  26
ENDBRANCH  24  25
ENDBRANCH  23  24
ENDBRANCH  22  23
ENDBRANCH  21  22
ENDBRANCH  20  21
ENDBRANCH  19  20
ENDBRANCH  11  12
ENDBRANCH   8  10
ENDBRANCH   3   4
ENDBRANCH   2   3
TORSDOF 12
ENDMDL
MODEL      225
REMARK 921   NORMALIZED FREE ENERGY PREDICTED BY IDOCK:   -3.11 KCAL/MOL
REMARK 922        TOTAL FREE ENERGY PREDICTED BY IDOCK:   -7.32 KCAL/MOL
REMARK 923 INTER-LIGAND FREE ENERGY PREDICTED BY IDOCK:   -5.45 KCAL/MOL
REMARK 924 INTRA-LIGAND FREE ENERGY PREDICTED BY IDOCK:   -1.87 KCAL/MOL
REMARK 927      BINDING AFFINITY PREDICTED BY RF-SCORE:    0.00 PKD
ROOT
HETATM    1  C   UNL     1     -12.019  14.872  71.972  1.00  0.00    -0.428 C  
HETATM    2  C   UNL     1     -12.987  14.062  71.121  1.00  0.00    -0.402 C  
ENDROOT
BRANCH   2   3
HETATM    3  C   UNL     1     -12.458  12.647  70.918  1.00  0.00    -0.368 C  
BRANCH   3   4
HETATM    4  C   UNL     1     -13.211  11.612  71.765  1.00  0.00    -0.438 C  
HETATM    5  C   UNL     1     -12.780  10.155  71.469  1.00  0.00    -0.436 C  
HETATM    6  O   UNL     1     -13.096   9.872  70.099  1.00  0.00    -0.474 OA 
HETATM    7  C   UNL     1     -13.582   9.187  72.351  1.00  0.00    -0.544 C  
HETATM    8  C   UNL     1     -11.253   9.990  71.680  1.00  0.00     0.188 C  
HETATM    9  H   UNL     1     -12.833   8.978  69.917  1.00  0.00     0.000 HD 
BRANCH   8  10
HETATM   10  C   UNL     1     -10.721   8.588  71.584  1.00  0.00    -0.351 C  
HETATM   11  C   UNL     1     -10.083   7.953  72.581  1.00  0.00    -0.343 C  
BRANCH  11  12
HETATM   12  C   UNL     1      -9.532   6.551  72.537  1.00  0.00    -0.148 C  
HETATM   13  C   UNL     1      -8.915   6.165  73.892  1.00  0.00    -0.128 C  
HETATM   14  C   UNL     1      -8.845   4.650  73.883  1.00  0.00    -0.104 C  
HETATM   15  O   UNL     1      -7.615   6.719  74.064  1.00  0.00    -0.095 OA 
HETATM   16  H   UNL     1      -7.234   6.481  74.901  1.00  0.00     0.000 HD 
HETATM   17  C   UNL     1     -10.038   4.287  73.058  1.00  0.00    -0.152 C  
HETATM   18  O   UNL     1     -10.543   3.170  73.085  1.00  0.00    -0.155 OA 
HETATM   19  C   UNL     1     -10.557   5.437  72.218  1.00  0.00    -0.280 C  
BRANCH  19  20
HETATM   20  C   UNL     1     -10.614   5.151  70.714  1.00  0.00    -0.205 C  
BRANCH  20  21
HETATM   21  C   UNL     1      -9.225   5.124  70.075  1.00  0.00    -0.180 C  
BRANCH  21  22
HETATM   22  C   UNL     1      -9.167   5.951  68.795  1.00  0.00    -0.120 C  
BRANCH  22  23
HETATM   23  C   UNL     1      -8.303   7.197  69.003  1.00  0.00    -0.126 C  
BRANCH  23  24
HETATM   24  C   UNL     1      -6.839   6.812  69.178  1.00  0.00    -0.065 C  
BRANCH  24  25
HETATM   25  C   UNL     1      -6.454   6.685  70.649  1.00  0.00    -0.051 C  
BRANCH  25  26
HETATM   26  C   UNL     1      -5.772   5.363  70.914  1.00  0.00    -0.016 C  
HETATM   27  O   UNL     1      -5.404   4.575  70.057  1.00  0.00    -0.007 OA 
BRANCH  26  28
HETATM   28  O   UNL     1      -5.623   5.178  72.254  1.00  0.00    -0.015 OA 
HETATM   29  C   UNL     1      -5.990   3.868  72.688  1.00  0.00    -0.008 C  
ENDBRANCH  26  28
ENDBRANCH  25  26
ENDBRANCH  24  25
ENDBRANCH  23  24
ENDBRANCH  22  23
ENDBRANCH  21  22
ENDBRANCH  20  21
ENDBRANCH  19  20
ENDBRANCH  11  12
ENDBRANCH   8  10
ENDBRANCH   3   4
ENDBRANCH   2   3
TORSDOF 12
ENDMDL
MODEL      226
REMARK 921   NORMALIZED FREE ENERGY PREDICTED BY IDOCK:   -3.10 KCAL/MOL
REMARK 922        TOTAL FREE ENERGY PREDICTED BY IDOCK:   -7.32 KCAL/MOL
REMARK 923 INTER-LIGAND FREE ENERGY PREDICTED BY IDOCK:   -5.76 KCAL/MOL
REMARK 924 INTRA-LIGAND FREE ENERGY PREDICTED BY IDOCK:   -1.55 KCAL/MOL
REMARK 927      BINDING AFFINITY PREDICTED BY RF-SCORE:    0.00 PKD
ROOT
HETATM    1  C   UNL     1      -5.185   2.948  70.984  1.00  0.00    -0.004 C  
HETATM    2  C   UNL     1      -6.557   3.041  71.635  1.00  0.00    -0.019 C  
ENDROOT
BRANCH   2   3
HETATM    3  C   UNL     1      -7.653   2.937  70.580  1.00  0.00    -0.043 C  
BRANCH   3   4
HETATM    4  C   UNL     1      -7.424   3.890  69.399  1.00  0.00    -0.053 C  
HETATM    5  C   UNL     1      -8.679   4.718  69.034  1.00  0.00    -0.088 C  
HETATM    6  O   UNL     1      -9.707   3.803  68.629  1.00  0.00    -0.137 OA 
HETATM    7  C   UNL     1      -8.365   5.638  67.844  1.00  0.00    -0.100 C  
HETATM    8  C   UNL     1      -9.172   5.521  70.264  1.00  0.00    -0.181 C  
HETATM    9  H   UNL     1     -10.477   4.311  68.404  1.00  0.00     0.000 HD 
BRANCH   8  10
HETATM   10  C   UNL     1     -10.288   6.495  70.013  1.00  0.00    -0.238 C  
HETATM   11  C   UNL     1     -10.648   7.469  70.866  1.00  0.00    -0.227 C  
BRANCH  11  12
HETATM   12  C   UNL     1     -11.756   8.469  70.661  1.00  0.00    -0.161 C  
HETATM   13  C   UNL     1     -13.023   8.042  71.422  1.00  0.00    -0.252 C  
HETATM   14  C   UNL     1     -13.861   9.301  71.543  1.00  0.00    -0.330 C  
HETATM   15  O   UNL     1     -13.746   7.031  70.729  1.00  0.00    -0.394 OA 
HETATM   16  H   UNL     1     -14.528   6.767  71.199  1.00  0.00     0.000 HD 
HETATM   17  C   UNL     1     -12.814  10.366  71.630  1.00  0.00    -0.474 C  
HETATM   18  O   UNL     1     -13.047  11.484  72.075  1.00  0.00    -0.486 OA 
HETATM   19  C   UNL     1     -11.455   9.910  71.137  1.00  0.00    -0.459 C  
BRANCH  19  20
HETATM   20  C   UNL     1     -10.874  10.759  70.001  1.00  0.00    -0.218 C  
BRANCH  20  21
HETATM   21  C   UNL     1     -11.948  11.224  69.016  1.00  0.00    -0.393 C  
BRANCH  21  22
HETATM   22  C   UNL     1     -11.376  11.482  67.626  1.00  0.00    -0.358 C  
BRANCH  22  23
HETATM   23  C   UNL     1     -10.158  10.590  67.376  1.00  0.00    -0.236 C  
BRANCH  23  24
HETATM   24  C   UNL     1     -10.207   9.994  65.974  1.00  0.00    -0.277 C  
BRANCH  24  25
HETATM   25  C   UNL     1      -9.368   8.724  65.862  1.00  0.00    -0.284 C  
BRANCH  25  26
HETATM   26  C   UNL     1      -7.986   9.038  65.341  1.00  0.00    -0.111 C  
HETATM   27  O   UNL     1      -7.662  10.071  64.777  1.00  0.00    -0.134 OA 
BRANCH  26  28
HETATM   28  O   UNL     1      -7.147   7.996  65.596  1.00  0.00    -0.061 OA 
HETATM   29  C   UNL     1      -5.901   8.400  66.163  1.00  0.00    -0.044 C  
ENDBRANCH  26  28
ENDBRANCH  25  26
ENDBRANCH  24  25
ENDBRANCH  23  24
ENDBRANCH  22  23
ENDBRANCH  21  22
ENDBRANCH  20  21
ENDBRANCH  19  20
ENDBRANCH  11  12
ENDBRANCH   8  10
ENDBRANCH   3   4
ENDBRANCH   2   3
TORSDOF 12
ENDMDL
MODEL      227
REMARK 921   NORMALIZED FREE ENERGY PREDICTED BY IDOCK:   -3.08 KCAL/MOL
REMARK 922        TOTAL FREE ENERGY PREDICTED BY IDOCK:   -7.29 KCAL/MOL
REMARK 923 INTER-LIGAND FREE ENERGY PREDICTED BY IDOCK:   -5.72 KCAL/MOL
REMARK 924 INTRA-LIGAND FREE ENERGY PREDICTED BY IDOCK:   -1.57 KCAL/MOL
REMARK 927      BINDING AFFINITY PREDICTED BY RF-SCORE:    0.00 PKD
ROOT
HETATM    1  C   UNL     1      -8.091  19.684  67.836  1.00  0.00    -0.339 C  
HETATM    2  C   UNL     1      -7.565  18.939  66.616  1.00  0.00    -0.252 C  
ENDROOT
BRANCH   2   3
HETATM    3  C   UNL     1      -8.338  17.640  66.416  1.00  0.00    -0.288 C  
BRANCH   3   4
HETATM    4  C   UNL     1      -9.556  17.532  67.345  1.00  0.00    -0.265 C  
HETATM    5  C   UNL     1     -10.185  16.118  67.360  1.00  0.00    -0.272 C  
HETATM    6  O   UNL     1     -10.653  15.830  66.036  1.00  0.00    -0.310 OA 
HETATM    7  C   UNL     1     -11.395  16.100  68.306  1.00  0.00    -0.316 C  
HETATM    8  C   UNL     1      -9.126  15.061  67.764  1.00  0.00    -0.180 C  
HETATM    9  H   UNL     1     -11.040  14.963  66.045  1.00  0.00     0.000 HD 
BRANCH   8  10
HETATM   10  C   UNL     1      -9.636  13.664  67.978  1.00  0.00    -0.216 C  
HETATM   11  C   UNL     1      -8.887  12.648  68.438  1.00  0.00    -0.119 C  
BRANCH  11  12
HETATM   12  C   UNL     1      -9.349  11.232  68.669  1.00  0.00    -0.167 C  
HETATM   13  C   UNL     1     -10.866  11.189  68.918  1.00  0.00    -0.216 C  
HETATM   14  C   UNL     1     -11.273   9.751  68.658  1.00  0.00    -0.068 C  
HETATM   15  O   UNL     1     -11.199  11.564  70.249  1.00  0.00    -0.482 OA 
HETATM   16  H   UNL     1     -12.137  11.537  70.403  1.00  0.00     0.000 HD 
HETATM   17  C   UNL     1     -10.306   9.340  67.593  1.00  0.00    -0.253 C  
HETATM   18  O   UNL     1     -10.501   8.375  66.863  1.00  0.00    -0.317 OA 
HETATM   19  C   UNL     1      -9.092  10.245  67.507  1.00  0.00    -0.146 C  
BRANCH  19  20
HETATM   20  C   UNL     1      -7.750   9.525  67.677  1.00  0.00    -0.095 C  
BRANCH  20  21
HETATM   21  C   UNL     1      -7.362   9.361  69.147  1.00  0.00    -0.071 C  
BRANCH  21  22
HETATM   22  C   UNL     1      -7.685   7.966  69.671  1.00  0.00    -0.103 C  
BRANCH  22  23
HETATM   23  C   UNL     1      -7.248   7.831  71.132  1.00  0.00    -0.061 C  
BRANCH  23  24
HETATM   24  C   UNL     1      -8.462   7.795  72.054  1.00  0.00    -0.146 C  
BRANCH  24  25
HETATM   25  C   UNL     1      -9.723   7.344  71.322  1.00  0.00    -0.171 C  
BRANCH  25  26
HETATM   26  C   UNL     1     -10.095   5.933  71.713  1.00  0.00    -0.187 C  
HETATM   27  O   UNL     1     -10.001   4.953  70.991  1.00  0.00    -0.189 OA 
BRANCH  26  28
HETATM   28  O   UNL     1     -10.550   5.912  72.996  1.00  0.00    -0.215 OA 
HETATM   29  C   UNL     1     -11.480   4.858  73.248  1.00  0.00    -0.274 C  
ENDBRANCH  26  28
ENDBRANCH  25  26
ENDBRANCH  24  25
ENDBRANCH  23  24
ENDBRANCH  22  23
ENDBRANCH  21  22
ENDBRANCH  20  21
ENDBRANCH  19  20
ENDBRANCH  11  12
ENDBRANCH   8  10
ENDBRANCH   3   4
ENDBRANCH   2   3
TORSDOF 12
ENDMDL
MODEL      228
REMARK 921   NORMALIZED FREE ENERGY PREDICTED BY IDOCK:   -3.08 KCAL/MOL
REMARK 922        TOTAL FREE ENERGY PREDICTED BY IDOCK:   -7.27 KCAL/MOL
REMARK 923 INTER-LIGAND FREE ENERGY PREDICTED BY IDOCK:   -5.67 KCAL/MOL
REMARK 924 INTRA-LIGAND FREE ENERGY PREDICTED BY IDOCK:   -1.61 KCAL/MOL
REMARK 927      BINDING AFFINITY PREDICTED BY RF-SCORE:    0.00 PKD
ROOT
HETATM    1  C   UNL     1     -10.859  19.282  67.232  1.00  0.00    -0.554 C  
HETATM    2  C   UNL     1      -9.491  18.814  67.706  1.00  0.00    -0.333 C  
ENDROOT
BRANCH   2   3
HETATM    3  C   UNL     1      -9.178  17.433  67.139  1.00  0.00    -0.241 C  
BRANCH   3   4
HETATM    4  C   UNL     1     -10.433  16.566  66.980  1.00  0.00    -0.289 C  
HETATM    5  C   UNL     1     -10.118  15.113  66.549  1.00  0.00    -0.269 C  
HETATM    6  O   UNL     1      -9.489  15.163  65.261  1.00  0.00    -0.352 OA 
HETATM    7  C   UNL     1     -11.425  14.318  66.409  1.00  0.00    -0.361 C  
HETATM    8  C   UNL     1      -9.149  14.448  67.560  1.00  0.00    -0.195 C  
HETATM    9  H   UNL     1      -9.296  14.272  64.996  1.00  0.00     0.000 HD 
BRANCH   8  10
HETATM   10  C   UNL     1      -8.884  12.984  67.354  1.00  0.00    -0.203 C  
HETATM   11  C   UNL     1      -9.435  12.005  68.091  1.00  0.00    -0.200 C  
BRANCH  11  12
HETATM   12  C   UNL     1      -9.202  10.526  67.926  1.00  0.00    -0.143 C  
HETATM   13  C   UNL     1      -9.466   9.782  69.246  1.00  0.00    -0.194 C  
HETATM   14  C   UNL     1      -9.673   8.331  68.854  1.00  0.00    -0.164 C  
HETATM   15  O   UNL     1      -8.374   9.898  70.151  1.00  0.00    -0.225 OA 
HETATM   16  H   UNL     1      -8.537   9.439  70.967  1.00  0.00     0.000 HD 
HETATM   17  C   UNL     1     -10.301   8.459  67.503  1.00  0.00    -0.265 C  
HETATM   18  O   UNL     1     -10.935   7.549  66.982  1.00  0.00    -0.306 OA 
HETATM   19  C   UNL     1     -10.089   9.821  66.872  1.00  0.00    -0.287 C  
BRANCH  19  20
HETATM   20  C   UNL     1      -9.400   9.787  65.503  1.00  0.00    -0.299 C  
BRANCH  20  21
HETATM   21  C   UNL     1      -7.880   9.666  65.621  1.00  0.00    -0.107 C  
BRANCH  21  22
HETATM   22  C   UNL     1      -7.179   9.958  64.299  1.00  0.00    -0.134 C  
BRANCH  22  23
HETATM   23  C   UNL     1      -6.312   8.767  63.880  1.00  0.00    -0.076 C  
BRANCH  23  24
HETATM   24  C   UNL     1      -7.141   7.489  63.835  1.00  0.00    -0.062 C  
BRANCH  24  25
HETATM   25  C   UNL     1      -6.506   6.367  64.652  1.00  0.00    -0.034 C  
BRANCH  25  26
HETATM   26  C   UNL     1      -7.523   5.727  65.567  1.00  0.00    -0.077 C  
HETATM   27  O   UNL     1      -7.816   6.126  66.683  1.00  0.00    -0.101 OA 
BRANCH  26  28
HETATM   28  O   UNL     1      -8.069   4.636  64.964  1.00  0.00    -0.097 OA 
HETATM   29  C   UNL     1      -9.494   4.683  64.893  1.00  0.00    -0.099 C  
ENDBRANCH  26  28
ENDBRANCH  25  26
ENDBRANCH  24  25
ENDBRANCH  23  24
ENDBRANCH  22  23
ENDBRANCH  21  22
ENDBRANCH  20  21
ENDBRANCH  19  20
ENDBRANCH  11  12
ENDBRANCH   8  10
ENDBRANCH   3   4
ENDBRANCH   2   3
TORSDOF 12
ENDMDL
MODEL      229
REMARK 921   NORMALIZED FREE ENERGY PREDICTED BY IDOCK:   -3.06 KCAL/MOL
REMARK 922        TOTAL FREE ENERGY PREDICTED BY IDOCK:   -7.25 KCAL/MOL
REMARK 923 INTER-LIGAND FREE ENERGY PREDICTED BY IDOCK:   -6.45 KCAL/MOL
REMARK 924 INTRA-LIGAND FREE ENERGY PREDICTED BY IDOCK:   -0.80 KCAL/MOL
REMARK 927      BINDING AFFINITY PREDICTED BY RF-SCORE:    0.00 PKD
ROOT
HETATM    1  C   UNL     1     -12.011  14.326  67.139  1.00  0.00    -0.449 C  
HETATM    2  C   UNL     1     -10.723  14.737  66.440  1.00  0.00    -0.313 C  
ENDROOT
BRANCH   2   3
HETATM    3  C   UNL     1     -10.949  14.852  64.936  1.00  0.00    -0.422 C  
BRANCH   3   4
HETATM    4  C   UNL     1     -12.042  13.899  64.433  1.00  0.00    -0.477 C  
HETATM    5  C   UNL     1     -11.487  12.537  63.951  1.00  0.00    -0.437 C  
HETATM    6  O   UNL     1     -10.616  12.786  62.839  1.00  0.00    -0.340 OA 
HETATM    7  C   UNL     1     -12.641  11.650  63.462  1.00  0.00    -0.327 C  
HETATM    8  C   UNL     1     -10.679  11.853  65.083  1.00  0.00    -0.339 C  
HETATM    9  H   UNL     1     -10.275  11.951  62.543  1.00  0.00     0.000 HD 
BRANCH   8  10
HETATM   10  C   UNL     1     -10.217  10.450  64.809  1.00  0.00    -0.319 C  
HETATM   11  C   UNL     1      -9.015   9.967  65.166  1.00  0.00    -0.227 C  
BRANCH  11  12
HETATM   12  C   UNL     1      -8.504   8.572  64.916  1.00  0.00    -0.166 C  
HETATM   13  C   UNL     1      -7.849   8.472  63.528  1.00  0.00    -0.151 C  
HETATM   14  C   UNL     1      -6.980   7.230  63.584  1.00  0.00    -0.062 C  
HETATM   15  O   UNL     1      -8.816   8.353  62.490  1.00  0.00    -0.432 OA 
HETATM   16  H   UNL     1      -8.411   8.291  61.633  1.00  0.00     0.000 HD 
HETATM   17  C   UNL     1      -6.559   7.207  65.019  1.00  0.00    -0.047 C  
HETATM   18  O   UNL     1      -5.587   6.572  65.410  1.00  0.00    -0.024 OA 
HETATM   19  C   UNL     1      -7.438   8.060  65.913  1.00  0.00    -0.081 C  
BRANCH  19  20
HETATM   20  C   UNL     1      -8.086   7.301  67.077  1.00  0.00    -0.117 C  
BRANCH  20  21
HETATM   21  C   UNL     1      -8.515   5.887  66.680  1.00  0.00    -0.111 C  
BRANCH  21  22
HETATM   22  C   UNL     1      -8.010   4.838  67.665  1.00  0.00    -0.094 C  
BRANCH  22  23
HETATM   23  C   UNL     1      -9.183   4.211  68.423  1.00  0.00    -0.198 C  
BRANCH  23  24
HETATM   24  C   UNL     1      -9.975   5.280  69.168  1.00  0.00    -0.275 C  
BRANCH  24  25
HETATM   25  C   UNL     1      -9.281   5.710  70.458  1.00  0.00    -0.175 C  
BRANCH  25  26
HETATM   26  C   UNL     1      -9.992   5.144  71.664  1.00  0.00    -0.184 C  
HETATM   27  O   UNL     1     -10.085   3.957  71.936  1.00  0.00    -0.180 OA 
BRANCH  26  28
HETATM   28  O   UNL     1     -10.515   6.155  72.411  1.00  0.00    -0.190 OA 
HETATM   29  C   UNL     1     -11.877   6.442  72.096  1.00  0.00    -0.314 C  
ENDBRANCH  26  28
ENDBRANCH  25  26
ENDBRANCH  24  25
ENDBRANCH  23  24
ENDBRANCH  22  23
ENDBRANCH  21  22
ENDBRANCH  20  21
ENDBRANCH  19  20
ENDBRANCH  11  12
ENDBRANCH   8  10
ENDBRANCH   3   4
ENDBRANCH   2   3
TORSDOF 12
ENDMDL
MODEL      230
REMARK 921   NORMALIZED FREE ENERGY PREDICTED BY IDOCK:   -3.06 KCAL/MOL
REMARK 922        TOTAL FREE ENERGY PREDICTED BY IDOCK:   -7.25 KCAL/MOL
REMARK 923 INTER-LIGAND FREE ENERGY PREDICTED BY IDOCK:   -5.35 KCAL/MOL
REMARK 924 INTRA-LIGAND FREE ENERGY PREDICTED BY IDOCK:   -1.90 KCAL/MOL
REMARK 927      BINDING AFFINITY PREDICTED BY RF-SCORE:    0.00 PKD
ROOT
HETATM    1  C   UNL     1     -13.089  14.883  70.472  1.00  0.00    -0.299 C  
HETATM    2  C   UNL     1     -11.775  15.550  70.854  1.00  0.00    -0.413 C  
ENDROOT
BRANCH   2   3
HETATM    3  C   UNL     1     -10.663  15.113  69.906  1.00  0.00    -0.274 C  
BRANCH   3   4
HETATM    4  C   UNL     1     -11.200  14.674  68.537  1.00  0.00    -0.288 C  
HETATM    5  C   UNL     1     -10.539  13.376  68.012  1.00  0.00    -0.243 C  
HETATM    6  O   UNL     1      -9.139  13.634  67.841  1.00  0.00    -0.181 OA 
HETATM    7  C   UNL     1     -11.127  13.012  66.641  1.00  0.00    -0.318 C  
HETATM    8  C   UNL     1     -10.721  12.227  69.037  1.00  0.00    -0.149 C  
HETATM    9  H   UNL     1      -8.733  12.837  67.519  1.00  0.00     0.000 HD 
BRANCH   8  10
HETATM   10  C   UNL     1     -10.269  10.865  68.588  1.00  0.00    -0.201 C  
HETATM   11  C   UNL     1     -10.695   9.712  69.130  1.00  0.00    -0.237 C  
BRANCH  11  12
HETATM   12  C   UNL     1     -10.274   8.325  68.718  1.00  0.00    -0.226 C  
HETATM   13  C   UNL     1     -10.901   7.268  69.644  1.00  0.00    -0.222 C  
HETATM   14  C   UNL     1     -10.817   5.963  68.877  1.00  0.00    -0.373 C  
HETATM   15  O   UNL     1     -10.203   7.161  70.880  1.00  0.00    -0.197 OA 
HETATM   16  H   UNL     1     -10.591   6.509  71.452  1.00  0.00     0.000 HD 
HETATM   17  C   UNL     1     -10.951   6.424  67.460  1.00  0.00    -0.364 C  
HETATM   18  O   UNL     1     -11.274   5.669  66.550  1.00  0.00    -0.098 OA 
HETATM   19  C   UNL     1     -10.671   7.903  67.283  1.00  0.00    -0.299 C  
BRANCH  19  20
HETATM   20  C   UNL     1      -9.554   8.223  66.283  1.00  0.00    -0.266 C  
BRANCH  20  21
HETATM   21  C   UNL     1      -8.179   7.786  66.791  1.00  0.00    -0.120 C  
BRANCH  21  22
HETATM   22  C   UNL     1      -7.494   6.821  65.828  1.00  0.00    -0.085 C  
BRANCH  22  23
HETATM   23  C   UNL     1      -6.676   5.785  66.603  1.00  0.00    -0.058 C  
BRANCH  23  24
HETATM   24  C   UNL     1      -7.482   5.228  67.771  1.00  0.00    -0.076 C  
BRANCH  24  25
HETATM   25  C   UNL     1      -7.889   3.775  67.543  1.00  0.00    -0.082 C  
BRANCH  25  26
HETATM   26  C   UNL     1      -7.030   2.842  68.363  1.00  0.00    -0.048 C  
HETATM   27  O   UNL     1      -5.809   2.844  68.385  1.00  0.00    -0.022 OA 
BRANCH  26  28
HETATM   28  O   UNL     1      -7.818   1.994  69.079  1.00  0.00    -0.046 OA 
HETATM   29  C   UNL     1      -9.197   2.063  68.717  1.00  0.00    -0.161 C  
ENDBRANCH  26  28
ENDBRANCH  25  26
ENDBRANCH  24  25
ENDBRANCH  23  24
ENDBRANCH  22  23
ENDBRANCH  21  22
ENDBRANCH  20  21
ENDBRANCH  19  20
ENDBRANCH  11  12
ENDBRANCH   8  10
ENDBRANCH   3   4
ENDBRANCH   2   3
TORSDOF 12
ENDMDL
MODEL      231
REMARK 921   NORMALIZED FREE ENERGY PREDICTED BY IDOCK:   -3.05 KCAL/MOL
REMARK 922        TOTAL FREE ENERGY PREDICTED BY IDOCK:   -7.22 KCAL/MOL
REMARK 923 INTER-LIGAND FREE ENERGY PREDICTED BY IDOCK:   -5.86 KCAL/MOL
REMARK 924 INTRA-LIGAND FREE ENERGY PREDICTED BY IDOCK:   -1.36 KCAL/MOL
REMARK 927      BINDING AFFINITY PREDICTED BY RF-SCORE:    0.00 PKD
ROOT
HETATM    1  C   UNL     1     -12.333  11.742  70.529  1.00  0.00    -0.387 C  
HETATM    2  C   UNL     1     -11.697  12.613  69.454  1.00  0.00    -0.387 C  
ENDROOT
BRANCH   2   3
HETATM    3  C   UNL     1     -11.888  11.982  68.079  1.00  0.00    -0.338 C  
BRANCH   3   4
HETATM    4  C   UNL     1     -10.604  12.008  67.238  1.00  0.00    -0.252 C  
HETATM    5  C   UNL     1      -9.791  10.694  67.330  1.00  0.00    -0.176 C  
HETATM    6  O   UNL     1      -9.385  10.522  68.694  1.00  0.00    -0.156 OA 
HETATM    7  C   UNL     1      -8.526  10.806  66.467  1.00  0.00    -0.147 C  
HETATM    8  C   UNL     1     -10.668   9.488  66.907  1.00  0.00    -0.184 C  
HETATM    9  H   UNL     1      -8.886   9.717  68.750  1.00  0.00     0.000 HD 
BRANCH   8  10
HETATM   10  C   UNL     1      -9.961   8.167  66.792  1.00  0.00    -0.349 C  
HETATM   11  C   UNL     1     -10.577   6.974  66.842  1.00  0.00    -0.372 C  
BRANCH  11  12
HETATM   12  C   UNL     1      -9.916   5.624  66.732  1.00  0.00    -0.207 C  
HETATM   13  C   UNL     1     -10.119   5.031  65.327  1.00  0.00     0.158 C  
HETATM   14  C   UNL     1      -9.052   3.962  65.186  1.00  0.00    -0.142 C  
HETATM   15  O   UNL     1     -11.414   4.460  65.172  1.00  0.00    -1.069 OA 
HETATM   16  H   UNL     1     -11.539   4.094  64.304  1.00  0.00     0.000 HD 
HETATM   17  C   UNL     1      -7.936   4.525  66.007  1.00  0.00    -0.099 C  
HETATM   18  O   UNL     1      -6.775   4.150  65.886  1.00  0.00    -0.047 OA 
HETATM   19  C   UNL     1      -8.388   5.604  66.971  1.00  0.00    -0.107 C  
BRANCH  19  20
HETATM   20  C   UNL     1      -8.060   5.320  68.441  1.00  0.00    -0.091 C  
BRANCH  20  21
HETATM   21  C   UNL     1      -9.133   4.468  69.120  1.00  0.00    -0.173 C  
BRANCH  21  22
HETATM   22  C   UNL     1      -9.192   4.714  70.624  1.00  0.00    -0.197 C  
BRANCH  22  23
HETATM   23  C   UNL     1     -10.613   5.093  71.048  1.00  0.00    -0.201 C  
BRANCH  23  24
HETATM   24  C   UNL     1     -10.689   5.290  72.557  1.00  0.00    -0.290 C  
BRANCH  24  25
HETATM   25  C   UNL     1      -9.760   4.338  73.306  1.00  0.00    -0.154 C  
BRANCH  25  26
HETATM   26  C   UNL     1     -10.425   3.000  73.524  1.00  0.00    -0.160 C  
HETATM   27  O   UNL     1     -11.627   2.792  73.466  1.00  0.00    -0.199 OA 
BRANCH  26  28
HETATM   28  O   UNL     1      -9.485   2.054  73.795  1.00  0.00    -0.077 OA 
HETATM   29  C   UNL     1      -8.294   2.203  73.022  1.00  0.00    -0.062 C  
ENDBRANCH  26  28
ENDBRANCH  25  26
ENDBRANCH  24  25
ENDBRANCH  23  24
ENDBRANCH  22  23
ENDBRANCH  21  22
ENDBRANCH  20  21
ENDBRANCH  19  20
ENDBRANCH  11  12
ENDBRANCH   8  10
ENDBRANCH   3   4
ENDBRANCH   2   3
TORSDOF 12
ENDMDL
MODEL      232
REMARK 921   NORMALIZED FREE ENERGY PREDICTED BY IDOCK:   -3.04 KCAL/MOL
REMARK 922        TOTAL FREE ENERGY PREDICTED BY IDOCK:   -7.21 KCAL/MOL
REMARK 923 INTER-LIGAND FREE ENERGY PREDICTED BY IDOCK:   -6.52 KCAL/MOL
REMARK 924 INTRA-LIGAND FREE ENERGY PREDICTED BY IDOCK:   -0.69 KCAL/MOL
REMARK 927      BINDING AFFINITY PREDICTED BY RF-SCORE:    0.00 PKD
ROOT
HETATM    1  C   UNL     1      -5.442   3.688  71.118  1.00  0.00    -0.008 C  
HETATM    2  C   UNL     1      -6.226   4.474  72.160  1.00  0.00    -0.021 C  
ENDROOT
BRANCH   2   3
HETATM    3  C   UNL     1      -7.643   4.744  71.665  1.00  0.00    -0.091 C  
BRANCH   3   4
HETATM    4  C   UNL     1      -7.664   5.478  70.318  1.00  0.00    -0.085 C  
HETATM    5  C   UNL     1      -9.048   6.081  69.975  1.00  0.00    -0.146 C  
HETATM    6  O   UNL     1      -9.983   4.999  69.867  1.00  0.00    -0.209 OA 
HETATM    7  C   UNL     1      -8.982   6.790  68.614  1.00  0.00    -0.125 C  
HETATM    8  C   UNL     1      -9.511   7.041  71.100  1.00  0.00    -0.165 C  
HETATM    9  H   UNL     1     -10.833   5.368  69.656  1.00  0.00     0.000 HD 
BRANCH   8  10
HETATM   10  C   UNL     1     -10.765   7.822  70.825  1.00  0.00    -0.230 C  
HETATM   11  C   UNL     1     -11.038   9.024  71.359  1.00  0.00    -0.399 C  
BRANCH  11  12
HETATM   12  C   UNL     1     -12.277   9.847  71.116  1.00  0.00    -0.468 C  
HETATM   13  C   UNL     1     -13.393   9.455  72.100  1.00  0.00    -0.468 C  
HETATM   14  C   UNL     1     -14.362  10.622  72.092  1.00  0.00     1.004 C  
HETATM   15  O   UNL     1     -14.055   8.259  71.706  1.00  0.00    -0.393 OA 
HETATM   16  H   UNL     1     -14.744   8.016  72.314  1.00  0.00     0.000 HD 
HETATM   17  C   UNL     1     -13.452  11.782  71.844  1.00  0.00    -0.176 C  
HETATM   18  O   UNL     1     -13.773  12.937  72.100  1.00  0.00    -0.501 OA 
HETATM   19  C   UNL     1     -12.108  11.377  71.274  1.00  0.00    -0.087 C  
BRANCH  19  20
HETATM   20  C   UNL     1     -11.761  12.036  69.934  1.00  0.00    -0.374 C  
BRANCH  20  21
HETATM   21  C   UNL     1     -11.714  13.562  70.034  1.00  0.00    -0.311 C  
BRANCH  21  22
HETATM   22  C   UNL     1     -11.875  14.229  68.672  1.00  0.00    -0.379 C  
BRANCH  22  23
HETATM   23  C   UNL     1     -11.765  13.190  67.553  1.00  0.00    -0.414 C  
BRANCH  23  24
HETATM   24  C   UNL     1     -11.517  13.870  66.211  1.00  0.00    -0.347 C  
BRANCH  24  25
HETATM   25  C   UNL     1     -12.558  13.473  65.168  1.00  0.00    -0.485 C  
BRANCH  25  26
HETATM   26  C   UNL     1     -12.002  12.435  64.222  1.00  0.00    -0.410 C  
HETATM   27  O   UNL     1     -12.646  11.834  63.377  1.00  0.00    -0.558 OA 
BRANCH  26  28
HETATM   28  O   UNL     1     -10.670  12.268  64.448  1.00  0.00    -0.291 OA 
HETATM   29  C   UNL     1     -10.072  11.288  63.600  1.00  0.00    -0.382 C  
ENDBRANCH  26  28
ENDBRANCH  25  26
ENDBRANCH  24  25
ENDBRANCH  23  24
ENDBRANCH  22  23
ENDBRANCH  21  22
ENDBRANCH  20  21
ENDBRANCH  19  20
ENDBRANCH  11  12
ENDBRANCH   8  10
ENDBRANCH   3   4
ENDBRANCH   2   3
TORSDOF 12
ENDMDL
MODEL      233
REMARK 921   NORMALIZED FREE ENERGY PREDICTED BY IDOCK:   -3.04 KCAL/MOL
REMARK 922        TOTAL FREE ENERGY PREDICTED BY IDOCK:   -7.21 KCAL/MOL
REMARK 923 INTER-LIGAND FREE ENERGY PREDICTED BY IDOCK:   -6.31 KCAL/MOL
REMARK 924 INTRA-LIGAND FREE ENERGY PREDICTED BY IDOCK:   -0.90 KCAL/MOL
REMARK 927      BINDING AFFINITY PREDICTED BY RF-SCORE:    0.00 PKD
ROOT
HETATM    1  C   UNL     1      -5.125   6.199  69.516  1.00  0.00    -0.008 C  
HETATM    2  C   UNL     1      -6.541   6.438  69.009  1.00  0.00    -0.048 C  
ENDROOT
BRANCH   2   3
HETATM    3  C   UNL     1      -6.590   6.297  67.491  1.00  0.00    -0.052 C  
BRANCH   3   4
HETATM    4  C   UNL     1      -6.863   7.633  66.786  1.00  0.00    -0.067 C  
HETATM    5  C   UNL     1      -8.338   8.089  66.900  1.00  0.00    -0.116 C  
HETATM    6  O   UNL     1      -9.154   7.107  66.248  1.00  0.00    -0.162 OA 
HETATM    7  C   UNL     1      -8.525   9.426  66.167  1.00  0.00    -0.127 C  
HETATM    8  C   UNL     1      -8.758   8.190  68.389  1.00  0.00    -0.134 C  
HETATM    9  H   UNL     1     -10.059   7.387  66.318  1.00  0.00     0.000 HD 
BRANCH   8  10
HETATM   10  C   UNL     1     -10.115   8.777  68.654  1.00  0.00    -0.207 C  
HETATM   11  C   UNL     1     -10.458   9.402  69.793  1.00  0.00    -0.243 C  
BRANCH  11  12
HETATM   12  C   UNL     1     -11.802  10.007  70.107  1.00  0.00    -0.245 C  
HETATM   13  C   UNL     1     -12.371   9.422  71.411  1.00  0.00    -0.357 C  
HETATM   14  C   UNL     1     -13.430  10.409  71.864  1.00  0.00    -0.384 C  
HETATM   15  O   UNL     1     -12.947   8.136  71.211  1.00  0.00    -0.455 OA 
HETATM   16  H   UNL     1     -13.299   7.775  72.017  1.00  0.00     0.000 HD 
HETATM   17  C   UNL     1     -12.876  11.709  71.374  1.00  0.00    -0.356 C  
HETATM   18  O   UNL     1     -13.241  12.791  71.820  1.00  0.00    -0.429 OA 
HETATM   19  C   UNL     1     -11.816  11.542  70.303  1.00  0.00    -0.431 C  
BRANCH  19  20
HETATM   20  C   UNL     1     -12.124  12.265  68.987  1.00  0.00    -0.197 C  
BRANCH  20  21
HETATM   21  C   UNL     1     -10.995  12.117  67.966  1.00  0.00    -0.271 C  
BRANCH  21  22
HETATM   22  C   UNL     1      -9.865  13.112  68.215  1.00  0.00    -0.227 C  
BRANCH  22  23
HETATM   23  C   UNL     1      -9.953  14.276  67.225  1.00  0.00    -0.252 C  
BRANCH  23  24
HETATM   24  C   UNL     1     -11.045  15.255  67.642  1.00  0.00    -0.323 C  
BRANCH  24  25
HETATM   25  C   UNL     1     -10.725  15.936  68.970  1.00  0.00    -0.251 C  
BRANCH  25  26
HETATM   26  C   UNL     1     -11.879  15.801  69.935  1.00  0.00    -0.344 C  
HETATM   27  O   UNL     1     -13.057  15.949  69.651  1.00  0.00     0.220 OA 
BRANCH  26  28
HETATM   28  O   UNL     1     -11.414  15.485  71.174  1.00  0.00    -0.324 OA 
HETATM   29  C   UNL     1     -12.244  15.968  72.230  1.00  0.00    -0.519 C  
ENDBRANCH  26  28
ENDBRANCH  25  26
ENDBRANCH  24  25
ENDBRANCH  23  24
ENDBRANCH  22  23
ENDBRANCH  21  22
ENDBRANCH  20  21
ENDBRANCH  19  20
ENDBRANCH  11  12
ENDBRANCH   8  10
ENDBRANCH   3   4
ENDBRANCH   2   3
TORSDOF 12
ENDMDL
MODEL      234
REMARK 921   NORMALIZED FREE ENERGY PREDICTED BY IDOCK:   -3.02 KCAL/MOL
REMARK 922        TOTAL FREE ENERGY PREDICTED BY IDOCK:   -7.18 KCAL/MOL
REMARK 923 INTER-LIGAND FREE ENERGY PREDICTED BY IDOCK:   -5.85 KCAL/MOL
REMARK 924 INTRA-LIGAND FREE ENERGY PREDICTED BY IDOCK:   -1.33 KCAL/MOL
REMARK 927      BINDING AFFINITY PREDICTED BY RF-SCORE:    0.00 PKD
ROOT
HETATM    1  C   UNL     1      -8.387   3.436  64.148  1.00  0.00    -0.090 C  
HETATM    2  C   UNL     1      -9.596   2.860  64.871  1.00  0.00    -0.078 C  
ENDROOT
BRANCH   2   3
HETATM    3  C   UNL     1     -10.386   3.973  65.552  1.00  0.00    -0.060 C  
BRANCH   3   4
HETATM    4  C   UNL     1      -9.614   5.299  65.593  1.00  0.00    -0.064 C  
HETATM    5  C   UNL     1      -9.897   6.127  66.870  1.00  0.00    -0.159 C  
HETATM    6  O   UNL     1     -11.291   6.463  66.876  1.00  0.00    -0.663 OA 
HETATM    7  C   UNL     1      -9.092   7.434  66.828  1.00  0.00    -0.178 C  
HETATM    8  C   UNL     1      -9.571   5.294  68.136  1.00  0.00    -0.164 C  
HETATM    9  H   UNL     1     -11.465   6.972  67.659  1.00  0.00     0.000 HD 
BRANCH   8  10
HETATM   10  C   UNL     1      -9.645   6.028  69.445  1.00  0.00    -0.161 C  
HETATM   11  C   UNL     1     -10.753   6.117  70.199  1.00  0.00    -0.366 C  
BRANCH  11  12
HETATM   12  C   UNL     1     -10.880   6.838  71.517  1.00  0.00    -0.265 C  
HETATM   13  C   UNL     1     -10.644   5.872  72.691  1.00  0.00    -0.221 C  
HETATM   14  C   UNL     1     -10.321   6.758  73.879  1.00  0.00    -0.397 C  
HETATM   15  O   UNL     1     -11.791   5.076  72.965  1.00  0.00    -0.408 OA 
HETATM   16  H   UNL     1     -11.645   4.480  73.690  1.00  0.00     0.000 HD 
HETATM   17  C   UNL     1      -9.627   7.913  73.229  1.00  0.00    -0.285 C  
HETATM   18  O   UNL     1      -8.907   8.684  73.852  1.00  0.00    -0.118 OA 
HETATM   19  C   UNL     1      -9.891   8.007  71.739  1.00  0.00    -0.240 C  
BRANCH  19  20
HETATM   20  C   UNL     1     -10.497   9.339  71.284  1.00  0.00    -0.408 C  
BRANCH  20  21
HETATM   21  C   UNL     1     -10.536   9.468  69.760  1.00  0.00    -0.257 C  
BRANCH  21  22
HETATM   22  C   UNL     1      -9.469  10.424  69.239  1.00  0.00    -0.214 C  
BRANCH  22  23
HETATM   23  C   UNL     1     -10.120  11.636  68.567  1.00  0.00    -0.210 C  
BRANCH  23  24
HETATM   24  C   UNL     1      -9.076  12.465  67.827  1.00  0.00    -0.193 C  
BRANCH  24  25
HETATM   25  C   UNL     1      -7.714  12.413  68.513  1.00  0.00    -0.120 C  
BRANCH  25  26
HETATM   26  C   UNL     1      -6.954  13.700  68.297  1.00  0.00    -0.109 C  
HETATM   27  O   UNL     1      -7.257  14.572  67.498  1.00  0.00    -0.176 OA 
BRANCH  26  28
HETATM   28  O   UNL     1      -5.876  13.747  69.127  1.00  0.00    -0.077 OA 
HETATM   29  C   UNL     1      -6.096  14.542  70.292  1.00  0.00    -0.170 C  
ENDBRANCH  26  28
ENDBRANCH  25  26
ENDBRANCH  24  25
ENDBRANCH  23  24
ENDBRANCH  22  23
ENDBRANCH  21  22
ENDBRANCH  20  21
ENDBRANCH  19  20
ENDBRANCH  11  12
ENDBRANCH   8  10
ENDBRANCH   3   4
ENDBRANCH   2   3
TORSDOF 12
ENDMDL
MODEL      235
REMARK 921   NORMALIZED FREE ENERGY PREDICTED BY IDOCK:   -3.01 KCAL/MOL
REMARK 922        TOTAL FREE ENERGY PREDICTED BY IDOCK:   -7.16 KCAL/MOL
REMARK 923 INTER-LIGAND FREE ENERGY PREDICTED BY IDOCK:   -6.00 KCAL/MOL
REMARK 924 INTRA-LIGAND FREE ENERGY PREDICTED BY IDOCK:   -1.17 KCAL/MOL
REMARK 927      BINDING AFFINITY PREDICTED BY RF-SCORE:    0.00 PKD
ROOT
HETATM    1  C   UNL     1     -10.315  14.468  64.983  1.00  0.00    -0.442 C  
HETATM    2  C   UNL     1     -11.287  14.297  66.142  1.00  0.00    -0.342 C  
ENDROOT
BRANCH   2   3
HETATM    3  C   UNL     1     -10.547  13.825  67.389  1.00  0.00    -0.260 C  
BRANCH   3   4
HETATM    4  C   UNL     1      -9.281  13.026  67.053  1.00  0.00    -0.232 C  
HETATM    5  C   UNL     1      -9.418  11.514  67.355  1.00  0.00    -0.165 C  
HETATM    6  O   UNL     1      -9.635  11.365  68.765  1.00  0.00    -0.268 OA 
HETATM    7  C   UNL     1      -8.111  10.793  66.996  1.00  0.00    -0.124 C  
HETATM    8  C   UNL     1     -10.628  10.919  66.591  1.00  0.00    -0.305 C  
HETATM    9  H   UNL     1      -9.719  10.437  68.950  1.00  0.00     0.000 HD 
BRANCH   8  10
HETATM   10  C   UNL     1     -10.785   9.427  66.663  1.00  0.00    -0.076 C  
HETATM   11  C   UNL     1      -9.891   8.599  67.229  1.00  0.00    -0.256 C  
BRANCH  11  12
HETATM   12  C   UNL     1     -10.001   7.099  67.327  1.00  0.00    -0.243 C  
HETATM   13  C   UNL     1      -8.832   6.418  66.596  1.00  0.00    -0.130 C  
HETATM   14  C   UNL     1      -8.778   5.008  67.153  1.00  0.00    -0.103 C  
HETATM   15  O   UNL     1      -9.031   6.386  65.187  1.00  0.00    -0.367 OA 
HETATM   16  H   UNL     1      -8.309   5.965  64.735  1.00  0.00     0.000 HD 
HETATM   17  C   UNL     1      -9.248   5.210  68.559  1.00  0.00    -0.116 C  
HETATM   18  O   UNL     1      -9.032   4.395  69.448  1.00  0.00    -0.086 OA 
HETATM   19  C   UNL     1      -9.986   6.519  68.761  1.00  0.00    -0.155 C  
BRANCH  19  20
HETATM   20  C   UNL     1     -11.407   6.368  69.314  1.00  0.00    -0.405 C  
BRANCH  20  21
HETATM   21  C   UNL     1     -11.427   6.250  70.838  1.00  0.00    -0.377 C  
BRANCH  21  22
HETATM   22  C   UNL     1     -11.820   7.563  71.508  1.00  0.00    -0.324 C  
BRANCH  22  23
HETATM   23  C   UNL     1     -10.949   8.709  70.988  1.00  0.00    -0.314 C  
BRANCH  23  24
HETATM   24  C   UNL     1      -9.701   8.869  71.850  1.00  0.00    -0.349 C  
BRANCH  24  25
HETATM   25  C   UNL     1      -8.510   8.105  71.278  1.00  0.00    -0.154 C  
BRANCH  25  26
HETATM   26  C   UNL     1      -7.618   9.024  70.476  1.00  0.00    -0.110 C  
HETATM   27  O   UNL     1      -7.644  10.243  70.515  1.00  0.00    -0.212 OA 
BRANCH  26  28
HETATM   28  O   UNL     1      -6.775   8.290  69.700  1.00  0.00    -0.037 OA 
HETATM   29  C   UNL     1      -6.564   6.966  70.190  1.00  0.00    -0.044 C  
ENDBRANCH  26  28
ENDBRANCH  25  26
ENDBRANCH  24  25
ENDBRANCH  23  24
ENDBRANCH  22  23
ENDBRANCH  21  22
ENDBRANCH  20  21
ENDBRANCH  19  20
ENDBRANCH  11  12
ENDBRANCH   8  10
ENDBRANCH   3   4
ENDBRANCH   2   3
TORSDOF 12
ENDMDL
MODEL      236
REMARK 921   NORMALIZED FREE ENERGY PREDICTED BY IDOCK:   -2.99 KCAL/MOL
REMARK 922        TOTAL FREE ENERGY PREDICTED BY IDOCK:   -7.12 KCAL/MOL
REMARK 923 INTER-LIGAND FREE ENERGY PREDICTED BY IDOCK:   -5.13 KCAL/MOL
REMARK 924 INTRA-LIGAND FREE ENERGY PREDICTED BY IDOCK:   -2.00 KCAL/MOL
REMARK 927      BINDING AFFINITY PREDICTED BY RF-SCORE:    0.00 PKD
ROOT
HETATM    1  C   UNL     1     -10.074  18.263  66.663  1.00  0.00    -0.386 C  
HETATM    2  C   UNL     1     -10.501  17.896  68.078  1.00  0.00    -0.390 C  
ENDROOT
BRANCH   2   3
HETATM    3  C   UNL     1      -9.981  16.510  68.445  1.00  0.00    -0.250 C  
BRANCH   3   4
HETATM    4  C   UNL     1     -11.056  15.424  68.303  1.00  0.00    -0.309 C  
HETATM    5  C   UNL     1     -10.740  14.397  67.190  1.00  0.00    -0.283 C  
HETATM    6  O   UNL     1     -10.699  15.100  65.941  1.00  0.00    -0.310 OA 
HETATM    7  C   UNL     1     -11.863  13.353  67.112  1.00  0.00    -0.429 C  
HETATM    8  C   UNL     1      -9.361  13.735  67.443  1.00  0.00    -0.226 C  
HETATM    9  H   UNL     1     -10.505  14.470  65.257  1.00  0.00     0.000 HD 
BRANCH   8  10
HETATM   10  C   UNL     1      -8.995  12.600  66.529  1.00  0.00    -0.115 C  
HETATM   11  C   UNL     1      -8.351  11.490  66.925  1.00  0.00    -0.166 C  
BRANCH  11  12
HETATM   12  C   UNL     1      -7.962  10.325  66.050  1.00  0.00    -0.138 C  
HETATM   13  C   UNL     1      -8.889  10.230  64.826  1.00  0.00    -0.196 C  
HETATM   14  C   UNL     1      -8.138   9.377  63.821  1.00  0.00    -0.155 C  
HETATM   15  O   UNL     1     -10.138   9.630  65.148  1.00  0.00    -0.387 OA 
HETATM   16  H   UNL     1     -10.710   9.571  64.392  1.00  0.00     0.000 HD 
HETATM   17  C   UNL     1      -6.714   9.727  64.117  1.00  0.00    -0.120 C  
HETATM   18  O   UNL     1      -5.807   9.525  63.318  1.00  0.00    -0.087 OA 
HETATM   19  C   UNL     1      -6.526  10.366  65.478  1.00  0.00    -0.126 C  
BRANCH  19  20
HETATM   20  C   UNL     1      -5.542   9.630  66.395  1.00  0.00    -0.052 C  
BRANCH  20  21
HETATM   21  C   UNL     1      -5.363  10.337  67.740  1.00  0.00    -0.041 C  
BRANCH  21  22
HETATM   22  C   UNL     1      -5.808   9.464  68.908  1.00  0.00    -0.039 C  
BRANCH  22  23
HETATM   23  C   UNL     1      -5.791   7.987  68.508  1.00  0.00    -0.039 C  
BRANCH  23  24
HETATM   24  C   UNL     1      -6.986   7.254  69.107  1.00  0.00    -0.074 C  
BRANCH  24  25
HETATM   25  C   UNL     1      -8.309   7.920  68.739  1.00  0.00    -0.128 C  
BRANCH  25  26
HETATM   26  C   UNL     1      -8.937   7.242  67.545  1.00  0.00    -0.122 C  
HETATM   27  O   UNL     1      -8.384   6.426  66.825  1.00  0.00    -0.109 OA 
BRANCH  26  28
HETATM   28  O   UNL     1     -10.218   7.674  67.388  1.00  0.00    -0.201 OA 
HETATM   29  C   UNL     1     -11.089   6.676  66.854  1.00  0.00    -0.249 C  
ENDBRANCH  26  28
ENDBRANCH  25  26
ENDBRANCH  24  25
ENDBRANCH  23  24
ENDBRANCH  22  23
ENDBRANCH  21  22
ENDBRANCH  20  21
ENDBRANCH  19  20
ENDBRANCH  11  12
ENDBRANCH   8  10
ENDBRANCH   3   4
ENDBRANCH   2   3
TORSDOF 12
ENDMDL
MODEL      237
REMARK 921   NORMALIZED FREE ENERGY PREDICTED BY IDOCK:   -2.98 KCAL/MOL
REMARK 922        TOTAL FREE ENERGY PREDICTED BY IDOCK:   -7.12 KCAL/MOL
REMARK 923 INTER-LIGAND FREE ENERGY PREDICTED BY IDOCK:   -5.32 KCAL/MOL
REMARK 924 INTRA-LIGAND FREE ENERGY PREDICTED BY IDOCK:   -1.79 KCAL/MOL
REMARK 927      BINDING AFFINITY PREDICTED BY RF-SCORE:    0.00 PKD
ROOT
HETATM    1  C   UNL     1      -6.567   1.584  65.610  1.00  0.00    -0.023 C  
HETATM    2  C   UNL     1      -6.862   2.233  64.265  1.00  0.00    -0.039 C  
ENDROOT
BRANCH   2   3
HETATM    3  C   UNL     1      -7.340   3.668  64.462  1.00  0.00    -0.067 C  
BRANCH   3   4
HETATM    4  C   UNL     1      -8.866   3.798  64.363  1.00  0.00    -0.120 C  
HETATM    5  C   UNL     1      -9.497   4.508  65.584  1.00  0.00    -0.173 C  
HETATM    6  O   UNL     1      -9.228   3.709  66.745  1.00  0.00    -0.156 OA 
HETATM    7  C   UNL     1     -11.020   4.591  65.407  1.00  0.00     0.005 C  
HETATM    8  C   UNL     1      -8.866   5.910  65.778  1.00  0.00    -0.145 C  
HETATM    9  H   UNL     1      -9.615   4.145  67.495  1.00  0.00     0.000 HD 
BRANCH   8  10
HETATM   10  C   UNL     1      -9.496   6.778  66.830  1.00  0.00    -0.189 C  
HETATM   11  C   UNL     1      -9.098   6.821  68.113  1.00  0.00    -0.123 C  
BRANCH  11  12
HETATM   12  C   UNL     1      -9.695   7.672  69.204  1.00  0.00    -0.164 C  
HETATM   13  C   UNL     1     -10.630   6.838  70.096  1.00  0.00    -0.218 C  
HETATM   14  C   UNL     1     -10.774   7.632  71.380  1.00  0.00    -0.247 C  
HETATM   15  O   UNL     1     -11.904   6.638  69.492  1.00  0.00    -0.658 OA 
HETATM   16  H   UNL     1     -12.482   6.123  70.043  1.00  0.00     0.000 HD 
HETATM   17  C   UNL     1      -9.440   8.302  71.483  1.00  0.00    -0.186 C  
HETATM   18  O   UNL     1      -9.014   8.762  72.536  1.00  0.00    -0.386 OA 
HETATM   19  C   UNL     1      -8.681   8.329  70.171  1.00  0.00    -0.133 C  
BRANCH  19  20
HETATM   20  C   UNL     1      -8.289   9.731  69.693  1.00  0.00    -0.180 C  
BRANCH  20  21
HETATM   21  C   UNL     1      -7.093   9.705  68.740  1.00  0.00    -0.067 C  
BRANCH  21  22
HETATM   22  C   UNL     1      -7.502  10.000  67.300  1.00  0.00    -0.091 C  
BRANCH  22  23
HETATM   23  C   UNL     1      -7.232  11.467  66.959  1.00  0.00    -0.146 C  
BRANCH  23  24
HETATM   24  C   UNL     1      -8.536  12.256  66.913  1.00  0.00    -0.159 C  
BRANCH  24  25
HETATM   25  C   UNL     1      -9.673  11.446  66.296  1.00  0.00    -0.239 C  
BRANCH  25  26
HETATM   26  C   UNL     1     -10.975  11.718  67.011  1.00  0.00    -0.285 C  
HETATM   27  O   UNL     1     -12.038  11.973  66.467  1.00  0.00    -0.617 OA 
BRANCH  26  28
HETATM   28  O   UNL     1     -10.792  11.635  68.357  1.00  0.00    -0.196 OA 
HETATM   29  C   UNL     1     -12.013  11.510  69.087  1.00  0.00    -0.320 C  
ENDBRANCH  26  28
ENDBRANCH  25  26
ENDBRANCH  24  25
ENDBRANCH  23  24
ENDBRANCH  22  23
ENDBRANCH  21  22
ENDBRANCH  20  21
ENDBRANCH  19  20
ENDBRANCH  11  12
ENDBRANCH   8  10
ENDBRANCH   3   4
ENDBRANCH   2   3
TORSDOF 12
ENDMDL
MODEL      238
REMARK 921   NORMALIZED FREE ENERGY PREDICTED BY IDOCK:   -2.98 KCAL/MOL
REMARK 922        TOTAL FREE ENERGY PREDICTED BY IDOCK:   -7.10 KCAL/MOL
REMARK 923 INTER-LIGAND FREE ENERGY PREDICTED BY IDOCK:   -6.30 KCAL/MOL
REMARK 924 INTRA-LIGAND FREE ENERGY PREDICTED BY IDOCK:   -0.80 KCAL/MOL
REMARK 927      BINDING AFFINITY PREDICTED BY RF-SCORE:    0.00 PKD
ROOT
HETATM    1  C   UNL     1      -6.426   4.758  69.990  1.00  0.00    -0.035 C  
HETATM    2  C   UNL     1      -6.980   5.802  70.949  1.00  0.00    -0.066 C  
ENDROOT
BRANCH   2   3
HETATM    3  C   UNL     1      -7.220   7.118  70.217  1.00  0.00    -0.071 C  
BRANCH   3   4
HETATM    4  C   UNL     1      -8.455   7.864  70.740  1.00  0.00    -0.124 C  
HETATM    5  C   UNL     1      -8.918   9.005  69.802  1.00  0.00    -0.154 C  
HETATM    6  O   UNL     1      -7.859   9.969  69.726  1.00  0.00    -0.147 OA 
HETATM    7  C   UNL     1     -10.151   9.699  70.400  1.00  0.00    -0.336 C  
HETATM    8  C   UNL     1      -9.203   8.454  68.382  1.00  0.00    -0.135 C  
HETATM    9  H   UNL     1      -8.143  10.670  69.152  1.00  0.00     0.000 HD 
BRANCH   8  10
HETATM   10  C   UNL     1      -9.816   9.421  67.409  1.00  0.00    -0.222 C  
HETATM   11  C   UNL     1      -9.150   9.994  66.392  1.00  0.00    -0.176 C  
BRANCH  11  12
HETATM   12  C   UNL     1      -9.716  10.968  65.391  1.00  0.00    -0.279 C  
HETATM   13  C   UNL     1     -10.141  10.240  64.104  1.00  0.00    -0.062 C  
HETATM   14  C   UNL     1     -11.098  11.187  63.406  1.00  0.00    -0.026 C  
HETATM   15  O   UNL     1      -9.030   9.951  63.263  1.00  0.00    -0.223 OA 
HETATM   16  H   UNL     1      -9.293   9.502  62.469  1.00  0.00     0.000 HD 
HETATM   17  C   UNL     1     -11.748  11.882  64.561  1.00  0.00    -0.248 C  
HETATM   18  O   UNL     1     -12.816  12.474  64.457  1.00  0.00    -0.701 OA 
HETATM   19  C   UNL     1     -10.966  11.753  65.853  1.00  0.00    -0.354 C  
BRANCH  19  20
HETATM   20  C   UNL     1     -10.575  13.090  66.494  1.00  0.00    -0.292 C  
BRANCH  20  21
HETATM   21  C   UNL     1     -10.631  14.249  65.499  1.00  0.00    -0.351 C  
BRANCH  21  22
HETATM   22  C   UNL     1      -9.727  15.404  65.915  1.00  0.00    -0.392 C  
BRANCH  22  23
HETATM   23  C   UNL     1      -8.617  14.906  66.843  1.00  0.00    -0.269 C  
BRANCH  23  24
HETATM   24  C   UNL     1      -8.830  15.423  68.261  1.00  0.00    -0.176 C  
BRANCH  24  25
HETATM   25  C   UNL     1     -10.304  15.682  68.559  1.00  0.00    -0.219 C  
BRANCH  25  26
HETATM   26  C   UNL     1     -10.472  16.936  69.385  1.00  0.00    -0.283 C  
HETATM   27  O   UNL     1     -10.137  18.058  69.040  1.00  0.00    -0.377 OA 
BRANCH  26  28
HETATM   28  O   UNL     1     -11.058  16.632  70.575  1.00  0.00    -0.260 OA 
HETATM   29  C   UNL     1     -11.743  15.380  70.565  1.00  0.00    -0.325 C  
ENDBRANCH  26  28
ENDBRANCH  25  26
ENDBRANCH  24  25
ENDBRANCH  23  24
ENDBRANCH  22  23
ENDBRANCH  21  22
ENDBRANCH  20  21
ENDBRANCH  19  20
ENDBRANCH  11  12
ENDBRANCH   8  10
ENDBRANCH   3   4
ENDBRANCH   2   3
TORSDOF 12
ENDMDL
MODEL      239
REMARK 921   NORMALIZED FREE ENERGY PREDICTED BY IDOCK:   -2.96 KCAL/MOL
REMARK 922        TOTAL FREE ENERGY PREDICTED BY IDOCK:   -7.08 KCAL/MOL
REMARK 923 INTER-LIGAND FREE ENERGY PREDICTED BY IDOCK:   -5.85 KCAL/MOL
REMARK 924 INTRA-LIGAND FREE ENERGY PREDICTED BY IDOCK:   -1.24 KCAL/MOL
REMARK 927      BINDING AFFINITY PREDICTED BY RF-SCORE:    0.00 PKD
ROOT
HETATM    1  C   UNL     1     -10.774  19.618  67.593  1.00  0.00    -0.500 C  
HETATM    2  C   UNL     1      -9.457  19.415  66.858  1.00  0.00    -0.406 C  
ENDROOT
BRANCH   2   3
HETATM    3  C   UNL     1      -9.413  18.030  66.222  1.00  0.00    -0.231 C  
BRANCH   3   4
HETATM    4  C   UNL     1     -10.417  17.060  66.857  1.00  0.00    -0.268 C  
HETATM    5  C   UNL     1     -10.116  15.576  66.537  1.00  0.00    -0.279 C  
HETATM    6  O   UNL     1     -10.221  15.403  65.117  1.00  0.00    -0.364 OA 
HETATM    7  C   UNL     1     -11.167  14.678  67.205  1.00  0.00    -0.349 C  
HETATM    8  C   UNL     1      -8.679  15.208  66.988  1.00  0.00    -0.264 C  
HETATM    9  H   UNL     1     -10.036  14.492  64.920  1.00  0.00     0.000 HD 
BRANCH   8  10
HETATM   10  C   UNL     1      -8.307  13.757  66.885  1.00  0.00    -0.029 C  
HETATM   11  C   UNL     1      -7.719  13.056  67.870  1.00  0.00    -0.145 C  
BRANCH  11  12
HETATM   12  C   UNL     1      -7.326  11.602  67.818  1.00  0.00    -0.106 C  
HETATM   13  C   UNL     1      -5.808  11.455  67.621  1.00  0.00    -0.053 C  
HETATM   14  C   UNL     1      -5.483  10.039  68.059  1.00  0.00    -0.038 C  
HETATM   15  O   UNL     1      -5.425  11.653  66.265  1.00  0.00    -0.364 OA 
HETATM   16  H   UNL     1      -4.487  11.562  66.143  1.00  0.00     0.000 HD 
HETATM   17  C   UNL     1      -6.495   9.805  69.135  1.00  0.00    -0.044 C  
HETATM   18  O   UNL     1      -6.368   8.925  69.978  1.00  0.00    -0.036 OA 
HETATM   19  C   UNL     1      -7.661  10.772  69.080  1.00  0.00    -0.138 C  
BRANCH  19  20
HETATM   20  C   UNL     1      -9.035  10.105  68.956  1.00  0.00    -0.168 C  
BRANCH  20  21
HETATM   21  C   UNL     1      -9.025   8.936  67.970  1.00  0.00    -0.140 C  
BRANCH  21  22
HETATM   22  C   UNL     1     -10.435   8.504  67.580  1.00  0.00    -0.308 C  
BRANCH  22  23
HETATM   23  C   UNL     1     -10.650   7.025  67.909  1.00  0.00    -0.276 C  
BRANCH  23  24
HETATM   24  C   UNL     1     -10.818   6.828  69.411  1.00  0.00    -0.312 C  
BRANCH  24  25
HETATM   25  C   UNL     1     -10.152   5.543  69.897  1.00  0.00    -0.305 C  
BRANCH  25  26
HETATM   26  C   UNL     1      -9.455   5.766  71.218  1.00  0.00    -0.154 C  
HETATM   27  O   UNL     1      -8.305   6.155  71.352  1.00  0.00    -0.121 OA 
BRANCH  26  28
HETATM   28  O   UNL     1     -10.299   5.470  72.244  1.00  0.00    -0.196 OA 
HETATM   29  C   UNL     1     -10.482   6.553  73.155  1.00  0.00    -0.249 C  
ENDBRANCH  26  28
ENDBRANCH  25  26
ENDBRANCH  24  25
ENDBRANCH  23  24
ENDBRANCH  22  23
ENDBRANCH  21  22
ENDBRANCH  20  21
ENDBRANCH  19  20
ENDBRANCH  11  12
ENDBRANCH   8  10
ENDBRANCH   3   4
ENDBRANCH   2   3
TORSDOF 12
ENDMDL
MODEL      240
REMARK 921   NORMALIZED FREE ENERGY PREDICTED BY IDOCK:   -2.95 KCAL/MOL
REMARK 922        TOTAL FREE ENERGY PREDICTED BY IDOCK:   -7.05 KCAL/MOL
REMARK 923 INTER-LIGAND FREE ENERGY PREDICTED BY IDOCK:   -5.15 KCAL/MOL
REMARK 924 INTRA-LIGAND FREE ENERGY PREDICTED BY IDOCK:   -1.90 KCAL/MOL
REMARK 927      BINDING AFFINITY PREDICTED BY RF-SCORE:    0.00 PKD
ROOT
HETATM    1  C   UNL     1     -10.883  19.538  67.250  1.00  0.00    -0.557 C  
HETATM    2  C   UNL     1      -9.484  19.198  67.744  1.00  0.00    -0.362 C  
ENDROOT
BRANCH   2   3
HETATM    3  C   UNL     1      -9.096  17.789  67.306  1.00  0.00    -0.246 C  
BRANCH   3   4
HETATM    4  C   UNL     1     -10.319  16.897  67.049  1.00  0.00    -0.307 C  
HETATM    5  C   UNL     1      -9.953  15.406  66.857  1.00  0.00    -0.243 C  
HETATM    6  O   UNL     1      -9.119  15.304  65.694  1.00  0.00    -0.398 OA 
HETATM    7  C   UNL     1     -11.228  14.588  66.600  1.00  0.00    -0.346 C  
HETATM    8  C   UNL     1      -9.173  14.879  68.088  1.00  0.00    -0.186 C  
HETATM    9  H   UNL     1      -8.895  14.389  65.576  1.00  0.00     0.000 HD 
BRANCH   8  10
HETATM   10  C   UNL     1      -8.893  13.402  68.110  1.00  0.00    -0.180 C  
HETATM   11  C   UNL     1      -7.713  12.852  67.781  1.00  0.00    -0.151 C  
BRANCH  11  12
HETATM   12  C   UNL     1      -7.382  11.382  67.787  1.00  0.00    -0.098 C  
HETATM   13  C   UNL     1      -6.168  11.093  66.887  1.00  0.00    -0.111 C  
HETATM   14  C   UNL     1      -5.649   9.740  67.337  1.00  0.00    -0.039 C  
HETATM   15  O   UNL     1      -6.523  11.054  65.510  1.00  0.00    -0.364 OA 
HETATM   16  H   UNL     1      -5.773  10.876  64.954  1.00  0.00     0.000 HD 
HETATM   17  C   UNL     1      -5.978   9.748  68.796  1.00  0.00    -0.038 C  
HETATM   18  O   UNL     1      -5.433   9.000  69.598  1.00  0.00    -0.033 OA 
HETATM   19  C   UNL     1      -7.025  10.781  69.167  1.00  0.00    -0.091 C  
BRANCH  19  20
HETATM   20  C   UNL     1      -8.266  10.207  69.859  1.00  0.00    -0.128 C  
BRANCH  20  21
HETATM   21  C   UNL     1      -8.973   9.155  69.003  1.00  0.00    -0.143 C  
BRANCH  21  22
HETATM   22  C   UNL     1      -8.663   7.736  69.468  1.00  0.00    -0.135 C  
BRANCH  22  23
HETATM   23  C   UNL     1      -8.670   6.772  68.279  1.00  0.00    -0.123 C  
BRANCH  23  24
HETATM   24  C   UNL     1      -7.860   7.342  67.121  1.00  0.00    -0.110 C  
BRANCH  24  25
HETATM   25  C   UNL     1      -8.568   7.155  65.782  1.00  0.00    -0.143 C  
BRANCH  25  26
HETATM   26  C   UNL     1      -8.646   8.462  65.028  1.00  0.00    -0.106 C  
HETATM   27  O   UNL     1      -9.488   9.328  65.203  1.00  0.00    -0.235 OA 
BRANCH  26  28
HETATM   28  O   UNL     1      -7.633   8.535  64.122  1.00  0.00    -0.109 OA 
HETATM   29  C   UNL     1      -8.075   8.873  62.807  1.00  0.00    -0.169 C  
ENDBRANCH  26  28
ENDBRANCH  25  26
ENDBRANCH  24  25
ENDBRANCH  23  24
ENDBRANCH  22  23
ENDBRANCH  21  22
ENDBRANCH  20  21
ENDBRANCH  19  20
ENDBRANCH  11  12
ENDBRANCH   8  10
ENDBRANCH   3   4
ENDBRANCH   2   3
TORSDOF 12
ENDMDL
MODEL      241
REMARK 921   NORMALIZED FREE ENERGY PREDICTED BY IDOCK:   -2.95 KCAL/MOL
REMARK 922        TOTAL FREE ENERGY PREDICTED BY IDOCK:   -7.05 KCAL/MOL
REMARK 923 INTER-LIGAND FREE ENERGY PREDICTED BY IDOCK:   -6.37 KCAL/MOL
REMARK 924 INTRA-LIGAND FREE ENERGY PREDICTED BY IDOCK:   -0.69 KCAL/MOL
REMARK 927      BINDING AFFINITY PREDICTED BY RF-SCORE:    0.00 PKD
ROOT
HETATM    1  C   UNL     1      -5.334  16.583  67.805  1.00  0.00    -0.140 C  
HETATM    2  C   UNL     1      -6.149  17.806  68.202  1.00  0.00    -0.172 C  
ENDROOT
BRANCH   2   3
HETATM    3  C   UNL     1      -7.414  17.381  68.943  1.00  0.00    -0.235 C  
BRANCH   3   4
HETATM    4  C   UNL     1      -8.692  17.738  68.172  1.00  0.00    -0.266 C  
HETATM    5  C   UNL     1      -8.920  16.846  66.927  1.00  0.00    -0.224 C  
HETATM    6  O   UNL     1      -7.825  17.061  66.026  1.00  0.00    -0.409 OA 
HETATM    7  C   UNL     1     -10.212  17.271  66.215  1.00  0.00    -0.347 C  
HETATM    8  C   UNL     1      -8.956  15.351  67.334  1.00  0.00    -0.202 C  
HETATM    9  H   UNL     1      -7.965  16.514  65.262  1.00  0.00     0.000 HD 
BRANCH   8  10
HETATM   10  C   UNL     1      -9.331  14.381  66.250  1.00  0.00    -0.261 C  
HETATM   11  C   UNL     1     -10.023  13.248  66.456  1.00  0.00    -0.280 C  
BRANCH  11  12
HETATM   12  C   UNL     1     -10.424  12.245  65.406  1.00  0.00    -0.302 C  
HETATM   13  C   UNL     1     -10.350  12.866  64.001  1.00  0.00    -0.322 C  
HETATM   14  C   UNL     1     -10.296  11.690  63.045  1.00  0.00    -0.284 C  
HETATM   15  O   UNL     1     -11.481  13.682  63.718  1.00  0.00    -0.603 OA 
HETATM   16  H   UNL     1     -11.435  14.067  62.851  1.00  0.00     0.000 HD 
HETATM   17  C   UNL     1      -9.562  10.666  63.851  1.00  0.00    -0.306 C  
HETATM   18  O   UNL     1      -9.009   9.698  63.340  1.00  0.00    -0.235 OA 
HETATM   19  C   UNL     1      -9.558  10.964  65.337  1.00  0.00    -0.271 C  
BRANCH  19  20
HETATM   20  C   UNL     1     -10.146   9.850  66.210  1.00  0.00    -0.311 C  
BRANCH  20  21
HETATM   21  C   UNL     1      -9.411   9.710  67.544  1.00  0.00    -0.157 C  
BRANCH  21  22
HETATM   22  C   UNL     1      -7.949   9.322  67.353  1.00  0.00    -0.106 C  
BRANCH  22  23
HETATM   23  C   UNL     1      -7.630   8.042  68.130  1.00  0.00    -0.109 C  
BRANCH  23  24
HETATM   24  C   UNL     1      -7.500   6.856  67.182  1.00  0.00    -0.095 C  
BRANCH  24  25
HETATM   25  C   UNL     1      -8.390   5.689  67.601  1.00  0.00    -0.100 C  
BRANCH  25  26
HETATM   26  C   UNL     1      -9.043   5.052  66.397  1.00  0.00    -0.129 C  
HETATM   27  O   UNL     1      -8.994   5.486  65.257  1.00  0.00    -0.146 OA 
BRANCH  26  28
HETATM   28  O   UNL     1      -9.695   3.917  66.769  1.00  0.00    -0.214 OA 
HETATM   29  C   UNL     1      -8.882   3.022  67.529  1.00  0.00    -0.139 C  
ENDBRANCH  26  28
ENDBRANCH  25  26
ENDBRANCH  24  25
ENDBRANCH  23  24
ENDBRANCH  22  23
ENDBRANCH  21  22
ENDBRANCH  20  21
ENDBRANCH  19  20
ENDBRANCH  11  12
ENDBRANCH   8  10
ENDBRANCH   3   4
ENDBRANCH   2   3
TORSDOF 12
ENDMDL
MODEL      242
REMARK 921   NORMALIZED FREE ENERGY PREDICTED BY IDOCK:   -2.91 KCAL/MOL
REMARK 922        TOTAL FREE ENERGY PREDICTED BY IDOCK:   -6.99 KCAL/MOL
REMARK 923 INTER-LIGAND FREE ENERGY PREDICTED BY IDOCK:   -5.69 KCAL/MOL
REMARK 924 INTRA-LIGAND FREE ENERGY PREDICTED BY IDOCK:   -1.30 KCAL/MOL
REMARK 927      BINDING AFFINITY PREDICTED BY RF-SCORE:    0.00 PKD
ROOT
HETATM    1  C   UNL     1      -5.464   2.736  64.475  1.00  0.00    -0.009 C  
HETATM    2  C   UNL     1      -5.782   3.800  63.433  1.00  0.00    -0.013 C  
ENDROOT
BRANCH   2   3
HETATM    3  C   UNL     1      -6.663   4.888  64.038  1.00  0.00    -0.043 C  
BRANCH   3   4
HETATM    4  C   UNL     1      -8.131   4.458  64.153  1.00  0.00    -0.095 C  
HETATM    5  C   UNL     1      -8.818   4.976  65.440  1.00  0.00    -0.152 C  
HETATM    6  O   UNL     1      -8.134   4.405  66.564  1.00  0.00    -0.102 OA 
HETATM    7  C   UNL     1     -10.277   4.498  65.478  1.00  0.00    -0.251 C  
HETATM    8  C   UNL     1      -8.719   6.521  65.519  1.00  0.00    -0.063 C  
HETATM    9  H   UNL     1      -8.555   4.722  67.354  1.00  0.00     0.000 HD 
BRANCH   8  10
HETATM   10  C   UNL     1      -9.483   7.175  66.635  1.00  0.00    -0.219 C  
HETATM   11  C   UNL     1      -9.061   7.231  67.909  1.00  0.00    -0.132 C  
BRANCH  11  12
HETATM   12  C   UNL     1      -9.787   7.874  69.062  1.00  0.00    -0.171 C  
HETATM   13  C   UNL     1     -10.559   6.820  69.875  1.00  0.00    -0.222 C  
HETATM   14  C   UNL     1     -10.828   7.470  71.219  1.00  0.00    -0.253 C  
HETATM   15  O   UNL     1     -11.783   6.455  69.248  1.00  0.00    -0.608 OA 
HETATM   16  H   UNL     1     -12.260   5.804  69.750  1.00  0.00     0.000 HD 
HETATM   17  C   UNL     1      -9.629   8.348  71.387  1.00  0.00    -0.194 C  
HETATM   18  O   UNL     1      -9.281   8.786  72.478  1.00  0.00    -0.347 OA 
HETATM   19  C   UNL     1      -8.896   8.613  70.087  1.00  0.00    -0.144 C  
BRANCH  19  20
HETATM   20  C   UNL     1      -8.753  10.097  69.729  1.00  0.00    -0.148 C  
BRANCH  20  21
HETATM   21  C   UNL     1      -8.540  10.314  68.230  1.00  0.00    -0.122 C  
BRANCH  21  22
HETATM   22  C   UNL     1      -9.375  11.473  67.696  1.00  0.00    -0.171 C  
BRANCH  22  23
HETATM   23  C   UNL     1     -10.817  11.023  67.449  1.00  0.00    -0.327 C  
BRANCH  23  24
HETATM   24  C   UNL     1     -11.761  11.668  68.457  1.00  0.00    -0.378 C  
BRANCH  24  25
HETATM   25  C   UNL     1     -11.995  13.146  68.156  1.00  0.00    -0.333 C  
BRANCH  25  26
HETATM   26  C   UNL     1     -11.451  14.013  69.267  1.00  0.00    -0.295 C  
HETATM   27  O   UNL     1     -10.640  14.914  69.126  1.00  0.00    -0.233 OA 
BRANCH  26  28
HETATM   28  O   UNL     1     -12.001  13.642  70.456  1.00  0.00    -0.322 OA 
HETATM   29  C   UNL     1     -13.085  14.478  70.862  1.00  0.00    -0.345 C  
ENDBRANCH  26  28
ENDBRANCH  25  26
ENDBRANCH  24  25
ENDBRANCH  23  24
ENDBRANCH  22  23
ENDBRANCH  21  22
ENDBRANCH  20  21
ENDBRANCH  19  20
ENDBRANCH  11  12
ENDBRANCH   8  10
ENDBRANCH   3   4
ENDBRANCH   2   3
TORSDOF 12
ENDMDL
MODEL      243
REMARK 921   NORMALIZED FREE ENERGY PREDICTED BY IDOCK:   -2.91 KCAL/MOL
REMARK 922        TOTAL FREE ENERGY PREDICTED BY IDOCK:   -6.98 KCAL/MOL
REMARK 923 INTER-LIGAND FREE ENERGY PREDICTED BY IDOCK:   -5.52 KCAL/MOL
REMARK 924 INTRA-LIGAND FREE ENERGY PREDICTED BY IDOCK:   -1.47 KCAL/MOL
REMARK 927      BINDING AFFINITY PREDICTED BY RF-SCORE:    0.00 PKD
ROOT
HETATM    1  C   UNL     1     -10.534  12.602  63.684  1.00  0.00    -0.348 C  
HETATM    2  C   UNL     1     -11.966  12.467  64.184  1.00  0.00    -0.518 C  
ENDROOT
BRANCH   2   3
HETATM    3  C   UNL     1     -11.979  11.921  65.608  1.00  0.00    -0.005 C  
BRANCH   3   4
HETATM    4  C   UNL     1     -10.630  12.099  66.318  1.00  0.00    -0.285 C  
HETATM    5  C   UNL     1     -10.058  10.775  66.878  1.00  0.00    -0.212 C  
HETATM    6  O   UNL     1     -10.977  10.280  67.862  1.00  0.00    -0.267 OA 
HETATM    7  C   UNL     1      -8.715  11.043  67.573  1.00  0.00    -0.128 C  
HETATM    8  C   UNL     1      -9.917   9.726  65.745  1.00  0.00    -0.349 C  
HETATM    9  H   UNL     1     -10.626   9.468  68.207  1.00  0.00     0.000 HD 
BRANCH   8  10
HETATM   10  C   UNL     1      -9.223   8.445  66.114  1.00  0.00    -0.263 C  
HETATM   11  C   UNL     1      -9.844   7.262  66.252  1.00  0.00    -0.029 C  
BRANCH  11  12
HETATM   12  C   UNL     1      -9.196   5.952  66.619  1.00  0.00    -0.147 C  
HETATM   13  C   UNL     1      -9.077   5.039  65.386  1.00  0.00    -0.154 C  
HETATM   14  C   UNL     1      -8.022   4.012  65.749  1.00  0.00    -0.097 C  
HETATM   15  O   UNL     1     -10.309   4.396  65.079  1.00  0.00    -0.351 OA 
HETATM   16  H   UNL     1     -10.236   3.833  64.318  1.00  0.00     0.000 HD 
HETATM   17  C   UNL     1      -7.118   4.796  66.646  1.00  0.00    -0.072 C  
HETATM   18  O   UNL     1      -5.967   4.451  66.885  1.00  0.00    -0.022 OA 
HETATM   19  C   UNL     1      -7.765   6.051  67.198  1.00  0.00    -0.101 C  
BRANCH  19  20
HETATM   20  C   UNL     1      -7.791   6.133  68.728  1.00  0.00    -0.101 C  
BRANCH  20  21
HETATM   21  C   UNL     1      -8.005   4.765  69.378  1.00  0.00    -0.070 C  
BRANCH  21  22
HETATM   22  C   UNL     1      -9.479   4.485  69.650  1.00  0.00    -0.244 C  
BRANCH  22  23
HETATM   23  C   UNL     1      -9.750   4.475  71.157  1.00  0.00    -0.256 C  
BRANCH  23  24
HETATM   24  C   UNL     1      -9.435   5.835  71.769  1.00  0.00    -0.167 C  
BRANCH  24  25
HETATM   25  C   UNL     1     -10.624   6.406  72.536  1.00  0.00    -0.240 C  
BRANCH  25  26
HETATM   26  C   UNL     1     -11.453   7.306  71.651  1.00  0.00    -0.265 C  
HETATM   27  O   UNL     1     -11.101   8.394  71.223  1.00  0.00    -0.239 OA 
BRANCH  26  28
HETATM   28  O   UNL     1     -12.657   6.724  71.396  1.00  0.00    -0.355 OA 
HETATM   29  C   UNL     1     -13.761   7.453  71.930  1.00  0.00    -0.235 C  
ENDBRANCH  26  28
ENDBRANCH  25  26
ENDBRANCH  24  25
ENDBRANCH  23  24
ENDBRANCH  22  23
ENDBRANCH  21  22
ENDBRANCH  20  21
ENDBRANCH  19  20
ENDBRANCH  11  12
ENDBRANCH   8  10
ENDBRANCH   3   4
ENDBRANCH   2   3
TORSDOF 12
ENDMDL
MODEL      244
REMARK 921   NORMALIZED FREE ENERGY PREDICTED BY IDOCK:   -2.88 KCAL/MOL
REMARK 922        TOTAL FREE ENERGY PREDICTED BY IDOCK:   -6.93 KCAL/MOL
REMARK 923 INTER-LIGAND FREE ENERGY PREDICTED BY IDOCK:   -5.26 KCAL/MOL
REMARK 924 INTRA-LIGAND FREE ENERGY PREDICTED BY IDOCK:   -1.67 KCAL/MOL
REMARK 927      BINDING AFFINITY PREDICTED BY RF-SCORE:    0.00 PKD
ROOT
HETATM    1  C   UNL     1      -7.829  10.696  62.406  1.00  0.00    -0.204 C  
HETATM    2  C   UNL     1      -9.345  10.582  62.342  1.00  0.00    -0.281 C  
ENDROOT
BRANCH   2   3
HETATM    3  C   UNL     1      -9.928  10.478  63.747  1.00  0.00    -0.324 C  
BRANCH   3   4
HETATM    4  C   UNL     1      -8.862  10.646  64.838  1.00  0.00    -0.204 C  
HETATM    5  C   UNL     1      -8.707   9.394  65.735  1.00  0.00    -0.158 C  
HETATM    6  O   UNL     1      -9.954   9.178  66.410  1.00  0.00    -0.259 OA 
HETATM    7  C   UNL     1      -7.629   9.647  66.798  1.00  0.00    -0.098 C  
HETATM    8  C   UNL     1      -8.378   8.150  64.871  1.00  0.00    -0.133 C  
HETATM    9  H   UNL     1      -9.859   8.410  66.960  1.00  0.00     0.000 HD 
BRANCH   8  10
HETATM   10  C   UNL     1      -8.041   6.894  65.623  1.00  0.00    -0.129 C  
HETATM   11  C   UNL     1      -8.641   5.709  65.423  1.00  0.00    -0.150 C  
BRANCH  11  12
HETATM   12  C   UNL     1      -8.341   4.422  66.148  1.00  0.00    -0.113 C  
HETATM   13  C   UNL     1      -6.973   3.863  65.722  1.00  0.00    -0.062 C  
HETATM   14  C   UNL     1      -6.578   2.892  66.819  1.00  0.00    -0.037 C  
HETATM   15  O   UNL     1      -7.038   3.194  64.468  1.00  0.00    -0.054 OA 
HETATM   16  H   UNL     1      -6.193   2.848  64.205  1.00  0.00     0.000 HD 
HETATM   17  C   UNL     1      -7.200   3.516  68.028  1.00  0.00    -0.051 C  
HETATM   18  O   UNL     1      -6.842   3.243  69.167  1.00  0.00    -0.040 OA 
HETATM   19  C   UNL     1      -8.284   4.521  67.691  1.00  0.00    -0.099 C  
BRANCH  19  20
HETATM   20  C   UNL     1      -9.650   4.215  68.317  1.00  0.00    -0.191 C  
BRANCH  20  21
HETATM   21  C   UNL     1     -10.061   5.263  69.352  1.00  0.00    -0.311 C  
BRANCH  21  22
HETATM   22  C   UNL     1     -11.025   6.293  68.771  1.00  0.00    -0.424 C  
BRANCH  22  23
HETATM   23  C   UNL     1     -10.785   7.664  69.407  1.00  0.00    -0.188 C  
BRANCH  23  24
HETATM   24  C   UNL     1     -11.225   7.665  70.866  1.00  0.00    -0.282 C  
BRANCH  24  25
HETATM   25  C   UNL     1     -10.483   8.717  71.686  1.00  0.00    -0.387 C  
BRANCH  25  26
HETATM   26  C   UNL     1      -9.916   8.113  72.948  1.00  0.00    -0.266 C  
HETATM   27  O   UNL     1     -10.520   7.375  73.711  1.00  0.00    -0.346 OA 
BRANCH  26  28
HETATM   28  O   UNL     1      -8.625   8.511  73.113  1.00  0.00    -0.362 OA 
HETATM   29  C   UNL     1      -7.896   8.587  71.888  1.00  0.00    -0.111 C  
ENDBRANCH  26  28
ENDBRANCH  25  26
ENDBRANCH  24  25
ENDBRANCH  23  24
ENDBRANCH  22  23
ENDBRANCH  21  22
ENDBRANCH  20  21
ENDBRANCH  19  20
ENDBRANCH  11  12
ENDBRANCH   8  10
ENDBRANCH   3   4
ENDBRANCH   2   3
TORSDOF 12
ENDMDL
MODEL      245
REMARK 921   NORMALIZED FREE ENERGY PREDICTED BY IDOCK:   -2.87 KCAL/MOL
REMARK 922        TOTAL FREE ENERGY PREDICTED BY IDOCK:   -6.92 KCAL/MOL
REMARK 923 INTER-LIGAND FREE ENERGY PREDICTED BY IDOCK:   -6.66 KCAL/MOL
REMARK 924 INTRA-LIGAND FREE ENERGY PREDICTED BY IDOCK:   -0.26 KCAL/MOL
REMARK 927      BINDING AFFINITY PREDICTED BY RF-SCORE:    0.00 PKD
ROOT
HETATM    1  C   UNL     1     -11.841   6.238  70.973  1.00  0.00    -0.222 C  
HETATM    2  C   UNL     1     -10.427   6.801  71.022  1.00  0.00    -0.237 C  
ENDROOT
BRANCH   2   3
HETATM    3  C   UNL     1      -9.843   6.887  69.616  1.00  0.00    -0.171 C  
BRANCH   3   4
HETATM    4  C   UNL     1      -8.909   8.092  69.442  1.00  0.00    -0.144 C  
HETATM    5  C   UNL     1      -9.668   9.425  69.235  1.00  0.00    -0.172 C  
HETATM    6  O   UNL     1     -10.426   9.315  68.022  1.00  0.00    -0.211 OA 
HETATM    7  C   UNL     1      -8.662  10.573  69.064  1.00  0.00    -0.160 C  
HETATM    8  C   UNL     1     -10.637   9.683  70.416  1.00  0.00    -0.354 C  
HETATM    9  H   UNL     1     -10.892  10.133  67.895  1.00  0.00     0.000 HD 
BRANCH   8  10
HETATM   10  C   UNL     1     -11.321  11.020  70.429  1.00  0.00    -0.222 C  
HETATM   11  C   UNL     1     -11.682  11.694  69.324  1.00  0.00    -0.396 C  
BRANCH  11  12
HETATM   12  C   UNL     1     -12.369  13.035  69.283  1.00  0.00     0.017 C  
HETATM   13  C   UNL     1     -12.357  13.697  70.671  1.00  0.00    -0.368 C  
HETATM   14  C   UNL     1     -12.618  15.169  70.415  1.00  0.00    -0.405 C  
HETATM   15  O   UNL     1     -13.358  13.159  71.527  1.00  0.00    -0.322 OA 
HETATM   16  H   UNL     1     -13.350  13.568  72.385  1.00  0.00     0.000 HD 
HETATM   17  C   UNL     1     -11.979  15.371  69.077  1.00  0.00    -0.288 C  
HETATM   18  O   UNL     1     -11.664  16.480  68.659  1.00  0.00    -0.180 OA 
HETATM   19  C   UNL     1     -11.748  14.077  68.323  1.00  0.00    -0.392 C  
BRANCH  19  20
HETATM   20  C   UNL     1     -12.410  14.021  66.941  1.00  0.00    -0.321 C  
BRANCH  20  21
HETATM   21  C   UNL     1     -11.481  13.434  65.877  1.00  0.00    -0.344 C  
BRANCH  21  22
HETATM   22  C   UNL     1     -10.082  13.167  66.423  1.00  0.00    -0.281 C  
BRANCH  22  23
HETATM   23  C   UNL     1      -9.195  14.400  66.244  1.00  0.00    -0.202 C  
BRANCH  23  24
HETATM   24  C   UNL     1      -8.454  14.722  67.537  1.00  0.00    -0.204 C  
BRANCH  24  25
HETATM   25  C   UNL     1      -7.191  15.542  67.283  1.00  0.00    -0.242 C  
BRANCH  25  26
HETATM   26  C   UNL     1      -7.526  17.004  67.112  1.00  0.00    -0.173 C  
HETATM   27  O   UNL     1      -8.583  17.527  67.427  1.00  0.00    -0.216 OA 
BRANCH  26  28
HETATM   28  O   UNL     1      -6.472  17.659  66.553  1.00  0.00    -0.177 OA 
HETATM   29  C   UNL     1      -6.861  18.759  65.731  1.00  0.00    -0.270 C  
ENDBRANCH  26  28
ENDBRANCH  25  26
ENDBRANCH  24  25
ENDBRANCH  23  24
ENDBRANCH  22  23
ENDBRANCH  21  22
ENDBRANCH  20  21
ENDBRANCH  19  20
ENDBRANCH  11  12
ENDBRANCH   8  10
ENDBRANCH   3   4
ENDBRANCH   2   3
TORSDOF 12
ENDMDL
MODEL      246
REMARK 921   NORMALIZED FREE ENERGY PREDICTED BY IDOCK:   -2.85 KCAL/MOL
REMARK 922        TOTAL FREE ENERGY PREDICTED BY IDOCK:   -6.88 KCAL/MOL
REMARK 923 INTER-LIGAND FREE ENERGY PREDICTED BY IDOCK:   -6.16 KCAL/MOL
REMARK 924 INTRA-LIGAND FREE ENERGY PREDICTED BY IDOCK:   -0.73 KCAL/MOL
REMARK 927      BINDING AFFINITY PREDICTED BY RF-SCORE:    0.00 PKD
ROOT
HETATM    1  C   UNL     1      -5.132   4.547  65.893  1.00  0.00    -0.009 C  
HETATM    2  C   UNL     1      -6.167   4.488  64.779  1.00  0.00    -0.033 C  
ENDROOT
BRANCH   2   3
HETATM    3  C   UNL     1      -6.924   5.810  64.689  1.00  0.00    -0.052 C  
BRANCH   3   4
HETATM    4  C   UNL     1      -8.433   5.610  64.493  1.00  0.00    -0.070 C  
HETATM    5  C   UNL     1      -9.101   4.847  65.662  1.00  0.00    -0.151 C  
HETATM    6  O   UNL     1      -8.519   3.538  65.723  1.00  0.00    -0.104 OA 
HETATM    7  C   UNL     1     -10.603   4.687  65.385  1.00  0.00    -0.167 C  
HETATM    8  C   UNL     1      -8.842   5.580  67.003  1.00  0.00    -0.110 C  
HETATM    9  H   UNL     1      -8.929   3.070  66.440  1.00  0.00     0.000 HD 
BRANCH   8  10
HETATM   10  C   UNL     1      -9.568   5.039  68.202  1.00  0.00    -0.182 C  
HETATM   11  C   UNL     1      -9.775   5.731  69.335  1.00  0.00    -0.200 C  
BRANCH  11  12
HETATM   12  C   UNL     1     -10.496   5.237  70.563  1.00  0.00    -0.312 C  
HETATM   13  C   UNL     1      -9.648   4.192  71.308  1.00  0.00    -0.172 C  
HETATM   14  C   UNL     1     -10.222   4.137  72.711  1.00  0.00    -0.228 C  
HETATM   15  O   UNL     1      -9.721   2.910  70.694  1.00  0.00    -0.148 OA 
HETATM   16  H   UNL     1      -9.197   2.265  71.154  1.00  0.00     0.000 HD 
HETATM   17  C   UNL     1     -10.688   5.544  72.913  1.00  0.00    -0.249 C  
HETATM   18  O   UNL     1     -10.901   6.014  74.025  1.00  0.00    -0.147 OA 
HETATM   19  C   UNL     1     -10.842   6.315  71.617  1.00  0.00    -0.298 C  
BRANCH  19  20
HETATM   20  C   UNL     1     -12.243   6.890  71.382  1.00  0.00    -0.418 C  
BRANCH  20  21
HETATM   21  C   UNL     1     -12.294   8.402  71.603  1.00  0.00    -0.359 C  
BRANCH  21  22
HETATM   22  C   UNL     1     -10.903   9.028  71.597  1.00  0.00    -0.437 C  
BRANCH  22  23
HETATM   23  C   UNL     1     -10.754   9.986  70.413  1.00  0.00    -0.369 C  
BRANCH  23  24
HETATM   24  C   UNL     1     -12.103  10.588  70.036  1.00  0.00    -0.351 C  
BRANCH  24  25
HETATM   25  C   UNL     1     -12.324  11.950  70.690  1.00  0.00    -0.405 C  
BRANCH  25  26
HETATM   26  C   UNL     1     -11.855  13.063  69.784  1.00  0.00    -0.311 C  
HETATM   27  O   UNL     1     -11.859  13.029  68.564  1.00  0.00    -0.313 OA 
BRANCH  26  28
HETATM   28  O   UNL     1     -11.427  14.119  70.529  1.00  0.00    -0.191 OA 
HETATM   29  C   UNL     1     -12.058  15.351  70.180  1.00  0.00    -0.369 C  
ENDBRANCH  26  28
ENDBRANCH  25  26
ENDBRANCH  24  25
ENDBRANCH  23  24
ENDBRANCH  22  23
ENDBRANCH  21  22
ENDBRANCH  20  21
ENDBRANCH  19  20
ENDBRANCH  11  12
ENDBRANCH   8  10
ENDBRANCH   3   4
ENDBRANCH   2   3
TORSDOF 12
ENDMDL
MODEL      247
REMARK 921   NORMALIZED FREE ENERGY PREDICTED BY IDOCK:   -2.84 KCAL/MOL
REMARK 922        TOTAL FREE ENERGY PREDICTED BY IDOCK:   -6.87 KCAL/MOL
REMARK 923 INTER-LIGAND FREE ENERGY PREDICTED BY IDOCK:   -5.66 KCAL/MOL
REMARK 924 INTRA-LIGAND FREE ENERGY PREDICTED BY IDOCK:   -1.21 KCAL/MOL
REMARK 927      BINDING AFFINITY PREDICTED BY RF-SCORE:    0.00 PKD
ROOT
HETATM    1  C   UNL     1     -10.513  19.266  66.754  1.00  0.00    -0.544 C  
HETATM    2  C   UNL     1      -9.394  18.392  67.303  1.00  0.00    -0.271 C  
ENDROOT
BRANCH   2   3
HETATM    3  C   UNL     1      -9.389  17.037  66.603  1.00  0.00    -0.274 C  
BRANCH   3   4
HETATM    4  C   UNL     1     -10.631  16.200  66.937  1.00  0.00    -0.283 C  
HETATM    5  C   UNL     1     -10.531  14.738  66.440  1.00  0.00    -0.293 C  
HETATM    6  O   UNL     1     -10.428  14.766  65.009  1.00  0.00    -0.397 OA 
HETATM    7  C   UNL     1     -11.812  13.975  66.809  1.00  0.00    -0.450 C  
HETATM    8  C   UNL     1      -9.269  14.054  67.024  1.00  0.00    -0.262 C  
HETATM    9  H   UNL     1     -10.367  13.869  64.704  1.00  0.00     0.000 HD 
BRANCH   8  10
HETATM   10  C   UNL     1      -9.130  12.583  66.755  1.00  0.00    -0.214 C  
HETATM   11  C   UNL     1      -7.963  11.918  66.773  1.00  0.00    -0.087 C  
BRANCH  11  12
HETATM   12  C   UNL     1      -7.770  10.446  66.511  1.00  0.00    -0.121 C  
HETATM   13  C   UNL     1      -6.800  10.224  65.339  1.00  0.00    -0.140 C  
HETATM   14  C   UNL     1      -6.322   8.792  65.480  1.00  0.00    -0.062 C  
HETATM   15  O   UNL     1      -7.434  10.412  64.079  1.00  0.00    -0.282 OA 
HETATM   16  H   UNL     1      -6.835  10.275  63.354  1.00  0.00     0.000 HD 
HETATM   17  C   UNL     1      -6.340   8.601  66.964  1.00  0.00    -0.057 C  
HETATM   18  O   UNL     1      -5.709   7.711  67.521  1.00  0.00    -0.033 OA 
HETATM   19  C   UNL     1      -7.190   9.626  67.688  1.00  0.00    -0.089 C  
BRANCH  19  20
HETATM   20  C   UNL     1      -8.307   9.029  68.551  1.00  0.00    -0.124 C  
BRANCH  20  21
HETATM   21  C   UNL     1      -9.143   8.001  67.787  1.00  0.00    -0.136 C  
BRANCH  21  22
HETATM   22  C   UNL     1     -10.536   7.837  68.387  1.00  0.00    -0.207 C  
BRANCH  22  23
HETATM   23  C   UNL     1     -10.760   6.388  68.826  1.00  0.00    -0.339 C  
BRANCH  23  24
HETATM   24  C   UNL     1     -10.330   5.421  67.729  1.00  0.00    -0.226 C  
BRANCH  24  25
HETATM   25  C   UNL     1      -9.535   4.243  68.286  1.00  0.00    -0.212 C  
BRANCH  25  26
HETATM   26  C   UNL     1      -8.986   3.389  67.168  1.00  0.00    -0.154 C  
HETATM   27  O   UNL     1      -8.303   3.795  66.241  1.00  0.00    -0.103 OA 
BRANCH  26  28
HETATM   28  O   UNL     1      -9.362   2.093  67.345  1.00  0.00    -0.140 OA 
HETATM   29  C   UNL     1      -9.371   1.690  68.715  1.00  0.00    -0.162 C  
ENDBRANCH  26  28
ENDBRANCH  25  26
ENDBRANCH  24  25
ENDBRANCH  23  24
ENDBRANCH  22  23
ENDBRANCH  21  22
ENDBRANCH  20  21
ENDBRANCH  19  20
ENDBRANCH  11  12
ENDBRANCH   8  10
ENDBRANCH   3   4
ENDBRANCH   2   3
TORSDOF 12
ENDMDL
MODEL      248
REMARK 921   NORMALIZED FREE ENERGY PREDICTED BY IDOCK:   -2.82 KCAL/MOL
REMARK 922        TOTAL FREE ENERGY PREDICTED BY IDOCK:   -6.83 KCAL/MOL
REMARK 923 INTER-LIGAND FREE ENERGY PREDICTED BY IDOCK:   -4.74 KCAL/MOL
REMARK 924 INTRA-LIGAND FREE ENERGY PREDICTED BY IDOCK:   -2.09 KCAL/MOL
REMARK 927      BINDING AFFINITY PREDICTED BY RF-SCORE:    0.00 PKD
ROOT
HETATM    1  C   UNL     1      -8.369   8.908  62.604  1.00  0.00    -0.203 C  
HETATM    2  C   UNL     1      -8.126   7.424  62.367  1.00  0.00    -0.119 C  
ENDROOT
BRANCH   2   3
HETATM    3  C   UNL     1      -7.044   6.907  63.310  1.00  0.00    -0.064 C  
BRANCH   3   4
HETATM    4  C   UNL     1      -7.439   5.590  63.991  1.00  0.00    -0.062 C  
HETATM    5  C   UNL     1      -7.499   5.698  65.534  1.00  0.00    -0.074 C  
HETATM    6  O   UNL     1      -6.183   6.023  66.003  1.00  0.00    -0.035 OA 
HETATM    7  C   UNL     1      -7.895   4.341  66.134  1.00  0.00    -0.095 C  
HETATM    8  C   UNL     1      -8.480   6.820  65.959  1.00  0.00    -0.143 C  
HETATM    9  H   UNL     1      -6.219   6.089  66.950  1.00  0.00     0.000 HD 
BRANCH   8  10
HETATM   10  C   UNL     1      -8.760   6.929  67.431  1.00  0.00    -0.119 C  
HETATM   11  C   UNL     1      -9.834   7.545  67.952  1.00  0.00    -0.185 C  
BRANCH  11  12
HETATM   12  C   UNL     1     -10.161   7.682  69.417  1.00  0.00    -0.196 C  
HETATM   13  C   UNL     1     -10.855   6.413  69.941  1.00  0.00    -0.310 C  
HETATM   14  C   UNL     1     -10.695   6.463  71.449  1.00  0.00    -0.290 C  
HETATM   15  O   UNL     1     -12.234   6.377  69.591  1.00  0.00    -0.278 OA 
HETATM   16  H   UNL     1     -12.663   5.593  69.914  1.00  0.00     0.000 HD 
HETATM   17  C   UNL     1      -9.379   7.157  71.601  1.00  0.00    -0.152 C  
HETATM   18  O   UNL     1      -8.719   7.098  72.631  1.00  0.00    -0.118 OA 
HETATM   19  C   UNL     1      -8.951   7.908  70.355  1.00  0.00    -0.147 C  
BRANCH  19  20
HETATM   20  C   UNL     1      -8.690   9.403  70.572  1.00  0.00    -0.276 C  
BRANCH  20  21
HETATM   21  C   UNL     1      -7.436   9.885  69.842  1.00  0.00    -0.156 C  
BRANCH  21  22
HETATM   22  C   UNL     1      -7.757  10.432  68.455  1.00  0.00    -0.098 C  
BRANCH  22  23
HETATM   23  C   UNL     1      -9.094  11.177  68.471  1.00  0.00    -0.175 C  
BRANCH  23  24
HETATM   24  C   UNL     1      -9.862  10.931  67.177  1.00  0.00    -0.213 C  
BRANCH  24  25
HETATM   25  C   UNL     1     -10.396  12.228  66.575  1.00  0.00    -0.250 C  
BRANCH  25  26
HETATM   26  C   UNL     1     -11.501  12.802  67.430  1.00  0.00    -0.340 C  
HETATM   27  O   UNL     1     -12.440  12.169  67.886  1.00  0.00    -0.094 OA 
BRANCH  26  28
HETATM   28  O   UNL     1     -11.296  14.134  67.620  1.00  0.00    -0.291 OA 
HETATM   29  C   UNL     1     -11.028  14.475  68.980  1.00  0.00    -0.257 C  
ENDBRANCH  26  28
ENDBRANCH  25  26
ENDBRANCH  24  25
ENDBRANCH  23  24
ENDBRANCH  22  23
ENDBRANCH  21  22
ENDBRANCH  20  21
ENDBRANCH  19  20
ENDBRANCH  11  12
ENDBRANCH   8  10
ENDBRANCH   3   4
ENDBRANCH   2   3
TORSDOF 12
ENDMDL
MODEL      249
REMARK 921   NORMALIZED FREE ENERGY PREDICTED BY IDOCK:   -2.79 KCAL/MOL
REMARK 922        TOTAL FREE ENERGY PREDICTED BY IDOCK:   -6.79 KCAL/MOL
REMARK 923 INTER-LIGAND FREE ENERGY PREDICTED BY IDOCK:   -4.68 KCAL/MOL
REMARK 924 INTRA-LIGAND FREE ENERGY PREDICTED BY IDOCK:   -2.11 KCAL/MOL
REMARK 927      BINDING AFFINITY PREDICTED BY RF-SCORE:    0.00 PKD
ROOT
HETATM    1  C   UNL     1      -9.377   2.668  62.787  1.00  0.00    -0.090 C  
HETATM    2  C   UNL     1      -9.746   3.867  63.649  1.00  0.00    -0.162 C  
ENDROOT
BRANCH   2   3
HETATM    3  C   UNL     1      -8.873   3.910  64.899  1.00  0.00    -0.123 C  
BRANCH   3   4
HETATM    4  C   UNL     1      -9.699   3.907  66.192  1.00  0.00    -0.173 C  
HETATM    5  C   UNL     1      -9.398   5.118  67.109  1.00  0.00    -0.124 C  
HETATM    6  O   UNL     1      -8.021   5.040  67.502  1.00  0.00    -0.095 OA 
HETATM    7  C   UNL     1     -10.259   5.035  68.377  1.00  0.00    -0.143 C  
HETATM    8  C   UNL     1      -9.631   6.445  66.343  1.00  0.00    -0.156 C  
HETATM    9  H   UNL     1      -7.835   5.782  68.064  1.00  0.00     0.000 HD 
BRANCH   8  10
HETATM   10  C   UNL     1      -9.533   7.703  67.158  1.00  0.00    -0.196 C  
HETATM   11  C   UNL     1     -10.574   8.504  67.440  1.00  0.00    -0.304 C  
BRANCH  11  12
HETATM   12  C   UNL     1     -10.528   9.773  68.251  1.00  0.00    -0.255 C  
HETATM   13  C   UNL     1     -11.279  10.907  67.532  1.00  0.00    -0.293 C  
HETATM   14  C   UNL     1     -11.577  11.935  68.606  1.00  0.00    -0.366 C  
HETATM   15  O   UNL     1     -10.498  11.489  66.494  1.00  0.00    -0.227 OA 
HETATM   16  H   UNL     1     -10.962  12.189  66.049  1.00  0.00     0.000 HD 
HETATM   17  C   UNL     1     -11.751  11.077  69.820  1.00  0.00    -0.335 C  
HETATM   18  O   UNL     1     -12.332  11.469  70.825  1.00  0.00    -0.374 OA 
HETATM   19  C   UNL     1     -11.159   9.691  69.661  1.00  0.00    -0.223 C  
BRANCH  19  20
HETATM   20  C   UNL     1     -10.110   9.323  70.717  1.00  0.00    -0.358 C  
BRANCH  20  21
HETATM   21  C   UNL     1      -8.696   9.723  70.293  1.00  0.00    -0.172 C  
BRANCH  21  22
HETATM   22  C   UNL     1      -7.790   8.510  70.110  1.00  0.00    -0.099 C  
BRANCH  22  23
HETATM   23  C   UNL     1      -6.984   8.249  71.385  1.00  0.00    -0.065 C  
BRANCH  23  24
HETATM   24  C   UNL     1      -7.526   7.030  72.123  1.00  0.00    -0.090 C  
BRANCH  24  25
HETATM   25  C   UNL     1      -7.998   5.943  71.161  1.00  0.00    -0.113 C  
BRANCH  25  26
HETATM   26  C   UNL     1      -7.100   4.731  71.240  1.00  0.00    -0.051 C  
HETATM   27  O   UNL     1      -6.221   4.556  72.068  1.00  0.00    -0.019 OA 
BRANCH  26  28
HETATM   28  O   UNL     1      -7.418   3.854  70.248  1.00  0.00    -0.044 OA 
HETATM   29  C   UNL     1      -6.760   2.593  70.376  1.00  0.00    -0.033 C  
ENDBRANCH  26  28
ENDBRANCH  25  26
ENDBRANCH  24  25
ENDBRANCH  23  24
ENDBRANCH  22  23
ENDBRANCH  21  22
ENDBRANCH  20  21
ENDBRANCH  19  20
ENDBRANCH  11  12
ENDBRANCH   8  10
ENDBRANCH   3   4
ENDBRANCH   2   3
TORSDOF 12
ENDMDL
MODEL      250
REMARK 921   NORMALIZED FREE ENERGY PREDICTED BY IDOCK:   -2.75 KCAL/MOL
REMARK 922        TOTAL FREE ENERGY PREDICTED BY IDOCK:   -6.72 KCAL/MOL
REMARK 923 INTER-LIGAND FREE ENERGY PREDICTED BY IDOCK:   -5.17 KCAL/MOL
REMARK 924 INTRA-LIGAND FREE ENERGY PREDICTED BY IDOCK:   -1.55 KCAL/MOL
REMARK 927      BINDING AFFINITY PREDICTED BY RF-SCORE:    0.00 PKD
ROOT
HETATM    1  C   UNL     1     -12.639  14.601  70.367  1.00  0.00    -0.399 C  
HETATM    2  C   UNL     1     -11.587  15.675  70.128  1.00  0.00    -0.366 C  
ENDROOT
BRANCH   2   3
HETATM    3  C   UNL     1     -11.107  15.634  68.681  1.00  0.00    -0.317 C  
BRANCH   3   4
HETATM    4  C   UNL     1     -11.981  14.733  67.798  1.00  0.00    -0.247 C  
HETATM    5  C   UNL     1     -11.194  13.569  67.150  1.00  0.00    -0.305 C  
HETATM    6  O   UNL     1     -10.195  14.138  66.292  1.00  0.00    -0.279 OA 
HETATM    7  C   UNL     1     -12.139  12.723  66.283  1.00  0.00    -0.400 C  
HETATM    8  C   UNL     1     -10.499  12.714  68.240  1.00  0.00    -0.249 C  
HETATM    9  H   UNL     1      -9.712  13.423  65.894  1.00  0.00     0.000 HD 
BRANCH   8  10
HETATM   10  C   UNL     1      -9.831  11.455  67.766  1.00  0.00    -0.186 C  
HETATM   11  C   UNL     1      -9.907  10.274  68.401  1.00  0.00    -0.168 C  
BRANCH  11  12
HETATM   12  C   UNL     1      -9.258   8.985  67.968  1.00  0.00    -0.143 C  
HETATM   13  C   UNL     1     -10.059   8.326  66.832  1.00  0.00    -0.296 C  
HETATM   14  C   UNL     1      -9.099   7.352  66.177  1.00  0.00    -0.167 C  
HETATM   15  O   UNL     1     -11.206   7.638  67.318  1.00  0.00    -0.495 OA 
HETATM   16  H   UNL     1     -11.701   7.232  66.617  1.00  0.00     0.000 HD 
HETATM   17  C   UNL     1      -7.783   8.040  66.360  1.00  0.00    -0.092 C  
HETATM   18  O   UNL     1      -6.797   7.765  65.686  1.00  0.00    -0.052 OA 
HETATM   19  C   UNL     1      -7.811   9.109  67.435  1.00  0.00    -0.099 C  
BRANCH  19  20
HETATM   20  C   UNL     1      -6.787   8.908  68.557  1.00  0.00    -0.064 C  
BRANCH  20  21
HETATM   21  C   UNL     1      -7.020   7.608  69.329  1.00  0.00    -0.060 C  
BRANCH  21  22
HETATM   22  C   UNL     1      -5.872   6.621  69.146  1.00  0.00    -0.018 C  
BRANCH  22  23
HETATM   23  C   UNL     1      -6.308   5.213  69.561  1.00  0.00    -0.034 C  
BRANCH  23  24
HETATM   24  C   UNL     1      -7.388   5.279  70.635  1.00  0.00    -0.070 C  
BRANCH  24  25
HETATM   25  C   UNL     1      -8.372   4.117  70.528  1.00  0.00    -0.083 C  
BRANCH  25  26
HETATM   26  C   UNL     1      -9.320   4.106  71.703  1.00  0.00    -0.141 C  
HETATM   27  O   UNL     1      -9.795   3.106  72.217  1.00  0.00    -0.144 OA 
BRANCH  26  28
HETATM   28  O   UNL     1      -9.569   5.381  72.110  1.00  0.00    -0.152 OA 
HETATM   29  C   UNL     1      -9.647   5.516  73.529  1.00  0.00    -0.139 C  
ENDBRANCH  26  28
ENDBRANCH  25  26
ENDBRANCH  24  25
ENDBRANCH  23  24
ENDBRANCH  22  23
ENDBRANCH  21  22
ENDBRANCH  20  21
ENDBRANCH  19  20
ENDBRANCH  11  12
ENDBRANCH   8  10
ENDBRANCH   3   4
ENDBRANCH   2   3
TORSDOF 12
ENDMDL
MODEL      251
REMARK 921   NORMALIZED FREE ENERGY PREDICTED BY IDOCK:   -2.74 KCAL/MOL
REMARK 922        TOTAL FREE ENERGY PREDICTED BY IDOCK:   -6.71 KCAL/MOL
REMARK 923 INTER-LIGAND FREE ENERGY PREDICTED BY IDOCK:   -5.59 KCAL/MOL
REMARK 924 INTRA-LIGAND FREE ENERGY PREDICTED BY IDOCK:   -1.12 KCAL/MOL
REMARK 927      BINDING AFFINITY PREDICTED BY RF-SCORE:    0.00 PKD
ROOT
HETATM    1  C   UNL     1      -8.860   2.419  63.291  1.00  0.00    -0.085 C  
HETATM    2  C   UNL     1      -9.171   3.798  63.857  1.00  0.00    -0.131 C  
ENDROOT
BRANCH   2   3
HETATM    3  C   UNL     1      -9.206   3.749  65.381  1.00  0.00    -0.152 C  
BRANCH   3   4
HETATM    4  C   UNL     1     -10.329   4.612  65.970  1.00  0.00    -0.318 C  
HETATM    5  C   UNL     1      -9.843   5.556  67.097  1.00  0.00    -0.154 C  
HETATM    6  O   UNL     1      -9.346   4.743  68.168  1.00  0.00    -0.121 OA 
HETATM    7  C   UNL     1     -11.026   6.377  67.632  1.00  0.00    -0.441 C  
HETATM    8  C   UNL     1      -8.701   6.468  66.581  1.00  0.00    -0.128 C  
HETATM    9  H   UNL     1      -9.048   5.322  68.859  1.00  0.00     0.000 HD 
BRANCH   8  10
HETATM   10  C   UNL     1      -8.241   7.546  67.520  1.00  0.00    -0.113 C  
HETATM   11  C   UNL     1      -7.831   8.764  67.130  1.00  0.00    -0.096 C  
BRANCH  11  12
HETATM   12  C   UNL     1      -7.362   9.879  68.029  1.00  0.00    -0.084 C  
HETATM   13  C   UNL     1      -5.826   9.931  68.076  1.00  0.00    -0.039 C  
HETATM   14  C   UNL     1      -5.488  11.320  68.585  1.00  0.00    -0.043 C  
HETATM   15  O   UNL     1      -5.285   8.942  68.944  1.00  0.00    -0.036 OA 
HETATM   16  H   UNL     1      -4.335   8.974  68.973  1.00  0.00     0.000 HD 
HETATM   17  C   UNL     1      -6.615  12.136  68.036  1.00  0.00    -0.069 C  
HETATM   18  O   UNL     1      -6.551  13.355  67.923  1.00  0.00    -0.114 OA 
HETATM   19  C   UNL     1      -7.811  11.302  67.623  1.00  0.00    -0.116 C  
BRANCH  19  20
HETATM   20  C   UNL     1      -9.124  11.688  68.315  1.00  0.00    -0.187 C  
BRANCH  20  21
HETATM   21  C   UNL     1      -9.796  12.892  67.654  1.00  0.00    -0.211 C  
BRANCH  21  22
HETATM   22  C   UNL     1     -10.377  13.858  68.681  1.00  0.00    -0.237 C  
BRANCH  22  23
HETATM   23  C   UNL     1     -11.906  13.846  68.619  1.00  0.00    -0.407 C  
BRANCH  23  24
HETATM   24  C   UNL     1     -12.501  13.787  70.021  1.00  0.00    -0.301 C  
BRANCH  24  25
HETATM   25  C   UNL     1     -12.359  12.401  70.644  1.00  0.00    -0.367 C  
BRANCH  25  26
HETATM   26  C   UNL     1     -13.237  12.269  71.866  1.00  0.00    -0.376 C  
HETATM   27  O   UNL     1     -13.618  13.194  72.565  1.00  0.00    -0.579 OA 
BRANCH  26  28
HETATM   28  O   UNL     1     -13.547  10.960  72.075  1.00  0.00    -0.279 OA 
HETATM   29  C   UNL     1     -12.818  10.066  71.233  1.00  0.00    -0.402 C  
ENDBRANCH  26  28
ENDBRANCH  25  26
ENDBRANCH  24  25
ENDBRANCH  23  24
ENDBRANCH  22  23
ENDBRANCH  21  22
ENDBRANCH  20  21
ENDBRANCH  19  20
ENDBRANCH  11  12
ENDBRANCH   8  10
ENDBRANCH   3   4
ENDBRANCH   2   3
TORSDOF 12
ENDMDL
MODEL      252
REMARK 921   NORMALIZED FREE ENERGY PREDICTED BY IDOCK:   -2.69 KCAL/MOL
REMARK 922        TOTAL FREE ENERGY PREDICTED BY IDOCK:   -6.62 KCAL/MOL
REMARK 923 INTER-LIGAND FREE ENERGY PREDICTED BY IDOCK:   -6.44 KCAL/MOL
REMARK 924 INTRA-LIGAND FREE ENERGY PREDICTED BY IDOCK:   -0.18 KCAL/MOL
REMARK 927      BINDING AFFINITY PREDICTED BY RF-SCORE:    0.00 PKD
ROOT
HETATM    1  C   UNL     1      -6.552   7.437  68.874  1.00  0.00    -0.048 C  
HETATM    2  C   UNL     1      -6.320   8.700  68.057  1.00  0.00    -0.056 C  
ENDROOT
BRANCH   2   3
HETATM    3  C   UNL     1      -5.148   8.505  67.101  1.00  0.00    -0.033 C  
BRANCH   3   4
HETATM    4  C   UNL     1      -5.461   8.995  65.681  1.00  0.00    -0.041 C  
HETATM    5  C   UNL     1      -6.896   9.556  65.534  1.00  0.00    -0.085 C  
HETATM    6  O   UNL     1      -7.816   8.492  65.813  1.00  0.00    -0.094 OA 
HETATM    7  C   UNL     1      -7.127  10.017  64.087  1.00  0.00    -0.126 C  
HETATM    8  C   UNL     1      -7.131  10.706  66.546  1.00  0.00    -0.133 C  
HETATM    9  H   UNL     1      -8.696   8.836  65.722  1.00  0.00     0.000 HD 
BRANCH   8  10
HETATM   10  C   UNL     1      -8.427  11.454  66.407  1.00  0.00    -0.160 C  
HETATM   11  C   UNL     1      -8.618  12.718  66.817  1.00  0.00    -0.084 C  
BRANCH  11  12
HETATM   12  C   UNL     1      -9.894  13.511  66.700  1.00  0.00    -0.279 C  
HETATM   13  C   UNL     1      -9.766  14.595  65.617  1.00  0.00    -0.266 C  
HETATM   14  C   UNL     1     -11.190  14.979  65.263  1.00  0.00    -0.368 C  
HETATM   15  O   UNL     1      -9.049  15.733  66.084  1.00  0.00    -0.307 OA 
HETATM   16  H   UNL     1      -8.969  16.402  65.414  1.00  0.00     0.000 HD 
HETATM   17  C   UNL     1     -11.921  13.690  65.469  1.00  0.00    -0.384 C  
HETATM   18  O   UNL     1     -13.020  13.470  64.973  1.00  0.00    -0.719 OA 
HETATM   19  C   UNL     1     -11.156  12.698  66.323  1.00  0.00    -0.330 C  
BRANCH  19  20
HETATM   20  C   UNL     1     -11.905  12.226  67.574  1.00  0.00    -0.331 C  
BRANCH  20  21
HETATM   21  C   UNL     1     -12.384  13.394  68.439  1.00  0.00     0.077 C  
BRANCH  21  22
HETATM   22  C   UNL     1     -11.882  13.285  69.874  1.00  0.00    -0.380 C  
BRANCH  22  23
HETATM   23  C   UNL     1     -12.502  14.384  70.741  1.00  0.00    -0.423 C  
BRANCH  23  24
HETATM   24  C   UNL     1     -11.465  15.448  71.083  1.00  0.00    -0.425 C  
BRANCH  24  25
HETATM   25  C   UNL     1     -10.324  15.480  70.070  1.00  0.00    -0.315 C  
BRANCH  25  26
HETATM   26  C   UNL     1     -10.570  16.535  69.017  1.00  0.00    -0.324 C  
HETATM   27  O   UNL     1     -11.611  16.684  68.397  1.00  0.00    -0.170 OA 
BRANCH  26  28
HETATM   28  O   UNL     1      -9.456  17.303  68.861  1.00  0.00    -0.265 OA 
HETATM   29  C   UNL     1      -9.744  18.641  68.455  1.00  0.00    -0.370 C  
ENDBRANCH  26  28
ENDBRANCH  25  26
ENDBRANCH  24  25
ENDBRANCH  23  24
ENDBRANCH  22  23
ENDBRANCH  21  22
ENDBRANCH  20  21
ENDBRANCH  19  20
ENDBRANCH  11  12
ENDBRANCH   8  10
ENDBRANCH   3   4
ENDBRANCH   2   3
TORSDOF 12
ENDMDL
MODEL      253
REMARK 921   NORMALIZED FREE ENERGY PREDICTED BY IDOCK:   -2.61 KCAL/MOL
REMARK 922        TOTAL FREE ENERGY PREDICTED BY IDOCK:   -6.48 KCAL/MOL
REMARK 923 INTER-LIGAND FREE ENERGY PREDICTED BY IDOCK:   -5.05 KCAL/MOL
REMARK 924 INTRA-LIGAND FREE ENERGY PREDICTED BY IDOCK:   -1.43 KCAL/MOL
REMARK 927      BINDING AFFINITY PREDICTED BY RF-SCORE:    0.00 PKD
ROOT
HETATM    1  C   UNL     1      -9.650   2.557  63.540  1.00  0.00    -0.106 C  
HETATM    2  C   UNL     1      -9.635   3.979  64.084  1.00  0.00    -0.163 C  
ENDROOT
BRANCH   2   3
HETATM    3  C   UNL     1      -9.604   3.963  65.608  1.00  0.00    -0.182 C  
BRANCH   3   4
HETATM    4  C   UNL     1     -10.650   4.900  66.227  1.00  0.00    -0.307 C  
HETATM    5  C   UNL     1     -10.049   5.887  67.256  1.00  0.00    -0.174 C  
HETATM    6  O   UNL     1      -9.500   5.117  68.335  1.00  0.00    -0.117 OA 
HETATM    7  C   UNL     1     -11.160   6.780  67.828  1.00  0.00    -0.285 C  
HETATM    8  C   UNL     1      -8.919   6.724  66.605  1.00  0.00    -0.154 C  
HETATM    9  H   UNL     1      -9.132   5.722  68.967  1.00  0.00     0.000 HD 
BRANCH   8  10
HETATM   10  C   UNL     1      -8.354   7.836  67.443  1.00  0.00    -0.123 C  
HETATM   11  C   UNL     1      -7.862   8.982  66.945  1.00  0.00    -0.101 C  
BRANCH  11  12
HETATM   12  C   UNL     1      -7.286  10.125  67.740  1.00  0.00    -0.088 C  
HETATM   13  C   UNL     1      -5.749  10.070  67.740  1.00  0.00    -0.042 C  
HETATM   14  C   UNL     1      -5.298  11.465  68.127  1.00  0.00    -0.042 C  
HETATM   15  O   UNL     1      -5.251   9.113  68.669  1.00  0.00    -0.034 OA 
HETATM   16  H   UNL     1      -4.301   9.078  68.668  1.00  0.00     0.000 HD 
HETATM   17  C   UNL     1      -6.382  12.316  67.547  1.00  0.00    -0.139 C  
HETATM   18  O   UNL     1      -6.236  13.515  67.336  1.00  0.00    -0.311 OA 
HETATM   19  C   UNL     1      -7.648  11.542  67.235  1.00  0.00    -0.143 C  
BRANCH  19  20
HETATM   20  C   UNL     1      -8.906  12.075  67.931  1.00  0.00    -0.174 C  
BRANCH  20  21
HETATM   21  C   UNL     1     -10.109  12.133  66.988  1.00  0.00    -0.219 C  
BRANCH  21  22
HETATM   22  C   UNL     1     -10.060  13.353  66.073  1.00  0.00    -0.308 C  
BRANCH  22  23
HETATM   23  C   UNL     1     -10.955  14.467  66.622  1.00  0.00    -0.318 C  
BRANCH  23  24
HETATM   24  C   UNL     1     -10.465  15.831  66.150  1.00  0.00    -0.326 C  
BRANCH  24  25
HETATM   25  C   UNL     1      -8.942  15.932  66.179  1.00  0.00    -0.376 C  
BRANCH  25  26
HETATM   26  C   UNL     1      -8.482  16.772  67.347  1.00  0.00    -0.189 C  
HETATM   27  O   UNL     1      -8.785  17.938  67.540  1.00  0.00    -0.240 OA 
BRANCH  26  28
HETATM   28  O   UNL     1      -7.676  16.034  68.159  1.00  0.00    -0.129 OA 
HETATM   29  C   UNL     1      -8.348  15.524  69.310  1.00  0.00    -0.257 C  
ENDBRANCH  26  28
ENDBRANCH  25  26
ENDBRANCH  24  25
ENDBRANCH  23  24
ENDBRANCH  22  23
ENDBRANCH  21  22
ENDBRANCH  20  21
ENDBRANCH  19  20
ENDBRANCH  11  12
ENDBRANCH   8  10
ENDBRANCH   3   4
ENDBRANCH   2   3
TORSDOF 12
ENDMDL
MODEL      254
REMARK 921   NORMALIZED FREE ENERGY PREDICTED BY IDOCK:   -2.59 KCAL/MOL
REMARK 922        TOTAL FREE ENERGY PREDICTED BY IDOCK:   -6.44 KCAL/MOL
REMARK 923 INTER-LIGAND FREE ENERGY PREDICTED BY IDOCK:   -4.99 KCAL/MOL
REMARK 924 INTRA-LIGAND FREE ENERGY PREDICTED BY IDOCK:   -1.45 KCAL/MOL
REMARK 927      BINDING AFFINITY PREDICTED BY RF-SCORE:    0.00 PKD
ROOT
HETATM    1  C   UNL     1      -8.699   5.850  68.677  1.00  0.00    -0.109 C  
HETATM    2  C   UNL     1      -9.954   6.226  69.453  1.00  0.00    -0.192 C  
ENDROOT
BRANCH   2   3
HETATM    3  C   UNL     1     -10.662   7.396  68.779  1.00  0.00    -0.145 C  
BRANCH   3   4
HETATM    4  C   UNL     1      -9.683   8.357  68.090  1.00  0.00    -0.175 C  
HETATM    5  C   UNL     1     -10.245   9.791  67.938  1.00  0.00    -0.194 C  
HETATM    6  O   UNL     1     -11.408   9.722  67.102  1.00  0.00    -0.207 OA 
HETATM    7  C   UNL     1      -9.208  10.682  67.237  1.00  0.00    -0.155 C  
HETATM    8  C   UNL     1     -10.648  10.362  69.321  1.00  0.00    -0.259 C  
HETATM    9  H   UNL     1     -11.752  10.602  67.008  1.00  0.00     0.000 HD 
BRANCH   8  10
HETATM   10  C   UNL     1     -11.059  11.807  69.345  1.00  0.00    -0.245 C  
HETATM   11  C   UNL     1     -11.619  12.416  70.403  1.00  0.00     0.068 C  
BRANCH  11  12
HETATM   12  C   UNL     1     -12.047  13.859  70.478  1.00  0.00    -0.426 C  
HETATM   13  C   UNL     1     -13.023  14.077  71.647  1.00  0.00    -0.352 C  
HETATM   14  C   UNL     1     -12.998  15.570  71.916  1.00  0.00    -0.522 C  
HETATM   15  O   UNL     1     -14.343  13.655  71.326  1.00  0.00     0.278 OA 
HETATM   16  H   UNL     1     -14.945  13.789  72.048  1.00  0.00     0.000 HD 
HETATM   17  C   UNL     1     -11.591  15.929  71.556  1.00  0.00    -0.465 C  
HETATM   18  O   UNL     1     -11.054  16.959  71.946  1.00  0.00     0.445 OA 
HETATM   19  C   UNL     1     -10.910  14.885  70.693  1.00  0.00    -0.045 C  
BRANCH  19  20
HETATM   20  C   UNL     1     -10.382  15.415  69.354  1.00  0.00    -0.258 C  
BRANCH  20  21
HETATM   21  C   UNL     1     -11.361  15.168  68.206  1.00  0.00    -0.338 C  
BRANCH  21  22
HETATM   22  C   UNL     1     -10.807  15.648  66.869  1.00  0.00    -0.282 C  
BRANCH  22  23
HETATM   23  C   UNL     1     -10.276  17.079  66.995  1.00  0.00    -0.303 C  
BRANCH  23  24
HETATM   24  C   UNL     1      -8.811  17.146  66.582  1.00  0.00    -0.279 C  
BRANCH  24  25
HETATM   25  C   UNL     1      -7.996  18.044  67.509  1.00  0.00    -0.224 C  
BRANCH  25  26
HETATM   26  C   UNL     1      -7.066  17.224  68.371  1.00  0.00    -0.209 C  
HETATM   27  O   UNL     1      -7.255  16.943  69.543  1.00  0.00    -0.160 OA 
BRANCH  26  28
HETATM   28  O   UNL     1      -5.980  16.840  67.645  1.00  0.00    -0.124 OA 
HETATM   29  C   UNL     1      -5.371  15.643  68.131  1.00  0.00    -0.117 C  
ENDBRANCH  26  28
ENDBRANCH  25  26
ENDBRANCH  24  25
ENDBRANCH  23  24
ENDBRANCH  22  23
ENDBRANCH  21  22
ENDBRANCH  20  21
ENDBRANCH  19  20
ENDBRANCH  11  12
ENDBRANCH   8  10
ENDBRANCH   3   4
ENDBRANCH   2   3
TORSDOF 12
ENDMDL
MODEL      255
REMARK 921   NORMALIZED FREE ENERGY PREDICTED BY IDOCK:   -2.58 KCAL/MOL
REMARK 922        TOTAL FREE ENERGY PREDICTED BY IDOCK:   -6.43 KCAL/MOL
REMARK 923 INTER-LIGAND FREE ENERGY PREDICTED BY IDOCK:   -5.44 KCAL/MOL
REMARK 924 INTRA-LIGAND FREE ENERGY PREDICTED BY IDOCK:   -0.99 KCAL/MOL
REMARK 927      BINDING AFFINITY PREDICTED BY RF-SCORE:    0.00 PKD
ROOT
HETATM    1  C   UNL     1     -12.664  12.845  65.406  1.00  0.00    -0.313 C  
HETATM    2  C   UNL     1     -11.624  13.269  64.379  1.00  0.00    -0.423 C  
ENDROOT
BRANCH   2   3
HETATM    3  C   UNL     1     -10.353  12.442  64.538  1.00  0.00    -0.351 C  
BRANCH   3   4
HETATM    4  C   UNL     1     -10.178  11.411  63.415  1.00  0.00    -0.457 C  
HETATM    5  C   UNL     1      -9.085  10.359  63.719  1.00  0.00    -0.247 C  
HETATM    6  O   UNL     1      -7.833  11.049  63.841  1.00  0.00    -0.290 OA 
HETATM    7  C   UNL     1      -8.973   9.374  62.547  1.00  0.00    -0.241 C  
HETATM    8  C   UNL     1      -9.393   9.631  65.052  1.00  0.00    -0.319 C  
HETATM    9  H   UNL     1      -7.162  10.403  64.027  1.00  0.00     0.000 HD 
BRANCH   8  10
HETATM   10  C   UNL     1      -8.501   8.470  65.392  1.00  0.00    -0.190 C  
HETATM   11  C   UNL     1      -8.942   7.226  65.640  1.00  0.00     0.009 C  
BRANCH  11  12
HETATM   12  C   UNL     1      -8.091   6.030  65.984  1.00  0.00    -0.113 C  
HETATM   13  C   UNL     1      -6.615   6.297  65.646  1.00  0.00    -0.047 C  
HETATM   14  C   UNL     1      -5.830   5.277  66.448  1.00  0.00    -0.018 C  
HETATM   15  O   UNL     1      -6.350   6.143  64.256  1.00  0.00    -0.029 OA 
HETATM   16  H   UNL     1      -5.438   6.308  64.047  1.00  0.00     0.000 HD 
HETATM   17  C   UNL     1      -6.682   5.115  67.666  1.00  0.00    -0.055 C  
HETATM   18  O   UNL     1      -6.252   4.647  68.714  1.00  0.00    -0.029 OA 
HETATM   19  C   UNL     1      -8.104   5.605  67.471  1.00  0.00    -0.102 C  
BRANCH  19  20
HETATM   20  C   UNL     1      -9.182   4.548  67.736  1.00  0.00    -0.158 C  
BRANCH  20  21
HETATM   21  C   UNL     1      -9.210   4.102  69.199  1.00  0.00    -0.211 C  
BRANCH  21  22
HETATM   22  C   UNL     1      -9.408   5.277  70.151  1.00  0.00    -0.202 C  
BRANCH  22  23
HETATM   23  C   UNL     1      -8.895   4.924  71.549  1.00  0.00    -0.152 C  
BRANCH  23  24
HETATM   24  C   UNL     1     -10.057   4.610  72.484  1.00  0.00    -0.229 C  
BRANCH  24  25
HETATM   25  C   UNL     1     -10.087   5.545  73.690  1.00  0.00    -0.209 C  
BRANCH  25  26
HETATM   26  C   UNL     1     -10.584   6.916  73.295  1.00  0.00    -0.325 C  
HETATM   27  O   UNL     1     -10.021   7.969  73.545  1.00  0.00    -0.244 OA 
BRANCH  26  28
HETATM   28  O   UNL     1     -11.758   6.805  72.614  1.00  0.00    -0.199 OA 
HETATM   29  C   UNL     1     -11.976   7.869  71.687  1.00  0.00    -0.294 C  
ENDBRANCH  26  28
ENDBRANCH  25  26
ENDBRANCH  24  25
ENDBRANCH  23  24
ENDBRANCH  22  23
ENDBRANCH  21  22
ENDBRANCH  20  21
ENDBRANCH  19  20
ENDBRANCH  11  12
ENDBRANCH   8  10
ENDBRANCH   3   4
ENDBRANCH   2   3
TORSDOF 12
ENDMDL
MODEL      256
REMARK 921   NORMALIZED FREE ENERGY PREDICTED BY IDOCK:   -2.54 KCAL/MOL
REMARK 922        TOTAL FREE ENERGY PREDICTED BY IDOCK:   -6.36 KCAL/MOL
REMARK 923 INTER-LIGAND FREE ENERGY PREDICTED BY IDOCK:   -4.94 KCAL/MOL
REMARK 924 INTRA-LIGAND FREE ENERGY PREDICTED BY IDOCK:   -1.42 KCAL/MOL
REMARK 927      BINDING AFFINITY PREDICTED BY RF-SCORE:    0.00 PKD
ROOT
HETATM    1  C   UNL     1      -8.288  19.636  68.175  1.00  0.00    -0.347 C  
HETATM    2  C   UNL     1      -7.932  19.153  66.776  1.00  0.00    -0.281 C  
ENDROOT
BRANCH   2   3
HETATM    3  C   UNL     1      -8.701  17.879  66.443  1.00  0.00    -0.249 C  
BRANCH   3   4
HETATM    4  C   UNL     1      -9.853  17.617  67.422  1.00  0.00    -0.305 C  
HETATM    5  C   UNL     1     -10.386  16.165  67.359  1.00  0.00    -0.294 C  
HETATM    6  O   UNL     1     -10.909  15.945  66.042  1.00  0.00    -0.305 OA 
HETATM    7  C   UNL     1     -11.536  15.991  68.362  1.00  0.00    -0.331 C  
HETATM    8  C   UNL     1      -9.238  15.158  67.624  1.00  0.00    -0.181 C  
HETATM    9  H   UNL     1     -11.236  15.054  66.003  1.00  0.00     0.000 HD 
BRANCH   8  10
HETATM   10  C   UNL     1      -9.642  13.716  67.753  1.00  0.00    -0.224 C  
HETATM   11  C   UNL     1      -8.826  12.739  68.183  1.00  0.00    -0.194 C  
BRANCH  11  12
HETATM   12  C   UNL     1      -9.181  11.282  68.331  1.00  0.00    -0.178 C  
HETATM   13  C   UNL     1     -10.696  11.108  68.534  1.00  0.00    -0.201 C  
HETATM   14  C   UNL     1     -10.982   9.658  68.191  1.00  0.00    -0.185 C  
HETATM   15  O   UNL     1     -11.090  11.387  69.872  1.00  0.00    -0.444 OA 
HETATM   16  H   UNL     1     -12.026  11.279  69.997  1.00  0.00     0.000 HD 
HETATM   17  C   UNL     1      -9.959   9.379  67.136  1.00  0.00    -0.204 C  
HETATM   18  O   UNL     1     -10.059   8.441  66.353  1.00  0.00    -0.265 OA 
HETATM   19  C   UNL     1      -8.819  10.378  67.129  1.00  0.00    -0.141 C  
BRANCH  19  20
HETATM   20  C   UNL     1      -7.428   9.757  67.301  1.00  0.00    -0.088 C  
BRANCH  20  21
HETATM   21  C   UNL     1      -7.277   9.038  68.643  1.00  0.00    -0.072 C  
BRANCH  21  22
HETATM   22  C   UNL     1      -7.434   7.527  68.502  1.00  0.00    -0.108 C  
BRANCH  22  23
HETATM   23  C   UNL     1      -6.073   6.870  68.258  1.00  0.00    -0.033 C  
BRANCH  23  24
HETATM   24  C   UNL     1      -5.760   5.859  69.354  1.00  0.00    -0.015 C  
BRANCH  24  25
HETATM   25  C   UNL     1      -6.978   5.564  70.224  1.00  0.00    -0.061 C  
BRANCH  25  26
HETATM   26  C   UNL     1      -6.692   5.876  71.674  1.00  0.00    -0.059 C  
HETATM   27  O   UNL     1      -7.237   5.347  72.630  1.00  0.00    -0.085 OA 
BRANCH  26  28
HETATM   28  O   UNL     1      -5.731   6.836  71.760  1.00  0.00    -0.035 OA 
HETATM   29  C   UNL     1      -6.226   8.089  72.234  1.00  0.00    -0.051 C  
ENDBRANCH  26  28
ENDBRANCH  25  26
ENDBRANCH  24  25
ENDBRANCH  23  24
ENDBRANCH  22  23
ENDBRANCH  21  22
ENDBRANCH  20  21
ENDBRANCH  19  20
ENDBRANCH  11  12
ENDBRANCH   8  10
ENDBRANCH   3   4
ENDBRANCH   2   3
TORSDOF 12
ENDMDL
MODEL      257
REMARK 921   NORMALIZED FREE ENERGY PREDICTED BY IDOCK:   -2.53 KCAL/MOL
REMARK 922        TOTAL FREE ENERGY PREDICTED BY IDOCK:   -6.34 KCAL/MOL
REMARK 923 INTER-LIGAND FREE ENERGY PREDICTED BY IDOCK:   -4.56 KCAL/MOL
REMARK 924 INTRA-LIGAND FREE ENERGY PREDICTED BY IDOCK:   -1.78 KCAL/MOL
REMARK 927      BINDING AFFINITY PREDICTED BY RF-SCORE:    0.00 PKD
ROOT
HETATM    1  C   UNL     1      -8.599  10.713  65.363  1.00  0.00    -0.185 C  
HETATM    2  C   UNL     1     -10.031  10.210  65.237  1.00  0.00    -0.381 C  
ENDROOT
BRANCH   2   3
HETATM    3  C   UNL     1     -10.728  10.250  66.593  1.00  0.00    -0.183 C  
BRANCH   3   4
HETATM    4  C   UNL     1      -9.734  10.266  67.763  1.00  0.00    -0.178 C  
HETATM    5  C   UNL     1      -9.670   8.921  68.524  1.00  0.00    -0.161 C  
HETATM    6  O   UNL     1     -10.965   8.672  69.089  1.00  0.00    -0.419 OA 
HETATM    7  C   UNL     1      -8.661   9.025  69.677  1.00  0.00    -0.137 C  
HETATM    8  C   UNL     1      -9.312   7.768  67.552  1.00  0.00    -0.161 C  
HETATM    9  H   UNL     1     -10.925   7.847  69.557  1.00  0.00     0.000 HD 
BRANCH   8  10
HETATM   10  C   UNL     1      -9.057   6.428  68.183  1.00  0.00    -0.113 C  
HETATM   11  C   UNL     1      -9.836   5.348  68.005  1.00  0.00    -0.183 C  
BRANCH  11  12
HETATM   12  C   UNL     1      -9.624   3.985  68.612  1.00  0.00    -0.190 C  
HETATM   13  C   UNL     1      -8.721   3.123  67.714  1.00  0.00    -0.111 C  
HETATM   14  C   UNL     1      -8.201   2.017  68.612  1.00  0.00    -0.073 C  
HETATM   15  O   UNL     1      -9.436   2.571  66.613  1.00  0.00    -0.376 OA 
HETATM   16  H   UNL     1      -8.878   2.038  66.058  1.00  0.00     0.000 HD 
HETATM   17  C   UNL     1      -8.124   2.703  69.939  1.00  0.00    -0.041 C  
HETATM   18  O   UNL     1      -7.439   2.277  70.862  1.00  0.00    -0.033 OA 
HETATM   19  C   UNL     1      -8.954   3.970  70.006  1.00  0.00    -0.160 C  
BRANCH  19  20
HETATM   20  C   UNL     1     -10.001   3.984  71.125  1.00  0.00    -0.197 C  
BRANCH  20  21
HETATM   21  C   UNL     1      -9.527   4.762  72.354  1.00  0.00    -0.168 C  
BRANCH  21  22
HETATM   22  C   UNL     1      -9.277   3.848  73.548  1.00  0.00    -0.108 C  
BRANCH  22  23
HETATM   23  C   UNL     1      -7.959   4.216  74.235  1.00  0.00    -0.091 C  
BRANCH  23  24
HETATM   24  C   UNL     1      -7.218   5.283  73.438  1.00  0.00    -0.090 C  
BRANCH  24  25
HETATM   25  C   UNL     1      -6.964   6.540  74.265  1.00  0.00    -0.088 C  
BRANCH  25  26
HETATM   26  C   UNL     1      -7.183   7.783  73.434  1.00  0.00    -0.101 C  
HETATM   27  O   UNL     1      -6.508   8.115  72.472  1.00  0.00    -0.068 OA 
BRANCH  26  28
HETATM   28  O   UNL     1      -8.248   8.481  73.914  1.00  0.00    -0.369 OA 
HETATM   29  C   UNL     1      -9.458   8.227  73.202  1.00  0.00    -0.193 C  
ENDBRANCH  26  28
ENDBRANCH  25  26
ENDBRANCH  24  25
ENDBRANCH  23  24
ENDBRANCH  22  23
ENDBRANCH  21  22
ENDBRANCH  20  21
ENDBRANCH  19  20
ENDBRANCH  11  12
ENDBRANCH   8  10
ENDBRANCH   3   4
ENDBRANCH   2   3
TORSDOF 12
ENDMDL
MODEL      258
REMARK 921   NORMALIZED FREE ENERGY PREDICTED BY IDOCK:   -2.51 KCAL/MOL
REMARK 922        TOTAL FREE ENERGY PREDICTED BY IDOCK:   -6.32 KCAL/MOL
REMARK 923 INTER-LIGAND FREE ENERGY PREDICTED BY IDOCK:   -4.86 KCAL/MOL
REMARK 924 INTRA-LIGAND FREE ENERGY PREDICTED BY IDOCK:   -1.46 KCAL/MOL
REMARK 927      BINDING AFFINITY PREDICTED BY RF-SCORE:    0.00 PKD
ROOT
HETATM    1  C   UNL     1      -7.204  15.209  67.394  1.00  0.00    -0.231 C  
HETATM    2  C   UNL     1      -5.985  14.322  67.608  1.00  0.00    -0.043 C  
ENDROOT
BRANCH   2   3
HETATM    3  C   UNL     1      -6.398  13.000  68.247  1.00  0.00    -0.089 C  
BRANCH   3   4
HETATM    4  C   UNL     1      -7.591  12.351  67.533  1.00  0.00    -0.155 C  
HETATM    5  C   UNL     1      -7.818  10.877  67.946  1.00  0.00    -0.109 C  
HETATM    6  O   UNL     1      -6.655  10.129  67.563  1.00  0.00    -0.066 OA 
HETATM    7  C   UNL     1      -9.023  10.305  67.185  1.00  0.00    -0.145 C  
HETATM    8  C   UNL     1      -8.007  10.769  69.481  1.00  0.00    -0.022 C  
HETATM    9  H   UNL     1      -6.794   9.224  67.816  1.00  0.00     0.000 HD 
BRANCH   8  10
HETATM   10  C   UNL     1      -8.396   9.416  70.005  1.00  0.00    -0.190 C  
HETATM   11  C   UNL     1      -9.496   9.178  70.739  1.00  0.00    -0.334 C  
BRANCH  11  12
HETATM   12  C   UNL     1      -9.931   7.844  71.287  1.00  0.00    -0.206 C  
HETATM   13  C   UNL     1      -9.899   7.849  72.824  1.00  0.00    -0.270 C  
HETATM   14  C   UNL     1     -10.781   6.690  73.248  1.00  0.00    -0.315 C  
HETATM   15  O   UNL     1      -8.580   7.678  73.331  1.00  0.00    -0.148 OA 
HETATM   16  H   UNL     1      -8.560   7.682  74.281  1.00  0.00     0.000 HD 
HETATM   17  C   UNL     1     -11.801   6.658  72.154  1.00  0.00    -0.298 C  
HETATM   18  O   UNL     1     -12.885   6.099  72.281  1.00  0.00    -0.089 OA 
HETATM   19  C   UNL     1     -11.363   7.397  70.906  1.00  0.00    -0.300 C  
BRANCH  19  20
HETATM   20  C   UNL     1     -11.356   6.544  69.632  1.00  0.00    -0.443 C  
BRANCH  20  21
HETATM   21  C   UNL     1     -10.231   5.509  69.633  1.00  0.00    -0.336 C  
BRANCH  21  22
HETATM   22  C   UNL     1      -9.826   5.103  68.219  1.00  0.00    -0.212 C  
BRANCH  22  23
HETATM   23  C   UNL     1      -8.302   5.114  68.077  1.00  0.00    -0.097 C  
BRANCH  23  24
HETATM   24  C   UNL     1      -7.898   4.962  66.615  1.00  0.00    -0.099 C  
BRANCH  24  25
HETATM   25  C   UNL     1      -9.091   5.107  65.674  1.00  0.00    -0.161 C  
BRANCH  25  26
HETATM   26  C   UNL     1      -9.215   3.901  64.773  1.00  0.00    -0.149 C  
HETATM   27  O   UNL     1      -9.357   2.750  65.151  1.00  0.00    -0.151 OA 
BRANCH  26  28
HETATM   28  O   UNL     1      -9.146   4.288  63.470  1.00  0.00    -0.133 OA 
HETATM   29  C   UNL     1      -7.811   4.519  63.019  1.00  0.00    -0.068 C  
ENDBRANCH  26  28
ENDBRANCH  25  26
ENDBRANCH  24  25
ENDBRANCH  23  24
ENDBRANCH  22  23
ENDBRANCH  21  22
ENDBRANCH  20  21
ENDBRANCH  19  20
ENDBRANCH  11  12
ENDBRANCH   8  10
ENDBRANCH   3   4
ENDBRANCH   2   3
TORSDOF 12
ENDMDL
MODEL      259
REMARK 921   NORMALIZED FREE ENERGY PREDICTED BY IDOCK:   -2.47 KCAL/MOL
REMARK 922        TOTAL FREE ENERGY PREDICTED BY IDOCK:   -6.25 KCAL/MOL
REMARK 923 INTER-LIGAND FREE ENERGY PREDICTED BY IDOCK:   -4.90 KCAL/MOL
REMARK 924 INTRA-LIGAND FREE ENERGY PREDICTED BY IDOCK:   -1.35 KCAL/MOL
REMARK 927      BINDING AFFINITY PREDICTED BY RF-SCORE:    0.00 PKD
ROOT
HETATM    1  C   UNL     1      -7.225  10.285  63.682  1.00  0.00    -0.073 C  
HETATM    2  C   UNL     1      -8.733  10.079  63.702  1.00  0.00    -0.227 C  
ENDROOT
BRANCH   2   3
HETATM    3  C   UNL     1      -9.173   9.515  65.049  1.00  0.00    -0.297 C  
BRANCH   3   4
HETATM    4  C   UNL     1      -8.023   9.456  66.064  1.00  0.00    -0.110 C  
HETATM    5  C   UNL     1      -8.195   8.331  67.113  1.00  0.00    -0.119 C  
HETATM    6  O   UNL     1      -9.388   8.605  67.860  1.00  0.00    -0.141 OA 
HETATM    7  C   UNL     1      -7.009   8.345  68.088  1.00  0.00    -0.081 C  
HETATM    8  C   UNL     1      -8.342   6.957  66.411  1.00  0.00    -0.125 C  
HETATM    9  H   UNL     1      -9.494   7.915  68.504  1.00  0.00     0.000 HD 
BRANCH   8  10
HETATM   10  C   UNL     1      -8.356   5.754  67.311  1.00  0.00    -0.104 C  
HETATM   11  C   UNL     1      -9.412   4.939  67.468  1.00  0.00    -0.161 C  
BRANCH  11  12
HETATM   12  C   UNL     1      -9.477   3.723  68.355  1.00  0.00    -0.211 C  
HETATM   13  C   UNL     1      -8.567   2.606  67.815  1.00  0.00    -0.096 C  
HETATM   14  C   UNL     1      -8.340   1.672  68.988  1.00  0.00    -0.071 C  
HETATM   15  O   UNL     1      -9.168   1.905  66.733  1.00  0.00    -0.280 OA 
HETATM   16  H   UNL     1      -8.606   1.215  66.399  1.00  0.00     0.000 HD 
HETATM   17  C   UNL     1      -8.380   2.613  70.150  1.00  0.00    -0.041 C  
HETATM   18  O   UNL     1      -7.907   2.329  71.244  1.00  0.00    -0.039 OA 
HETATM   19  C   UNL     1      -9.037   3.939  69.823  1.00  0.00    -0.188 C  
BRANCH  19  20
HETATM   20  C   UNL     1     -10.234   4.292  70.713  1.00  0.00    -0.035 C  
BRANCH  20  21
HETATM   21  C   UNL     1     -10.263   5.775  71.084  1.00  0.00    -0.275 C  
BRANCH  21  22
HETATM   22  C   UNL     1     -11.669   6.249  71.440  1.00  0.00    -0.316 C  
BRANCH  22  23
HETATM   23  C   UNL     1     -11.646   7.721  71.858  1.00  0.00    -0.330 C  
BRANCH  23  24
HETATM   24  C   UNL     1     -10.720   7.926  73.051  1.00  0.00    -0.408 C  
BRANCH  24  25
HETATM   25  C   UNL     1      -9.347   8.442  72.627  1.00  0.00    -0.334 C  
BRANCH  25  26
HETATM   26  C   UNL     1      -8.302   8.101  73.661  1.00  0.00    -0.242 C  
HETATM   27  O   UNL     1      -7.663   8.913  74.313  1.00  0.00    -0.404 OA 
BRANCH  26  28
HETATM   28  O   UNL     1      -8.174   6.750  73.765  1.00  0.00    -0.108 OA 
HETATM   29  C   UNL     1      -7.157   6.212  72.920  1.00  0.00    -0.080 C  
ENDBRANCH  26  28
ENDBRANCH  25  26
ENDBRANCH  24  25
ENDBRANCH  23  24
ENDBRANCH  22  23
ENDBRANCH  21  22
ENDBRANCH  20  21
ENDBRANCH  19  20
ENDBRANCH  11  12
ENDBRANCH   8  10
ENDBRANCH   3   4
ENDBRANCH   2   3
TORSDOF 12
ENDMDL
MODEL      260
REMARK 921   NORMALIZED FREE ENERGY PREDICTED BY IDOCK:   -2.44 KCAL/MOL
REMARK 922        TOTAL FREE ENERGY PREDICTED BY IDOCK:   -6.20 KCAL/MOL
REMARK 923 INTER-LIGAND FREE ENERGY PREDICTED BY IDOCK:   -4.92 KCAL/MOL
REMARK 924 INTRA-LIGAND FREE ENERGY PREDICTED BY IDOCK:   -1.28 KCAL/MOL
REMARK 927      BINDING AFFINITY PREDICTED BY RF-SCORE:    0.00 PKD
ROOT
HETATM    1  C   UNL     1     -14.038   6.865  71.819  1.00  0.00    -0.299 C  
HETATM    2  C   UNL     1     -12.910   6.417  72.738  1.00  0.00     0.801 C  
ENDROOT
BRANCH   2   3
HETATM    3  C   UNL     1     -11.781   5.793  71.925  1.00  0.00    -0.117 C  
BRANCH   3   4
HETATM    4  C   UNL     1     -10.399   6.311  72.347  1.00  0.00    -0.215 C  
HETATM    5  C   UNL     1      -9.623   6.986  71.191  1.00  0.00    -0.165 C  
HETATM    6  O   UNL     1      -9.398   5.998  70.176  1.00  0.00    -0.151 OA 
HETATM    7  C   UNL     1      -8.255   7.468  71.697  1.00  0.00    -0.108 C  
HETATM    8  C   UNL     1     -10.454   8.149  70.591  1.00  0.00    -0.224 C  
HETATM    9  H   UNL     1      -8.921   6.412  69.467  1.00  0.00     0.000 HD 
BRANCH   8  10
HETATM   10  C   UNL     1      -9.756   8.998  69.566  1.00  0.00    -0.171 C  
HETATM   11  C   UNL     1     -10.380   9.872  68.759  1.00  0.00    -0.222 C  
BRANCH  11  12
HETATM   12  C   UNL     1      -9.728  10.745  67.717  1.00  0.00    -0.179 C  
HETATM   13  C   UNL     1      -8.248  10.369  67.539  1.00  0.00    -0.114 C  
HETATM   14  C   UNL     1      -7.847  10.943  66.194  1.00  0.00    -0.144 C  
HETATM   15  O   UNL     1      -7.432  10.912  68.571  1.00  0.00    -0.090 OA 
HETATM   16  H   UNL     1      -6.517  10.679  68.461  1.00  0.00     0.000 HD 
HETATM   17  C   UNL     1      -9.124  10.843  65.420  1.00  0.00    -0.198 C  
HETATM   18  O   UNL     1      -9.156  10.880  64.195  1.00  0.00    -0.193 OA 
HETATM   19  C   UNL     1     -10.346  10.673  66.301  1.00  0.00    -0.296 C  
BRANCH  19  20
HETATM   20  C   UNL     1     -11.421  11.749  66.110  1.00  0.00    -0.288 C  
BRANCH  20  21
HETATM   21  C   UNL     1     -11.063  13.059  66.812  1.00  0.00    -0.316 C  
BRANCH  21  22
HETATM   22  C   UNL     1     -12.075  13.423  67.894  1.00  0.00    -0.289 C  
BRANCH  22  23
HETATM   23  C   UNL     1     -11.897  14.882  68.320  1.00  0.00    -0.308 C  
BRANCH  23  24
HETATM   24  C   UNL     1     -12.785  15.204  69.517  1.00  0.00     0.095 C  
BRANCH  24  25
HETATM   25  C   UNL     1     -12.240  14.606  70.811  1.00  0.00    -0.394 C  
BRANCH  25  26
HETATM   26  C   UNL     1     -13.360  14.309  71.779  1.00  0.00    -0.371 C  
HETATM   27  O   UNL     1     -14.376  14.973  71.907  1.00  0.00    -0.482 OA 
BRANCH  26  28
HETATM   28  O   UNL     1     -13.072  13.185  72.491  1.00  0.00    -0.384 OA 
HETATM   29  C   UNL     1     -12.628  12.099  71.678  1.00  0.00    -0.098 C  
ENDBRANCH  26  28
ENDBRANCH  25  26
ENDBRANCH  24  25
ENDBRANCH  23  24
ENDBRANCH  22  23
ENDBRANCH  21  22
ENDBRANCH  20  21
ENDBRANCH  19  20
ENDBRANCH  11  12
ENDBRANCH   8  10
ENDBRANCH   3   4
ENDBRANCH   2   3
TORSDOF 12
ENDMDL
MODEL      261
REMARK 921   NORMALIZED FREE ENERGY PREDICTED BY IDOCK:   -2.41 KCAL/MOL
REMARK 922        TOTAL FREE ENERGY PREDICTED BY IDOCK:   -6.13 KCAL/MOL
REMARK 923 INTER-LIGAND FREE ENERGY PREDICTED BY IDOCK:   -4.26 KCAL/MOL
REMARK 924 INTRA-LIGAND FREE ENERGY PREDICTED BY IDOCK:   -1.87 KCAL/MOL
REMARK 927      BINDING AFFINITY PREDICTED BY RF-SCORE:    0.00 PKD
ROOT
HETATM    1  C   UNL     1      -7.187   5.357  63.563  1.00  0.00    -0.049 C  
HETATM    2  C   UNL     1      -7.390   4.107  64.408  1.00  0.00    -0.070 C  
ENDROOT
BRANCH   2   3
HETATM    3  C   UNL     1      -8.792   4.094  65.008  1.00  0.00    -0.131 C  
BRANCH   3   4
HETATM    4  C   UNL     1      -9.360   5.507  65.201  1.00  0.00     0.173 C  
HETATM    5  C   UNL     1      -9.665   5.843  66.680  1.00  0.00    -0.157 C  
HETATM    6  O   UNL     1     -10.671   4.930  67.140  1.00  0.00    -0.116 OA 
HETATM    7  C   UNL     1     -10.232   7.266  66.783  1.00  0.00    -0.305 C  
HETATM    8  C   UNL     1      -8.392   5.670  67.546  1.00  0.00    -0.100 C  
HETATM    9  H   UNL     1     -10.859   5.136  68.048  1.00  0.00     0.000 HD 
BRANCH   8  10
HETATM   10  C   UNL     1      -8.500   6.117  68.977  1.00  0.00    -0.118 C  
HETATM   11  C   UNL     1      -9.059   5.387  69.956  1.00  0.00    -0.160 C  
BRANCH  11  12
HETATM   12  C   UNL     1      -9.192   5.789  71.402  1.00  0.00    -0.157 C  
HETATM   13  C   UNL     1      -9.320   4.548  72.303  1.00  0.00    -0.128 C  
HETATM   14  C   UNL     1      -8.966   5.028  73.698  1.00  0.00    -0.117 C  
HETATM   15  O   UNL     1     -10.637   4.010  72.284  1.00  0.00    -0.107 OA 
HETATM   16  H   UNL     1     -10.716   3.243  72.840  1.00  0.00     0.000 HD 
HETATM   17  C   UNL     1      -7.964   6.101  73.414  1.00  0.00    -0.106 C  
HETATM   18  O   UNL     1      -7.178   6.509  74.262  1.00  0.00    -0.091 OA 
HETATM   19  C   UNL     1      -8.011   6.601  71.984  1.00  0.00    -0.102 C  
BRANCH  19  20
HETATM   20  C   UNL     1      -8.253   8.108  71.846  1.00  0.00    -0.180 C  
BRANCH  20  21
HETATM   21  C   UNL     1      -9.704   8.492  72.141  1.00  0.00    -0.387 C  
BRANCH  21  22
HETATM   22  C   UNL     1     -10.346   9.238  70.976  1.00  0.00    -0.388 C  
BRANCH  22  23
HETATM   23  C   UNL     1      -9.361   9.357  69.810  1.00  0.00    -0.217 C  
BRANCH  23  24
HETATM   24  C   UNL     1      -9.127  10.820  69.451  1.00  0.00     0.018 C  
BRANCH  24  25
HETATM   25  C   UNL     1      -9.759  11.187  68.111  1.00  0.00    -0.186 C  
BRANCH  25  26
HETATM   26  C   UNL     1     -11.075  11.900  68.315  1.00  0.00    -0.239 C  
HETATM   27  O   UNL     1     -11.754  11.851  69.329  1.00  0.00    -0.281 OA 
BRANCH  26  28
HETATM   28  O   UNL     1     -11.395  12.611  67.200  1.00  0.00    -0.283 OA 
HETATM   29  C   UNL     1     -11.357  11.833  66.004  1.00  0.00    -0.273 C  
ENDBRANCH  26  28
ENDBRANCH  25  26
ENDBRANCH  24  25
ENDBRANCH  23  24
ENDBRANCH  22  23
ENDBRANCH  21  22
ENDBRANCH  20  21
ENDBRANCH  19  20
ENDBRANCH  11  12
ENDBRANCH   8  10
ENDBRANCH   3   4
ENDBRANCH   2   3
TORSDOF 12
ENDMDL
MODEL      262
REMARK 921   NORMALIZED FREE ENERGY PREDICTED BY IDOCK:   -2.35 KCAL/MOL
REMARK 922        TOTAL FREE ENERGY PREDICTED BY IDOCK:   -6.03 KCAL/MOL
REMARK 923 INTER-LIGAND FREE ENERGY PREDICTED BY IDOCK:   -5.33 KCAL/MOL
REMARK 924 INTRA-LIGAND FREE ENERGY PREDICTED BY IDOCK:   -0.71 KCAL/MOL
REMARK 927      BINDING AFFINITY PREDICTED BY RF-SCORE:    0.00 PKD
ROOT
HETATM    1  C   UNL     1      -7.425   3.399  63.310  1.00  0.00    -0.055 C  
HETATM    2  C   UNL     1      -7.213   4.404  64.434  1.00  0.00    -0.062 C  
ENDROOT
BRANCH   2   3
HETATM    3  C   UNL     1      -8.440   4.455  65.337  1.00  0.00    -0.120 C  
BRANCH   3   4
HETATM    4  C   UNL     1      -8.135   5.075  66.708  1.00  0.00    -0.108 C  
HETATM    5  C   UNL     1      -7.882   6.601  66.642  1.00  0.00    -0.104 C  
HETATM    6  O   UNL     1      -6.724   6.820  65.825  1.00  0.00    -0.049 OA 
HETATM    7  C   UNL     1      -7.580   7.137  68.049  1.00  0.00    -0.111 C  
HETATM    8  C   UNL     1      -9.096   7.321  66.003  1.00  0.00    -0.117 C  
HETATM    9  H   UNL     1      -6.568   7.756  65.785  1.00  0.00     0.000 HD 
BRANCH   8  10
HETATM   10  C   UNL     1      -9.058   8.823  66.023  1.00  0.00    -0.265 C  
HETATM   11  C   UNL     1     -10.146   9.608  65.956  1.00  0.00    -0.318 C  
BRANCH  11  12
HETATM   12  C   UNL     1     -10.162  11.115  65.972  1.00  0.00    -0.300 C  
HETATM   13  C   UNL     1     -10.393  11.673  64.557  1.00  0.00    -0.300 C  
HETATM   14  C   UNL     1     -10.861  13.101  64.762  1.00  0.00    -0.368 C  
HETATM   15  O   UNL     1      -9.205  11.648  63.774  1.00  0.00    -0.455 OA 
HETATM   16  H   UNL     1      -9.348  11.993  62.900  1.00  0.00     0.000 HD 
HETATM   17  C   UNL     1     -11.603  13.005  66.057  1.00  0.00    -0.365 C  
HETATM   18  O   UNL     1     -12.421  13.846  66.411  1.00  0.00    -0.441 OA 
HETATM   19  C   UNL     1     -11.254  11.764  66.855  1.00  0.00    -0.387 C  
BRANCH  19  20
HETATM   20  C   UNL     1     -10.729  12.044  68.268  1.00  0.00    -0.252 C  
BRANCH  20  21
HETATM   21  C   UNL     1      -9.857  13.300  68.325  1.00  0.00    -0.231 C  
BRANCH  21  22
HETATM   22  C   UNL     1      -8.385  12.985  68.081  1.00  0.00    -0.164 C  
BRANCH  22  23
HETATM   23  C   UNL     1      -7.572  14.278  67.985  1.00  0.00    -0.144 C  
BRANCH  23  24
HETATM   24  C   UNL     1      -6.140  14.048  68.454  1.00  0.00    -0.100 C  
BRANCH  24  25
HETATM   25  C   UNL     1      -5.779  12.566  68.482  1.00  0.00    -0.055 C  
BRANCH  25  26
HETATM   26  C   UNL     1      -5.676  12.065  69.902  1.00  0.00    -0.126 C  
HETATM   27  O   UNL     1      -5.783  12.755  70.903  1.00  0.00    -0.235 OA 
BRANCH  26  28
HETATM   28  O   UNL     1      -5.446  10.723  69.906  1.00  0.00    -0.039 OA 
HETATM   29  C   UNL     1      -5.968  10.063  71.059  1.00  0.00    -0.055 C  
ENDBRANCH  26  28
ENDBRANCH  25  26
ENDBRANCH  24  25
ENDBRANCH  23  24
ENDBRANCH  22  23
ENDBRANCH  21  22
ENDBRANCH  20  21
ENDBRANCH  19  20
ENDBRANCH  11  12
ENDBRANCH   8  10
ENDBRANCH   3   4
ENDBRANCH   2   3
TORSDOF 12
ENDMDL
MODEL      263
REMARK 921   NORMALIZED FREE ENERGY PREDICTED BY IDOCK:   -2.33 KCAL/MOL
REMARK 922        TOTAL FREE ENERGY PREDICTED BY IDOCK:   -6.00 KCAL/MOL
REMARK 923 INTER-LIGAND FREE ENERGY PREDICTED BY IDOCK:   -4.86 KCAL/MOL
REMARK 924 INTRA-LIGAND FREE ENERGY PREDICTED BY IDOCK:   -1.13 KCAL/MOL
REMARK 927      BINDING AFFINITY PREDICTED BY RF-SCORE:    0.00 PKD
ROOT
HETATM    1  C   UNL     1      -8.527   8.090  73.884  1.00  0.00    -0.321 C  
HETATM    2  C   UNL     1      -9.873   7.937  73.190  1.00  0.00    -0.357 C  
ENDROOT
BRANCH   2   3
HETATM    3  C   UNL     1      -9.693   7.278  71.826  1.00  0.00    -0.167 C  
BRANCH   3   4
HETATM    4  C   UNL     1      -9.599   5.749  71.921  1.00  0.00    -0.172 C  
HETATM    5  C   UNL     1      -9.527   5.057  70.538  1.00  0.00    -0.173 C  
HETATM    6  O   UNL     1     -10.742   5.351  69.835  1.00  0.00    -0.316 OA 
HETATM    7  C   UNL     1      -9.440   3.535  70.724  1.00  0.00    -0.240 C  
HETATM    8  C   UNL     1      -8.326   5.604  69.724  1.00  0.00    -0.107 C  
HETATM    9  H   UNL     1     -10.698   4.926  68.987  1.00  0.00     0.000 HD 
BRANCH   8  10
HETATM   10  C   UNL     1      -8.038   4.907  68.425  1.00  0.00    -0.085 C  
HETATM   11  C   UNL     1      -8.640   5.200  67.260  1.00  0.00    -0.104 C  
BRANCH  11  12
HETATM   12  C   UNL     1      -8.387   4.533  65.933  1.00  0.00    -0.114 C  
HETATM   13  C   UNL     1      -9.364   3.366  65.714  1.00  0.00    -0.144 C  
HETATM   14  C   UNL     1      -9.346   3.103  64.220  1.00  0.00    -0.137 C  
HETATM   15  O   UNL     1      -8.970   2.199  66.427  1.00  0.00    -0.128 OA 
HETATM   16  H   UNL     1      -9.574   1.478  66.292  1.00  0.00     0.000 HD 
HETATM   17  C   UNL     1      -9.100   4.470  63.665  1.00  0.00    -0.112 C  
HETATM   18  O   UNL     1      -9.350   4.763  62.502  1.00  0.00    -0.119 OA 
HETATM   19  C   UNL     1      -8.540   5.438  64.688  1.00  0.00    -0.097 C  
BRANCH  19  20
HETATM   20  C   UNL     1      -7.201   6.072  64.295  1.00  0.00    -0.057 C  
BRANCH  20  21
HETATM   21  C   UNL     1      -6.671   7.021  65.371  1.00  0.00    -0.051 C  
BRANCH  21  22
HETATM   22  C   UNL     1      -5.737   8.079  64.792  1.00  0.00    -0.044 C  
BRANCH  22  23
HETATM   23  C   UNL     1      -6.420   8.820  63.640  1.00  0.00    -0.088 C  
BRANCH  23  24
HETATM   24  C   UNL     1      -7.401   9.857  64.175  1.00  0.00    -0.133 C  
BRANCH  24  25
HETATM   25  C   UNL     1      -8.799   9.676  63.590  1.00  0.00    -0.256 C  
BRANCH  25  26
HETATM   26  C   UNL     1      -9.772  10.649  64.213  1.00  0.00    -0.314 C  
HETATM   27  O   UNL     1     -10.333  10.496  65.286  1.00  0.00    -0.287 OA 
BRANCH  26  28
HETATM   28  O   UNL     1      -9.931  11.730  63.400  1.00  0.00    -0.379 OA 
HETATM   29  C   UNL     1     -10.384  12.894  64.091  1.00  0.00    -0.361 C  
ENDBRANCH  26  28
ENDBRANCH  25  26
ENDBRANCH  24  25
ENDBRANCH  23  24
ENDBRANCH  22  23
ENDBRANCH  21  22
ENDBRANCH  20  21
ENDBRANCH  19  20
ENDBRANCH  11  12
ENDBRANCH   8  10
ENDBRANCH   3   4
ENDBRANCH   2   3
TORSDOF 12
ENDMDL
MODEL      264
REMARK 921   NORMALIZED FREE ENERGY PREDICTED BY IDOCK:   -2.28 KCAL/MOL
REMARK 922        TOTAL FREE ENERGY PREDICTED BY IDOCK:   -5.92 KCAL/MOL
REMARK 923 INTER-LIGAND FREE ENERGY PREDICTED BY IDOCK:   -4.38 KCAL/MOL
REMARK 924 INTRA-LIGAND FREE ENERGY PREDICTED BY IDOCK:   -1.55 KCAL/MOL
REMARK 927      BINDING AFFINITY PREDICTED BY RF-SCORE:    0.00 PKD
ROOT
HETATM    1  C   UNL     1      -8.433   8.743  62.523  1.00  0.00    -0.195 C  
HETATM    2  C   UNL     1      -8.476   7.233  62.334  1.00  0.00     0.069 C  
ENDROOT
BRANCH   2   3
HETATM    3  C   UNL     1      -7.589   6.544  63.365  1.00  0.00    -0.085 C  
BRANCH   3   4
HETATM    4  C   UNL     1      -8.283   5.350  64.033  1.00  0.00    -0.125 C  
HETATM    5  C   UNL     1      -8.257   5.417  65.579  1.00  0.00    -0.127 C  
HETATM    6  O   UNL     1      -6.886   5.381  65.998  1.00  0.00    -0.055 OA 
HETATM    7  C   UNL     1      -8.966   4.187  66.164  1.00  0.00    -0.126 C  
HETATM    8  C   UNL     1      -8.902   6.738  66.072  1.00  0.00    -0.150 C  
HETATM    9  H   UNL     1      -6.869   5.422  66.946  1.00  0.00     0.000 HD 
BRANCH   8  10
HETATM   10  C   UNL     1      -9.091   6.866  67.557  1.00  0.00    -0.118 C  
HETATM   11  C   UNL     1      -9.991   7.677  68.137  1.00  0.00    -0.203 C  
BRANCH  11  12
HETATM   12  C   UNL     1     -10.220   7.842  69.617  1.00  0.00    -0.206 C  
HETATM   13  C   UNL     1     -10.983   6.635  70.188  1.00  0.00    -0.305 C  
HETATM   14  C   UNL     1     -10.733   6.673  71.684  1.00  0.00    -0.259 C  
HETATM   15  O   UNL     1     -12.378   6.710  69.918  1.00  0.00    -0.520 OA 
HETATM   16  H   UNL     1     -12.850   5.964  70.270  1.00  0.00     0.000 HD 
HETATM   17  C   UNL     1      -9.358   7.258  71.755  1.00  0.00    -0.149 C  
HETATM   18  O   UNL     1      -8.646   7.147  72.747  1.00  0.00    -0.113 OA 
HETATM   19  C   UNL     1      -8.944   7.970  70.483  1.00  0.00    -0.152 C  
BRANCH  19  20
HETATM   20  C   UNL     1      -8.551   9.439  70.675  1.00  0.00    -0.247 C  
BRANCH  20  21
HETATM   21  C   UNL     1      -7.627   9.943  69.566  1.00  0.00    -0.125 C  
BRANCH  21  22
HETATM   22  C   UNL     1      -8.333  10.920  68.632  1.00  0.00    -0.148 C  
BRANCH  22  23
HETATM   23  C   UNL     1      -7.327  11.571  67.680  1.00  0.00    -0.105 C  
BRANCH  23  24
HETATM   24  C   UNL     1      -7.644  13.050  67.492  1.00  0.00    -0.166 C  
BRANCH  24  25
HETATM   25  C   UNL     1      -6.460  13.939  67.865  1.00  0.00    -0.168 C  
BRANCH  25  26
HETATM   26  C   UNL     1      -6.697  14.621  69.192  1.00  0.00    -0.117 C  
HETATM   27  O   UNL     1      -7.667  15.308  69.468  1.00  0.00    -0.212 OA 
BRANCH  26  28
HETATM   28  O   UNL     1      -5.667  14.353  70.040  1.00  0.00    -0.105 OA 
HETATM   29  C   UNL     1      -5.775  13.080  70.676  1.00  0.00    -0.165 C  
ENDBRANCH  26  28
ENDBRANCH  25  26
ENDBRANCH  24  25
ENDBRANCH  23  24
ENDBRANCH  22  23
ENDBRANCH  21  22
ENDBRANCH  20  21
ENDBRANCH  19  20
ENDBRANCH  11  12
ENDBRANCH   8  10
ENDBRANCH   3   4
ENDBRANCH   2   3
TORSDOF 12
ENDMDL
MODEL      265
REMARK 921   NORMALIZED FREE ENERGY PREDICTED BY IDOCK:   -2.14 KCAL/MOL
REMARK 922        TOTAL FREE ENERGY PREDICTED BY IDOCK:   -5.68 KCAL/MOL
REMARK 923 INTER-LIGAND FREE ENERGY PREDICTED BY IDOCK:   -5.88 KCAL/MOL
REMARK 924 INTRA-LIGAND FREE ENERGY PREDICTED BY IDOCK:    0.20 KCAL/MOL
REMARK 927      BINDING AFFINITY PREDICTED BY RF-SCORE:    0.00 PKD
ROOT
HETATM    1  C   UNL     1     -10.180  11.926  63.454  1.00  0.00    -0.478 C  
HETATM    2  C   UNL     1     -11.517  12.053  64.170  1.00  0.00    -0.460 C  
ENDROOT
BRANCH   2   3
HETATM    3  C   UNL     1     -11.299  12.326  65.655  1.00  0.00    -0.394 C  
BRANCH   3   4
HETATM    4  C   UNL     1      -9.836  12.138  66.077  1.00  0.00    -0.260 C  
HETATM    5  C   UNL     1      -9.577  10.788  66.789  1.00  0.00    -0.172 C  
HETATM    6  O   UNL     1     -10.356  10.770  67.993  1.00  0.00    -0.170 OA 
HETATM    7  C   UNL     1      -8.095  10.684  67.180  1.00  0.00    -0.121 C  
HETATM    8  C   UNL     1     -10.014   9.608  65.885  1.00  0.00    -0.351 C  
HETATM    9  H   UNL     1     -10.197   9.942  68.431  1.00  0.00     0.000 HD 
BRANCH   8  10
HETATM   10  C   UNL     1      -9.672   8.232  66.383  1.00  0.00    -0.300 C  
HETATM   11  C   UNL     1     -10.580   7.282  66.661  1.00  0.00    -0.145 C  
BRANCH  11  12
HETATM   12  C   UNL     1     -10.290   5.890  67.161  1.00  0.00    -0.286 C  
HETATM   13  C   UNL     1     -10.191   4.900  65.988  1.00  0.00    -0.257 C  
HETATM   14  C   UNL     1      -9.446   3.699  66.540  1.00  0.00    -0.188 C  
HETATM   15  O   UNL     1     -11.473   4.510  65.510  1.00  0.00    -0.855 OA 
HETATM   16  H   UNL     1     -11.412   3.898  64.786  1.00  0.00     0.000 HD 
HETATM   17  C   UNL     1      -8.537   4.331  67.546  1.00  0.00    -0.104 C  
HETATM   18  O   UNL     1      -7.534   3.769  67.971  1.00  0.00    -0.061 OA 
HETATM   19  C   UNL     1      -8.972   5.724  67.954  1.00  0.00    -0.111 C  
BRANCH  19  20
HETATM   20  C   UNL     1      -9.205   5.902  69.458  1.00  0.00    -0.149 C  
BRANCH  20  21
HETATM   21  C   UNL     1      -9.079   4.584  70.224  1.00  0.00    -0.159 C  
BRANCH  21  22
HETATM   22  C   UNL     1     -10.220   4.389  71.217  1.00  0.00    -0.137 C  
BRANCH  22  23
HETATM   23  C   UNL     1     -10.143   5.437  72.330  1.00  0.00    -0.225 C  
BRANCH  23  24
HETATM   24  C   UNL     1      -9.051   5.078  73.332  1.00  0.00    -0.121 C  
BRANCH  24  25
HETATM   25  C   UNL     1      -8.269   6.307  73.789  1.00  0.00    -0.109 C  
BRANCH  25  26
HETATM   26  C   UNL     1      -7.402   6.838  72.671  1.00  0.00    -0.086 C  
HETATM   27  O   UNL     1      -7.538   7.922  72.128  1.00  0.00    -0.077 OA 
BRANCH  26  28
HETATM   28  O   UNL     1      -6.441   5.927  72.357  1.00  0.00    -0.055 OA 
HETATM   29  C   UNL     1      -6.495   4.748  73.161  1.00  0.00    -0.051 C  
ENDBRANCH  26  28
ENDBRANCH  25  26
ENDBRANCH  24  25
ENDBRANCH  23  24
ENDBRANCH  22  23
ENDBRANCH  21  22
ENDBRANCH  20  21
ENDBRANCH  19  20
ENDBRANCH  11  12
ENDBRANCH   8  10
ENDBRANCH   3   4
ENDBRANCH   2   3
TORSDOF 12
ENDMDL
MODEL      266
REMARK 921   NORMALIZED FREE ENERGY PREDICTED BY IDOCK:   -2.14 KCAL/MOL
REMARK 922        TOTAL FREE ENERGY PREDICTED BY IDOCK:   -5.68 KCAL/MOL
REMARK 923 INTER-LIGAND FREE ENERGY PREDICTED BY IDOCK:   -4.48 KCAL/MOL
REMARK 924 INTRA-LIGAND FREE ENERGY PREDICTED BY IDOCK:   -1.20 KCAL/MOL
REMARK 927      BINDING AFFINITY PREDICTED BY RF-SCORE:    0.00 PKD
ROOT
HETATM    1  C   UNL     1      -8.284   7.924  74.496  1.00  0.00    -0.259 C  
HETATM    2  C   UNL     1      -9.516   7.182  73.998  1.00  0.00    -0.303 C  
ENDROOT
BRANCH   2   3
HETATM    3  C   UNL     1      -9.264   6.612  72.606  1.00  0.00    -0.148 C  
BRANCH   3   4
HETATM    4  C   UNL     1      -9.389   5.083  72.567  1.00  0.00    -0.150 C  
HETATM    5  C   UNL     1      -9.417   4.511  71.129  1.00  0.00    -0.160 C  
HETATM    6  O   UNL     1     -10.578   5.034  70.470  1.00  0.00    -0.209 OA 
HETATM    7  C   UNL     1      -9.547   2.982  71.181  1.00  0.00    -0.229 C  
HETATM    8  C   UNL     1      -8.151   4.951  70.349  1.00  0.00    -0.084 C  
HETATM    9  H   UNL     1     -10.596   4.683  69.588  1.00  0.00     0.000 HD 
BRANCH   8  10
HETATM   10  C   UNL     1      -7.966   4.337  68.991  1.00  0.00    -0.068 C  
HETATM   11  C   UNL     1      -8.624   4.730  67.887  1.00  0.00    -0.105 C  
BRANCH  11  12
HETATM   12  C   UNL     1      -8.474   4.149  66.505  1.00  0.00    -0.104 C  
HETATM   13  C   UNL     1      -9.106   2.748  66.432  1.00  0.00    -0.125 C  
HETATM   14  C   UNL     1      -9.325   2.485  64.954  1.00  0.00    -0.112 C  
HETATM   15  O   UNL     1      -8.259   1.752  66.992  1.00  0.00    -0.070 OA 
HETATM   16  H   UNL     1      -8.649   0.886  66.947  1.00  0.00     0.000 HD 
HETATM   17  C   UNL     1      -9.596   3.859  64.428  1.00  0.00    -0.170 C  
HETATM   18  O   UNL     1     -10.154   4.055  63.355  1.00  0.00    -0.172 OA 
HETATM   19  C   UNL     1      -9.132   4.959  65.362  1.00  0.00    -0.155 C  
BRANCH  19  20
HETATM   20  C   UNL     1      -8.138   5.945  64.739  1.00  0.00    -0.132 C  
BRANCH  20  21
HETATM   21  C   UNL     1      -7.482   6.847  65.785  1.00  0.00    -0.084 C  
BRANCH  21  22
HETATM   22  C   UNL     1      -7.677   8.326  65.469  1.00  0.00    -0.101 C  
BRANCH  22  23
HETATM   23  C   UNL     1      -9.155   8.706  65.590  1.00  0.00    -0.221 C  
BRANCH  23  24
HETATM   24  C   UNL     1      -9.560   8.828  67.055  1.00  0.00    -0.236 C  
BRANCH  24  25
HETATM   25  C   UNL     1      -9.494  10.271  67.548  1.00  0.00    -0.171 C  
BRANCH  25  26
HETATM   26  C   UNL     1     -10.483  10.503  68.666  1.00  0.00    -0.191 C  
HETATM   27  O   UNL     1     -10.939  11.588  68.990  1.00  0.00    -0.214 OA 
BRANCH  26  28
HETATM   28  O   UNL     1     -10.795   9.320  69.261  1.00  0.00    -0.221 OA 
HETATM   29  C   UNL     1     -10.929   9.419  70.679  1.00  0.00    -0.290 C  
ENDBRANCH  26  28
ENDBRANCH  25  26
ENDBRANCH  24  25
ENDBRANCH  23  24
ENDBRANCH  22  23
ENDBRANCH  21  22
ENDBRANCH  20  21
ENDBRANCH  19  20
ENDBRANCH  11  12
ENDBRANCH   8  10
ENDBRANCH   3   4
ENDBRANCH   2   3
TORSDOF 12
ENDMDL
MODEL      267
REMARK 921   NORMALIZED FREE ENERGY PREDICTED BY IDOCK:   -2.13 KCAL/MOL
REMARK 922        TOTAL FREE ENERGY PREDICTED BY IDOCK:   -5.66 KCAL/MOL
REMARK 923 INTER-LIGAND FREE ENERGY PREDICTED BY IDOCK:   -4.22 KCAL/MOL
REMARK 924 INTRA-LIGAND FREE ENERGY PREDICTED BY IDOCK:   -1.44 KCAL/MOL
REMARK 927      BINDING AFFINITY PREDICTED BY RF-SCORE:    0.00 PKD
ROOT
HETATM    1  C   UNL     1      -7.245   5.442  63.552  1.00  0.00    -0.049 C  
HETATM    2  C   UNL     1      -7.403   4.243  64.477  1.00  0.00    -0.071 C  
ENDROOT
BRANCH   2   3
HETATM    3  C   UNL     1      -8.769   4.273  65.154  1.00  0.00    -0.126 C  
BRANCH   3   4
HETATM    4  C   UNL     1      -9.208   5.696  65.527  1.00  0.00    -0.022 C  
HETATM    5  C   UNL     1      -9.354   5.906  67.053  1.00  0.00    -0.120 C  
HETATM    6  O   UNL     1     -10.383   5.024  67.522  1.00  0.00    -0.160 OA 
HETATM    7  C   UNL     1      -9.799   7.348  67.338  1.00  0.00    -0.219 C  
HETATM    8  C   UNL     1      -8.026   5.564  67.775  1.00  0.00    -0.101 C  
HETATM    9  H   UNL     1     -10.474   5.153  68.459  1.00  0.00     0.000 HD 
BRANCH   8  10
HETATM   10  C   UNL     1      -7.973   5.876  69.244  1.00  0.00    -0.099 C  
HETATM   11  C   UNL     1      -8.669   5.213  70.183  1.00  0.00    -0.128 C  
BRANCH  11  12
HETATM   12  C   UNL     1      -8.651   5.486  71.665  1.00  0.00    -0.132 C  
HETATM   13  C   UNL     1      -9.346   4.351  72.436  1.00  0.00    -0.126 C  
HETATM   14  C   UNL     1      -8.856   4.480  73.866  1.00  0.00    -0.104 C  
HETATM   15  O   UNL     1     -10.764   4.464  72.387  1.00  0.00    -0.150 OA 
HETATM   16  H   UNL     1     -11.193   3.763  72.863  1.00  0.00     0.000 HD 
HETATM   17  C   UNL     1      -7.472   5.013  73.675  1.00  0.00    -0.091 C  
HETATM   18  O   UNL     1      -6.612   4.940  74.546  1.00  0.00    -0.066 OA 
HETATM   19  C   UNL     1      -7.248   5.621  72.304  1.00  0.00    -0.089 C  
BRANCH  19  20
HETATM   20  C   UNL     1      -6.787   7.082  72.325  1.00  0.00    -0.061 C  
BRANCH  20  21
HETATM   21  C   UNL     1      -7.786   7.996  73.035  1.00  0.00    -0.199 C  
BRANCH  21  22
HETATM   22  C   UNL     1      -8.789   8.611  72.064  1.00  0.00    -0.264 C  
BRANCH  22  23
HETATM   23  C   UNL     1     -10.218   8.407  72.574  1.00  0.00    -0.369 C  
BRANCH  23  24
HETATM   24  C   UNL     1     -11.214   8.476  71.422  1.00  0.00    -0.327 C  
BRANCH  24  25
HETATM   25  C   UNL     1     -12.170   9.657  71.563  1.00  0.00    -0.483 C  
BRANCH  25  26
HETATM   26  C   UNL     1     -11.738  10.806  70.684  1.00  0.00    -0.342 C  
HETATM   27  O   UNL     1     -10.644  10.915  70.153  1.00  0.00    -0.051 OA 
BRANCH  26  28
HETATM   28  O   UNL     1     -12.751  11.708  70.567  1.00  0.00    -0.188 OA 
HETATM   29  C   UNL     1     -13.476  11.903  71.781  1.00  0.00    -0.086 C  
ENDBRANCH  26  28
ENDBRANCH  25  26
ENDBRANCH  24  25
ENDBRANCH  23  24
ENDBRANCH  22  23
ENDBRANCH  21  22
ENDBRANCH  20  21
ENDBRANCH  19  20
ENDBRANCH  11  12
ENDBRANCH   8  10
ENDBRANCH   3   4
ENDBRANCH   2   3
TORSDOF 12
ENDMDL
MODEL      268
REMARK 921   NORMALIZED FREE ENERGY PREDICTED BY IDOCK:   -2.09 KCAL/MOL
REMARK 922        TOTAL FREE ENERGY PREDICTED BY IDOCK:   -5.60 KCAL/MOL
REMARK 923 INTER-LIGAND FREE ENERGY PREDICTED BY IDOCK:   -4.02 KCAL/MOL
REMARK 924 INTRA-LIGAND FREE ENERGY PREDICTED BY IDOCK:   -1.58 KCAL/MOL
REMARK 927      BINDING AFFINITY PREDICTED BY RF-SCORE:    0.00 PKD
ROOT
HETATM    1  C   UNL     1      -7.705  10.368  62.665  1.00  0.00    -0.157 C  
HETATM    2  C   UNL     1      -9.205  10.599  62.541  1.00  0.00    -0.323 C  
ENDROOT
BRANCH   2   3
HETATM    3  C   UNL     1      -9.908  10.214  63.839  1.00  0.00    -0.129 C  
BRANCH   3   4
HETATM    4  C   UNL     1      -8.933  10.078  65.016  1.00  0.00    -0.234 C  
HETATM    5  C   UNL     1      -8.966   8.677  65.674  1.00  0.00    -0.182 C  
HETATM    6  O   UNL     1     -10.283   8.472  66.205  1.00  0.00    -0.446 OA 
HETATM    7  C   UNL     1      -7.970   8.629  66.841  1.00  0.00    -0.095 C  
HETATM    8  C   UNL     1      -8.668   7.580  64.620  1.00  0.00     0.344 C  
HETATM    9  H   UNL     1     -10.303   7.612  66.609  1.00  0.00     0.000 HD 
BRANCH   8  10
HETATM   10  C   UNL     1      -8.508   6.183  65.150  1.00  0.00    -0.101 C  
HETATM   11  C   UNL     1      -9.182   5.118  64.685  1.00  0.00     0.090 C  
BRANCH  11  12
HETATM   12  C   UNL     1      -9.059   3.699  65.180  1.00  0.00    -0.143 C  
HETATM   13  C   UNL     1      -8.184   2.865  64.228  1.00  0.00    -0.083 C  
HETATM   14  C   UNL     1      -7.746   1.661  65.039  1.00  0.00    -0.067 C  
HETATM   15  O   UNL     1      -8.903   2.448  63.073  1.00  0.00    -0.084 OA 
HETATM   16  H   UNL     1      -8.363   1.933  62.485  1.00  0.00     0.000 HD 
HETATM   17  C   UNL     1      -7.661   2.229  66.421  1.00  0.00    -0.071 C  
HETATM   18  O   UNL     1      -7.021   1.690  67.316  1.00  0.00    -0.037 OA 
HETATM   19  C   UNL     1      -8.422   3.531  66.580  1.00  0.00    -0.108 C  
BRANCH  19  20
HETATM   20  C   UNL     1      -9.492   3.511  67.677  1.00  0.00    -0.233 C  
BRANCH  20  21
HETATM   21  C   UNL     1      -9.046   4.256  68.936  1.00  0.00    -0.183 C  
BRANCH  21  22
HETATM   22  C   UNL     1      -9.678   3.677  70.197  1.00  0.00    -0.188 C  
BRANCH  22  23
HETATM   23  C   UNL     1      -9.263   4.492  71.424  1.00  0.00    -0.189 C  
BRANCH  23  24
HETATM   24  C   UNL     1      -9.060   5.957  71.053  1.00  0.00    -0.156 C  
BRANCH  24  25
HETATM   25  C   UNL     1     -10.100   6.861  71.710  1.00  0.00    -0.198 C  
BRANCH  25  26
HETATM   26  C   UNL     1     -10.661   7.847  70.712  1.00  0.00    -0.223 C  
HETATM   27  O   UNL     1     -10.084   8.245  69.713  1.00  0.00    -0.189 OA 
BRANCH  26  28
HETATM   28  O   UNL     1     -11.912   8.227  71.090  1.00  0.00    -0.286 OA 
HETATM   29  C   UNL     1     -12.811   7.130  71.255  1.00  0.00    -0.349 C  
ENDBRANCH  26  28
ENDBRANCH  25  26
ENDBRANCH  24  25
ENDBRANCH  23  24
ENDBRANCH  22  23
ENDBRANCH  21  22
ENDBRANCH  20  21
ENDBRANCH  19  20
ENDBRANCH  11  12
ENDBRANCH   8  10
ENDBRANCH   3   4
ENDBRANCH   2   3
TORSDOF 12
ENDMDL
MODEL      269
REMARK 921   NORMALIZED FREE ENERGY PREDICTED BY IDOCK:   -1.99 KCAL/MOL
REMARK 922        TOTAL FREE ENERGY PREDICTED BY IDOCK:   -5.43 KCAL/MOL
REMARK 923 INTER-LIGAND FREE ENERGY PREDICTED BY IDOCK:   -4.08 KCAL/MOL
REMARK 924 INTRA-LIGAND FREE ENERGY PREDICTED BY IDOCK:   -1.35 KCAL/MOL
REMARK 927      BINDING AFFINITY PREDICTED BY RF-SCORE:    0.00 PKD
ROOT
HETATM    1  C   UNL     1      -8.392  10.056  62.897  1.00  0.00    -0.166 C  
HETATM    2  C   UNL     1      -8.318   8.643  62.335  1.00  0.00    -0.200 C  
ENDROOT
BRANCH   2   3
HETATM    3  C   UNL     1      -7.372   7.789  63.174  1.00  0.00    -0.104 C  
BRANCH   3   4
HETATM    4  C   UNL     1      -8.039   6.505  63.686  1.00  0.00    -0.014 C  
HETATM    5  C   UNL     1      -8.011   6.380  65.229  1.00  0.00    -0.114 C  
HETATM    6  O   UNL     1      -6.638   6.321  65.640  1.00  0.00    -0.044 OA 
HETATM    7  C   UNL     1      -8.692   5.071  65.655  1.00  0.00    -0.139 C  
HETATM    8  C   UNL     1      -8.683   7.614  65.883  1.00  0.00    -0.176 C  
HETATM    9  H   UNL     1      -6.621   6.244  66.587  1.00  0.00     0.000 HD 
BRANCH   8  10
HETATM   10  C   UNL     1      -8.872   7.551  67.372  1.00  0.00    -0.127 C  
HETATM   11  C   UNL     1      -9.884   8.139  68.031  1.00  0.00    -0.200 C  
BRANCH  11  12
HETATM   12  C   UNL     1     -10.118   8.106  69.519  1.00  0.00    -0.193 C  
HETATM   13  C   UNL     1     -10.818   6.800  69.932  1.00  0.00    -0.266 C  
HETATM   14  C   UNL     1     -10.567   6.665  71.422  1.00  0.00    -0.255 C  
HETATM   15  O   UNL     1     -12.216   6.838  69.667  1.00  0.00    -0.504 OA 
HETATM   16  H   UNL     1     -12.649   6.032  69.922  1.00  0.00     0.000 HD 
HETATM   17  C   UNL     1      -9.223   7.304  71.571  1.00  0.00    -0.144 C  
HETATM   18  O   UNL     1      -8.505   7.106  72.544  1.00  0.00    -0.111 OA 
HETATM   19  C   UNL     1      -8.848   8.189  70.399  1.00  0.00    -0.141 C  
BRANCH  19  20
HETATM   20  C   UNL     1      -8.529   9.641  70.775  1.00  0.00     0.069 C  
BRANCH  20  21
HETATM   21  C   UNL     1      -7.805  10.385  69.653  1.00  0.00    -0.138 C  
BRANCH  21  22
HETATM   22  C   UNL     1      -8.698  11.427  68.988  1.00  0.00     0.079 C  
BRANCH  22  23
HETATM   23  C   UNL     1      -7.849  12.541  68.371  1.00  0.00    -0.141 C  
BRANCH  23  24
HETATM   24  C   UNL     1      -8.480  13.904  68.632  1.00  0.00    -0.082 C  
BRANCH  24  25
HETATM   25  C   UNL     1      -7.803  15.011  67.827  1.00  0.00    -0.161 C  
BRANCH  25  26
HETATM   26  C   UNL     1      -8.730  15.542  66.760  1.00  0.00    -0.267 C  
HETATM   27  O   UNL     1      -9.111  14.919  65.782  1.00  0.00    -0.121 OA 
BRANCH  26  28
HETATM   28  O   UNL     1      -9.083  16.825  67.049  1.00  0.00    -0.213 OA 
HETATM   29  C   UNL     1      -7.980  17.638  67.449  1.00  0.00    -0.206 C  
ENDBRANCH  26  28
ENDBRANCH  25  26
ENDBRANCH  24  25
ENDBRANCH  23  24
ENDBRANCH  22  23
ENDBRANCH  21  22
ENDBRANCH  20  21
ENDBRANCH  19  20
ENDBRANCH  11  12
ENDBRANCH   8  10
ENDBRANCH   3   4
ENDBRANCH   2   3
TORSDOF 12
ENDMDL
MODEL      270
REMARK 921   NORMALIZED FREE ENERGY PREDICTED BY IDOCK:   -1.97 KCAL/MOL
REMARK 922        TOTAL FREE ENERGY PREDICTED BY IDOCK:   -5.39 KCAL/MOL
REMARK 923 INTER-LIGAND FREE ENERGY PREDICTED BY IDOCK:   -4.68 KCAL/MOL
REMARK 924 INTRA-LIGAND FREE ENERGY PREDICTED BY IDOCK:   -0.71 KCAL/MOL
REMARK 927      BINDING AFFINITY PREDICTED BY RF-SCORE:    0.00 PKD
ROOT
HETATM    1  C   UNL     1     -10.398  19.328  66.205  1.00  0.00    -0.566 C  
HETATM    2  C   UNL     1      -9.134  19.250  67.050  1.00  0.00    -0.339 C  
ENDROOT
BRANCH   2   3
HETATM    3  C   UNL     1      -8.961  17.845  67.616  1.00  0.00    -0.250 C  
BRANCH   3   4
HETATM    4  C   UNL     1     -10.120  17.437  68.537  1.00  0.00    -0.352 C  
HETATM    5  C   UNL     1     -10.665  16.020  68.236  1.00  0.00    -0.298 C  
HETATM    6  O   UNL     1     -11.185  16.024  66.899  1.00  0.00    -0.125 OA 
HETATM    7  C   UNL     1     -11.820  15.694  69.194  1.00  0.00    -0.378 C  
HETATM    8  C   UNL     1      -9.527  14.972  68.333  1.00  0.00    -0.201 C  
HETATM    9  H   UNL     1     -11.520  15.154  66.714  1.00  0.00     0.000 HD 
BRANCH   8  10
HETATM   10  C   UNL     1      -9.944  13.533  68.223  1.00  0.00    -0.237 C  
HETATM   11  C   UNL     1     -11.125  13.124  67.730  1.00  0.00    -0.287 C  
BRANCH  11  12
HETATM   12  C   UNL     1     -11.590  11.696  67.598  1.00  0.00    -0.349 C  
HETATM   13  C   UNL     1     -11.169  11.109  66.239  1.00  0.00    -0.015 C  
HETATM   14  C   UNL     1     -11.250   9.604  66.411  1.00  0.00     0.972 C  
HETATM   15  O   UNL     1     -12.027  11.534  65.186  1.00  0.00    -0.056 OA 
HETATM   16  H   UNL     1     -11.767  11.172  64.347  1.00  0.00     0.000 HD 
HETATM   17  C   UNL     1     -10.899   9.435  67.855  1.00  0.00    -0.154 C  
HETATM   18  O   UNL     1     -10.517   8.367  68.319  1.00  0.00    -0.206 OA 
HETATM   19  C   UNL     1     -11.043  10.712  68.659  1.00  0.00    -0.315 C  
BRANCH  19  20
HETATM   20  C   UNL     1     -11.994  10.605  69.857  1.00  0.00    -0.385 C  
BRANCH  20  21
HETATM   21  C   UNL     1     -11.255  10.288  71.157  1.00  0.00    -0.116 C  
BRANCH  21  22
HETATM   22  C   UNL     1     -11.325   8.806  71.509  1.00  0.00    -0.375 C  
BRANCH  22  23
HETATM   23  C   UNL     1      -9.923   8.190  71.504  1.00  0.00    -0.237 C  
BRANCH  23  24
HETATM   24  C   UNL     1      -8.871   9.251  71.201  1.00  0.00    -0.139 C  
BRANCH  24  25
HETATM   25  C   UNL     1      -7.650   8.661  70.502  1.00  0.00    -0.077 C  
BRANCH  25  26
HETATM   26  C   UNL     1      -7.145   9.593  69.426  1.00  0.00    -0.062 C  
HETATM   27  O   UNL     1      -6.970   9.290  68.256  1.00  0.00    -0.070 OA 
BRANCH  26  28
HETATM   28  O   UNL     1      -6.914  10.827  69.952  1.00  0.00    -0.149 OA 
HETATM   29  C   UNL     1      -5.964  10.818  71.017  1.00  0.00     0.088 C  
ENDBRANCH  26  28
ENDBRANCH  25  26
ENDBRANCH  24  25
ENDBRANCH  23  24
ENDBRANCH  22  23
ENDBRANCH  21  22
ENDBRANCH  20  21
ENDBRANCH  19  20
ENDBRANCH  11  12
ENDBRANCH   8  10
ENDBRANCH   3   4
ENDBRANCH   2   3
TORSDOF 12
ENDMDL
MODEL      271
REMARK 921   NORMALIZED FREE ENERGY PREDICTED BY IDOCK:   -1.96 KCAL/MOL
REMARK 922        TOTAL FREE ENERGY PREDICTED BY IDOCK:   -5.37 KCAL/MOL
REMARK 923 INTER-LIGAND FREE ENERGY PREDICTED BY IDOCK:   -5.01 KCAL/MOL
REMARK 924 INTRA-LIGAND FREE ENERGY PREDICTED BY IDOCK:   -0.37 KCAL/MOL
REMARK 927      BINDING AFFINITY PREDICTED BY RF-SCORE:    0.00 PKD
ROOT
HETATM    1  C   UNL     1     -11.753  15.767  64.172  1.00  0.00    -0.070 C  
HETATM    2  C   UNL     1     -12.323  14.361  64.293  1.00  0.00    -0.402 C  
ENDROOT
BRANCH   2   3
HETATM    3  C   UNL     1     -12.009  13.780  65.668  1.00  0.00    -0.410 C  
BRANCH   3   4
HETATM    4  C   UNL     1     -10.544  13.342  65.800  1.00  0.00    -0.286 C  
HETATM    5  C   UNL     1     -10.273  12.497  67.068  1.00  0.00    -0.221 C  
HETATM    6  O   UNL     1     -10.562  13.314  68.211  1.00  0.00    -0.237 OA 
HETATM    7  C   UNL     1      -8.789  12.107  67.124  1.00  0.00    -0.191 C  
HETATM    8  C   UNL     1     -11.194  11.251  67.092  1.00  0.00    -0.344 C  
HETATM    9  H   UNL     1     -10.395  12.796  68.989  1.00  0.00     0.000 HD 
BRANCH   8  10
HETATM   10  C   UNL     1     -10.928  10.254  68.185  1.00  0.00    -0.328 C  
HETATM   11  C   UNL     1     -10.146   9.171  68.045  1.00  0.00    -0.238 C  
BRANCH  11  12
HETATM   12  C   UNL     1      -9.847   8.144  69.107  1.00  0.00    -0.182 C  
HETATM   13  C   UNL     1     -11.018   8.029  70.098  1.00  0.00    -0.226 C  
HETATM   14  C   UNL     1     -10.828   6.692  70.789  1.00  0.00    -0.299 C  
HETATM   15  O   UNL     1     -11.013   9.084  71.053  1.00  0.00    -0.242 OA 
HETATM   16  H   UNL     1     -11.737   9.013  71.665  1.00  0.00     0.000 HD 
HETATM   17  C   UNL     1     -10.196   5.870  69.711  1.00  0.00    -0.218 C  
HETATM   18  O   UNL     1     -10.189   4.645  69.736  1.00  0.00    -0.234 OA 
HETATM   19  C   UNL     1      -9.596   6.705  68.597  1.00  0.00    -0.130 C  
BRANCH  19  20
HETATM   20  C   UNL     1      -8.104   6.458  68.349  1.00  0.00    -0.113 C  
BRANCH  20  21
HETATM   21  C   UNL     1      -7.732   4.980  68.480  1.00  0.00    -0.079 C  
BRANCH  21  22
HETATM   22  C   UNL     1      -6.511   4.621  67.640  1.00  0.00    -0.045 C  
BRANCH  22  23
HETATM   23  C   UNL     1      -6.932   3.844  66.391  1.00  0.00    -0.059 C  
BRANCH  23  24
HETATM   24  C   UNL     1      -6.585   4.625  65.129  1.00  0.00    -0.044 C  
BRANCH  24  25
HETATM   25  C   UNL     1      -7.761   5.460  64.632  1.00  0.00    -0.090 C  
BRANCH  25  26
HETATM   26  C   UNL     1      -7.279   6.640  63.822  1.00  0.00    -0.065 C  
HETATM   27  O   UNL     1      -6.187   6.726  63.282  1.00  0.00    -0.040 OA 
BRANCH  26  28
HETATM   28  O   UNL     1      -8.243   7.600  63.780  1.00  0.00    -0.081 OA 
HETATM   29  C   UNL     1      -7.855   8.819  64.413  1.00  0.00    -0.132 C  
ENDBRANCH  26  28
ENDBRANCH  25  26
ENDBRANCH  24  25
ENDBRANCH  23  24
ENDBRANCH  22  23
ENDBRANCH  21  22
ENDBRANCH  20  21
ENDBRANCH  19  20
ENDBRANCH  11  12
ENDBRANCH   8  10
ENDBRANCH   3   4
ENDBRANCH   2   3
TORSDOF 12
ENDMDL
MODEL      272
REMARK 921   NORMALIZED FREE ENERGY PREDICTED BY IDOCK:   -1.89 KCAL/MOL
REMARK 922        TOTAL FREE ENERGY PREDICTED BY IDOCK:   -5.26 KCAL/MOL
REMARK 923 INTER-LIGAND FREE ENERGY PREDICTED BY IDOCK:   -5.08 KCAL/MOL
REMARK 924 INTRA-LIGAND FREE ENERGY PREDICTED BY IDOCK:   -0.17 KCAL/MOL
REMARK 927      BINDING AFFINITY PREDICTED BY RF-SCORE:    0.00 PKD
ROOT
HETATM    1  C   UNL     1      -9.394   8.631  71.398  1.00  0.00    -0.305 C  
HETATM    2  C   UNL     1      -8.606   7.605  70.594  1.00  0.00    -0.135 C  
ENDROOT
BRANCH   2   3
HETATM    3  C   UNL     1      -7.183   8.099  70.355  1.00  0.00    -0.048 C  
BRANCH   3   4
HETATM    4  C   UNL     1      -6.901   8.386  68.874  1.00  0.00    -0.061 C  
HETATM    5  C   UNL     1      -7.820   9.482  68.282  1.00  0.00    -0.086 C  
HETATM    6  O   UNL     1      -9.172   9.011  68.359  1.00  0.00    -0.136 OA 
HETATM    7  C   UNL     1      -7.477   9.703  66.802  1.00  0.00    -0.094 C  
HETATM    8  C   UNL     1      -7.693  10.792  69.101  1.00  0.00    -0.138 C  
HETATM    9  H   UNL     1      -9.736   9.684  67.996  1.00  0.00     0.000 HD 
BRANCH   8  10
HETATM   10  C   UNL     1      -8.407  11.991  68.543  1.00  0.00    -0.104 C  
HETATM   11  C   UNL     1      -8.904  12.990  69.291  1.00  0.00     0.937 C  
BRANCH  11  12
HETATM   12  C   UNL     1      -9.626  14.211  68.783  1.00  0.00    -0.122 C  
HETATM   13  C   UNL     1     -11.149  13.998  68.818  1.00  0.00    -0.264 C  
HETATM   14  C   UNL     1     -11.749  15.390  68.758  1.00  0.00    -0.369 C  
HETATM   15  O   UNL     1     -11.603  13.216  67.719  1.00  0.00    -0.296 OA 
HETATM   16  H   UNL     1     -12.544  13.084  67.741  1.00  0.00     0.000 HD 
HETATM   17  C   UNL     1     -10.721  16.205  69.477  1.00  0.00    -0.313 C  
HETATM   18  O   UNL     1     -10.968  17.308  69.949  1.00  0.00     0.124 OA 
HETATM   19  C   UNL     1      -9.374  15.517  69.573  1.00  0.00    -0.276 C  
BRANCH  19  20
HETATM   20  C   UNL     1      -8.209  16.312  68.972  1.00  0.00    -0.238 C  
BRANCH  20  21
HETATM   21  C   UNL     1      -8.678  17.324  67.925  1.00  0.00    -0.231 C  
BRANCH  21  22
HETATM   22  C   UNL     1      -9.268  16.642  66.695  1.00  0.00    -0.277 C  
BRANCH  22  23
HETATM   23  C   UNL     1     -10.368  17.511  66.080  1.00  0.00    -0.309 C  
BRANCH  23  24
HETATM   24  C   UNL     1     -11.110  16.746  64.990  1.00  0.00    -0.063 C  
BRANCH  24  25
HETATM   25  C   UNL     1     -10.712  15.273  64.953  1.00  0.00    -0.423 C  
BRANCH  25  26
HETATM   26  C   UNL     1     -11.902  14.403  64.628  1.00  0.00    -0.451 C  
HETATM   27  O   UNL     1     -12.895  14.765  64.017  1.00  0.00    -0.697 OA 
BRANCH  26  28
HETATM   28  O   UNL     1     -11.706  13.147  65.115  1.00  0.00    -0.313 OA 
HETATM   29  C   UNL     1     -11.715  12.140  64.103  1.00  0.00    -0.396 C  
ENDBRANCH  26  28
ENDBRANCH  25  26
ENDBRANCH  24  25
ENDBRANCH  23  24
ENDBRANCH  22  23
ENDBRANCH  21  22
ENDBRANCH  20  21
ENDBRANCH  19  20
ENDBRANCH  11  12
ENDBRANCH   8  10
ENDBRANCH   3   4
ENDBRANCH   2   3
TORSDOF 12
ENDMDL
MODEL      273
REMARK 921   NORMALIZED FREE ENERGY PREDICTED BY IDOCK:   -1.84 KCAL/MOL
REMARK 922        TOTAL FREE ENERGY PREDICTED BY IDOCK:   -5.16 KCAL/MOL
REMARK 923 INTER-LIGAND FREE ENERGY PREDICTED BY IDOCK:   -3.42 KCAL/MOL
REMARK 924 INTRA-LIGAND FREE ENERGY PREDICTED BY IDOCK:   -1.74 KCAL/MOL
REMARK 927      BINDING AFFINITY PREDICTED BY RF-SCORE:    0.00 PKD
ROOT
HETATM    1  C   UNL     1      -8.375   8.083  74.040  1.00  0.00    -0.323 C  
HETATM    2  C   UNL     1      -9.713   7.549  73.547  1.00  0.00    -0.358 C  
ENDROOT
BRANCH   2   3
HETATM    3  C   UNL     1      -9.562   6.946  72.154  1.00  0.00    -0.154 C  
BRANCH   3   4
HETATM    4  C   UNL     1      -9.628   5.413  72.168  1.00  0.00    -0.181 C  
HETATM    5  C   UNL     1      -9.570   4.789  70.753  1.00  0.00    -0.179 C  
HETATM    6  O   UNL     1     -10.720   5.242  70.025  1.00  0.00    -0.287 OA 
HETATM    7  C   UNL     1      -9.646   3.259  70.858  1.00  0.00    -0.234 C  
HETATM    8  C   UNL     1      -8.288   5.249  70.013  1.00  0.00    -0.098 C  
HETATM    9  H   UNL     1     -10.685   4.859  69.157  1.00  0.00     0.000 HD 
BRANCH   8  10
HETATM   10  C   UNL     1      -8.020   4.593  68.688  1.00  0.00    -0.079 C  
HETATM   11  C   UNL     1      -8.718   4.840  67.567  1.00  0.00    -0.104 C  
BRANCH  11  12
HETATM   12  C   UNL     1      -8.489   4.211  66.217  1.00  0.00    -0.109 C  
HETATM   13  C   UNL     1      -9.044   2.777  66.183  1.00  0.00    -0.118 C  
HETATM   14  C   UNL     1      -9.196   2.442  64.711  1.00  0.00    -0.139 C  
HETATM   15  O   UNL     1      -8.167   1.851  66.813  1.00  0.00    -0.075 OA 
HETATM   16  H   UNL     1      -8.511   0.965  66.793  1.00  0.00     0.000 HD 
HETATM   17  C   UNL     1      -9.518   3.776  64.118  1.00  0.00    -0.156 C  
HETATM   18  O   UNL     1     -10.047   3.898  63.019  1.00  0.00    -0.161 OA 
HETATM   19  C   UNL     1      -9.146   4.937  65.019  1.00  0.00    -0.133 C  
BRANCH  19  20
HETATM   20  C   UNL     1      -8.183   5.948  64.387  1.00  0.00    -0.099 C  
BRANCH  20  21
HETATM   21  C   UNL     1      -6.719   5.614  64.677  1.00  0.00    -0.046 C  
BRANCH  21  22
HETATM   22  C   UNL     1      -5.882   6.866  64.917  1.00  0.00    -0.036 C  
BRANCH  22  23
HETATM   23  C   UNL     1      -6.714   7.933  65.633  1.00  0.00    -0.045 C  
BRANCH  23  24
HETATM   24  C   UNL     1      -6.666   7.727  67.143  1.00  0.00    -0.068 C  
BRANCH  24  25
HETATM   25  C   UNL     1      -6.082   8.938  67.867  1.00  0.00    -0.051 C  
BRANCH  25  26
HETATM   26  C   UNL     1      -5.904   8.649  69.338  1.00  0.00    -0.034 C  
HETATM   27  O   UNL     1      -5.352   7.664  69.802  1.00  0.00    -0.022 OA 
BRANCH  26  28
HETATM   28  O   UNL     1      -6.450   9.654  70.077  1.00  0.00    -0.052 OA 
HETATM   29  C   UNL     1      -5.618  10.077  71.157  1.00  0.00    -0.076 C  
ENDBRANCH  26  28
ENDBRANCH  25  26
ENDBRANCH  24  25
ENDBRANCH  23  24
ENDBRANCH  22  23
ENDBRANCH  21  22
ENDBRANCH  20  21
ENDBRANCH  19  20
ENDBRANCH  11  12
ENDBRANCH   8  10
ENDBRANCH   3   4
ENDBRANCH   2   3
TORSDOF 12
ENDMDL
MODEL      274
REMARK 921   NORMALIZED FREE ENERGY PREDICTED BY IDOCK:   -1.82 KCAL/MOL
REMARK 922        TOTAL FREE ENERGY PREDICTED BY IDOCK:   -5.14 KCAL/MOL
REMARK 923 INTER-LIGAND FREE ENERGY PREDICTED BY IDOCK:   -4.76 KCAL/MOL
REMARK 924 INTRA-LIGAND FREE ENERGY PREDICTED BY IDOCK:   -0.38 KCAL/MOL
REMARK 927      BINDING AFFINITY PREDICTED BY RF-SCORE:    0.00 PKD
ROOT
HETATM    1  C   UNL     1     -11.745  15.797  64.140  1.00  0.00    -0.070 C  
HETATM    2  C   UNL     1     -12.360  14.430  64.408  1.00  0.00    -0.428 C  
ENDROOT
BRANCH   2   3
HETATM    3  C   UNL     1     -11.851  13.871  65.733  1.00  0.00    -0.393 C  
BRANCH   3   4
HETATM    4  C   UNL     1     -10.477  13.201  65.598  1.00  0.00    -0.290 C  
HETATM    5  C   UNL     1     -10.036  12.455  66.880  1.00  0.00    -0.215 C  
HETATM    6  O   UNL     1      -9.919  13.422  67.933  1.00  0.00    -0.223 OA 
HETATM    7  C   UNL     1      -8.654  11.821  66.661  1.00  0.00    -0.170 C  
HETATM    8  C   UNL     1     -11.095  11.397  67.280  1.00  0.00    -0.363 C  
HETATM    9  H   UNL     1      -9.648  12.964  68.720  1.00  0.00     0.000 HD 
BRANCH   8  10
HETATM   10  C   UNL     1     -10.722  10.485  68.415  1.00  0.00    -0.262 C  
HETATM   11  C   UNL     1     -10.302   9.219  68.260  1.00  0.00    -0.257 C  
BRANCH  11  12
HETATM   12  C   UNL     1      -9.916   8.266  69.362  1.00  0.00    -0.188 C  
HETATM   13  C   UNL     1     -10.514   8.717  70.706  1.00  0.00    -0.219 C  
HETATM   14  C   UNL     1     -10.478   7.487  71.593  1.00  0.00    -0.226 C  
HETATM   15  O   UNL     1      -9.765   9.774  71.295  1.00  0.00    -0.264 OA 
HETATM   16  H   UNL     1     -10.134  10.052  72.125  1.00  0.00     0.000 HD 
HETATM   17  C   UNL     1     -10.669   6.382  70.603  1.00  0.00    -0.257 C  
HETATM   18  O   UNL     1     -11.040   5.261  70.930  1.00  0.00    -0.061 OA 
HETATM   19  C   UNL     1     -10.379   6.802  69.175  1.00  0.00    -0.213 C  
BRANCH  19  20
HETATM   20  C   UNL     1      -9.303   5.966  68.473  1.00  0.00    -0.127 C  
BRANCH  20  21
HETATM   21  C   UNL     1      -9.424   4.476  68.795  1.00  0.00    -0.221 C  
BRANCH  21  22
HETATM   22  C   UNL     1      -8.200   3.950  69.537  1.00  0.00    -0.066 C  
BRANCH  22  23
HETATM   23  C   UNL     1      -7.302   3.155  68.585  1.00  0.00    -0.049 C  
BRANCH  23  24
HETATM   24  C   UNL     1      -5.943   3.831  68.439  1.00  0.00    -0.027 C  
BRANCH  24  25
HETATM   25  C   UNL     1      -5.925   4.832  67.287  1.00  0.00    -0.023 C  
BRANCH  25  26
HETATM   26  C   UNL     1      -6.440   4.199  66.016  1.00  0.00    -0.037 C  
HETATM   27  O   UNL     1      -7.586   4.279  65.603  1.00  0.00    -0.083 OA 
BRANCH  26  28
HETATM   28  O   UNL     1      -5.435   3.524  65.394  1.00  0.00    -0.009 OA 
HETATM   29  C   UNL     1      -5.687   2.124  65.270  1.00  0.00    -0.017 C  
ENDBRANCH  26  28
ENDBRANCH  25  26
ENDBRANCH  24  25
ENDBRANCH  23  24
ENDBRANCH  22  23
ENDBRANCH  21  22
ENDBRANCH  20  21
ENDBRANCH  19  20
ENDBRANCH  11  12
ENDBRANCH   8  10
ENDBRANCH   3   4
ENDBRANCH   2   3
TORSDOF 12
ENDMDL
MODEL      275
REMARK 921   NORMALIZED FREE ENERGY PREDICTED BY IDOCK:   -1.80 KCAL/MOL
REMARK 922        TOTAL FREE ENERGY PREDICTED BY IDOCK:   -5.10 KCAL/MOL
REMARK 923 INTER-LIGAND FREE ENERGY PREDICTED BY IDOCK:   -3.52 KCAL/MOL
REMARK 924 INTRA-LIGAND FREE ENERGY PREDICTED BY IDOCK:   -1.59 KCAL/MOL
REMARK 927      BINDING AFFINITY PREDICTED BY RF-SCORE:    0.00 PKD
ROOT
HETATM    1  C   UNL     1      -8.105  11.682  65.132  1.00  0.00     0.995 C  
HETATM    2  C   UNL     1      -8.677  12.740  66.066  1.00  0.00     0.489 C  
ENDROOT
BRANCH   2   3
HETATM    3  C   UNL     1     -10.199  12.759  65.976  1.00  0.00    -0.290 C  
BRANCH   3   4
HETATM    4  C   UNL     1     -10.861  13.124  67.311  1.00  0.00    -0.270 C  
HETATM    5  C   UNL     1     -11.057  11.906  68.246  1.00  0.00    -0.239 C  
HETATM    6  O   UNL     1     -11.939  10.985  67.589  1.00  0.00    -0.619 OA 
HETATM    7  C   UNL     1     -11.728  12.356  69.552  1.00  0.00    -0.388 C  
HETATM    8  C   UNL     1      -9.700  11.205  68.511  1.00  0.00    -0.196 C  
HETATM    9  H   UNL     1     -12.060  10.238  68.162  1.00  0.00     0.000 HD 
BRANCH   8  10
HETATM   10  C   UNL     1      -9.715  10.102  69.531  1.00  0.00    -0.251 C  
HETATM   11  C   UNL     1      -8.793   9.128  69.603  1.00  0.00    -0.152 C  
BRANCH  11  12
HETATM   12  C   UNL     1      -8.762   8.002  70.604  1.00  0.00    -0.131 C  
HETATM   13  C   UNL     1      -7.814   8.335  71.769  1.00  0.00    -0.118 C  
HETATM   14  C   UNL     1      -8.221   7.404  72.895  1.00  0.00    -0.136 C  
HETATM   15  O   UNL     1      -6.450   8.125  71.423  1.00  0.00    -0.038 OA 
HETATM   16  H   UNL     1      -5.864   8.331  72.142  1.00  0.00     0.000 HD 
HETATM   17  C   UNL     1      -9.691   7.255  72.662  1.00  0.00    -0.159 C  
HETATM   18  O   UNL     1     -10.460   6.867  73.533  1.00  0.00    -0.289 OA 
HETATM   19  C   UNL     1     -10.118   7.653  71.262  1.00  0.00    -0.203 C  
BRANCH  19  20
HETATM   20  C   UNL     1     -10.844   6.551  70.483  1.00  0.00    -0.323 C  
BRANCH  20  21
HETATM   21  C   UNL     1      -9.952   5.335  70.228  1.00  0.00    -0.310 C  
BRANCH  21  22
HETATM   22  C   UNL     1      -9.249   5.415  68.877  1.00  0.00    -0.147 C  
BRANCH  22  23
HETATM   23  C   UNL     1     -10.209   5.937  67.806  1.00  0.00    -0.223 C  
BRANCH  23  24
HETATM   24  C   UNL     1      -9.436   6.559  66.649  1.00  0.00    -0.193 C  
BRANCH  24  25
HETATM   25  C   UNL     1      -7.933   6.576  66.910  1.00  0.00    -0.112 C  
BRANCH  25  26
HETATM   26  C   UNL     1      -7.196   5.781  65.859  1.00  0.00    -0.075 C  
HETATM   27  O   UNL     1      -6.735   4.661  66.016  1.00  0.00    -0.050 OA 
BRANCH  26  28
HETATM   28  O   UNL     1      -7.121   6.496  64.703  1.00  0.00    -0.055 OA 
HETATM   29  C   UNL     1      -5.781   6.745  64.278  1.00  0.00    -0.031 C  
ENDBRANCH  26  28
ENDBRANCH  25  26
ENDBRANCH  24  25
ENDBRANCH  23  24
ENDBRANCH  22  23
ENDBRANCH  21  22
ENDBRANCH  20  21
ENDBRANCH  19  20
ENDBRANCH  11  12
ENDBRANCH   8  10
ENDBRANCH   3   4
ENDBRANCH   2   3
TORSDOF 12
ENDMDL
MODEL      276
REMARK 921   NORMALIZED FREE ENERGY PREDICTED BY IDOCK:   -1.72 KCAL/MOL
REMARK 922        TOTAL FREE ENERGY PREDICTED BY IDOCK:   -4.97 KCAL/MOL
REMARK 923 INTER-LIGAND FREE ENERGY PREDICTED BY IDOCK:   -4.24 KCAL/MOL
REMARK 924 INTRA-LIGAND FREE ENERGY PREDICTED BY IDOCK:   -0.74 KCAL/MOL
REMARK 927      BINDING AFFINITY PREDICTED BY RF-SCORE:    0.00 PKD
ROOT
HETATM    1  C   UNL     1     -12.630  11.305  70.363  1.00  0.00    -0.292 C  
HETATM    2  C   UNL     1     -11.146  11.467  70.063  1.00  0.00    -0.051 C  
ENDROOT
BRANCH   2   3
HETATM    3  C   UNL     1     -10.892  11.347  68.564  1.00  0.00    -0.251 C  
BRANCH   3   4
HETATM    4  C   UNL     1      -9.399  11.230  68.230  1.00  0.00    -0.180 C  
HETATM    5  C   UNL     1      -8.862  12.431  67.415  1.00  0.00    -0.188 C  
HETATM    6  O   UNL     1      -9.562  12.462  66.163  1.00  0.00    -0.244 OA 
HETATM    7  C   UNL     1      -7.368  12.232  67.119  1.00  0.00    -0.107 C  
HETATM    8  C   UNL     1      -9.124  13.758  68.173  1.00  0.00    -0.194 C  
HETATM    9  H   UNL     1      -9.233  13.199  65.663  1.00  0.00     0.000 HD 
BRANCH   8  10
HETATM   10  C   UNL     1      -8.512  14.992  67.575  1.00  0.00    -0.188 C  
HETATM   11  C   UNL     1      -8.039  16.025  68.292  1.00  0.00    -0.150 C  
BRANCH  11  12
HETATM   12  C   UNL     1      -7.416  17.282  67.742  1.00  0.00    -0.184 C  
HETATM   13  C   UNL     1      -5.913  17.080  67.487  1.00  0.00    -0.135 C  
HETATM   14  C   UNL     1      -5.518  18.183  66.525  1.00  0.00    -0.185 C  
HETATM   15  O   UNL     1      -5.152  17.174  68.686  1.00  0.00    -0.132 OA 
HETATM   16  H   UNL     1      -4.223  17.048  68.529  1.00  0.00     0.000 HD 
HETATM   17  C   UNL     1      -6.770  18.364  65.726  1.00  0.00    -0.280 C  
HETATM   18  O   UNL     1      -6.777  18.911  64.629  1.00  0.00    -0.388 OA 
HETATM   19  C   UNL     1      -7.998  17.786  66.400  1.00  0.00    -0.306 C  
BRANCH  19  20
HETATM   20  C   UNL     1      -9.130  18.795  66.631  1.00  0.00    -0.323 C  
BRANCH  20  21
HETATM   21  C   UNL     1     -10.052  18.380  67.778  1.00  0.00    -0.377 C  
BRANCH  21  22
HETATM   22  C   UNL     1     -11.069  17.331  67.343  1.00  0.00     0.086 C  
BRANCH  22  23
HETATM   23  C   UNL     1     -11.445  16.431  68.523  1.00  0.00    -0.209 C  
BRANCH  23  24
HETATM   24  C   UNL     1     -12.424  15.348  68.082  1.00  0.00     0.728 C  
BRANCH  24  25
HETATM   25  C   UNL     1     -11.818  14.425  67.029  1.00  0.00    -0.437 C  
BRANCH  25  26
HETATM   26  C   UNL     1     -12.571  14.531  65.724  1.00  0.00    -0.180 C  
HETATM   27  O   UNL     1     -13.687  14.083  65.515  1.00  0.00    -0.415 OA 
BRANCH  26  28
HETATM   28  O   UNL     1     -11.822  15.205  64.810  1.00  0.00    -0.362 OA 
HETATM   29  C   UNL     1     -11.657  14.496  63.581  1.00  0.00     0.705 C  
ENDBRANCH  26  28
ENDBRANCH  25  26
ENDBRANCH  24  25
ENDBRANCH  23  24
ENDBRANCH  22  23
ENDBRANCH  21  22
ENDBRANCH  20  21
ENDBRANCH  19  20
ENDBRANCH  11  12
ENDBRANCH   8  10
ENDBRANCH   3   4
ENDBRANCH   2   3
TORSDOF 12
ENDMDL
MODEL      277
REMARK 921   NORMALIZED FREE ENERGY PREDICTED BY IDOCK:   -1.49 KCAL/MOL
REMARK 922        TOTAL FREE ENERGY PREDICTED BY IDOCK:   -4.58 KCAL/MOL
REMARK 923 INTER-LIGAND FREE ENERGY PREDICTED BY IDOCK:   -4.42 KCAL/MOL
REMARK 924 INTRA-LIGAND FREE ENERGY PREDICTED BY IDOCK:   -0.16 KCAL/MOL
REMARK 927      BINDING AFFINITY PREDICTED BY RF-SCORE:    0.00 PKD
ROOT
HETATM    1  C   UNL     1     -12.600  13.184  67.947  1.00  0.00     0.733 C  
HETATM    2  C   UNL     1     -11.565  14.247  67.602  1.00  0.00    -0.396 C  
ENDROOT
BRANCH   2   3
HETATM    3  C   UNL     1     -11.721  14.685  66.150  1.00  0.00    -0.316 C  
BRANCH   3   4
HETATM    4  C   UNL     1     -12.658  13.764  65.356  1.00  0.00    -0.534 C  
HETATM    5  C   UNL     1     -11.914  12.614  64.636  1.00  0.00    -0.402 C  
HETATM    6  O   UNL     1     -11.013  13.200  63.686  1.00  0.00    -0.551 OA 
HETATM    7  C   UNL     1     -12.920  11.748  63.865  1.00  0.00    -0.144 C  
HETATM    8  C   UNL     1     -11.100  11.777  65.655  1.00  0.00    -0.340 C  
HETATM    9  H   UNL     1     -10.557  12.495  63.244  1.00  0.00     0.000 HD 
BRANCH   8  10
HETATM   10  C   UNL     1     -10.455  10.530  65.120  1.00  0.00    -0.225 C  
HETATM   11  C   UNL     1      -9.189  10.163  65.379  1.00  0.00    -0.249 C  
BRANCH  11  12
HETATM   12  C   UNL     1      -8.497   8.925  64.868  1.00  0.00    -0.195 C  
HETATM   13  C   UNL     1      -7.929   9.161  63.459  1.00  0.00    -0.145 C  
HETATM   14  C   UNL     1      -6.885   8.078  63.262  1.00  0.00    -0.084 C  
HETATM   15  O   UNL     1      -8.934   9.068  62.456  1.00  0.00    -0.385 OA 
HETATM   16  H   UNL     1      -8.583   9.214  61.585  1.00  0.00     0.000 HD 
HETATM   17  C   UNL     1      -6.371   7.883  64.653  1.00  0.00    -0.048 C  
HETATM   18  O   UNL     1      -5.293   7.350  64.887  1.00  0.00    -0.028 OA 
HETATM   19  C   UNL     1      -7.304   8.427  65.717  1.00  0.00    -0.073 C  
BRANCH  19  20
HETATM   20  C   UNL     1      -7.755   7.393  66.755  1.00  0.00    -0.109 C  
BRANCH  20  21
HETATM   21  C   UNL     1      -6.679   7.119  67.806  1.00  0.00    -0.064 C  
BRANCH  21  22
HETATM   22  C   UNL     1      -7.271   6.575  69.102  1.00  0.00    -0.091 C  
BRANCH  22  23
HETATM   23  C   UNL     1      -7.000   5.073  69.223  1.00  0.00    -0.055 C  
BRANCH  23  24
HETATM   24  C   UNL     1      -7.393   4.351  67.939  1.00  0.00    -0.069 C  
BRANCH  24  25
HETATM   25  C   UNL     1      -8.874   3.981  67.923  1.00  0.00    -0.132 C  
BRANCH  25  26
HETATM   26  C   UNL     1      -9.195   3.103  66.736  1.00  0.00    -0.154 C  
HETATM   27  O   UNL     1      -8.989   1.902  66.671  1.00  0.00    -0.124 OA 
BRANCH  26  28
HETATM   28  O   UNL     1      -9.751   3.851  65.743  1.00  0.00    -0.180 OA 
HETATM   29  C   UNL     1     -10.772   4.734  66.206  1.00  0.00    -0.065 C  
ENDBRANCH  26  28
ENDBRANCH  25  26
ENDBRANCH  24  25
ENDBRANCH  23  24
ENDBRANCH  22  23
ENDBRANCH  21  22
ENDBRANCH  20  21
ENDBRANCH  19  20
ENDBRANCH  11  12
ENDBRANCH   8  10
ENDBRANCH   3   4
ENDBRANCH   2   3
TORSDOF 12
ENDMDL
MODEL      278
REMARK 921   NORMALIZED FREE ENERGY PREDICTED BY IDOCK:   -1.43 KCAL/MOL
REMARK 922        TOTAL FREE ENERGY PREDICTED BY IDOCK:   -4.48 KCAL/MOL
REMARK 923 INTER-LIGAND FREE ENERGY PREDICTED BY IDOCK:   -3.37 KCAL/MOL
REMARK 924 INTRA-LIGAND FREE ENERGY PREDICTED BY IDOCK:   -1.10 KCAL/MOL
REMARK 927      BINDING AFFINITY PREDICTED BY RF-SCORE:    0.00 PKD
ROOT
HETATM    1  C   UNL     1      -7.588  10.315  65.314  1.00  0.00    -0.143 C  
HETATM    2  C   UNL     1      -8.689   9.267  65.246  1.00  0.00    -0.214 C  
ENDROOT
BRANCH   2   3
HETATM    3  C   UNL     1     -10.060   9.934  65.299  1.00  0.00    -0.227 C  
BRANCH   3   4
HETATM    4  C   UNL     1     -10.048  11.347  64.701  1.00  0.00    -0.330 C  
HETATM    5  C   UNL     1     -10.683  12.407  65.632  1.00  0.00    -0.264 C  
HETATM    6  O   UNL     1     -12.060  12.055  65.824  1.00  0.00    -0.536 OA 
HETATM    7  C   UNL     1     -10.635  13.786  64.958  1.00  0.00    -0.402 C  
HETATM    8  C   UNL     1      -9.967  12.417  67.006  1.00  0.00    -0.218 C  
HETATM    9  H   UNL     1     -12.451  12.705  66.395  1.00  0.00     0.000 HD 
BRANCH   8  10
HETATM   10  C   UNL     1     -10.374  13.508  67.956  1.00  0.00    -0.241 C  
HETATM   11  C   UNL     1     -11.234  13.342  68.974  1.00  0.00    -0.320 C  
BRANCH  11  12
HETATM   12  C   UNL     1     -11.674  14.400  69.952  1.00  0.00    -0.363 C  
HETATM   13  C   UNL     1     -12.746  13.849  70.907  1.00  0.00    -0.340 C  
HETATM   14  C   UNL     1     -12.750  14.794  72.093  1.00  0.00    -0.401 C  
HETATM   15  O   UNL     1     -14.032  13.811  70.300  1.00  0.00     0.752 OA 
HETATM   16  H   UNL     1     -14.694  13.470  70.889  1.00  0.00     0.000 HD 
HETATM   17  C   UNL     1     -11.319  15.226  72.154  1.00  0.00    -0.323 C  
HETATM   18  O   UNL     1     -10.822  15.717  73.161  1.00  0.00     1.039 OA 
HETATM   19  C   UNL     1     -10.563  14.972  70.865  1.00  0.00     0.152 C  
BRANCH  19  20
HETATM   20  C   UNL     1      -9.926  16.221  70.246  1.00  0.00     0.597 C  
BRANCH  20  21
HETATM   21  C   UNL     1      -8.741  15.880  69.341  1.00  0.00    -0.198 C  
BRANCH  21  22
HETATM   22  C   UNL     1      -7.545  16.792  69.596  1.00  0.00     0.390 C  
BRANCH  22  23
HETATM   23  C   UNL     1      -7.156  17.533  68.314  1.00  0.00    -0.210 C  
BRANCH  23  24
HETATM   24  C   UNL     1      -7.971  17.023  67.131  1.00  0.00    -0.214 C  
BRANCH  24  25
HETATM   25  C   UNL     1      -8.828  18.123  66.511  1.00  0.00    -0.286 C  
BRANCH  25  26
HETATM   26  C   UNL     1      -9.791  18.691  67.526  1.00  0.00    -0.320 C  
HETATM   27  O   UNL     1     -10.865  18.199  67.831  1.00  0.00    -0.363 OA 
BRANCH  26  28
HETATM   28  O   UNL     1      -9.283  19.837  68.057  1.00  0.00    -0.335 OA 
HETATM   29  C   UNL     1      -9.434  20.971  67.203  1.00  0.00    -0.054 C  
ENDBRANCH  26  28
ENDBRANCH  25  26
ENDBRANCH  24  25
ENDBRANCH  23  24
ENDBRANCH  22  23
ENDBRANCH  21  22
ENDBRANCH  20  21
ENDBRANCH  19  20
ENDBRANCH  11  12
ENDBRANCH   8  10
ENDBRANCH   3   4
ENDBRANCH   2   3
TORSDOF 12
ENDMDL
MODEL      279
REMARK 921   NORMALIZED FREE ENERGY PREDICTED BY IDOCK:   -1.39 KCAL/MOL
REMARK 922        TOTAL FREE ENERGY PREDICTED BY IDOCK:   -4.41 KCAL/MOL
REMARK 923 INTER-LIGAND FREE ENERGY PREDICTED BY IDOCK:   -4.10 KCAL/MOL
REMARK 924 INTRA-LIGAND FREE ENERGY PREDICTED BY IDOCK:   -0.30 KCAL/MOL
REMARK 927      BINDING AFFINITY PREDICTED BY RF-SCORE:    0.00 PKD
ROOT
HETATM    1  C   UNL     1     -12.600  13.184  67.947  1.00  0.00     0.733 C  
HETATM    2  C   UNL     1     -11.565  14.247  67.602  1.00  0.00    -0.396 C  
ENDROOT
BRANCH   2   3
HETATM    3  C   UNL     1     -11.721  14.685  66.150  1.00  0.00    -0.316 C  
BRANCH   3   4
HETATM    4  C   UNL     1     -12.658  13.764  65.356  1.00  0.00    -0.534 C  
HETATM    5  C   UNL     1     -11.914  12.614  64.636  1.00  0.00    -0.402 C  
HETATM    6  O   UNL     1     -11.013  13.200  63.686  1.00  0.00    -0.551 OA 
HETATM    7  C   UNL     1     -12.920  11.748  63.865  1.00  0.00    -0.144 C  
HETATM    8  C   UNL     1     -11.100  11.777  65.655  1.00  0.00    -0.340 C  
HETATM    9  H   UNL     1     -10.557  12.495  63.244  1.00  0.00     0.000 HD 
BRANCH   8  10
HETATM   10  C   UNL     1     -10.455  10.530  65.120  1.00  0.00    -0.225 C  
HETATM   11  C   UNL     1      -9.189  10.163  65.379  1.00  0.00    -0.249 C  
BRANCH  11  12
HETATM   12  C   UNL     1      -8.497   8.925  64.868  1.00  0.00    -0.195 C  
HETATM   13  C   UNL     1      -7.929   9.161  63.459  1.00  0.00    -0.145 C  
HETATM   14  C   UNL     1      -6.885   8.078  63.262  1.00  0.00    -0.084 C  
HETATM   15  O   UNL     1      -8.934   9.068  62.456  1.00  0.00    -0.385 OA 
HETATM   16  H   UNL     1      -8.583   9.214  61.585  1.00  0.00     0.000 HD 
HETATM   17  C   UNL     1      -6.371   7.883  64.653  1.00  0.00    -0.048 C  
HETATM   18  O   UNL     1      -5.293   7.350  64.887  1.00  0.00    -0.028 OA 
HETATM   19  C   UNL     1      -7.304   8.427  65.717  1.00  0.00    -0.073 C  
BRANCH  19  20
HETATM   20  C   UNL     1      -7.755   7.393  66.755  1.00  0.00    -0.109 C  
BRANCH  20  21
HETATM   21  C   UNL     1      -8.301   8.047  68.025  1.00  0.00    -0.126 C  
BRANCH  21  22
HETATM   22  C   UNL     1      -9.241   7.119  68.787  1.00  0.00    -0.136 C  
BRANCH  22  23
HETATM   23  C   UNL     1      -8.545   6.557  70.029  1.00  0.00    -0.140 C  
BRANCH  23  24
HETATM   24  C   UNL     1      -7.175   5.992  69.668  1.00  0.00    -0.074 C  
BRANCH  24  25
HETATM   25  C   UNL     1      -7.263   4.547  69.187  1.00  0.00    -0.052 C  
BRANCH  25  26
HETATM   26  C   UNL     1      -5.884   3.952  69.020  1.00  0.00    -0.022 C  
HETATM   27  O   UNL     1      -5.193   3.510  69.924  1.00  0.00    -0.007 OA 
BRANCH  26  28
HETATM   28  O   UNL     1      -5.523   3.978  67.708  1.00  0.00    -0.015 OA 
HETATM   29  C   UNL     1      -6.551   3.518  66.830  1.00  0.00    -0.041 C  
ENDBRANCH  26  28
ENDBRANCH  25  26
ENDBRANCH  24  25
ENDBRANCH  23  24
ENDBRANCH  22  23
ENDBRANCH  21  22
ENDBRANCH  20  21
ENDBRANCH  19  20
ENDBRANCH  11  12
ENDBRANCH   8  10
ENDBRANCH   3   4
ENDBRANCH   2   3
TORSDOF 12
ENDMDL
MODEL      280
REMARK 921   NORMALIZED FREE ENERGY PREDICTED BY IDOCK:   -1.36 KCAL/MOL
REMARK 922        TOTAL FREE ENERGY PREDICTED BY IDOCK:   -4.35 KCAL/MOL
REMARK 923 INTER-LIGAND FREE ENERGY PREDICTED BY IDOCK:   -2.84 KCAL/MOL
REMARK 924 INTRA-LIGAND FREE ENERGY PREDICTED BY IDOCK:   -1.51 KCAL/MOL
REMARK 927      BINDING AFFINITY PREDICTED BY RF-SCORE:    0.00 PKD
ROOT
HETATM    1  C   UNL     1      -7.962   8.591  74.272  1.00  0.00    -0.130 C  
HETATM    2  C   UNL     1      -7.153   7.488  73.603  1.00  0.00    -0.101 C  
ENDROOT
BRANCH   2   3
HETATM    3  C   UNL     1      -7.104   7.708  72.095  1.00  0.00    -0.066 C  
BRANCH   3   4
HETATM    4  C   UNL     1      -8.151   8.723  71.615  1.00  0.00    -0.153 C  
HETATM    5  C   UNL     1      -7.688   9.539  70.384  1.00  0.00    -0.163 C  
HETATM    6  O   UNL     1      -6.530  10.294  70.767  1.00  0.00    -0.270 OA 
HETATM    7  C   UNL     1      -8.787  10.529  69.975  1.00  0.00     0.443 C  
HETATM    8  C   UNL     1      -7.310   8.589  69.219  1.00  0.00    -0.071 C  
HETATM    9  H   UNL     1      -6.246  10.795  70.012  1.00  0.00     0.000 HD 
BRANCH   8  10
HETATM   10  C   UNL     1      -6.996   9.248  67.905  1.00  0.00    -0.077 C  
HETATM   11  C   UNL     1      -7.836   9.282  66.858  1.00  0.00    -0.098 C  
BRANCH  11  12
HETATM   12  C   UNL     1      -7.571   9.928  65.523  1.00  0.00    -0.125 C  
HETATM   13  C   UNL     1      -7.167   8.874  64.478  1.00  0.00    -0.097 C  
HETATM   14  C   UNL     1      -7.396   9.536  63.132  1.00  0.00    -0.110 C  
HETATM   15  O   UNL     1      -5.804   8.486  64.612  1.00  0.00    -0.061 OA 
HETATM   16  H   UNL     1      -5.555   7.834  63.967  1.00  0.00     0.000 HD 
HETATM   17  C   UNL     1      -8.559  10.432  63.419  1.00  0.00    -0.189 C  
HETATM   18  O   UNL     1      -9.274  10.887  62.534  1.00  0.00    -0.290 OA 
HETATM   19  C   UNL     1      -8.763  10.692  64.899  1.00  0.00    -0.178 C  
BRANCH  19  20
HETATM   20  C   UNL     1      -8.739  12.173  65.292  1.00  0.00     0.810 C  
BRANCH  20  21
HETATM   21  C   UNL     1     -10.118  12.683  65.716  1.00  0.00    -0.284 C  
BRANCH  21  22
HETATM   22  C   UNL     1     -10.309  12.623  67.228  1.00  0.00    -0.230 C  
BRANCH  22  23
HETATM   23  C   UNL     1     -10.472  14.034  67.800  1.00  0.00    -0.236 C  
BRANCH  23  24
HETATM   24  C   UNL     1      -9.231  14.441  68.587  1.00  0.00    -0.181 C  
BRANCH  24  25
HETATM   25  C   UNL     1      -8.314  15.352  67.776  1.00  0.00    -0.156 C  
BRANCH  25  26
HETATM   26  C   UNL     1      -8.806  16.780  67.814  1.00  0.00    -0.208 C  
HETATM   27  O   UNL     1      -8.624  17.564  68.731  1.00  0.00    -0.272 OA 
BRANCH  26  28
HETATM   28  O   UNL     1      -9.483  17.067  66.669  1.00  0.00    -0.243 OA 
HETATM   29  C   UNL     1      -9.129  18.330  66.104  1.00  0.00    -0.105 C  
ENDBRANCH  26  28
ENDBRANCH  25  26
ENDBRANCH  24  25
ENDBRANCH  23  24
ENDBRANCH  22  23
ENDBRANCH  21  22
ENDBRANCH  20  21
ENDBRANCH  19  20
ENDBRANCH  11  12
ENDBRANCH   8  10
ENDBRANCH   3   4
ENDBRANCH   2   3
TORSDOF 12
ENDMDL
MODEL      281
REMARK 921   NORMALIZED FREE ENERGY PREDICTED BY IDOCK:   -1.27 KCAL/MOL
REMARK 922        TOTAL FREE ENERGY PREDICTED BY IDOCK:   -4.20 KCAL/MOL
REMARK 923 INTER-LIGAND FREE ENERGY PREDICTED BY IDOCK:   -3.17 KCAL/MOL
REMARK 924 INTRA-LIGAND FREE ENERGY PREDICTED BY IDOCK:   -1.03 KCAL/MOL
REMARK 927      BINDING AFFINITY PREDICTED BY RF-SCORE:    0.00 PKD
ROOT
HETATM    1  C   UNL     1      -7.989   8.022  74.180  1.00  0.00    -0.292 C  
HETATM    2  C   UNL     1      -9.283   7.794  73.412  1.00  0.00    -0.344 C  
ENDROOT
BRANCH   2   3
HETATM    3  C   UNL     1      -8.984   7.244  72.021  1.00  0.00    -0.143 C  
BRANCH   3   4
HETATM    4  C   UNL     1      -8.759   5.726  72.026  1.00  0.00    -0.137 C  
HETATM    5  C   UNL     1      -8.595   5.131  70.607  1.00  0.00    -0.119 C  
HETATM    6  O   UNL     1      -9.816   5.362  69.889  1.00  0.00    -0.167 OA 
HETATM    7  C   UNL     1      -8.380   3.614  70.702  1.00  0.00    -0.092 C  
HETATM    8  C   UNL     1      -7.430   5.829  69.860  1.00  0.00    -0.079 C  
HETATM    9  H   UNL     1      -9.716   4.997  69.019  1.00  0.00     0.000 HD 
BRANCH   8  10
HETATM   10  C   UNL     1      -7.052   5.242  68.530  1.00  0.00    -0.062 C  
HETATM   11  C   UNL     1      -7.669   5.535  67.373  1.00  0.00    -0.100 C  
BRANCH  11  12
HETATM   12  C   UNL     1      -7.330   4.975  66.015  1.00  0.00    -0.078 C  
HETATM   13  C   UNL     1      -8.142   3.700  65.733  1.00  0.00    -0.093 C  
HETATM   14  C   UNL     1      -8.090   3.516  64.228  1.00  0.00    -0.086 C  
HETATM   15  O   UNL     1      -7.592   2.562  66.389  1.00  0.00    -0.069 OA 
HETATM   16  H   UNL     1      -8.094   1.774  66.215  1.00  0.00     0.000 HD 
HETATM   17  C   UNL     1      -8.031   4.930  63.743  1.00  0.00    -0.095 C  
HETATM   18  O   UNL     1      -8.320   5.245  62.594  1.00  0.00    -0.105 OA 
HETATM   19  C   UNL     1      -7.606   5.913  64.816  1.00  0.00    -0.088 C  
BRANCH  19  20
HETATM   20  C   UNL     1      -6.365   6.741  64.463  1.00  0.00    -0.039 C  
BRANCH  20  21
HETATM   21  C   UNL     1      -5.958   7.688  65.593  1.00  0.00    -0.038 C  
BRANCH  21  22
HETATM   22  C   UNL     1      -5.168   8.886  65.078  1.00  0.00    -0.038 C  
BRANCH  22  23
HETATM   23  C   UNL     1      -6.101  10.075  64.835  1.00  0.00    -0.116 C  
BRANCH  23  24
HETATM   24  C   UNL     1      -6.449  10.763  66.150  1.00  0.00    -0.129 C  
BRANCH  24  25
HETATM   25  C   UNL     1      -7.955  10.945  66.318  1.00  0.00    -0.161 C  
BRANCH  25  26
HETATM   26  C   UNL     1      -8.272  11.604  67.640  1.00  0.00    -0.141 C  
HETATM   27  O   UNL     1      -8.350  11.029  68.714  1.00  0.00    -0.143 OA 
BRANCH  26  28
HETATM   28  O   UNL     1      -8.458  12.940  67.459  1.00  0.00    -0.163 OA 
HETATM   29  C   UNL     1      -8.191  13.711  68.631  1.00  0.00    -0.058 C  
ENDBRANCH  26  28
ENDBRANCH  25  26
ENDBRANCH  24  25
ENDBRANCH  23  24
ENDBRANCH  22  23
ENDBRANCH  21  22
ENDBRANCH  20  21
ENDBRANCH  19  20
ENDBRANCH  11  12
ENDBRANCH   8  10
ENDBRANCH   3   4
ENDBRANCH   2   3
TORSDOF 12
ENDMDL
MODEL      282
REMARK 921   NORMALIZED FREE ENERGY PREDICTED BY IDOCK:   -1.25 KCAL/MOL
REMARK 922        TOTAL FREE ENERGY PREDICTED BY IDOCK:   -4.17 KCAL/MOL
REMARK 923 INTER-LIGAND FREE ENERGY PREDICTED BY IDOCK:   -3.24 KCAL/MOL
REMARK 924 INTRA-LIGAND FREE ENERGY PREDICTED BY IDOCK:   -0.93 KCAL/MOL
REMARK 927      BINDING AFFINITY PREDICTED BY RF-SCORE:    0.00 PKD
ROOT
HETATM    1  C   UNL     1      -7.077   8.908  74.566  1.00  0.00    -0.029 C  
HETATM    2  C   UNL     1      -7.594   8.085  73.394  1.00  0.00    -0.201 C  
ENDROOT
BRANCH   2   3
HETATM    3  C   UNL     1      -6.435   7.412  72.667  1.00  0.00    -0.059 C  
BRANCH   3   4
HETATM    4  C   UNL     1      -6.498   5.881  72.753  1.00  0.00    -0.063 C  
HETATM    5  C   UNL     1      -6.964   5.217  71.435  1.00  0.00    -0.053 C  
HETATM    6  O   UNL     1      -8.299   5.668  71.163  1.00  0.00    -0.119 OA 
HETATM    7  C   UNL     1      -7.004   3.691  71.608  1.00  0.00    -0.031 C  
HETATM    8  C   UNL     1      -6.040   5.636  70.263  1.00  0.00    -0.026 C  
HETATM    9  H   UNL     1      -8.585   5.260  70.355  1.00  0.00     0.000 HD 
BRANCH   8  10
HETATM   10  C   UNL     1      -6.278   4.939  68.953  1.00  0.00    -0.031 C  
HETATM   11  C   UNL     1      -7.431   4.994  68.267  1.00  0.00    -0.075 C  
BRANCH  11  12
HETATM   12  C   UNL     1      -7.719   4.315  66.952  1.00  0.00    -0.093 C  
HETATM   13  C   UNL     1      -8.703   3.149  67.145  1.00  0.00    -0.123 C  
HETATM   14  C   UNL     1      -9.273   2.873  65.767  1.00  0.00    -0.111 C  
HETATM   15  O   UNL     1      -8.058   1.987  67.655  1.00  0.00    -0.063 OA 
HETATM   16  H   UNL     1      -8.665   1.266  67.775  1.00  0.00     0.000 HD 
HETATM   17  C   UNL     1      -9.267   4.235  65.149  1.00  0.00    -0.151 C  
HETATM   18  O   UNL     1      -9.955   4.519  64.175  1.00  0.00    -0.011 OA 
HETATM   19  C   UNL     1      -8.351   5.211  65.860  1.00  0.00    -0.118 C  
BRANCH  19  20
HETATM   20  C   UNL     1      -7.275   5.839  64.968  1.00  0.00    -0.066 C  
BRANCH  20  21
HETATM   21  C   UNL     1      -6.481   6.926  65.694  1.00  0.00    -0.050 C  
BRANCH  21  22
HETATM   22  C   UNL     1      -6.902   8.327  65.261  1.00  0.00    -0.059 C  
BRANCH  22  23
HETATM   23  C   UNL     1      -8.429   8.435  65.215  1.00  0.00    -0.189 C  
BRANCH  23  24
HETATM   24  C   UNL     1      -8.890   9.776  65.773  1.00  0.00    -0.180 C  
BRANCH  24  25
HETATM   25  C   UNL     1      -9.540   9.631  67.147  1.00  0.00    -0.210 C  
BRANCH  25  26
HETATM   26  C   UNL     1     -10.843  10.392  67.207  1.00  0.00    -0.264 C  
HETATM   27  O   UNL     1     -11.541  10.516  68.201  1.00  0.00    -0.402 OA 
BRANCH  26  28
HETATM   28  O   UNL     1     -11.126  10.925  65.987  1.00  0.00    -0.082 OA 
HETATM   29  C   UNL     1     -11.708  12.226  66.060  1.00  0.00    -0.388 C  
ENDBRANCH  26  28
ENDBRANCH  25  26
ENDBRANCH  24  25
ENDBRANCH  23  24
ENDBRANCH  22  23
ENDBRANCH  21  22
ENDBRANCH  20  21
ENDBRANCH  19  20
ENDBRANCH  11  12
ENDBRANCH   8  10
ENDBRANCH   3   4
ENDBRANCH   2   3
TORSDOF 12
ENDMDL
MODEL      283
REMARK 921   NORMALIZED FREE ENERGY PREDICTED BY IDOCK:   -0.96 KCAL/MOL
REMARK 922        TOTAL FREE ENERGY PREDICTED BY IDOCK:   -3.67 KCAL/MOL
REMARK 923 INTER-LIGAND FREE ENERGY PREDICTED BY IDOCK:   -5.15 KCAL/MOL
REMARK 924 INTRA-LIGAND FREE ENERGY PREDICTED BY IDOCK:    1.48 KCAL/MOL
REMARK 927      BINDING AFFINITY PREDICTED BY RF-SCORE:    0.00 PKD
ROOT
HETATM    1  C   UNL     1      -9.442   5.284  73.850  1.00  0.00    -0.134 C  
HETATM    2  C   UNL     1      -9.821   5.965  72.542  1.00  0.00    -0.179 C  
ENDROOT
BRANCH   2   3
HETATM    3  C   UNL     1     -11.338   6.019  72.393  1.00  0.00    -0.349 C  
BRANCH   3   4
HETATM    4  C   UNL     1     -11.774   6.485  70.998  1.00  0.00    -0.402 C  
HETATM    5  C   UNL     1     -10.615   6.502  69.972  1.00  0.00    -0.230 C  
HETATM    6  O   UNL     1      -9.635   7.443  70.431  1.00  0.00    -0.166 OA 
HETATM    7  C   UNL     1     -11.135   6.982  68.609  1.00  0.00    -0.076 C  
HETATM    8  C   UNL     1      -9.962   5.099  69.874  1.00  0.00    -0.316 C  
HETATM    9  H   UNL     1      -8.924   7.454  69.802  1.00  0.00     0.000 HD 
BRANCH   8  10
HETATM   10  C   UNL     1      -8.927   4.927  68.798  1.00  0.00    -0.132 C  
HETATM   11  C   UNL     1      -8.465   5.926  68.028  1.00  0.00    -0.110 C  
BRANCH  11  12
HETATM   12  C   UNL     1      -7.430   5.806  66.939  1.00  0.00    -0.084 C  
HETATM   13  C   UNL     1      -7.451   4.399  66.319  1.00  0.00    -0.085 C  
HETATM   14  C   UNL     1      -6.754   4.540  64.979  1.00  0.00    -0.048 C  
HETATM   15  O   UNL     1      -6.771   3.449  67.132  1.00  0.00    -0.044 OA 
HETATM   16  H   UNL     1      -6.784   2.579  66.750  1.00  0.00     0.000 HD 
HETATM   17  C   UNL     1      -7.116   5.937  64.585  1.00  0.00    -0.060 C  
HETATM   18  O   UNL     1      -7.045   6.334  63.428  1.00  0.00    -0.047 OA 
HETATM   19  C   UNL     1      -7.592   6.783  65.750  1.00  0.00    -0.088 C  
BRANCH  19  20
HETATM   20  C   UNL     1      -6.786   8.067  65.973  1.00  0.00    -0.053 C  
BRANCH  20  21
HETATM   21  C   UNL     1      -7.456   9.289  65.343  1.00  0.00    -0.098 C  
BRANCH  21  22
HETATM   22  C   UNL     1      -6.876  10.596  65.875  1.00  0.00    -0.115 C  
BRANCH  22  23
HETATM   23  C   UNL     1      -7.858  11.260  66.843  1.00  0.00    -0.156 C  
BRANCH  23  24
HETATM   24  C   UNL     1      -9.292  11.097  66.351  1.00  0.00    -0.207 C  
BRANCH  24  25
HETATM   25  C   UNL     1     -10.107  12.374  66.533  1.00  0.00    -0.246 C  
BRANCH  25  26
HETATM   26  C   UNL     1     -11.585  12.067  66.575  1.00  0.00    -0.314 C  
HETATM   27  O   UNL     1     -12.356  12.179  65.635  1.00  0.00    -0.560 OA 
BRANCH  26  28
HETATM   28  O   UNL     1     -11.935  11.642  67.820  1.00  0.00    -0.608 OA 
HETATM   29  C   UNL     1     -11.056  12.107  68.844  1.00  0.00    -0.243 C  
ENDBRANCH  26  28
ENDBRANCH  25  26
ENDBRANCH  24  25
ENDBRANCH  23  24
ENDBRANCH  22  23
ENDBRANCH  21  22
ENDBRANCH  20  21
ENDBRANCH  19  20
ENDBRANCH  11  12
ENDBRANCH   8  10
ENDBRANCH   3   4
ENDBRANCH   2   3
TORSDOF 12
ENDMDL
MODEL      284
REMARK 921   NORMALIZED FREE ENERGY PREDICTED BY IDOCK:   -0.83 KCAL/MOL
REMARK 922        TOTAL FREE ENERGY PREDICTED BY IDOCK:   -3.45 KCAL/MOL
REMARK 923 INTER-LIGAND FREE ENERGY PREDICTED BY IDOCK:   -5.05 KCAL/MOL
REMARK 924 INTRA-LIGAND FREE ENERGY PREDICTED BY IDOCK:    1.60 KCAL/MOL
REMARK 927      BINDING AFFINITY PREDICTED BY RF-SCORE:    0.00 PKD
ROOT
HETATM    1  C   UNL     1      -9.492   5.474  73.830  1.00  0.00    -0.139 C  
HETATM    2  C   UNL     1      -9.676   6.625  72.850  1.00  0.00    -0.168 C  
ENDROOT
BRANCH   2   3
HETATM    3  C   UNL     1     -11.160   6.873  72.598  1.00  0.00    -0.306 C  
BRANCH   3   4
HETATM    4  C   UNL     1     -11.403   8.048  71.641  1.00  0.00    -0.306 C  
HETATM    5  C   UNL     1     -10.108   8.564  70.969  1.00  0.00    -0.205 C  
HETATM    6  O   UNL     1      -9.240   9.050  72.003  1.00  0.00    -0.373 OA 
HETATM    7  C   UNL     1     -10.440   9.738  70.036  1.00  0.00    -0.314 C  
HETATM    8  C   UNL     1      -9.398   7.413  70.212  1.00  0.00    -0.162 C  
HETATM    9  H   UNL     1      -8.446   9.367  71.591  1.00  0.00     0.000 HD 
BRANCH   8  10
HETATM   10  C   UNL     1      -8.212   7.805  69.378  1.00  0.00    -0.131 C  
HETATM   11  C   UNL     1      -7.786   9.069  69.216  1.00  0.00    -0.095 C  
BRANCH  11  12
HETATM   12  C   UNL     1      -6.605   9.514  68.393  1.00  0.00    -0.053 C  
HETATM   13  C   UNL     1      -6.137   8.387  67.457  1.00  0.00    -0.052 C  
HETATM   14  C   UNL     1      -5.311   9.072  66.386  1.00  0.00    -0.037 C  
HETATM   15  O   UNL     1      -5.352   7.417  68.141  1.00  0.00    -0.023 OA 
HETATM   16  H   UNL     1      -5.064   6.720  67.563  1.00  0.00     0.000 HD 
HETATM   17  C   UNL     1      -5.983  10.404  66.277  1.00  0.00    -0.084 C  
HETATM   18  O   UNL     1      -5.850  11.132  65.300  1.00  0.00    -0.033 OA 
HETATM   19  C   UNL     1      -6.849  10.737  67.477  1.00  0.00    -0.079 C  
BRANCH  19  20
HETATM   20  C   UNL     1      -6.477  12.044  68.186  1.00  0.00    -0.054 C  
BRANCH  20  21
HETATM   21  C   UNL     1      -7.135  13.263  67.538  1.00  0.00    -0.156 C  
BRANCH  21  22
HETATM   22  C   UNL     1      -8.088  13.973  68.494  1.00  0.00    -0.139 C  
BRANCH  22  23
HETATM   23  C   UNL     1      -9.499  14.021  67.903  1.00  0.00    -0.210 C  
BRANCH  23  24
HETATM   24  C   UNL     1      -9.469  14.584  66.486  1.00  0.00    -0.310 C  
BRANCH  24  25
HETATM   25  C   UNL     1     -10.613  15.563  66.236  1.00  0.00    -0.310 C  
BRANCH  25  26
HETATM   26  C   UNL     1     -10.513  16.753  67.160  1.00  0.00    -0.299 C  
HETATM   27  O   UNL     1     -10.891  16.779  68.321  1.00  0.00    -0.353 OA 
BRANCH  26  28
HETATM   28  O   UNL     1      -9.935  17.799  66.509  1.00  0.00    -0.314 OA 
HETATM   29  C   UNL     1      -9.942  19.009  67.265  1.00  0.00    -0.344 C  
ENDBRANCH  26  28
ENDBRANCH  25  26
ENDBRANCH  24  25
ENDBRANCH  23  24
ENDBRANCH  22  23
ENDBRANCH  21  22
ENDBRANCH  20  21
ENDBRANCH  19  20
ENDBRANCH  11  12
ENDBRANCH   8  10
ENDBRANCH   3   4
ENDBRANCH   2   3
TORSDOF 12
ENDMDL
MODEL      285
REMARK 921   NORMALIZED FREE ENERGY PREDICTED BY IDOCK:   -0.82 KCAL/MOL
REMARK 922        TOTAL FREE ENERGY PREDICTED BY IDOCK:   -3.44 KCAL/MOL
REMARK 923 INTER-LIGAND FREE ENERGY PREDICTED BY IDOCK:   -4.81 KCAL/MOL
REMARK 924 INTRA-LIGAND FREE ENERGY PREDICTED BY IDOCK:    1.37 KCAL/MOL
REMARK 927      BINDING AFFINITY PREDICTED BY RF-SCORE:    0.00 PKD
ROOT
HETATM    1  C   UNL     1      -9.490   5.461  73.836  1.00  0.00    -0.138 C  
HETATM    2  C   UNL     1      -9.740   6.578  72.833  1.00  0.00    -0.164 C  
ENDROOT
BRANCH   2   3
HETATM    3  C   UNL     1     -11.237   6.757  72.602  1.00  0.00    -0.291 C  
BRANCH   3   4
HETATM    4  C   UNL     1     -11.547   7.875  71.598  1.00  0.00    -0.311 C  
HETATM    5  C   UNL     1     -10.299   8.354  70.818  1.00  0.00    -0.195 C  
HETATM    6  O   UNL     1      -9.371   8.900  71.766  1.00  0.00    -0.272 OA 
HETATM    7  C   UNL     1     -10.695   9.472  69.842  1.00  0.00    -0.268 C  
HETATM    8  C   UNL     1      -9.631   7.164  70.084  1.00  0.00    -0.168 C  
HETATM    9  H   UNL     1      -8.605   9.195  71.287  1.00  0.00     0.000 HD 
BRANCH   8  10
HETATM   10  C   UNL     1      -8.501   7.510  69.156  1.00  0.00    -0.136 C  
HETATM   11  C   UNL     1      -8.086   8.763  68.906  1.00  0.00    -0.114 C  
BRANCH  11  12
HETATM   12  C   UNL     1      -6.961   9.162  67.987  1.00  0.00    -0.077 C  
HETATM   13  C   UNL     1      -6.546   7.984  67.089  1.00  0.00    -0.057 C  
HETATM   14  C   UNL     1      -5.792   8.609  65.931  1.00  0.00    -0.047 C  
HETATM   15  O   UNL     1      -5.715   7.056  67.777  1.00  0.00    -0.022 OA 
HETATM   16  H   UNL     1      -5.459   6.329  67.223  1.00  0.00     0.000 HD 
HETATM   17  C   UNL     1      -6.477   9.932  65.789  1.00  0.00    -0.092 C  
HETATM   18  O   UNL     1      -6.408  10.603  64.766  1.00  0.00    -0.063 OA 
HETATM   19  C   UNL     1      -7.268  10.330  67.019  1.00  0.00    -0.091 C  
BRANCH  19  20
HETATM   20  C   UNL     1      -6.860  11.676  67.629  1.00  0.00    -0.094 C  
BRANCH  20  21
HETATM   21  C   UNL     1      -7.993  12.702  67.579  1.00  0.00    -0.174 C  
BRANCH  21  22
HETATM   22  C   UNL     1      -7.467  14.132  67.508  1.00  0.00    -0.192 C  
BRANCH  22  23
HETATM   23  C   UNL     1      -7.817  14.893  68.789  1.00  0.00    -0.149 C  
BRANCH  23  24
HETATM   24  C   UNL     1      -9.261  14.622  69.198  1.00  0.00    -0.039 C  
BRANCH  24  25
HETATM   25  C   UNL     1      -9.970  15.891  69.664  1.00  0.00    -0.255 C  
BRANCH  25  26
HETATM   26  C   UNL     1     -11.457  15.659  69.792  1.00  0.00    -0.342 C  
HETATM   27  O   UNL     1     -12.255  15.671  68.868  1.00  0.00    -0.251 OA 
BRANCH  26  28
HETATM   28  O   UNL     1     -11.780  15.430  71.095  1.00  0.00    -0.299 OA 
HETATM   29  C   UNL     1     -13.187  15.354  71.322  1.00  0.00    -0.510 C  
ENDBRANCH  26  28
ENDBRANCH  25  26
ENDBRANCH  24  25
ENDBRANCH  23  24
ENDBRANCH  22  23
ENDBRANCH  21  22
ENDBRANCH  20  21
ENDBRANCH  19  20
ENDBRANCH  11  12
ENDBRANCH   8  10
ENDBRANCH   3   4
ENDBRANCH   2   3
TORSDOF 12
ENDMDL
MODEL      286
REMARK 921   NORMALIZED FREE ENERGY PREDICTED BY IDOCK:   -0.11 KCAL/MOL
REMARK 922        TOTAL FREE ENERGY PREDICTED BY IDOCK:   -2.23 KCAL/MOL
REMARK 923 INTER-LIGAND FREE ENERGY PREDICTED BY IDOCK:   -1.18 KCAL/MOL
REMARK 924 INTRA-LIGAND FREE ENERGY PREDICTED BY IDOCK:   -1.05 KCAL/MOL
REMARK 927      BINDING AFFINITY PREDICTED BY RF-SCORE:    0.00 PKD
ROOT
HETATM    1  C   UNL     1      -7.113   9.356  74.382  1.00  0.00     0.622 C  
HETATM    2  C   UNL     1      -7.524   8.390  73.280  1.00  0.00    -0.111 C  
ENDROOT
BRANCH   2   3
HETATM    3  C   UNL     1      -6.323   7.571  72.819  1.00  0.00    -0.059 C  
BRANCH   3   4
HETATM    4  C   UNL     1      -6.436   6.092  73.210  1.00  0.00    -0.069 C  
HETATM    5  C   UNL     1      -6.908   5.189  72.045  1.00  0.00    -0.061 C  
HETATM    6  O   UNL     1      -8.224   5.615  71.664  1.00  0.00    -0.116 OA 
HETATM    7  C   UNL     1      -6.999   3.732  72.521  1.00  0.00    -0.043 C  
HETATM    8  C   UNL     1      -5.958   5.336  70.829  1.00  0.00    -0.021 C  
HETATM    9  H   UNL     1      -8.514   5.061  70.949  1.00  0.00     0.000 HD 
BRANCH   8  10
HETATM   10  C   UNL     1      -6.202   4.396  69.683  1.00  0.00    -0.027 C  
HETATM   11  C   UNL     1      -7.359   4.317  69.004  1.00  0.00    -0.055 C  
BRANCH  11  12
HETATM   12  C   UNL     1      -7.654   3.395  67.849  1.00  0.00    -0.064 C  
HETATM   13  C   UNL     1      -8.925   2.572  68.120  1.00  0.00    -0.152 C  
HETATM   14  C   UNL     1      -9.377   2.073  66.761  1.00  0.00     0.063 C  
HETATM   15  O   UNL     1      -8.674   1.475  68.991  1.00  0.00    -0.054 OA 
HETATM   16  H   UNL     1      -9.459   0.967  69.159  1.00  0.00     0.000 HD 
HETATM   17  C   UNL     1      -8.939   3.184  65.860  1.00  0.00    -0.145 C  
HETATM   18  O   UNL     1      -9.406   3.344  64.738  1.00  0.00    -0.136 OA 
HETATM   19  C   UNL     1      -7.892   4.084  66.485  1.00  0.00    -0.093 C  
BRANCH  19  20
HETATM   20  C   UNL     1      -6.590   4.195  65.685  1.00  0.00    -0.044 C  
BRANCH  20  21
HETATM   21  C   UNL     1      -5.518   4.992  66.429  1.00  0.00    -0.016 C  
BRANCH  21  22
HETATM   22  C   UNL     1      -5.541   6.470  66.055  1.00  0.00    -0.017 C  
BRANCH  22  23
HETATM   23  C   UNL     1      -6.381   7.262  67.060  1.00  0.00    -0.051 C  
BRANCH  23  24
HETATM   24  C   UNL     1      -6.359   8.749  66.725  1.00  0.00    -0.059 C  
BRANCH  24  25
HETATM   25  C   UNL     1      -6.065   9.607  67.952  1.00  0.00    -0.052 C  
BRANCH  25  26
HETATM   26  C   UNL     1      -6.945  10.835  67.973  1.00  0.00    -0.073 C  
HETATM   27  O   UNL     1      -7.585  11.259  67.024  1.00  0.00    -0.128 OA 
BRANCH  26  28
HETATM   28  O   UNL     1      -6.921  11.402  69.210  1.00  0.00    -0.111 OA 
HETATM   29  C   UNL     1      -6.001  10.773  70.102  1.00  0.00    -0.106 C  
ENDBRANCH  26  28
ENDBRANCH  25  26
ENDBRANCH  24  25
ENDBRANCH  23  24
ENDBRANCH  22  23
ENDBRANCH  21  22
ENDBRANCH  20  21
ENDBRANCH  19  20
ENDBRANCH  11  12
ENDBRANCH   8  10
ENDBRANCH   3   4
ENDBRANCH   2   3
TORSDOF 12
ENDMDL
MODEL      287
REMARK 921   NORMALIZED FREE ENERGY PREDICTED BY IDOCK:    3.26 KCAL/MOL
REMARK 922        TOTAL FREE ENERGY PREDICTED BY IDOCK:    3.51 KCAL/MOL
REMARK 923 INTER-LIGAND FREE ENERGY PREDICTED BY IDOCK:    2.24 KCAL/MOL
REMARK 924 INTRA-LIGAND FREE ENERGY PREDICTED BY IDOCK:    1.27 KCAL/MOL
REMARK 927      BINDING AFFINITY PREDICTED BY RF-SCORE:    0.00 PKD
ROOT
HETATM    1  C   UNL     1     -12.270   5.686  70.630  1.00  0.00     1.989 C  
HETATM    2  C   UNL     1     -11.093   6.257  71.409  1.00  0.00    -0.339 C  
ENDROOT
BRANCH   2   3
HETATM    3  C   UNL     1      -9.777   5.758  70.821  1.00  0.00    -0.220 C  
BRANCH   3   4
HETATM    4  C   UNL     1      -8.773   6.894  70.585  1.00  0.00    -0.149 C  
HETATM    5  C   UNL     1      -9.308   7.991  69.633  1.00  0.00    -0.156 C  
HETATM    6  O   UNL     1      -9.550   7.386  68.356  1.00  0.00    -0.146 OA 
HETATM    7  C   UNL     1      -8.244   9.082  69.448  1.00  0.00    -0.117 C  
HETATM    8  C   UNL     1     -10.638   8.575  70.177  1.00  0.00    -0.238 C  
HETATM    9  H   UNL     1      -9.878   8.059  67.772  1.00  0.00     0.000 HD 
BRANCH   8  10
HETATM   10  C   UNL     1     -11.188   9.762  69.438  1.00  0.00    -0.154 C  
HETATM   11  C   UNL     1     -10.724  10.197  68.255  1.00  0.00    -0.277 C  
BRANCH  11  12
HETATM   12  C   UNL     1     -11.240  11.379  67.475  1.00  0.00    -0.356 C  
HETATM   13  C   UNL     1     -12.249  12.185  68.311  1.00  0.00     0.238 C  
HETATM   14  C   UNL     1     -12.319  13.548  67.648  1.00  0.00    -0.044 C  
HETATM   15  O   UNL     1     -13.535  11.576  68.327  1.00  0.00     4.031 OA 
HETATM   16  H   UNL     1     -14.158  12.074  68.844  1.00  0.00     0.000 HD 
HETATM   17  C   UNL     1     -10.930  13.709  67.117  1.00  0.00    -0.288 C  
HETATM   18  O   UNL     1     -10.464  14.801  66.814  1.00  0.00    -0.274 OA 
HETATM   19  C   UNL     1     -10.171  12.400  67.020  1.00  0.00    -0.232 C  
BRANCH  19  20
HETATM   20  C   UNL     1      -9.652  12.071  65.616  1.00  0.00    -0.205 C  
BRANCH  20  21
HETATM   21  C   UNL     1      -8.342  11.281  65.653  1.00  0.00     0.080 C  
BRANCH  21  22
HETATM   22  C   UNL     1      -7.915  10.949  67.079  1.00  0.00    -0.132 C  
BRANCH  22  23
HETATM   23  C   UNL     1      -6.957  12.018  67.611  1.00  0.00    -0.118 C  
BRANCH  23  24
HETATM   24  C   UNL     1      -7.435  12.545  68.959  1.00  0.00     0.088 C  
BRANCH  24  25
HETATM   25  C   UNL     1      -6.744  13.851  69.339  1.00  0.00    -0.095 C  
BRANCH  25  26
HETATM   26  C   UNL     1      -7.289  15.004  68.529  1.00  0.00    -0.117 C  
HETATM   27  O   UNL     1      -7.037  15.222  67.355  1.00  0.00    -0.183 OA 
BRANCH  26  28
HETATM   28  O   UNL     1      -8.109  15.767  69.302  1.00  0.00    -0.222 OA 
HETATM   29  C   UNL     1      -8.062  17.156  68.975  1.00  0.00    -0.119 C  
ENDBRANCH  26  28
ENDBRANCH  25  26
ENDBRANCH  24  25
ENDBRANCH  23  24
ENDBRANCH  22  23
ENDBRANCH  21  22
ENDBRANCH  20  21
ENDBRANCH  19  20
ENDBRANCH  11  12
ENDBRANCH   8  10
ENDBRANCH   3   4
ENDBRANCH   2   3
TORSDOF 12
ENDMDL
MODEL      288
REMARK 921   NORMALIZED FREE ENERGY PREDICTED BY IDOCK:    3.64 KCAL/MOL
REMARK 922        TOTAL FREE ENERGY PREDICTED BY IDOCK:    4.16 KCAL/MOL
REMARK 923 INTER-LIGAND FREE ENERGY PREDICTED BY IDOCK:   -4.48 KCAL/MOL
REMARK 924 INTRA-LIGAND FREE ENERGY PREDICTED BY IDOCK:    8.64 KCAL/MOL
REMARK 927      BINDING AFFINITY PREDICTED BY RF-SCORE:    0.00 PKD
ROOT
HETATM    1  C   UNL     1      -8.515   9.074  70.461  1.00  0.00    -0.226 C  
HETATM    2  C   UNL     1      -8.757   7.802  71.262  1.00  0.00    -0.140 C  
ENDROOT
BRANCH   2   3
HETATM    3  C   UNL     1     -10.252   7.516  71.361  1.00  0.00    -0.201 C  
BRANCH   3   4
HETATM    4  C   UNL     1     -11.108   8.731  70.981  1.00  0.00    -0.328 C  
HETATM    5  C   UNL     1     -10.510   9.556  69.816  1.00  0.00    -0.231 C  
HETATM    6  O   UNL     1      -9.241  10.067  70.246  1.00  0.00    -0.373 OA 
HETATM    7  C   UNL     1     -11.424  10.750  69.504  1.00  0.00    -0.365 C  
HETATM    8  C   UNL     1     -10.299   8.657  68.571  1.00  0.00    -0.228 C  
HETATM    9  H   UNL     1      -8.874  10.574  69.531  1.00  0.00     0.000 HD 
BRANCH   8  10
HETATM   10  C   UNL     1      -9.874   9.360  67.313  1.00  0.00    -0.232 C  
HETATM   11  C   UNL     1      -8.699   9.994  67.162  1.00  0.00    -0.132 C  
BRANCH  11  12
HETATM   12  C   UNL     1      -8.227  10.712  65.924  1.00  0.00    -0.159 C  
HETATM   13  C   UNL     1      -6.757  10.371  65.624  1.00  0.00    -0.127 C  
HETATM   14  C   UNL     1      -6.551  10.735  64.166  1.00  0.00     0.351 C  
HETATM   15  O   UNL     1      -5.861  11.107  66.449  1.00  0.00    -0.124 OA 
HETATM   16  H   UNL     1      -4.953  10.897  66.264  1.00  0.00     0.000 HD 
HETATM   17  C   UNL     1      -7.900  10.460  63.582  1.00  0.00    -0.072 C  
HETATM   18  O   UNL     1      -8.077  10.296  62.380  1.00  0.00    -0.136 OA 
HETATM   19  C   UNL     1      -8.999  10.386  64.624  1.00  0.00    -0.235 C  
BRANCH  19  20
HETATM   20  C   UNL     1     -10.152  11.372  64.402  1.00  0.00    -0.341 C  
BRANCH  20  21
HETATM   21  C   UNL     1     -10.583  12.061  65.698  1.00  0.00    -0.303 C  
BRANCH  21  22
HETATM   22  C   UNL     1     -10.085  13.500  65.774  1.00  0.00    -0.298 C  
BRANCH  22  23
HETATM   23  C   UNL     1      -9.229  13.703  67.027  1.00  0.00    -0.254 C  
BRANCH  23  24
HETATM   24  C   UNL     1     -10.054  14.332  68.144  1.00  0.00    -0.232 C  
BRANCH  24  25
HETATM   25  C   UNL     1     -10.140  15.849  68.007  1.00  0.00    -0.230 C  
BRANCH  25  26
HETATM   26  C   UNL     1     -11.086  16.429  69.031  1.00  0.00    -0.315 C  
HETATM   27  O   UNL     1     -12.300  16.296  69.024  1.00  0.00     0.104 OA 
BRANCH  26  28
HETATM   28  O   UNL     1     -10.386  17.124  69.968  1.00  0.00     0.063 OA 
HETATM   29  C   UNL     1     -10.069  18.456  69.564  1.00  0.00     0.282 C  
ENDBRANCH  26  28
ENDBRANCH  25  26
ENDBRANCH  24  25
ENDBRANCH  23  24
ENDBRANCH  22  23
ENDBRANCH  21  22
ENDBRANCH  20  21
ENDBRANCH  19  20
ENDBRANCH  11  12
ENDBRANCH   8  10
ENDBRANCH   3   4
ENDBRANCH   2   3
TORSDOF 12
ENDMDL
MODEL      289
REMARK 921   NORMALIZED FREE ENERGY PREDICTED BY IDOCK:    3.66 KCAL/MOL
REMARK 922        TOTAL FREE ENERGY PREDICTED BY IDOCK:    4.19 KCAL/MOL
REMARK 923 INTER-LIGAND FREE ENERGY PREDICTED BY IDOCK:    0.60 KCAL/MOL
REMARK 924 INTRA-LIGAND FREE ENERGY PREDICTED BY IDOCK:    3.59 KCAL/MOL
REMARK 927      BINDING AFFINITY PREDICTED BY RF-SCORE:    0.00 PKD
ROOT
HETATM    1  C   UNL     1      -5.415   3.852  70.048  1.00  0.00    -0.012 C  
HETATM    2  C   UNL     1      -6.165   4.355  71.273  1.00  0.00    -0.018 C  
ENDROOT
BRANCH   2   3
HETATM    3  C   UNL     1      -6.583   5.809  71.078  1.00  0.00    -0.045 C  
BRANCH   3   4
HETATM    4  C   UNL     1      -8.107   5.989  71.088  1.00  0.00    -0.121 C  
HETATM    5  C   UNL     1      -8.551   7.432  70.748  1.00  0.00    -0.137 C  
HETATM    6  O   UNL     1      -8.030   8.303  71.761  1.00  0.00    -0.107 OA 
HETATM    7  C   UNL     1     -10.084   7.525  70.784  1.00  0.00    -0.192 C  
HETATM    8  C   UNL     1      -7.984   7.861  69.371  1.00  0.00    -0.117 C  
HETATM    9  H   UNL     1      -8.303   9.188  71.553  1.00  0.00     0.000 HD 
BRANCH   8  10
HETATM   10  C   UNL     1      -8.468   9.180  68.839  1.00  0.00    -0.129 C  
HETATM   11  C   UNL     1      -8.386  10.341  69.511  1.00  0.00    -0.162 C  
BRANCH  11  12
HETATM   12  C   UNL     1      -8.855  11.688  69.024  1.00  0.00     0.195 C  
HETATM   13  C   UNL     1      -8.056  12.128  67.785  1.00  0.00    -0.152 C  
HETATM   14  C   UNL     1      -8.900  13.201  67.125  1.00  0.00    -0.222 C  
HETATM   15  O   UNL     1      -6.778  12.647  68.132  1.00  0.00    -0.066 OA 
HETATM   16  H   UNL     1      -6.284  12.919  67.367  1.00  0.00     0.000 HD 
HETATM   17  C   UNL     1     -10.289  12.754  67.454  1.00  0.00    -0.222 C  
HETATM   18  O   UNL     1     -11.271  13.142  66.832  1.00  0.00    -0.279 OA 
HETATM   19  C   UNL     1     -10.342  11.769  68.606  1.00  0.00    -0.228 C  
BRANCH  19  20
HETATM   20  C   UNL     1     -11.224  12.211  69.779  1.00  0.00    -0.072 C  
BRANCH  20  21
HETATM   21  C   UNL     1     -10.869  11.486  71.078  1.00  0.00     2.816 C  
BRANCH  21  22
HETATM   22  C   UNL     1     -11.914  10.441  71.454  1.00  0.00    -0.379 C  
BRANCH  22  23
HETATM   23  C   UNL     1     -13.310  11.068  71.479  1.00  0.00    -0.261 C  
BRANCH  23  24
HETATM   24  C   UNL     1     -14.385   9.987  71.482  1.00  0.00     0.690 C  
BRANCH  24  25
HETATM   25  C   UNL     1     -13.813   8.612  71.146  1.00  0.00    -0.108 C  
BRANCH  25  26
HETATM   26  C   UNL     1     -12.790   8.189  72.174  1.00  0.00    -0.281 C  
HETATM   27  O   UNL     1     -12.051   8.945  72.785  1.00  0.00    -0.183 OA 
BRANCH  26  28
HETATM   28  O   UNL     1     -12.814   6.837  72.322  1.00  0.00    -0.108 OA 
HETATM   29  C   UNL     1     -14.111   6.270  72.135  1.00  0.00     0.502 C  
ENDBRANCH  26  28
ENDBRANCH  25  26
ENDBRANCH  24  25
ENDBRANCH  23  24
ENDBRANCH  22  23
ENDBRANCH  21  22
ENDBRANCH  20  21
ENDBRANCH  19  20
ENDBRANCH  11  12
ENDBRANCH   8  10
ENDBRANCH   3   4
ENDBRANCH   2   3
TORSDOF 12
ENDMDL
MODEL      290
REMARK 921   NORMALIZED FREE ENERGY PREDICTED BY IDOCK:    8.26 KCAL/MOL
REMARK 922        TOTAL FREE ENERGY PREDICTED BY IDOCK:   12.02 KCAL/MOL
REMARK 923 INTER-LIGAND FREE ENERGY PREDICTED BY IDOCK:    7.51 KCAL/MOL
REMARK 924 INTRA-LIGAND FREE ENERGY PREDICTED BY IDOCK:    4.51 KCAL/MOL
REMARK 927      BINDING AFFINITY PREDICTED BY RF-SCORE:    0.00 PKD
ROOT
HETATM    1  C   UNL     1     -12.728   5.063  70.298  1.00  0.00     9.291 C  
HETATM    2  C   UNL     1     -11.643   5.451  71.293  1.00  0.00     0.551 C  
ENDROOT
BRANCH   2   3
HETATM    3  C   UNL     1     -10.454   4.504  71.177  1.00  0.00     0.014 C  
BRANCH   3   4
HETATM    4  C   UNL     1      -9.142   5.242  70.881  1.00  0.00    -0.168 C  
HETATM    5  C   UNL     1      -9.309   6.396  69.864  1.00  0.00    -0.151 C  
HETATM    6  O   UNL     1      -9.748   5.828  68.622  1.00  0.00    -0.122 OA 
HETATM    7  C   UNL     1      -7.954   7.076  69.622  1.00  0.00    -0.124 C  
HETATM    8  C   UNL     1     -10.375   7.405  70.363  1.00  0.00    -0.215 C  
HETATM    9  H   UNL     1      -9.851   6.536  67.998  1.00  0.00     0.000 HD 
BRANCH   8  10
HETATM   10  C   UNL     1     -10.525   8.662  69.553  1.00  0.00    -0.222 C  
HETATM   11  C   UNL     1      -9.939   8.867  68.362  1.00  0.00    -0.198 C  
BRANCH  11  12
HETATM   12  C   UNL     1     -10.058  10.105  67.511  1.00  0.00    -0.244 C  
HETATM   13  C   UNL     1     -10.705  11.252  68.306  1.00  0.00    -0.194 C  
HETATM   14  C   UNL     1     -10.339  12.517  67.553  1.00  0.00    -0.225 C  
HETATM   15  O   UNL     1     -12.119  11.115  68.384  1.00  0.00    -0.645 OA 
HETATM   16  H   UNL     1     -12.519  11.823  68.876  1.00  0.00     0.000 HD 
HETATM   17  C   UNL     1      -8.998  12.169  66.990  1.00  0.00    -0.201 C  
HETATM   18  O   UNL     1      -8.204  13.020  66.606  1.00  0.00     0.038 OA 
HETATM   19  C   UNL     1      -8.727  10.678  66.970  1.00  0.00    -0.128 C  
BRANCH  19  20
HETATM   20  C   UNL     1      -8.402  10.110  65.584  1.00  0.00    -0.153 C  
BRANCH  20  21
HETATM   21  C   UNL     1      -7.088   9.327  65.572  1.00  0.00    -0.086 C  
BRANCH  21  22
HETATM   22  C   UNL     1      -6.292   9.525  66.857  1.00  0.00    -0.066 C  
BRANCH  22  23
HETATM   23  C   UNL     1      -6.224  11.011  67.219  1.00  0.00    -0.068 C  
BRANCH  23  24
HETATM   24  C   UNL     1      -6.743  11.244  68.633  1.00  0.00    -0.071 C  
BRANCH  24  25
HETATM   25  C   UNL     1      -5.704  11.926  69.518  1.00  0.00    -0.080 C  
BRANCH  25  26
HETATM   26  C   UNL     1      -5.723  13.423  69.314  1.00  0.00    -0.082 C  
HETATM   27  O   UNL     1      -5.250  14.010  68.354  1.00  0.00    -0.089 OA 
BRANCH  26  28
HETATM   28  O   UNL     1      -6.350  14.026  70.361  1.00  0.00    -0.148 OA 
HETATM   29  C   UNL     1      -6.233  13.298  71.584  1.00  0.00     1.295 C  
ENDBRANCH  26  28
ENDBRANCH  25  26
ENDBRANCH  24  25
ENDBRANCH  23  24
ENDBRANCH  22  23
ENDBRANCH  21  22
ENDBRANCH  20  21
ENDBRANCH  19  20
ENDBRANCH  11  12
ENDBRANCH   8  10
ENDBRANCH   3   4
ENDBRANCH   2   3
TORSDOF 12
ENDMDL
MODEL      291
REMARK 921   NORMALIZED FREE ENERGY PREDICTED BY IDOCK:   20.21 KCAL/MOL
REMARK 922        TOTAL FREE ENERGY PREDICTED BY IDOCK:   32.35 KCAL/MOL
REMARK 923 INTER-LIGAND FREE ENERGY PREDICTED BY IDOCK:   31.64 KCAL/MOL
REMARK 924 INTRA-LIGAND FREE ENERGY PREDICTED BY IDOCK:    0.72 KCAL/MOL
REMARK 927      BINDING AFFINITY PREDICTED BY RF-SCORE:    0.00 PKD
ROOT
HETATM    1  C   UNL     1     -11.801   9.492  63.587  1.00  0.00    10.919 C  
HETATM    2  C   UNL     1     -11.291  10.845  63.109  1.00  0.00     0.933 C  
ENDROOT
BRANCH   2   3
HETATM    3  C   UNL     1     -10.209  11.365  64.050  1.00  0.00    -0.398 C  
BRANCH   3   4
HETATM    4  C   UNL     1     -10.244  10.678  65.422  1.00  0.00    -0.341 C  
HETATM    5  C   UNL     1     -10.220  11.678  66.603  1.00  0.00    -0.216 C  
HETATM    6  O   UNL     1      -8.986  12.404  66.540  1.00  0.00    -0.278 OA 
HETATM    7  C   UNL     1     -10.253  10.910  67.933  1.00  0.00    -0.205 C  
HETATM    8  C   UNL     1     -11.401  12.675  66.489  1.00  0.00    -0.377 C  
HETATM    9  H   UNL     1      -8.971  13.018  67.265  1.00  0.00     0.000 HD 
BRANCH   8  10
HETATM   10  C   UNL     1     -11.597  13.603  67.654  1.00  0.00    -0.381 C  
HETATM   11  C   UNL     1     -11.069  14.835  67.736  1.00  0.00    -0.306 C  
BRANCH  11  12
HETATM   12  C   UNL     1     -11.235  15.802  68.880  1.00  0.00    -0.332 C  
HETATM   13  C   UNL     1     -12.263  16.891  68.527  1.00  0.00     1.726 C  
HETATM   14  C   UNL     1     -12.693  17.482  69.857  1.00  0.00     8.863 C  
HETATM   15  O   UNL     1     -11.705  17.901  67.695  1.00  0.00     0.840 OA 
HETATM   16  H   UNL     1     -12.340  18.574  67.477  1.00  0.00     0.000 HD 
HETATM   17  C   UNL     1     -12.587  16.303  70.771  1.00  0.00     0.728 C  
HETATM   18  O   UNL     1     -13.162  16.255  71.853  1.00  0.00    -0.073 OA 
HETATM   19  C   UNL     1     -11.726  15.188  70.212  1.00  0.00    -0.338 C  
BRANCH  19  20
HETATM   20  C   UNL     1     -10.547  14.787  71.105  1.00  0.00     0.695 C  
BRANCH  20  21
HETATM   21  C   UNL     1      -9.584  15.949  71.351  1.00  0.00     3.389 C  
BRANCH  21  22
HETATM   22  C   UNL     1      -8.191  15.665  70.798  1.00  0.00     2.410 C  
BRANCH  22  23
HETATM   23  C   UNL     1      -7.309  16.911  70.909  1.00  0.00     4.022 C  
BRANCH  23  24
HETATM   24  C   UNL     1      -7.621  17.892  69.783  1.00  0.00     0.852 C  
BRANCH  24  25
HETATM   25  C   UNL     1      -6.985  17.467  68.463  1.00  0.00    -0.215 C  
BRANCH  25  26
HETATM   26  C   UNL     1      -6.675  15.989  68.467  1.00  0.00    -0.124 C  
HETATM   27  O   UNL     1      -5.575  15.500  68.673  1.00  0.00    -0.088 OA 
BRANCH  26  28
HETATM   28  O   UNL     1      -7.805  15.277  68.208  1.00  0.00    -0.112 OA 
HETATM   29  C   UNL     1      -7.993  14.999  66.820  1.00  0.00     0.044 C  
ENDBRANCH  26  28
ENDBRANCH  25  26
ENDBRANCH  24  25
ENDBRANCH  23  24
ENDBRANCH  22  23
ENDBRANCH  21  22
ENDBRANCH  20  21
ENDBRANCH  19  20
ENDBRANCH  11  12
ENDBRANCH   8  10
ENDBRANCH   3   4
ENDBRANCH   2   3
TORSDOF 12
ENDMDL
MODEL      292
REMARK 921   NORMALIZED FREE ENERGY PREDICTED BY IDOCK:   42.00 KCAL/MOL
REMARK 922        TOTAL FREE ENERGY PREDICTED BY IDOCK:   69.43 KCAL/MOL
REMARK 923 INTER-LIGAND FREE ENERGY PREDICTED BY IDOCK:   68.28 KCAL/MOL
REMARK 924 INTRA-LIGAND FREE ENERGY PREDICTED BY IDOCK:    1.15 KCAL/MOL
REMARK 927      BINDING AFFINITY PREDICTED BY RF-SCORE:    0.00 PKD
ROOT
HETATM    1  C   UNL     1     -12.237   9.862  63.134  1.00  0.00     8.635 C  
HETATM    2  C   UNL     1     -11.698  11.285  63.089  1.00  0.00     0.409 C  
ENDROOT
BRANCH   2   3
HETATM    3  C   UNL     1     -10.673  11.498  64.198  1.00  0.00    -0.428 C  
BRANCH   3   4
HETATM    4  C   UNL     1     -10.648  10.340  65.204  1.00  0.00     0.081 C  
HETATM    5  C   UNL     1     -10.740  10.811  66.676  1.00  0.00    -0.207 C  
HETATM    6  O   UNL     1      -9.588  11.619  66.952  1.00  0.00    -0.182 OA 
HETATM    7  C   UNL     1     -10.703   9.595  67.613  1.00  0.00    -0.324 C  
HETATM    8  C   UNL     1     -12.018  11.661  66.891  1.00  0.00     0.222 C  
HETATM    9  H   UNL     1      -9.644  11.908  67.855  1.00  0.00     0.000 HD 
BRANCH   8  10
HETATM   10  C   UNL     1     -12.320  12.051  68.310  1.00  0.00     0.489 C  
HETATM   11  C   UNL     1     -11.875  13.174  68.897  1.00  0.00    -0.361 C  
BRANCH  11  12
HETATM   12  C   UNL     1     -12.149  13.610  70.313  1.00  0.00    -0.427 C  
HETATM   13  C   UNL     1     -13.192  14.740  70.342  1.00  0.00    -0.048 C  
HETATM   14  C   UNL     1     -13.727  14.755  71.762  1.00  0.00    -0.511 C  
HETATM   15  O   UNL     1     -12.621  16.002  70.016  1.00  0.00    -0.505 OA 
HETATM   16  H   UNL     1     -13.265  16.700  70.034  1.00  0.00     0.000 HD 
HETATM   17  C   UNL     1     -13.636  13.312  72.145  1.00  0.00    -0.562 C  
HETATM   18  O   UNL     1     -14.276  12.836  73.075  1.00  0.00     0.142 OA 
HETATM   19  C   UNL     1     -12.700  12.515  71.257  1.00  0.00    -0.350 C  
BRANCH  19  20
HETATM   20  C   UNL     1     -11.566  11.806  72.004  1.00  0.00     3.722 C  
BRANCH  20  21
HETATM   21  C   UNL     1     -10.694  12.781  72.796  1.00  0.00    12.670 C  
BRANCH  21  22
HETATM   22  C   UNL     1      -9.253  12.795  72.297  1.00  0.00    21.026 C  
BRANCH  22  23
HETATM   23  C   UNL     1      -8.456  13.899  72.996  1.00  0.00    11.139 C  
BRANCH  23  24
HETATM   24  C   UNL     1      -8.773  15.259  72.385  1.00  0.00     7.714 C  
BRANCH  24  25
HETATM   25  C   UNL     1      -8.081  15.455  71.039  1.00  0.00     2.773 C  
BRANCH  25  26
HETATM   26  C   UNL     1      -7.716  14.125  70.424  1.00  0.00     1.528 C  
HETATM   27  O   UNL     1      -6.603  13.624  70.437  1.00  0.00     0.051 OA 
BRANCH  26  28
HETATM   28  O   UNL     1      -8.815  13.561  69.851  1.00  0.00     1.718 OA 
HETATM   29  C   UNL     1      -8.967  13.896  68.471  1.00  0.00    -0.141 C  
ENDBRANCH  26  28
ENDBRANCH  25  26
ENDBRANCH  24  25
ENDBRANCH  23  24
ENDBRANCH  22  23
ENDBRANCH  21  22
ENDBRANCH  20  21
ENDBRANCH  19  20
ENDBRANCH  11  12
ENDBRANCH   8  10
ENDBRANCH   3   4
ENDBRANCH   2   3
TORSDOF 12
ENDMDL
