MODEL        1
REMARK 921   NORMALIZED FREE ENERGY PREDICTED BY IDOCK:   -7.08 KCAL/MOL
REMARK 922        TOTAL FREE ENERGY PREDICTED BY IDOCK:   -8.91 KCAL/MOL
REMARK 923 INTER-LIGAND FREE ENERGY PREDICTED BY IDOCK:   -8.74 KCAL/MOL
REMARK 924 INTRA-LIGAND FREE ENERGY PREDICTED BY IDOCK:   -0.17 KCAL/MOL
REMARK 927      BINDING AFFINITY PREDICTED BY RF-SCORE:    0.00 PKD
ROOT
HETATM    1  C   UNL     1      -7.235  17.980  67.857  1.00  0.00    -0.222 C  
HETATM    2  O   UNL     1      -8.279  17.134  68.373  1.00  0.00    -0.234 OA 
ENDROOT
BRANCH   2   3
HETATM    3  C   UNL     1      -8.788  16.253  67.371  1.00  0.00    -0.186 C  
HETATM    4  C   UNL     1      -7.605  15.395  66.835  1.00  0.00    -0.076 C  
HETATM    5  N   UNL     1      -6.435  15.071  67.677  1.00  0.00    -0.208 NA 
HETATM    6  H   UNL     1      -5.934  15.581  68.403  1.00  0.00     0.000 HD 
HETATM    7  C   UNL     1      -7.542  14.137  67.704  1.00  0.00    -0.180 C  
HETATM    8  C   UNL     1      -8.720  14.211  68.627  1.00  0.00    -0.126 C  
HETATM    9  N   UNL     1      -9.611  15.115  67.904  1.00  0.00    -0.202 NA 
HETATM   10  C   UNL     1     -10.369  14.698  66.771  1.00  0.00    -0.268 C  
HETATM   11  C   UNL     1     -10.664  15.761  66.010  1.00  0.00    -0.311 C  
HETATM   12  C   UNL     1     -11.395  15.625  64.756  1.00  0.00    -0.343 C  
HETATM   13  C   UNL     1      -9.872  16.949  66.468  1.00  0.00    -0.307 C  
HETATM   14  C   UNL     1     -11.919  14.229  64.499  1.00  0.00    -0.462 C  
HETATM   15  O   UNL     1     -11.498  16.530  63.939  1.00  0.00    -1.145 OA 
HETATM   16  O   UNL     1      -9.690  12.402  66.437  1.00  0.00    -0.230 OA 
HETATM   17  H2  UNL     1     -13.853  14.577  64.850  1.00  0.00     0.000 HD 
HETATM   18  N   UNL     1     -13.143  13.892  65.107  1.00  0.00    -0.764 NA 
HETATM   19  C   UNL     1     -10.870  13.396  64.615  1.00  0.00    -0.405 C  
HETATM   20  C   UNL     1     -10.278  13.384  66.004  1.00  0.00    -0.300 C  
HETATM   21  C   UNL     1     -10.699  12.243  63.682  1.00  0.00    -0.513 C  
HETATM   22  H1  UNL     1     -13.495  12.950  64.934  1.00  0.00     0.000 HD 
BRANCH  13  23
HETATM   23  C   UNL     1     -10.767  17.855  67.347  1.00  0.00    -0.295 C  
BRANCH  23  24
HETATM   24  O   UNL     1     -10.729  19.245  66.970  1.00  0.00    -0.448 OA 
BRANCH  24  25
HETATM   25  C   UNL     1     -10.077  20.062  67.835  1.00  0.00    -0.420 C  
HETATM   26  O   UNL     1     -10.068  19.947  69.055  1.00  0.00    -0.434 OA 
HETATM   27  N   UNL     1      -9.467  21.056  67.159  1.00  0.00    -0.662 N  
HETATM   28  H1  UNL     1      -8.977  21.670  67.809  1.00  0.00     0.000 HD 
HETATM   29  H2  UNL     1      -9.492  21.177  66.146  1.00  0.00     0.000 HD 
ENDBRANCH  24  25
ENDBRANCH  23  24
ENDBRANCH  13  23
ENDBRANCH   2   3
TORSDOF 4
ENDMDL
MODEL        2
REMARK 921   NORMALIZED FREE ENERGY PREDICTED BY IDOCK:   -6.96 KCAL/MOL
REMARK 922        TOTAL FREE ENERGY PREDICTED BY IDOCK:   -8.75 KCAL/MOL
REMARK 923 INTER-LIGAND FREE ENERGY PREDICTED BY IDOCK:   -8.61 KCAL/MOL
REMARK 924 INTRA-LIGAND FREE ENERGY PREDICTED BY IDOCK:   -0.14 KCAL/MOL
REMARK 927      BINDING AFFINITY PREDICTED BY RF-SCORE:    0.00 PKD
ROOT
HETATM    1  C   UNL     1     -11.337  10.735  67.757  1.00  0.00    -0.279 C  
HETATM    2  O   UNL     1     -12.088  11.841  67.226  1.00  0.00    -0.595 OA 
ENDROOT
BRANCH   2   3
HETATM    3  C   UNL     1     -11.291  13.022  67.130  1.00  0.00    -0.305 C  
HETATM    4  C   UNL     1     -10.361  12.880  65.890  1.00  0.00    -0.285 C  
HETATM    5  N   UNL     1     -10.747  12.069  64.717  1.00  0.00    -0.293 NA 
HETATM    6  H   UNL     1     -11.276  11.203  64.609  1.00  0.00     0.000 HD 
HETATM    7  C   UNL     1     -11.119  13.468  64.699  1.00  0.00    -0.374 C  
HETATM    8  C   UNL     1     -12.388  14.038  65.255  1.00  0.00    -0.465 C  
HETATM    9  N   UNL     1     -12.037  14.238  66.659  1.00  0.00    -0.436 NA 
HETATM   10  C   UNL     1     -11.215  15.318  67.096  1.00  0.00    -0.291 C  
HETATM   11  C   UNL     1     -10.631  14.998  68.258  1.00  0.00    -0.247 C  
HETATM   12  C   UNL     1      -9.695  15.901  68.918  1.00  0.00    -0.230 C  
HETATM   13  C   UNL     1     -10.830  13.539  68.542  1.00  0.00    -0.283 C  
HETATM   14  C   UNL     1      -9.588  17.260  68.264  1.00  0.00    -0.288 C  
HETATM   15  O   UNL     1      -8.988  15.563  69.858  1.00  0.00    -0.172 OA 
HETATM   16  O   UNL     1     -10.602  16.442  65.045  1.00  0.00    -0.651 OA 
HETATM   17  H2  UNL     1     -10.583  18.318  69.634  1.00  0.00     0.000 HD 
HETATM   18  N   UNL     1     -10.564  18.210  68.620  1.00  0.00    -0.357 NA 
HETATM   19  C   UNL     1      -9.317  17.043  66.965  1.00  0.00    -0.249 C  
HETATM   20  C   UNL     1     -10.423  16.306  66.247  1.00  0.00    -0.308 C  
HETATM   21  C   UNL     1      -8.347  17.907  66.229  1.00  0.00    -0.230 C  
HETATM   22  H1  UNL     1     -10.492  19.127  68.178  1.00  0.00     0.000 HD 
BRANCH  13  23
HETATM   23  C   UNL     1     -11.986  13.366  69.555  1.00  0.00    -0.319 C  
BRANCH  23  24
HETATM   24  O   UNL     1     -11.843  14.176  70.738  1.00  0.00    -0.303 OA 
BRANCH  24  25
HETATM   25  C   UNL     1     -13.004  14.503  71.360  1.00  0.00    -0.333 C  
HETATM   26  O   UNL     1     -13.465  13.944  72.348  1.00  0.00    -0.468 OA 
HETATM   27  N   UNL     1     -13.607  15.516  70.706  1.00  0.00    -0.847 N  
HETATM   28  H1  UNL     1     -14.479  15.762  71.174  1.00  0.00     0.000 HD 
HETATM   29  H2  UNL     1     -13.245  15.970  69.867  1.00  0.00     0.000 HD 
ENDBRANCH  24  25
ENDBRANCH  23  24
ENDBRANCH  13  23
ENDBRANCH   2   3
TORSDOF 4
ENDMDL
MODEL        3
REMARK 921   NORMALIZED FREE ENERGY PREDICTED BY IDOCK:   -6.92 KCAL/MOL
REMARK 922        TOTAL FREE ENERGY PREDICTED BY IDOCK:   -8.71 KCAL/MOL
REMARK 923 INTER-LIGAND FREE ENERGY PREDICTED BY IDOCK:   -9.17 KCAL/MOL
REMARK 924 INTRA-LIGAND FREE ENERGY PREDICTED BY IDOCK:    0.46 KCAL/MOL
REMARK 927      BINDING AFFINITY PREDICTED BY RF-SCORE:    0.00 PKD
ROOT
HETATM    1  C   UNL     1     -10.566  12.508  68.604  1.00  0.00    -0.216 C  
HETATM    2  O   UNL     1     -11.809  13.212  68.429  1.00  0.00    -0.332 OA 
ENDROOT
BRANCH   2   3
HETATM    3  C   UNL     1     -11.596  14.588  68.112  1.00  0.00    -0.331 C  
HETATM    4  C   UNL     1     -12.535  15.443  69.012  1.00  0.00     0.134 C  
HETATM    5  N   UNL     1     -12.969  14.980  70.345  1.00  0.00    -0.611 NA 
HETATM    6  H   UNL     1     -13.190  14.060  70.729  1.00  0.00     0.000 HD 
HETATM    7  C   UNL     1     -11.754  15.765  70.287  1.00  0.00    -0.358 C  
HETATM    8  C   UNL     1     -10.375  15.219  70.077  1.00  0.00    -0.221 C  
HETATM    9  N   UNL     1     -10.298  15.148  68.620  1.00  0.00    -0.226 NA 
HETATM   10  C   UNL     1     -10.098  16.302  67.807  1.00  0.00    -0.252 C  
HETATM   11  C   UNL     1     -10.576  16.075  66.576  1.00  0.00    -0.284 C  
HETATM   12  C   UNL     1     -10.547  17.104  65.543  1.00  0.00    -0.150 C  
HETATM   13  C   UNL     1     -11.383  14.812  66.570  1.00  0.00    -0.344 C  
HETATM   14  C   UNL     1      -9.792  18.353  65.941  1.00  0.00    -0.009 C  
HETATM   15  O   UNL     1     -11.157  17.009  64.487  1.00  0.00    -1.098 OA 
HETATM   16  O   UNL     1     -10.061  18.125  69.396  1.00  0.00    -0.200 OA 
HETATM   17  H2  UNL     1      -8.167  18.078  64.814  1.00  0.00     0.000 HD 
HETATM   18  N   UNL     1      -8.394  18.324  65.777  1.00  0.00    -0.424 NA 
HETATM   19  C   UNL     1     -10.314  18.764  67.109  1.00  0.00    -0.455 C  
HETATM   20  C   UNL     1     -10.116  17.768  68.227  1.00  0.00    -0.371 C  
HETATM   21  C   UNL     1     -10.529  20.216  67.385  1.00  0.00    -0.427 C  
HETATM   22  H1  UNL     1      -7.885  19.166  66.046  1.00  0.00     0.000 HD 
BRANCH  13  23
HETATM   23  C   UNL     1     -10.527  13.658  65.996  1.00  0.00    -0.300 C  
BRANCH  23  24
HETATM   24  O   UNL     1     -10.843  13.328  64.630  1.00  0.00    -0.338 OA 
BRANCH  24  25
HETATM   25  C   UNL     1     -12.165  13.329  64.324  1.00  0.00    -0.392 C  
HETATM   26  O   UNL     1     -13.019  12.625  64.851  1.00  0.00    -0.830 OA 
HETATM   27  N   UNL     1     -12.404  14.194  63.318  1.00  0.00    -1.133 N  
HETATM   28  H1  UNL     1     -13.397  14.194  63.089  1.00  0.00     0.000 HD 
HETATM   29  H2  UNL     1     -11.696  14.763  62.854  1.00  0.00     0.000 HD 
ENDBRANCH  24  25
ENDBRANCH  23  24
ENDBRANCH  13  23
ENDBRANCH   2   3
TORSDOF 4
ENDMDL
MODEL        4
REMARK 921   NORMALIZED FREE ENERGY PREDICTED BY IDOCK:   -6.58 KCAL/MOL
REMARK 922        TOTAL FREE ENERGY PREDICTED BY IDOCK:   -8.29 KCAL/MOL
REMARK 923 INTER-LIGAND FREE ENERGY PREDICTED BY IDOCK:   -8.09 KCAL/MOL
REMARK 924 INTRA-LIGAND FREE ENERGY PREDICTED BY IDOCK:   -0.20 KCAL/MOL
REMARK 927      BINDING AFFINITY PREDICTED BY RF-SCORE:    0.00 PKD
ROOT
HETATM    1  C   UNL     1     -10.979  10.670  66.982  1.00  0.00    -0.208 C  
HETATM    2  O   UNL     1     -11.807  11.833  66.801  1.00  0.00    -0.586 OA 
ENDROOT
BRANCH   2   3
HETATM    3  C   UNL     1     -11.041  13.037  66.844  1.00  0.00    -0.277 C  
HETATM    4  C   UNL     1     -10.060  13.030  65.635  1.00  0.00    -0.268 C  
HETATM    5  N   UNL     1     -10.377  12.319  64.380  1.00  0.00    -0.314 NA 
HETATM    6  H   UNL     1     -10.877  11.454  64.173  1.00  0.00     0.000 HD 
HETATM    7  C   UNL     1     -10.787  13.705  64.471  1.00  0.00    -0.406 C  
HETATM    8  C   UNL     1     -12.092  14.191  65.023  1.00  0.00    -0.421 C  
HETATM    9  N   UNL     1     -11.801  14.272  66.452  1.00  0.00    -0.399 NA 
HETATM   10  C   UNL     1     -11.028  15.328  67.017  1.00  0.00    -0.324 C  
HETATM   11  C   UNL     1     -10.481  14.918  68.170  1.00  0.00    -0.242 C  
HETATM   12  C   UNL     1      -9.596  15.781  68.945  1.00  0.00    -0.229 C  
HETATM   13  C   UNL     1     -10.649  13.435  68.314  1.00  0.00    -0.264 C  
HETATM   14  C   UNL     1      -9.502  17.196  68.419  1.00  0.00    -0.276 C  
HETATM   15  O   UNL     1      -8.917  15.377  69.879  1.00  0.00    -0.166 OA 
HETATM   16  O   UNL     1     -10.367  16.647  65.101  1.00  0.00    -0.630 OA 
HETATM   17  H2  UNL     1     -10.579  18.102  69.836  1.00  0.00     0.000 HD 
HETATM   18  N   UNL     1     -10.518  18.086  68.818  1.00  0.00    -0.392 NA 
HETATM   19  C   UNL     1      -9.176  17.104  67.119  1.00  0.00    -0.242 C  
HETATM   20  C   UNL     1     -10.232  16.408  66.293  1.00  0.00    -0.330 C  
HETATM   21  C   UNL     1      -8.203  18.054  66.503  1.00  0.00    -0.298 C  
HETATM   22  H1  UNL     1     -10.455  19.041  68.463  1.00  0.00     0.000 HD 
BRANCH  13  23
HETATM   23  C   UNL     1     -11.838  13.144  69.259  1.00  0.00    -0.323 C  
BRANCH  23  24
HETATM   24  O   UNL     1     -11.540  12.171  70.279  1.00  0.00    -0.208 OA 
BRANCH  24  25
HETATM   25  C   UNL     1     -12.613  11.501  70.772  1.00  0.00    -0.298 C  
HETATM   26  O   UNL     1     -13.268  11.829  71.754  1.00  0.00    -0.457 OA 
HETATM   27  N   UNL     1     -12.833  10.386  70.046  1.00  0.00    -0.527 N  
HETATM   28  H1  UNL     1     -13.639   9.884  70.416  1.00  0.00     0.000 HD 
HETATM   29  H2  UNL     1     -12.276  10.090  69.244  1.00  0.00     0.000 HD 
ENDBRANCH  24  25
ENDBRANCH  23  24
ENDBRANCH  13  23
ENDBRANCH   2   3
TORSDOF 4
ENDMDL
MODEL        5
REMARK 921   NORMALIZED FREE ENERGY PREDICTED BY IDOCK:   -6.55 KCAL/MOL
REMARK 922        TOTAL FREE ENERGY PREDICTED BY IDOCK:   -8.26 KCAL/MOL
REMARK 923 INTER-LIGAND FREE ENERGY PREDICTED BY IDOCK:   -8.01 KCAL/MOL
REMARK 924 INTRA-LIGAND FREE ENERGY PREDICTED BY IDOCK:   -0.24 KCAL/MOL
REMARK 927      BINDING AFFINITY PREDICTED BY RF-SCORE:    0.00 PKD
ROOT
HETATM    1  C   UNL     1      -8.453  12.134  66.901  1.00  0.00    -0.173 C  
HETATM    2  O   UNL     1      -9.281  13.289  66.669  1.00  0.00    -0.250 OA 
ENDROOT
BRANCH   2   3
HETATM    3  C   UNL     1      -9.818  13.806  67.887  1.00  0.00    -0.232 C  
HETATM    4  C   UNL     1      -8.662  14.488  68.675  1.00  0.00    -0.172 C  
HETATM    5  N   UNL     1      -7.498  15.085  67.989  1.00  0.00    -0.112 NA 
HETATM    6  H   UNL     1      -6.979  14.835  67.146  1.00  0.00     0.000 HD 
HETATM    7  C   UNL     1      -8.631  15.953  68.236  1.00  0.00    -0.176 C  
HETATM    8  C   UNL     1      -9.802  16.136  67.320  1.00  0.00    -0.241 C  
HETATM    9  N   UNL     1     -10.670  15.031  67.719  1.00  0.00    -0.272 NA 
HETATM   10  C   UNL     1     -11.445  15.060  68.915  1.00  0.00    -0.314 C  
HETATM   11  C   UNL     1     -11.712  13.808  69.309  1.00  0.00    -0.376 C  
HETATM   12  C   UNL     1     -12.452  13.533  70.536  1.00  0.00    -0.302 C  
HETATM   13  C   UNL     1     -10.885  12.839  68.518  1.00  0.00    -0.279 C  
HETATM   14  C   UNL     1     -13.016  14.769  71.203  1.00  0.00    -0.359 C  
HETATM   15  O   UNL     1     -12.533  12.419  71.034  1.00  0.00    -0.368 OA 
HETATM   16  O   UNL     1     -10.832  17.159  69.947  1.00  0.00    -0.086 OA 
HETATM   17  H2  UNL     1     -14.938  14.496  70.738  1.00  0.00     0.000 HD 
HETATM   18  N   UNL     1     -14.246  15.245  70.712  1.00  0.00    -0.766 NA 
HETATM   19  C   UNL     1     -11.991  15.623  71.361  1.00  0.00    -0.476 C  
HETATM   20  C   UNL     1     -11.393  16.077  70.050  1.00  0.00    -0.352 C  
HETATM   21  C   UNL     1     -11.856  16.438  72.605  1.00  0.00    -0.544 C  
HETATM   22  H1  UNL     1     -14.626  16.078  71.162  1.00  0.00     0.000 HD 
BRANCH  13  23
HETATM   23  C   UNL     1     -11.751  12.224  67.393  1.00  0.00    -0.335 C  
BRANCH  23  24
HETATM   24  O   UNL     1     -12.619  13.176  66.747  1.00  0.00    -0.231 OA 
BRANCH  24  25
HETATM   25  C   UNL     1     -12.612  13.138  65.390  1.00  0.00    -0.454 C  
HETATM   26  O   UNL     1     -13.204  12.319  64.698  1.00  0.00    -0.763 OA 
HETATM   27  N   UNL     1     -11.819  14.115  64.907  1.00  0.00    -0.381 N  
HETATM   28  H1  UNL     1     -11.815  14.087  63.888  1.00  0.00     0.000 HD 
HETATM   29  H2  UNL     1     -11.300  14.784  65.476  1.00  0.00     0.000 HD 
ENDBRANCH  24  25
ENDBRANCH  23  24
ENDBRANCH  13  23
ENDBRANCH   2   3
TORSDOF 4
ENDMDL
MODEL        6
REMARK 921   NORMALIZED FREE ENERGY PREDICTED BY IDOCK:   -6.49 KCAL/MOL
REMARK 922        TOTAL FREE ENERGY PREDICTED BY IDOCK:   -8.18 KCAL/MOL
REMARK 923 INTER-LIGAND FREE ENERGY PREDICTED BY IDOCK:   -8.44 KCAL/MOL
REMARK 924 INTRA-LIGAND FREE ENERGY PREDICTED BY IDOCK:    0.26 KCAL/MOL
REMARK 927      BINDING AFFINITY PREDICTED BY RF-SCORE:    0.00 PKD
ROOT
HETATM    1  C   UNL     1     -10.908  15.548  64.745  1.00  0.00    -0.363 C  
HETATM    2  O   UNL     1     -12.145  14.839  64.946  1.00  0.00    -0.384 OA 
ENDROOT
BRANCH   2   3
HETATM    3  C   UNL     1     -11.937  13.595  65.615  1.00  0.00    -0.395 C  
HETATM    4  C   UNL     1     -12.621  12.475  64.778  1.00  0.00    -0.413 C  
HETATM    5  N   UNL     1     -12.784  12.587  63.314  1.00  0.00    -0.739 NA 
HETATM    6  H   UNL     1     -12.964  13.373  62.689  1.00  0.00     0.000 HD 
HETATM    7  C   UNL     1     -11.572  11.956  63.793  1.00  0.00    -0.462 C  
HETATM    8  C   UNL     1     -10.297  12.666  64.132  1.00  0.00    -0.387 C  
HETATM    9  N   UNL     1     -10.535  13.064  65.517  1.00  0.00    -0.281 NA 
HETATM   10  C   UNL     1     -10.455  12.144  66.602  1.00  0.00    -0.220 C  
HETATM   11  C   UNL     1     -11.194  12.590  67.627  1.00  0.00    -0.332 C  
HETATM   12  C   UNL     1     -11.335  11.823  68.860  1.00  0.00    -0.267 C  
HETATM   13  C   UNL     1     -12.045  13.740  67.177  1.00  0.00    -0.416 C  
HETATM   14  C   UNL     1     -10.452  10.596  68.924  1.00  0.00    -0.210 C  
HETATM   15  O   UNL     1     -12.158  12.091  69.724  1.00  0.00    -0.294 OA 
HETATM   16  O   UNL     1      -9.994  10.027  65.529  1.00  0.00    -0.289 OA 
HETATM   17  H2  UNL     1      -9.118  11.270  70.248  1.00  0.00     0.000 HD 
HETATM   18  N   UNL     1      -9.124  10.796  69.345  1.00  0.00    -0.397 NA 
HETATM   19  C   UNL     1     -10.694   9.888  67.807  1.00  0.00    -0.332 C  
HETATM   20  C   UNL     1     -10.312  10.627  66.547  1.00  0.00    -0.241 C  
HETATM   21  C   UNL     1     -10.775   8.398  67.847  1.00  0.00    -0.141 C  
HETATM   22  H1  UNL     1      -8.529   9.968  69.388  1.00  0.00     0.000 HD 
BRANCH  13  23
HETATM   23  C   UNL     1     -11.387  15.069  67.617  1.00  0.00    -0.334 C  
BRANCH  23  24
HETATM   24  O   UNL     1     -12.130  15.774  68.629  1.00  0.00    -0.269 OA 
BRANCH  24  25
HETATM   25  C   UNL     1     -11.910  15.362  69.903  1.00  0.00    -0.350 C  
HETATM   26  O   UNL     1     -10.826  15.357  70.474  1.00  0.00    -0.309 OA 
HETATM   27  N   UNL     1     -13.060  14.914  70.447  1.00  0.00    -0.618 N  
HETATM   28  H1  UNL     1     -12.895  14.605  71.404  1.00  0.00     0.000 HD 
HETATM   29  H2  UNL     1     -13.962  14.889  69.971  1.00  0.00     0.000 HD 
ENDBRANCH  24  25
ENDBRANCH  23  24
ENDBRANCH  13  23
ENDBRANCH   2   3
TORSDOF 4
ENDMDL
MODEL        7
REMARK 921   NORMALIZED FREE ENERGY PREDICTED BY IDOCK:   -6.43 KCAL/MOL
REMARK 922        TOTAL FREE ENERGY PREDICTED BY IDOCK:   -8.10 KCAL/MOL
REMARK 923 INTER-LIGAND FREE ENERGY PREDICTED BY IDOCK:   -7.97 KCAL/MOL
REMARK 924 INTRA-LIGAND FREE ENERGY PREDICTED BY IDOCK:   -0.13 KCAL/MOL
REMARK 927      BINDING AFFINITY PREDICTED BY RF-SCORE:    0.00 PKD
ROOT
HETATM    1  C   UNL     1     -10.434  17.213  68.435  1.00  0.00    -0.376 C  
HETATM    2  O   UNL     1     -11.579  16.361  68.621  1.00  0.00    -0.311 OA 
ENDROOT
BRANCH   2   3
HETATM    3  C   UNL     1     -11.195  15.020  68.925  1.00  0.00    -0.277 C  
HETATM    4  C   UNL     1     -10.675  14.986  70.392  1.00  0.00    -0.100 C  
HETATM    5  N   UNL     1     -11.162  15.937  71.412  1.00  0.00    -0.303 NA 
HETATM    6  H   UNL     1     -11.446  16.917  71.376  1.00  0.00     0.000 HD 
HETATM    7  C   UNL     1     -11.883  14.689  71.283  1.00  0.00    -0.319 C  
HETATM    8  C   UNL     1     -13.032  14.440  70.354  1.00  0.00    -0.155 C  
HETATM    9  N   UNL     1     -12.344  14.073  69.118  1.00  0.00    -0.247 NA 
HETATM   10  C   UNL     1     -11.751  12.791  68.925  1.00  0.00    -0.326 C  
HETATM   11  C   UNL     1     -10.783  12.877  68.003  1.00  0.00    -0.244 C  
HETATM   12  C   UNL     1      -9.970  11.723  67.637  1.00  0.00    -0.194 C  
HETATM   13  C   UNL     1     -10.489  14.318  67.708  1.00  0.00    -0.245 C  
HETATM   14  C   UNL     1     -10.433  10.424  68.259  1.00  0.00    -0.191 C  
HETATM   15  O   UNL     1      -8.952  11.807  66.964  1.00  0.00    -0.174 OA 
HETATM   16  O   UNL     1     -12.104  11.669  71.037  1.00  0.00    -0.295 OA 
HETATM   17  H2  UNL     1     -11.218   9.586  66.626  1.00  0.00     0.000 HD 
HETATM   18  N   UNL     1     -11.475   9.745  67.600  1.00  0.00    -0.387 NA 
HETATM   19  C   UNL     1     -10.515  10.638  69.584  1.00  0.00    -0.219 C  
HETATM   20  C   UNL     1     -11.544  11.681  69.949  1.00  0.00    -0.288 C  
HETATM   21  C   UNL     1     -10.078   9.595  70.558  1.00  0.00    -0.338 C  
HETATM   22  H1  UNL     1     -11.787   8.869  68.021  1.00  0.00     0.000 HD 
BRANCH  13  23
HETATM   23  C   UNL     1     -11.198  14.728  66.396  1.00  0.00    -0.342 C  
BRANCH  23  24
HETATM   24  O   UNL     1     -11.143  13.719  65.369  1.00  0.00    -0.294 OA 
BRANCH  24  25
HETATM   25  C   UNL     1     -12.274  13.579  64.632  1.00  0.00    -0.406 C  
HETATM   26  O   UNL     1     -13.089  12.672  64.744  1.00  0.00    -0.852 OA 
HETATM   27  N   UNL     1     -12.353  14.569  63.719  1.00  0.00    -1.087 N  
HETATM   28  H1  UNL     1     -13.203  14.463  63.165  1.00  0.00     0.000 HD 
HETATM   29  H2  UNL     1     -11.665  15.313  63.600  1.00  0.00     0.000 HD 
ENDBRANCH  24  25
ENDBRANCH  23  24
ENDBRANCH  13  23
ENDBRANCH   2   3
TORSDOF 4
ENDMDL
MODEL        8
REMARK 921   NORMALIZED FREE ENERGY PREDICTED BY IDOCK:   -6.26 KCAL/MOL
REMARK 922        TOTAL FREE ENERGY PREDICTED BY IDOCK:   -7.90 KCAL/MOL
REMARK 923 INTER-LIGAND FREE ENERGY PREDICTED BY IDOCK:   -7.94 KCAL/MOL
REMARK 924 INTRA-LIGAND FREE ENERGY PREDICTED BY IDOCK:    0.05 KCAL/MOL
REMARK 927      BINDING AFFINITY PREDICTED BY RF-SCORE:    0.00 PKD
ROOT
HETATM    1  C   UNL     1      -9.355   9.359  65.109  1.00  0.00    -0.221 C  
HETATM    2  O   UNL     1     -10.649   9.980  65.212  1.00  0.00    -0.015 OA 
ENDROOT
BRANCH   2   3
HETATM    3  C   UNL     1     -10.544  11.378  65.479  1.00  0.00    -0.271 C  
HETATM    4  C   UNL     1      -9.948  12.069  64.217  1.00  0.00    -0.240 C  
HETATM    5  N   UNL     1     -10.149  11.519  62.861  1.00  0.00    -0.636 NA 
HETATM    6  H   UNL     1     -10.218  10.569  62.495  1.00  0.00     0.000 HD 
HETATM    7  C   UNL     1     -11.130  12.474  63.335  1.00  0.00    -0.361 C  
HETATM    8  C   UNL     1     -12.364  12.138  64.115  1.00  0.00    -0.409 C  
HETATM    9  N   UNL     1     -11.855  12.110  65.484  1.00  0.00    -0.440 NA 
HETATM   10  C   UNL     1     -11.566  13.299  66.217  1.00  0.00    -0.346 C  
HETATM   11  C   UNL     1     -10.665  13.031  67.171  1.00  0.00    -0.266 C  
HETATM   12  C   UNL     1     -10.146  14.075  68.048  1.00  0.00    -0.239 C  
HETATM   13  C   UNL     1     -10.087  11.664  66.957  1.00  0.00    -0.234 C  
HETATM   14  C   UNL     1     -10.836  15.412  67.886  1.00  0.00    -0.300 C  
HETATM   15  O   UNL     1      -9.180  13.915  68.781  1.00  0.00    -0.135 OA 
HETATM   16  O   UNL     1     -12.012  15.073  64.636  1.00  0.00    -0.414 OA 
HETATM   17  H2  UNL     1     -11.890  15.401  69.581  1.00  0.00     0.000 HD 
HETATM   18  N   UNL     1     -12.041  15.590  68.591  1.00  0.00    -0.563 NA 
HETATM   19  C   UNL     1     -10.782  15.718  66.578  1.00  0.00    -0.283 C  
HETATM   20  C   UNL     1     -11.536  14.737  65.711  1.00  0.00    -0.290 C  
HETATM   21  C   UNL     1     -10.517  17.116  66.127  1.00  0.00    -0.277 C  
HETATM   22  H1  UNL     1     -12.506  16.492  68.481  1.00  0.00     0.000 HD 
BRANCH  13  23
HETATM   23  C   UNL     1     -10.777  10.660  67.910  1.00  0.00    -0.248 C  
BRANCH  23  24
HETATM   24  O   UNL     1     -12.069  11.098  68.374  1.00  0.00    -0.605 OA 
BRANCH  24  25
HETATM   25  C   UNL     1     -12.217  11.144  69.722  1.00  0.00    -0.300 C  
HETATM   26  O   UNL     1     -12.037  12.131  70.425  1.00  0.00    -0.354 OA 
HETATM   27  N   UNL     1     -12.552   9.925  70.190  1.00  0.00    -0.497 N  
HETATM   28  H1  UNL     1     -12.663   9.959  71.203  1.00  0.00     0.000 HD 
HETATM   29  H2  UNL     1     -12.677   9.091  69.616  1.00  0.00     0.000 HD 
ENDBRANCH  24  25
ENDBRANCH  23  24
ENDBRANCH  13  23
ENDBRANCH   2   3
TORSDOF 4
ENDMDL
MODEL        9
REMARK 921   NORMALIZED FREE ENERGY PREDICTED BY IDOCK:   -6.17 KCAL/MOL
REMARK 922        TOTAL FREE ENERGY PREDICTED BY IDOCK:   -7.78 KCAL/MOL
REMARK 923 INTER-LIGAND FREE ENERGY PREDICTED BY IDOCK:   -7.32 KCAL/MOL
REMARK 924 INTRA-LIGAND FREE ENERGY PREDICTED BY IDOCK:   -0.46 KCAL/MOL
REMARK 927      BINDING AFFINITY PREDICTED BY RF-SCORE:    0.00 PKD
ROOT
HETATM    1  C   UNL     1      -6.981  16.003  69.117  1.00  0.00    -0.189 C  
HETATM    2  O   UNL     1      -8.013  15.027  69.346  1.00  0.00    -0.195 OA 
ENDROOT
BRANCH   2   3
HETATM    3  C   UNL     1      -8.615  14.600  68.123  1.00  0.00    -0.166 C  
HETATM    4  C   UNL     1      -7.577  13.737  67.348  1.00  0.00    -0.137 C  
HETATM    5  N   UNL     1      -6.532  12.962  68.048  1.00  0.00    -0.092 NA 
HETATM    6  H   UNL     1      -5.989  13.126  68.895  1.00  0.00     0.000 HD 
HETATM    7  C   UNL     1      -7.788  12.288  67.789  1.00  0.00    -0.151 C  
HETATM    8  C   UNL     1      -8.983  12.300  68.693  1.00  0.00     0.020 C  
HETATM    9  N   UNL     1      -9.656  13.530  68.283  1.00  0.00    -0.218 NA 
HETATM   10  C   UNL     1     -10.413  13.623  67.078  1.00  0.00    -0.270 C  
HETATM   11  C   UNL     1     -10.469  14.901  66.680  1.00  0.00    -0.292 C  
HETATM   12  C   UNL     1     -11.142  15.288  65.445  1.00  0.00    -0.347 C  
HETATM   13  C   UNL     1      -9.504  15.726  67.478  1.00  0.00    -0.218 C  
HETATM   14  C   UNL     1     -11.892  14.159  64.774  1.00  0.00    -0.417 C  
HETATM   15  O   UNL     1     -11.035  16.399  64.944  1.00  0.00    -0.600 OA 
HETATM   16  O   UNL     1     -10.137  11.450  66.056  1.00  0.00    -0.218 OA 
HETATM   17  H2  UNL     1     -13.749  14.741  65.217  1.00  0.00     0.000 HD 
HETATM   18  N   UNL     1     -13.188  13.890  65.252  1.00  0.00    -0.721 NA 
HETATM   19  C   UNL     1     -11.017  13.148  64.627  1.00  0.00    -0.374 C  
HETATM   20  C   UNL     1     -10.515  12.608  65.945  1.00  0.00    -0.274 C  
HETATM   21  C   UNL     1     -11.003  12.319  63.386  1.00  0.00    -0.467 C  
HETATM   22  H1  UNL     1     -13.693  13.128  64.799  1.00  0.00     0.000 HD 
BRANCH  13  23
HETATM   23  C   UNL     1     -10.271  16.476  68.593  1.00  0.00    -0.264 C  
BRANCH  23  24
HETATM   24  O   UNL     1     -11.611  15.989  68.801  1.00  0.00    -0.377 OA 
BRANCH  24  25
HETATM   25  C   UNL     1     -11.897  15.603  70.070  1.00  0.00    -0.367 C  
HETATM   26  O   UNL     1     -12.985  15.721  70.622  1.00  0.00    -0.479 OA 
HETATM   27  N   UNL     1     -10.792  15.103  70.659  1.00  0.00    -0.509 N  
HETATM   28  H1  UNL     1     -11.008  14.813  71.612  1.00  0.00     0.000 HD 
HETATM   29  H2  UNL     1      -9.876  15.026  70.217  1.00  0.00     0.000 HD 
ENDBRANCH  24  25
ENDBRANCH  23  24
ENDBRANCH  13  23
ENDBRANCH   2   3
TORSDOF 4
ENDMDL
MODEL       10
REMARK 921   NORMALIZED FREE ENERGY PREDICTED BY IDOCK:   -6.16 KCAL/MOL
REMARK 922        TOTAL FREE ENERGY PREDICTED BY IDOCK:   -7.77 KCAL/MOL
REMARK 923 INTER-LIGAND FREE ENERGY PREDICTED BY IDOCK:   -7.59 KCAL/MOL
REMARK 924 INTRA-LIGAND FREE ENERGY PREDICTED BY IDOCK:   -0.18 KCAL/MOL
REMARK 927      BINDING AFFINITY PREDICTED BY RF-SCORE:    0.00 PKD
ROOT
HETATM    1  C   UNL     1     -12.989  13.341  71.308  1.00  0.00    -0.270 C  
HETATM    2  O   UNL     1     -11.666  13.366  70.741  1.00  0.00    -0.113 OA 
ENDROOT
BRANCH   2   3
HETATM    3  C   UNL     1     -11.671  13.895  69.415  1.00  0.00    -0.315 C  
HETATM    4  C   UNL     1     -12.186  15.363  69.481  1.00  0.00    -0.246 C  
HETATM    5  N   UNL     1     -11.999  16.200  70.684  1.00  0.00    -0.481 NA 
HETATM    6  H   UNL     1     -11.994  15.996  71.684  1.00  0.00     0.000 HD 
HETATM    7  C   UNL     1     -10.959  16.254  69.677  1.00  0.00    -0.346 C  
HETATM    8  C   UNL     1      -9.770  15.345  69.605  1.00  0.00    -0.246 C  
HETATM    9  N   UNL     1     -10.309  14.206  68.865  1.00  0.00    -0.227 NA 
HETATM   10  C   UNL     1     -10.522  14.241  67.456  1.00  0.00    -0.252 C  
HETATM   11  C   UNL     1     -11.461  13.346  67.121  1.00  0.00    -0.373 C  
HETATM   12  C   UNL     1     -11.917  13.196  65.743  1.00  0.00    -0.423 C  
HETATM   13  C   UNL     1     -12.136  12.829  68.356  1.00  0.00    -0.145 C  
HETATM   14  C   UNL     1     -11.125  14.007  64.742  1.00  0.00    -0.387 C  
HETATM   15  O   UNL     1     -12.908  12.549  65.433  1.00  0.00    -0.554 OA 
HETATM   16  O   UNL     1      -9.910  16.497  66.837  1.00  0.00    -0.242 OA 
HETATM   17  H2  UNL     1     -10.111  12.511  63.895  1.00  0.00     0.000 HD 
HETATM   18  N   UNL     1      -9.925  13.438  64.277  1.00  0.00    -0.746 NA 
HETATM   19  C   UNL     1     -11.128  15.276  65.185  1.00  0.00    -0.412 C  
HETATM   20  C   UNL     1     -10.433  15.438  66.516  1.00  0.00    -0.294 C  
HETATM   21  C   UNL     1     -11.277  16.420  64.237  1.00  0.00     0.141 C  
HETATM   22  H1  UNL     1      -9.391  13.986  63.601  1.00  0.00     0.000 HD 
BRANCH  13  23
HETATM   23  C   UNL     1     -11.544  11.448  68.724  1.00  0.00    -0.313 C  
BRANCH  23  24
HETATM   24  O   UNL     1     -11.656  10.472  67.670  1.00  0.00    -0.447 OA 
BRANCH  24  25
HETATM   25  C   UNL     1     -10.519   9.787  67.391  1.00  0.00    -0.259 C  
HETATM   26  O   UNL     1      -9.463  10.282  67.015  1.00  0.00    -0.159 OA 
HETATM   27  N   UNL     1     -10.728   8.464  67.548  1.00  0.00    -0.479 N  
HETATM   28  H1  UNL     1      -9.873   7.949  67.338  1.00  0.00     0.000 HD 
HETATM   29  H2  UNL     1     -11.611   8.040  67.834  1.00  0.00     0.000 HD 
ENDBRANCH  24  25
ENDBRANCH  23  24
ENDBRANCH  13  23
ENDBRANCH   2   3
TORSDOF 4
ENDMDL
MODEL       11
REMARK 921   NORMALIZED FREE ENERGY PREDICTED BY IDOCK:   -6.13 KCAL/MOL
REMARK 922        TOTAL FREE ENERGY PREDICTED BY IDOCK:   -7.73 KCAL/MOL
REMARK 923 INTER-LIGAND FREE ENERGY PREDICTED BY IDOCK:   -7.21 KCAL/MOL
REMARK 924 INTRA-LIGAND FREE ENERGY PREDICTED BY IDOCK:   -0.51 KCAL/MOL
REMARK 927      BINDING AFFINITY PREDICTED BY RF-SCORE:    0.00 PKD
ROOT
HETATM    1  C   UNL     1      -9.337  16.231  66.186  1.00  0.00    -0.339 C  
HETATM    2  O   UNL     1     -10.566  15.550  66.496  1.00  0.00    -0.299 OA 
ENDROOT
BRANCH   2   3
HETATM    3  C   UNL     1     -10.329  14.327  67.194  1.00  0.00    -0.262 C  
HETATM    4  C   UNL     1      -9.829  14.676  68.627  1.00  0.00    -0.224 C  
HETATM    5  N   UNL     1     -10.221  15.930  69.303  1.00  0.00    -0.232 NA 
HETATM    6  H   UNL     1     -10.399  16.878  68.970  1.00  0.00     0.000 HD 
HETATM    7  C   UNL     1     -11.070  14.776  69.516  1.00  0.00    -0.279 C  
HETATM    8  C   UNL     1     -12.230  14.380  68.656  1.00  0.00    -0.150 C  
HETATM    9  N   UNL     1     -11.575  13.598  67.610  1.00  0.00    -0.325 NA 
HETATM   10  C   UNL     1     -11.119  12.264  67.824  1.00  0.00    -0.255 C  
HETATM   11  C   UNL     1     -10.139  11.978  66.957  1.00  0.00    -0.221 C  
HETATM   12  C   UNL     1      -9.451  10.692  66.977  1.00  0.00    -0.164 C  
HETATM   13  C   UNL     1      -9.691  13.230  66.265  1.00  0.00    -0.274 C  
HETATM   14  C   UNL     1     -10.055   9.687  67.934  1.00  0.00    -0.181 C  
HETATM   15  O   UNL     1      -8.424  10.473  66.351  1.00  0.00    -0.134 OA 
HETATM   16  O   UNL     1     -11.608  11.856  70.157  1.00  0.00    -0.272 OA 
HETATM   17  H2  UNL     1     -10.910   8.486  66.588  1.00  0.00     0.000 HD 
HETATM   18  N   UNL     1     -11.158   8.951  67.462  1.00  0.00    -0.390 NA 
HETATM   19  C   UNL     1     -10.125  10.290  69.133  1.00  0.00    -0.232 C  
HETATM   20  C   UNL     1     -11.041  11.491  69.136  1.00  0.00    -0.259 C  
HETATM   21  C   UNL     1      -9.810   9.543  70.387  1.00  0.00    -0.329 C  
HETATM   22  H1  UNL     1     -11.564   8.273  68.107  1.00  0.00     0.000 HD 
BRANCH  13  23
HETATM   23  C   UNL     1     -10.342  13.303  64.863  1.00  0.00    -0.351 C  
BRANCH  23  24
HETATM   24  O   UNL     1     -11.235  12.208  64.584  1.00  0.00    -0.305 OA 
BRANCH  24  25
HETATM   25  C   UNL     1     -12.470  12.564  64.149  1.00  0.00    -0.430 C  
HETATM   26  O   UNL     1     -13.203  11.879  63.444  1.00  0.00    -0.649 OA 
HETATM   27  N   UNL     1     -12.766  13.810  64.571  1.00  0.00    -0.660 N  
HETATM   28  H1  UNL     1     -13.694  14.077  64.244  1.00  0.00     0.000 HD 
HETATM   29  H2  UNL     1     -12.151  14.399  65.134  1.00  0.00     0.000 HD 
ENDBRANCH  24  25
ENDBRANCH  23  24
ENDBRANCH  13  23
ENDBRANCH   2   3
TORSDOF 4
ENDMDL
MODEL       12
REMARK 921   NORMALIZED FREE ENERGY PREDICTED BY IDOCK:   -6.11 KCAL/MOL
REMARK 922        TOTAL FREE ENERGY PREDICTED BY IDOCK:   -7.71 KCAL/MOL
REMARK 923 INTER-LIGAND FREE ENERGY PREDICTED BY IDOCK:   -7.51 KCAL/MOL
REMARK 924 INTRA-LIGAND FREE ENERGY PREDICTED BY IDOCK:   -0.20 KCAL/MOL
REMARK 927      BINDING AFFINITY PREDICTED BY RF-SCORE:    0.00 PKD
ROOT
HETATM    1  C   UNL     1      -9.913  13.007  68.263  1.00  0.00    -0.235 C  
HETATM    2  O   UNL     1      -8.691  13.429  67.629  1.00  0.00    -0.173 OA 
ENDROOT
BRANCH   2   3
HETATM    3  C   UNL     1      -8.454  14.824  67.818  1.00  0.00    -0.164 C  
HETATM    4  C   UNL     1      -7.992  15.042  69.288  1.00  0.00    -0.190 C  
HETATM    5  N   UNL     1      -7.278  13.992  70.043  1.00  0.00    -0.287 NA 
HETATM    6  H   UNL     1      -7.341  12.974  70.054  1.00  0.00     0.000 HD 
HETATM    7  C   UNL     1      -6.467  14.928  69.294  1.00  0.00    -0.121 C  
HETATM    8  C   UNL     1      -6.056  14.772  67.862  1.00  0.00    -0.154 C  
HETATM    9  N   UNL     1      -7.205  15.336  67.158  1.00  0.00    -0.181 NA 
HETATM   10  C   UNL     1      -7.433  16.741  67.068  1.00  0.00    -0.201 C  
HETATM   11  C   UNL     1      -8.737  16.973  66.863  1.00  0.00    -0.251 C  
HETATM   12  C   UNL     1      -9.267  18.329  66.777  1.00  0.00    -0.288 C  
HETATM   13  C   UNL     1      -9.517  15.710  67.071  1.00  0.00    -0.236 C  
HETATM   14  C   UNL     1      -8.204  19.406  66.771  1.00  0.00    -0.292 C  
HETATM   15  O   UNL     1     -10.464  18.582  66.802  1.00  0.00    -0.379 OA 
HETATM   16  O   UNL     1      -5.636  17.700  68.370  1.00  0.00    -0.149 OA 
HETATM   17  H2  UNL     1      -8.326  19.920  64.846  1.00  0.00     0.000 HD 
HETATM   18  N   UNL     1      -7.605  19.693  65.530  1.00  0.00    -0.409 NA 
HETATM   19  C   UNL     1      -7.429  19.188  67.847  1.00  0.00    -0.290 C  
HETATM   20  C   UNL     1      -6.702  17.865  67.792  1.00  0.00    -0.190 C  
HETATM   21  C   UNL     1      -6.921  20.326  68.669  1.00  0.00    -0.218 C  
HETATM   22  H1  UNL     1      -6.887  20.419  65.527  1.00  0.00     0.000 HD 
BRANCH  13  23
HETATM   23  C   UNL     1      -9.843  15.075  65.699  1.00  0.00    -0.345 C  
BRANCH  23  24
HETATM   24  O   UNL     1     -11.252  14.876  65.474  1.00  0.00    -0.335 OA 
BRANCH  24  25
HETATM   25  C   UNL     1     -11.717  15.319  64.278  1.00  0.00    -0.215 C  
HETATM   26  O   UNL     1     -11.571  16.451  63.832  1.00  0.00    -1.100 OA 
HETATM   27  N   UNL     1     -12.406  14.338  63.661  1.00  0.00    -1.109 N  
HETATM   28  H1  UNL     1     -12.755  14.671  62.763  1.00  0.00     0.000 HD 
HETATM   29  H2  UNL     1     -12.556  13.401  64.037  1.00  0.00     0.000 HD 
ENDBRANCH  24  25
ENDBRANCH  23  24
ENDBRANCH  13  23
ENDBRANCH   2   3
TORSDOF 4
ENDMDL
MODEL       13
REMARK 921   NORMALIZED FREE ENERGY PREDICTED BY IDOCK:   -6.11 KCAL/MOL
REMARK 922        TOTAL FREE ENERGY PREDICTED BY IDOCK:   -7.70 KCAL/MOL
REMARK 923 INTER-LIGAND FREE ENERGY PREDICTED BY IDOCK:   -7.53 KCAL/MOL
REMARK 924 INTRA-LIGAND FREE ENERGY PREDICTED BY IDOCK:   -0.17 KCAL/MOL
REMARK 927      BINDING AFFINITY PREDICTED BY RF-SCORE:    0.00 PKD
ROOT
HETATM    1  C   UNL     1     -10.308   8.900  67.058  1.00  0.00    -0.269 C  
HETATM    2  O   UNL     1      -9.276   9.792  66.600  1.00  0.00    -0.144 OA 
ENDROOT
BRANCH   2   3
HETATM    3  C   UNL     1      -9.504  11.132  67.038  1.00  0.00    -0.177 C  
HETATM    4  C   UNL     1      -9.254  11.188  68.573  1.00  0.00    -0.183 C  
HETATM    5  N   UNL     1      -8.310  10.270  69.242  1.00  0.00    -0.153 NA 
HETATM    6  H   UNL     1      -8.050   9.296  69.083  1.00  0.00     0.000 HD 
HETATM    7  C   UNL     1      -7.776  11.530  68.768  1.00  0.00    -0.124 C  
HETATM    8  C   UNL     1      -7.224  11.780  67.398  1.00  0.00    -0.133 C  
HETATM    9  N   UNL     1      -8.431  12.105  66.643  1.00  0.00    -0.137 NA 
HETATM   10  C   UNL     1      -9.080  13.371  66.746  1.00  0.00    -0.212 C  
HETATM   11  C   UNL     1     -10.370  13.244  66.406  1.00  0.00    -0.286 C  
HETATM   12  C   UNL     1     -11.291  14.374  66.465  1.00  0.00    -0.350 C  
HETATM   13  C   UNL     1     -10.729  11.792  66.304  1.00  0.00    -0.312 C  
HETATM   14  C   UNL     1     -10.623  15.695  66.774  1.00  0.00    -0.307 C  
HETATM   15  O   UNL     1     -12.504  14.254  66.367  1.00  0.00    -0.441 OA 
HETATM   16  O   UNL     1      -7.787  14.547  68.416  1.00  0.00    -0.120 OA 
HETATM   17  H2  UNL     1     -10.745  16.512  64.956  1.00  0.00     0.000 HD 
HETATM   18  N   UNL     1     -10.046  16.380  65.688  1.00  0.00    -0.523 NA 
HETATM   19  C   UNL     1      -9.907  15.513  67.897  1.00  0.00    -0.216 C  
HETATM   20  C   UNL     1      -8.800  14.499  67.732  1.00  0.00    -0.183 C  
HETATM   21  C   UNL     1      -9.851  16.569  68.951  1.00  0.00    -0.260 C  
HETATM   22  H1  UNL     1      -9.595  17.271  65.896  1.00  0.00     0.000 HD 
BRANCH  13  23
HETATM   23  C   UNL     1     -10.727  11.366  64.817  1.00  0.00    -0.298 C  
BRANCH  23  24
HETATM   24  O   UNL     1     -10.876  12.468  63.901  1.00  0.00    -0.366 OA 
BRANCH  24  25
HETATM   25  C   UNL     1     -12.141  12.692  63.464  1.00  0.00    -0.561 C  
HETATM   26  O   UNL     1     -12.978  11.827  63.232  1.00  0.00    -0.633 OA 
HETATM   27  N   UNL     1     -12.337  14.013  63.279  1.00  0.00    -1.145 N  
HETATM   28  H1  UNL     1     -13.288  14.181  62.951  1.00  0.00     0.000 HD 
HETATM   29  H2  UNL     1     -11.638  14.737  63.443  1.00  0.00     0.000 HD 
ENDBRANCH  24  25
ENDBRANCH  23  24
ENDBRANCH  13  23
ENDBRANCH   2   3
TORSDOF 4
ENDMDL
MODEL       14
REMARK 921   NORMALIZED FREE ENERGY PREDICTED BY IDOCK:   -6.07 KCAL/MOL
REMARK 922        TOTAL FREE ENERGY PREDICTED BY IDOCK:   -7.66 KCAL/MOL
REMARK 923 INTER-LIGAND FREE ENERGY PREDICTED BY IDOCK:   -8.18 KCAL/MOL
REMARK 924 INTRA-LIGAND FREE ENERGY PREDICTED BY IDOCK:    0.52 KCAL/MOL
REMARK 927      BINDING AFFINITY PREDICTED BY RF-SCORE:    0.00 PKD
ROOT
HETATM    1  C   UNL     1     -11.063  15.285  64.961  1.00  0.00    -0.426 C  
HETATM    2  O   UNL     1     -12.260  14.490  65.043  1.00  0.00    -0.399 OA 
ENDROOT
BRANCH   2   3
HETATM    3  C   UNL     1     -11.991  13.183  65.553  1.00  0.00    -0.412 C  
HETATM    4  C   UNL     1     -12.582  12.144  64.556  1.00  0.00    -0.230 C  
HETATM    5  N   UNL     1     -12.716  12.436  63.114  1.00  0.00    -0.760 NA 
HETATM    6  H   UNL     1     -12.928  13.285  62.590  1.00  0.00     0.000 HD 
HETATM    7  C   UNL     1     -11.478  11.820  63.547  1.00  0.00    -0.394 C  
HETATM    8  C   UNL     1     -10.259  12.554  64.017  1.00  0.00    -0.364 C  
HETATM    9  N   UNL     1     -10.557  12.754  65.433  1.00  0.00    -0.281 NA 
HETATM   10  C   UNL     1     -10.446  11.705  66.393  1.00  0.00    -0.244 C  
HETATM   11  C   UNL     1     -11.236  11.970  67.442  1.00  0.00    -0.368 C  
HETATM   12  C   UNL     1     -11.359  11.041  68.560  1.00  0.00    -0.287 C  
HETATM   13  C   UNL     1     -12.147  13.115  67.116  1.00  0.00    -0.343 C  
HETATM   14  C   UNL     1     -10.403   9.870  68.494  1.00  0.00    -0.196 C  
HETATM   15  O   UNL     1     -12.219  11.144  69.424  1.00  0.00    -0.333 OA 
HETATM   16  O   UNL     1      -9.826   9.778  65.071  1.00  0.00    -0.306 OA 
HETATM   17  H2  UNL     1      -9.148  10.443  69.937  1.00  0.00     0.000 HD 
HETATM   18  N   UNL     1      -9.101  10.092  68.981  1.00  0.00    -0.160 NA 
HETATM   19  C   UNL     1     -10.572   9.301  67.288  1.00  0.00    -0.303 C  
HETATM   20  C   UNL     1     -10.206  10.220  66.147  1.00  0.00    -0.217 C  
HETATM   21  C   UNL     1     -10.560   7.817  67.132  1.00  0.00    -0.401 C  
HETATM   22  H1  UNL     1      -8.456   9.302  68.937  1.00  0.00     0.000 HD 
BRANCH  13  23
HETATM   23  C   UNL     1     -11.584  14.412  67.745  1.00  0.00    -0.356 C  
BRANCH  23  24
HETATM   24  O   UNL     1     -12.069  14.665  69.078  1.00  0.00    -0.295 OA 
BRANCH  24  25
HETATM   25  C   UNL     1     -11.194  15.293  69.904  1.00  0.00    -0.288 C  
HETATM   26  O   UNL     1     -11.471  16.204  70.675  1.00  0.00    -0.379 OA 
HETATM   27  N   UNL     1      -9.954  14.796  69.724  1.00  0.00    -0.438 N  
HETATM   28  H1  UNL     1      -9.297  15.267  70.345  1.00  0.00     0.000 HD 
HETATM   29  H2  UNL     1      -9.709  14.057  69.064  1.00  0.00     0.000 HD 
ENDBRANCH  24  25
ENDBRANCH  23  24
ENDBRANCH  13  23
ENDBRANCH   2   3
TORSDOF 4
ENDMDL
MODEL       15
REMARK 921   NORMALIZED FREE ENERGY PREDICTED BY IDOCK:   -6.06 KCAL/MOL
REMARK 922        TOTAL FREE ENERGY PREDICTED BY IDOCK:   -7.65 KCAL/MOL
REMARK 923 INTER-LIGAND FREE ENERGY PREDICTED BY IDOCK:   -7.59 KCAL/MOL
REMARK 924 INTRA-LIGAND FREE ENERGY PREDICTED BY IDOCK:   -0.07 KCAL/MOL
REMARK 927      BINDING AFFINITY PREDICTED BY RF-SCORE:    0.00 PKD
ROOT
HETATM    1  C   UNL     1      -9.141  18.263  67.894  1.00  0.00    -0.279 C  
HETATM    2  O   UNL     1      -8.822  17.095  68.674  1.00  0.00    -0.263 OA 
ENDROOT
BRANCH   2   3
HETATM    3  C   UNL     1      -9.140  15.892  67.974  1.00  0.00    -0.184 C  
HETATM    4  C   UNL     1      -8.069  15.681  66.864  1.00  0.00    -0.255 C  
HETATM    5  N   UNL     1      -6.691  16.194  67.004  1.00  0.00    -0.236 NA 
HETATM    6  H   UNL     1      -6.297  17.030  67.437  1.00  0.00     0.000 HD 
HETATM    7  C   UNL     1      -6.944  14.852  67.485  1.00  0.00    -0.176 C  
HETATM    8  C   UNL     1      -7.405  14.496  68.866  1.00  0.00    -0.128 C  
HETATM    9  N   UNL     1      -8.854  14.633  68.742  1.00  0.00    -0.178 NA 
HETATM   10  C   UNL     1      -9.662  13.658  68.087  1.00  0.00    -0.229 C  
HETATM   11  C   UNL     1     -10.795  14.228  67.654  1.00  0.00    -0.273 C  
HETATM   12  C   UNL     1     -11.792  13.473  66.904  1.00  0.00    -0.407 C  
HETATM   13  C   UNL     1     -10.689  15.719  67.769  1.00  0.00    -0.307 C  
HETATM   14  C   UNL     1     -11.504  11.991  66.817  1.00  0.00    -0.345 C  
HETATM   15  O   UNL     1     -12.727  14.000  66.317  1.00  0.00    -0.414 OA 
HETATM   16  O   UNL     1      -8.062  12.035  67.277  1.00  0.00    -0.158 OA 
HETATM   17  H2  UNL     1     -12.905  11.350  68.087  1.00  0.00     0.000 HD 
HETATM   18  N   UNL     1     -11.911  11.204  67.912  1.00  0.00    -0.680 NA 
HETATM   19  C   UNL     1     -10.253  11.868  66.342  1.00  0.00    -0.240 C  
HETATM   20  C   UNL     1      -9.212  12.455  67.265  1.00  0.00    -0.187 C  
HETATM   21  C   UNL     1      -9.910  10.805  65.351  1.00  0.00    -0.317 C  
HETATM   22  H1  UNL     1     -11.717  10.204  67.853  1.00  0.00     0.000 HD 
BRANCH  13  23
HETATM   23  C   UNL     1     -11.431  16.189  69.042  1.00  0.00    -0.323 C  
BRANCH  23  24
HETATM   24  O   UNL     1     -12.221  15.158  69.665  1.00  0.00    -0.302 OA 
BRANCH  24  25
HETATM   25  C   UNL     1     -12.788  15.497  70.850  1.00  0.00    -0.477 C  
HETATM   26  O   UNL     1     -12.180  15.833  71.860  1.00  0.00    -0.377 OA 
HETATM   27  N   UNL     1     -14.128  15.372  70.772  1.00  0.00    -0.852 N  
HETATM   28  H1  UNL     1     -14.553  15.627  71.663  1.00  0.00     0.000 HD 
HETATM   29  H2  UNL     1     -14.640  15.066  69.944  1.00  0.00     0.000 HD 
ENDBRANCH  24  25
ENDBRANCH  23  24
ENDBRANCH  13  23
ENDBRANCH   2   3
TORSDOF 4
ENDMDL
MODEL       16
REMARK 921   NORMALIZED FREE ENERGY PREDICTED BY IDOCK:   -6.04 KCAL/MOL
REMARK 922        TOTAL FREE ENERGY PREDICTED BY IDOCK:   -7.63 KCAL/MOL
REMARK 923 INTER-LIGAND FREE ENERGY PREDICTED BY IDOCK:   -7.20 KCAL/MOL
REMARK 924 INTRA-LIGAND FREE ENERGY PREDICTED BY IDOCK:   -0.43 KCAL/MOL
REMARK 927      BINDING AFFINITY PREDICTED BY RF-SCORE:    0.00 PKD
ROOT
HETATM    1  C   UNL     1      -9.555   9.313  70.668  1.00  0.00    -0.273 C  
HETATM    2  O   UNL     1     -10.353   9.179  69.477  1.00  0.00    -0.202 OA 
ENDROOT
BRANCH   2   3
HETATM    3  C   UNL     1     -10.357  10.382  68.708  1.00  0.00    -0.196 C  
HETATM    4  C   UNL     1      -8.891  10.693  68.287  1.00  0.00    -0.139 C  
HETATM    5  N   UNL     1      -7.890   9.622  68.105  1.00  0.00    -0.086 NA 
HETATM    6  H   UNL     1      -7.726   8.730  68.574  1.00  0.00     0.000 HD 
HETATM    7  C   UNL     1      -8.662  10.003  66.941  1.00  0.00    -0.128 C  
HETATM    8  C   UNL     1      -9.983   9.419  66.543  1.00  0.00    -0.269 C  
HETATM    9  N   UNL     1     -10.916  10.230  67.322  1.00  0.00    -0.253 NA 
HETATM   10  C   UNL     1     -11.257  11.566  66.958  1.00  0.00    -0.300 C  
HETATM   11  C   UNL     1     -11.670  12.237  68.041  1.00  0.00    -0.417 C  
HETATM   12  C   UNL     1     -12.040  13.646  67.973  1.00  0.00    -0.274 C  
HETATM   13  C   UNL     1     -11.370  11.442  69.277  1.00  0.00    -0.355 C  
HETATM   14  C   UNL     1     -12.074  14.205  66.567  1.00  0.00    -0.454 C  
HETATM   15  O   UNL     1     -12.216  14.341  68.964  1.00  0.00    -0.311 OA 
HETATM   16  O   UNL     1      -9.894  11.997  65.008  1.00  0.00    -0.247 OA 
HETATM   17  H2  UNL     1     -14.055  14.333  66.355  1.00  0.00     0.000 HD 
HETATM   18  N   UNL     1     -13.252  13.986  65.829  1.00  0.00    -0.646 NA 
HETATM   19  C   UNL     1     -10.882  13.924  66.012  1.00  0.00    -0.290 C  
HETATM   20  C   UNL     1     -10.629  12.441  65.879  1.00  0.00    -0.258 C  
HETATM   21  C   UNL     1     -10.190  14.917  65.138  1.00  0.00    -0.409 C  
HETATM   22  H1  UNL     1     -13.274  14.363  64.881  1.00  0.00     0.000 HD 
BRANCH  13  23
HETATM   23  C   UNL     1     -12.656  10.722  69.748  1.00  0.00    -0.058 C  
BRANCH  23  24
HETATM   24  O   UNL     1     -12.797  10.670  71.180  1.00  0.00    -0.364 OA 
BRANCH  24  25
HETATM   25  C   UNL     1     -13.357   9.533  71.667  1.00  0.00    -0.407 C  
HETATM   26  O   UNL     1     -14.021   9.449  72.694  1.00  0.00    -0.395 OA 
HETATM   27  N   UNL     1     -13.041   8.489  70.875  1.00  0.00    -0.466 N  
HETATM   28  H1  UNL     1     -13.462   7.636  71.241  1.00  0.00     0.000 HD 
HETATM   29  H2  UNL     1     -12.466   8.545  70.034  1.00  0.00     0.000 HD 
ENDBRANCH  24  25
ENDBRANCH  23  24
ENDBRANCH  13  23
ENDBRANCH   2   3
TORSDOF 4
ENDMDL
MODEL       17
REMARK 921   NORMALIZED FREE ENERGY PREDICTED BY IDOCK:   -5.90 KCAL/MOL
REMARK 922        TOTAL FREE ENERGY PREDICTED BY IDOCK:   -7.45 KCAL/MOL
REMARK 923 INTER-LIGAND FREE ENERGY PREDICTED BY IDOCK:   -7.78 KCAL/MOL
REMARK 924 INTRA-LIGAND FREE ENERGY PREDICTED BY IDOCK:    0.32 KCAL/MOL
REMARK 927      BINDING AFFINITY PREDICTED BY RF-SCORE:    0.00 PKD
ROOT
HETATM    1  C   UNL     1     -10.721  16.347  68.388  1.00  0.00    -0.327 C  
HETATM    2  O   UNL     1     -11.908  15.641  67.981  1.00  0.00    -0.244 OA 
ENDROOT
BRANCH   2   3
HETATM    3  C   UNL     1     -11.702  14.228  67.970  1.00  0.00    -0.351 C  
HETATM    4  C   UNL     1     -11.921  13.718  66.516  1.00  0.00    -0.434 C  
HETATM    5  N   UNL     1     -11.670  14.580  65.343  1.00  0.00    -0.355 NA 
HETATM    6  H   UNL     1     -11.786  15.579  65.171  1.00  0.00     0.000 HD 
HETATM    7  C   UNL     1     -10.562  13.776  65.817  1.00  0.00    -0.293 C  
HETATM    8  C   UNL     1      -9.574  14.189  66.865  1.00  0.00    -0.270 C  
HETATM    9  N   UNL     1     -10.265  13.809  68.094  1.00  0.00    -0.246 NA 
HETATM   10  C   UNL     1     -10.354  12.456  68.535  1.00  0.00    -0.221 C  
HETATM   11  C   UNL     1     -11.421  12.312  69.333  1.00  0.00    -0.341 C  
HETATM   12  C   UNL     1     -11.785  11.016  69.894  1.00  0.00    -0.346 C  
HETATM   13  C   UNL     1     -12.281  13.537  69.259  1.00  0.00    -0.257 C  
HETATM   14  C   UNL     1     -10.771   9.924  69.631  1.00  0.00    -0.252 C  
HETATM   15  O   UNL     1     -12.856  10.803  70.447  1.00  0.00    -0.313 OA 
HETATM   16  O   UNL     1      -9.262  11.205  66.778  1.00  0.00    -0.166 OA 
HETATM   17  H2  UNL     1     -10.008   9.791  71.471  1.00  0.00     0.000 HD 
HETATM   18  N   UNL     1      -9.673   9.858  70.510  1.00  0.00    -0.365 NA 
HETATM   19  C   UNL     1     -10.560   9.907  68.304  1.00  0.00    -0.269 C  
HETATM   20  C   UNL     1      -9.955  11.190  67.786  1.00  0.00    -0.175 C  
HETATM   21  C   UNL     1     -10.404   8.616  67.570  1.00  0.00    -0.336 C  
HETATM   22  H1  UNL     1      -8.990   9.122  70.332  1.00  0.00     0.000 HD 
BRANCH  13  23
HETATM   23  C   UNL     1     -12.005  14.433  70.490  1.00  0.00    -0.325 C  
BRANCH  23  24
HETATM   24  O   UNL     1     -13.187  14.754  71.248  1.00  0.00    -0.342 OA 
BRANCH  24  25
HETATM   25  C   UNL     1     -13.212  14.270  72.515  1.00  0.00    -0.490 C  
HETATM   26  O   UNL     1     -12.956  14.910  73.528  1.00  0.00    -0.516 OA 
HETATM   27  N   UNL     1     -13.522  12.957  72.501  1.00  0.00    -0.544 N  
HETATM   28  H1  UNL     1     -13.541  12.594  73.453  1.00  0.00     0.000 HD 
HETATM   29  H2  UNL     1     -13.710  12.409  71.661  1.00  0.00     0.000 HD 
ENDBRANCH  24  25
ENDBRANCH  23  24
ENDBRANCH  13  23
ENDBRANCH   2   3
TORSDOF 4
ENDMDL
MODEL       18
REMARK 921   NORMALIZED FREE ENERGY PREDICTED BY IDOCK:   -5.88 KCAL/MOL
REMARK 922        TOTAL FREE ENERGY PREDICTED BY IDOCK:   -7.42 KCAL/MOL
REMARK 923 INTER-LIGAND FREE ENERGY PREDICTED BY IDOCK:   -7.29 KCAL/MOL
REMARK 924 INTRA-LIGAND FREE ENERGY PREDICTED BY IDOCK:   -0.13 KCAL/MOL
REMARK 927      BINDING AFFINITY PREDICTED BY RF-SCORE:    0.00 PKD
ROOT
HETATM    1  C   UNL     1     -12.163  14.007  66.518  1.00  0.00    -0.451 C  
HETATM    2  O   UNL     1     -11.006  13.659  67.301  1.00  0.00    -0.280 OA 
ENDROOT
BRANCH   2   3
HETATM    3  C   UNL     1     -11.085  12.320  67.791  1.00  0.00    -0.255 C  
HETATM    4  C   UNL     1     -11.108  11.357  66.569  1.00  0.00    -0.251 C  
HETATM    5  N   UNL     1     -10.463  11.710  65.288  1.00  0.00    -0.263 NA 
HETATM    6  H   UNL     1     -10.343  12.590  64.784  1.00  0.00     0.000 HD 
HETATM    7  C   UNL     1      -9.652  11.003  66.257  1.00  0.00    -0.201 C  
HETATM    8  C   UNL     1      -8.831  11.642  67.335  1.00  0.00    -0.160 C  
HETATM    9  N   UNL     1      -9.813  11.807  68.403  1.00  0.00    -0.198 NA 
HETATM   10  C   UNL     1     -10.253  10.719  69.213  1.00  0.00    -0.194 C  
HETATM   11  C   UNL     1     -11.464  10.993  69.716  1.00  0.00    -0.387 C  
HETATM   12  C   UNL     1     -12.182  10.033  70.548  1.00  0.00    -0.222 C  
HETATM   13  C   UNL     1     -12.033  12.205  69.041  1.00  0.00    -0.302 C  
HETATM   14  C   UNL     1     -11.372   8.809  70.912  1.00  0.00    -0.275 C  
HETATM   15  O   UNL     1     -13.361  10.158  70.848  1.00  0.00    -0.388 OA 
HETATM   16  O   UNL     1      -9.103   8.807  68.282  1.00  0.00    -0.140 OA 
HETATM   17  H2  UNL     1     -11.030   9.248  72.829  1.00  0.00     0.000 HD 
HETATM   18  N   UNL     1     -10.505   8.931  72.014  1.00  0.00    -0.340 NA 
HETATM   19  C   UNL     1     -10.908   8.296  69.759  1.00  0.00    -0.186 C  
HETATM   20  C   UNL     1      -9.971   9.232  69.032  1.00  0.00    -0.182 C  
HETATM   21  C   UNL     1     -10.868   6.820  69.537  1.00  0.00    -0.315 C  
HETATM   22  H1  UNL     1      -9.958   8.104  72.259  1.00  0.00     0.000 HD 
BRANCH  13  23
HETATM   23  C   UNL     1     -11.836  13.440  69.951  1.00  0.00    -0.315 C  
BRANCH  23  24
HETATM   24  O   UNL     1     -12.388  13.279  71.272  1.00  0.00    -0.308 OA 
BRANCH  24  25
HETATM   25  C   UNL     1     -13.495  14.020  71.532  1.00  0.00    -0.328 C  
HETATM   26  O   UNL     1     -14.361  13.744  72.354  1.00  0.00    -0.664 OA 
HETATM   27  N   UNL     1     -13.530  15.096  70.720  1.00  0.00    -0.688 N  
HETATM   28  H1  UNL     1     -14.361  15.653  70.915  1.00  0.00     0.000 HD 
HETATM   29  H2  UNL     1     -12.828  15.320  70.014  1.00  0.00     0.000 HD 
ENDBRANCH  24  25
ENDBRANCH  23  24
ENDBRANCH  13  23
ENDBRANCH   2   3
TORSDOF 4
ENDMDL
MODEL       19
REMARK 921   NORMALIZED FREE ENERGY PREDICTED BY IDOCK:   -5.84 KCAL/MOL
REMARK 922        TOTAL FREE ENERGY PREDICTED BY IDOCK:   -7.37 KCAL/MOL
REMARK 923 INTER-LIGAND FREE ENERGY PREDICTED BY IDOCK:   -6.88 KCAL/MOL
REMARK 924 INTRA-LIGAND FREE ENERGY PREDICTED BY IDOCK:   -0.49 KCAL/MOL
REMARK 927      BINDING AFFINITY PREDICTED BY RF-SCORE:    0.00 PKD
ROOT
HETATM    1  C   UNL     1      -6.328  14.394  68.190  1.00  0.00    -0.141 C  
HETATM    2  O   UNL     1      -7.577  13.865  68.671  1.00  0.00    -0.127 OA 
ENDROOT
BRANCH   2   3
HETATM    3  C   UNL     1      -8.485  13.602  67.600  1.00  0.00    -0.183 C  
HETATM    4  C   UNL     1      -7.927  12.405  66.776  1.00  0.00     0.046 C  
HETATM    5  N   UNL     1      -7.082  11.362  67.392  1.00  0.00    -0.105 NA 
HETATM    6  H   UNL     1      -6.376  11.379  68.129  1.00  0.00     0.000 HD 
HETATM    7  C   UNL     1      -8.511  11.132  67.392  1.00  0.00    -0.134 C  
HETATM    8  C   UNL     1      -9.465  11.586  68.455  1.00  0.00    -0.195 C  
HETATM    9  N   UNL     1      -9.769  12.948  68.022  1.00  0.00    -0.218 NA 
HETATM   10  C   UNL     1     -10.652  13.227  66.938  1.00  0.00    -0.264 C  
HETATM   11  C   UNL     1     -10.365  14.429  66.421  1.00  0.00    -0.289 C  
HETATM   12  C   UNL     1     -11.081  14.956  65.265  1.00  0.00    -0.378 C  
HETATM   13  C   UNL     1      -9.065  14.925  66.979  1.00  0.00    -0.255 C  
HETATM   14  C   UNL     1     -12.257  14.107  64.832  1.00  0.00    -0.438 C  
HETATM   15  O   UNL     1     -10.713  15.942  64.641  1.00  0.00    -0.553 OA 
HETATM   16  O   UNL     1     -11.267  11.037  66.118  1.00  0.00    -0.103 OA 
HETATM   17  H2  UNL     1     -13.724  15.296  65.480  1.00  0.00     0.000 HD 
HETATM   18  N   UNL     1     -13.468  14.309  65.520  1.00  0.00    -0.568 NA 
HETATM   19  C   UNL     1     -11.790  12.858  64.665  1.00  0.00    -0.422 C  
HETATM   20  C   UNL     1     -11.268  12.248  65.944  1.00  0.00    -0.340 C  
HETATM   21  C   UNL     1     -12.256  12.010  63.528  1.00  0.00    -0.653 C  
HETATM   22  H1  UNL     1     -14.260  13.737  65.228  1.00  0.00     0.000 HD 
BRANCH  13  23
HETATM   23  C   UNL     1      -9.347  15.943  68.110  1.00  0.00    -0.198 C  
BRANCH  23  24
HETATM   24  O   UNL     1      -8.662  17.199  67.941  1.00  0.00    -0.214 OA 
BRANCH  24  25
HETATM   25  C   UNL     1      -8.867  17.815  66.750  1.00  0.00    -0.260 C  
HETATM   26  O   UNL     1      -8.005  18.054  65.913  1.00  0.00    -0.521 OA 
HETATM   27  N   UNL     1     -10.163  18.170  66.633  1.00  0.00    -0.362 N  
HETATM   28  H1  UNL     1     -10.317  18.633  65.738  1.00  0.00     0.000 HD 
HETATM   29  H2  UNL     1     -10.883  18.000  67.336  1.00  0.00     0.000 HD 
ENDBRANCH  24  25
ENDBRANCH  23  24
ENDBRANCH  13  23
ENDBRANCH   2   3
TORSDOF 4
ENDMDL
MODEL       20
REMARK 921   NORMALIZED FREE ENERGY PREDICTED BY IDOCK:   -5.71 KCAL/MOL
REMARK 922        TOTAL FREE ENERGY PREDICTED BY IDOCK:   -7.22 KCAL/MOL
REMARK 923 INTER-LIGAND FREE ENERGY PREDICTED BY IDOCK:   -6.76 KCAL/MOL
REMARK 924 INTRA-LIGAND FREE ENERGY PREDICTED BY IDOCK:   -0.46 KCAL/MOL
REMARK 927      BINDING AFFINITY PREDICTED BY RF-SCORE:    0.00 PKD
ROOT
HETATM    1  C   UNL     1     -10.633  11.050  63.589  1.00  0.00    -0.269 C  
HETATM    2  O   UNL     1     -11.338  11.536  64.746  1.00  0.00    -0.243 OA 
ENDROOT
BRANCH   2   3
HETATM    3  C   UNL     1     -10.700  12.684  65.308  1.00  0.00    -0.289 C  
HETATM    4  C   UNL     1     -10.939  13.888  64.351  1.00  0.00    -0.308 C  
HETATM    5  N   UNL     1     -12.134  13.970  63.488  1.00  0.00    -0.991 NA 
HETATM    6  H   UNL     1     -12.689  13.271  62.992  1.00  0.00     0.000 HD 
HETATM    7  C   UNL     1     -12.233  14.564  64.804  1.00  0.00    -0.431 C  
HETATM    8  C   UNL     1     -12.660  13.850  66.051  1.00  0.00    -0.423 C  
HETATM    9  N   UNL     1     -11.402  13.261  66.504  1.00  0.00    -0.312 NA 
HETATM   10  C   UNL     1     -10.385  14.028  67.144  1.00  0.00    -0.265 C  
HETATM   11  C   UNL     1      -9.198  13.427  66.983  1.00  0.00    -0.242 C  
HETATM   12  C   UNL     1      -7.967  14.016  67.496  1.00  0.00    -0.187 C  
HETATM   13  C   UNL     1      -9.320  12.326  65.972  1.00  0.00    -0.142 C  
HETATM   14  C   UNL     1      -8.183  15.246  68.349  1.00  0.00    -0.146 C  
HETATM   15  O   UNL     1      -6.853  13.611  67.190  1.00  0.00    -0.138 OA 
HETATM   16  O   UNL     1     -11.258  16.283  67.112  1.00  0.00    -0.092 OA 
HETATM   17  H2  UNL     1      -7.784  14.437  70.129  1.00  0.00     0.000 HD 
HETATM   18  N   UNL     1      -8.498  15.028  69.703  1.00  0.00    -0.443 NA 
HETATM   19  C   UNL     1      -8.933  16.092  67.622  1.00  0.00    -0.194 C  
HETATM   20  C   UNL     1     -10.304  15.542  67.306  1.00  0.00    -0.267 C  
HETATM   21  C   UNL     1      -8.664  17.561  67.635  1.00  0.00    -0.223 C  
HETATM   22  H1  UNL     1      -8.643  15.858  70.278  1.00  0.00     0.000 HD 
BRANCH  13  23
HETATM   23  C   UNL     1      -9.438  10.968  66.704  1.00  0.00    -0.184 C  
BRANCH  23  24
HETATM   24  O   UNL     1      -9.608  11.093  68.129  1.00  0.00    -0.167 OA 
BRANCH  24  25
HETATM   25  C   UNL     1     -10.586  10.321  68.667  1.00  0.00    -0.208 C  
HETATM   26  O   UNL     1     -10.408   9.345  69.387  1.00  0.00    -0.196 OA 
HETATM   27  N   UNL     1     -11.794  10.758  68.259  1.00  0.00    -0.399 N  
HETATM   28  H1  UNL     1     -12.528  10.178  68.663  1.00  0.00     0.000 HD 
HETATM   29  H2  UNL     1     -11.950  11.552  67.637  1.00  0.00     0.000 HD 
ENDBRANCH  24  25
ENDBRANCH  23  24
ENDBRANCH  13  23
ENDBRANCH   2   3
TORSDOF 4
ENDMDL
MODEL       21
REMARK 921   NORMALIZED FREE ENERGY PREDICTED BY IDOCK:   -5.68 KCAL/MOL
REMARK 922        TOTAL FREE ENERGY PREDICTED BY IDOCK:   -7.17 KCAL/MOL
REMARK 923 INTER-LIGAND FREE ENERGY PREDICTED BY IDOCK:   -6.94 KCAL/MOL
REMARK 924 INTRA-LIGAND FREE ENERGY PREDICTED BY IDOCK:   -0.23 KCAL/MOL
REMARK 927      BINDING AFFINITY PREDICTED BY RF-SCORE:    0.00 PKD
ROOT
HETATM    1  C   UNL     1     -12.533  15.410  64.233  1.00  0.00     0.066 C  
HETATM    2  O   UNL     1     -11.243  14.774  64.284  1.00  0.00    -0.201 OA 
ENDROOT
BRANCH   2   3
HETATM    3  C   UNL     1     -11.240  13.658  65.173  1.00  0.00    -0.310 C  
HETATM    4  C   UNL     1     -12.220  12.587  64.610  1.00  0.00    -0.453 C  
HETATM    5  N   UNL     1     -12.492  12.466  63.164  1.00  0.00    -0.775 NA 
HETATM    6  H   UNL     1     -12.559  13.145  62.405  1.00  0.00     0.000 HD 
HETATM    7  C   UNL     1     -11.401  11.676  63.694  1.00  0.00    -0.394 C  
HETATM    8  C   UNL     1      -9.979  12.130  63.821  1.00  0.00    -0.318 C  
HETATM    9  N   UNL     1      -9.997  12.817  65.110  1.00  0.00    -0.215 NA 
HETATM   10  C   UNL     1     -10.011  12.114  66.351  1.00  0.00    -0.225 C  
HETATM   11  C   UNL     1     -10.540  12.893  67.304  1.00  0.00    -0.243 C  
HETATM   12  C   UNL     1     -10.724  12.414  68.669  1.00  0.00    -0.232 C  
HETATM   13  C   UNL     1     -11.168  14.103  66.680  1.00  0.00    -0.330 C  
HETATM   14  C   UNL     1     -10.118  11.053  68.929  1.00  0.00    -0.199 C  
HETATM   15  O   UNL     1     -11.387  13.012  69.505  1.00  0.00    -0.231 OA 
HETATM   16  O   UNL     1     -10.109   9.789  65.694  1.00  0.00    -0.296 OA 
HETATM   17  H2  UNL     1      -8.554  11.638  70.024  1.00  0.00     0.000 HD 
HETATM   18  N   UNL     1      -8.743  11.021  69.233  1.00  0.00    -0.380 NA 
HETATM   19  C   UNL     1     -10.606  10.227  67.988  1.00  0.00    -0.272 C  
HETATM   20  C   UNL     1     -10.197  10.619  66.588  1.00  0.00    -0.231 C  
HETATM   21  C   UNL     1     -10.996   8.825  68.325  1.00  0.00     0.097 C  
HETATM   22  H1  UNL     1      -8.335  10.103  69.408  1.00  0.00     0.000 HD 
BRANCH  13  23
HETATM   23  C   UNL     1     -10.206  15.308  66.814  1.00  0.00    -0.272 C  
BRANCH  23  24
HETATM   24  O   UNL     1     -10.808  16.461  67.434  1.00  0.00    -0.302 OA 
BRANCH  24  25
HETATM   25  C   UNL     1     -10.550  17.646  66.825  1.00  0.00    -0.224 C  
HETATM   26  O   UNL     1     -10.479  17.826  65.615  1.00  0.00    -0.613 OA 
HETATM   27  N   UNL     1     -10.338  18.603  67.752  1.00  0.00    -0.391 N  
HETATM   28  H1  UNL     1     -10.145  19.493  67.294  1.00  0.00     0.000 HD 
HETATM   29  H2  UNL     1     -10.367  18.457  68.761  1.00  0.00     0.000 HD 
ENDBRANCH  24  25
ENDBRANCH  23  24
ENDBRANCH  13  23
ENDBRANCH   2   3
TORSDOF 4
ENDMDL
MODEL       22
REMARK 921   NORMALIZED FREE ENERGY PREDICTED BY IDOCK:   -5.67 KCAL/MOL
REMARK 922        TOTAL FREE ENERGY PREDICTED BY IDOCK:   -7.16 KCAL/MOL
REMARK 923 INTER-LIGAND FREE ENERGY PREDICTED BY IDOCK:   -6.68 KCAL/MOL
REMARK 924 INTRA-LIGAND FREE ENERGY PREDICTED BY IDOCK:   -0.48 KCAL/MOL
REMARK 927      BINDING AFFINITY PREDICTED BY RF-SCORE:    0.00 PKD
ROOT
HETATM    1  C   UNL     1     -12.570  13.232  65.131  1.00  0.00    -0.453 C  
HETATM    2  O   UNL     1     -12.367  14.302  66.072  1.00  0.00    -0.432 OA 
ENDROOT
BRANCH   2   3
HETATM    3  C   UNL     1     -10.985  14.472  66.386  1.00  0.00    -0.324 C  
HETATM    4  C   UNL     1     -10.302  15.196  65.189  1.00  0.00    -0.385 C  
HETATM    5  N   UNL     1     -11.049  16.116  64.307  1.00  0.00    -1.134 NA 
HETATM    6  H   UNL     1     -12.010  16.129  63.963  1.00  0.00     0.000 HD 
HETATM    7  C   UNL     1     -10.401  16.697  65.465  1.00  0.00    -0.247 C  
HETATM    8  C   UNL     1     -11.010  16.829  66.827  1.00  0.00     0.109 C  
HETATM    9  N   UNL     1     -10.708  15.528  67.418  1.00  0.00    -0.297 NA 
HETATM   10  C   UNL     1      -9.409  15.188  67.896  1.00  0.00    -0.185 C  
HETATM   11  C   UNL     1      -9.260  13.856  67.888  1.00  0.00    -0.198 C  
HETATM   12  C   UNL     1      -8.006  13.224  68.284  1.00  0.00    -0.144 C  
HETATM   13  C   UNL     1     -10.391  13.223  67.135  1.00  0.00    -0.248 C  
HETATM   14  C   UNL     1      -6.985  14.186  68.850  1.00  0.00    -0.109 C  
HETATM   15  O   UNL     1      -7.764  12.041  68.092  1.00  0.00    -0.117 OA 
HETATM   16  O   UNL     1      -8.072  17.132  67.366  1.00  0.00    -0.174 OA 
HETATM   17  H2  UNL     1      -7.120  13.654  70.769  1.00  0.00     0.000 HD 
HETATM   18  N   UNL     1      -7.111  14.510  70.214  1.00  0.00    -0.367 NA 
HETATM   19  C   UNL     1      -6.841  15.171  67.946  1.00  0.00    -0.171 C  
HETATM   20  C   UNL     1      -8.107  15.965  67.732  1.00  0.00    -0.143 C  
HETATM   21  C   UNL     1      -5.496  15.747  67.648  1.00  0.00    -0.127 C  
HETATM   22  H1  UNL     1      -6.422  15.159  70.595  1.00  0.00     0.000 HD 
BRANCH  13  23
HETATM   23  C   UNL     1     -11.436  12.681  68.138  1.00  0.00    -0.313 C  
BRANCH  23  24
HETATM   24  O   UNL     1     -11.369  11.255  68.329  1.00  0.00    -0.239 OA 
BRANCH  24  25
HETATM   25  C   UNL     1     -11.267  10.846  69.619  1.00  0.00    -0.282 C  
HETATM   26  O   UNL     1     -12.200  10.718  70.402  1.00  0.00    -0.294 OA 
HETATM   27  N   UNL     1      -9.972  10.639  69.934  1.00  0.00    -0.409 N  
HETATM   28  H1  UNL     1      -9.895  10.332  70.903  1.00  0.00     0.000 HD 
HETATM   29  H2  UNL     1      -9.186  10.770  69.298  1.00  0.00     0.000 HD 
ENDBRANCH  24  25
ENDBRANCH  23  24
ENDBRANCH  13  23
ENDBRANCH   2   3
TORSDOF 4
ENDMDL
MODEL       23
REMARK 921   NORMALIZED FREE ENERGY PREDICTED BY IDOCK:   -5.61 KCAL/MOL
REMARK 922        TOTAL FREE ENERGY PREDICTED BY IDOCK:   -7.09 KCAL/MOL
REMARK 923 INTER-LIGAND FREE ENERGY PREDICTED BY IDOCK:   -6.84 KCAL/MOL
REMARK 924 INTRA-LIGAND FREE ENERGY PREDICTED BY IDOCK:   -0.25 KCAL/MOL
REMARK 927      BINDING AFFINITY PREDICTED BY RF-SCORE:    0.00 PKD
ROOT
HETATM    1  C   UNL     1      -7.079   9.947  66.530  1.00  0.00    -0.094 C  
HETATM    2  O   UNL     1      -8.462  10.116  66.169  1.00  0.00    -0.125 OA 
ENDROOT
BRANCH   2   3
HETATM    3  C   UNL     1      -9.236  10.605  67.265  1.00  0.00    -0.143 C  
HETATM    4  C   UNL     1      -8.893  12.110  67.466  1.00  0.00    -0.175 C  
HETATM    5  N   UNL     1      -8.451  12.964  66.345  1.00  0.00    -0.379 NA 
HETATM    6  H   UNL     1      -7.884  12.790  65.515  1.00  0.00     0.000 HD 
HETATM    7  C   UNL     1      -9.874  12.907  66.605  1.00  0.00    -0.250 C  
HETATM    8  C   UNL     1     -10.825  11.904  66.024  1.00  0.00    -0.299 C  
HETATM    9  N   UNL     1     -10.695  10.791  66.961  1.00  0.00    -0.264 NA 
HETATM   10  C   UNL     1     -11.302  10.802  68.251  1.00  0.00    -0.309 C  
HETATM   11  C   UNL     1     -10.636   9.975  69.068  1.00  0.00    -0.235 C  
HETATM   12  C   UNL     1     -11.009   9.822  70.470  1.00  0.00    -0.321 C  
HETATM   13  C   UNL     1      -9.351   9.549  68.425  1.00  0.00    -0.137 C  
HETATM   14  C   UNL     1     -12.287  10.539  70.848  1.00  0.00    -0.390 C  
HETATM   15  O   UNL     1     -10.307   9.247  71.291  1.00  0.00    -0.302 OA 
HETATM   16  O   UNL     1     -12.337  12.983  68.382  1.00  0.00    -0.095 OA 
HETATM   17  H2  UNL     1     -13.473   8.942  71.020  1.00  0.00     0.000 HD 
HETATM   18  N   UNL     1     -13.492   9.863  70.581  1.00  0.00    -0.572 NA 
HETATM   19  C   UNL     1     -12.143  11.816  70.455  1.00  0.00    -0.439 C  
HETATM   20  C   UNL     1     -11.995  11.960  68.959  1.00  0.00    -0.262 C  
HETATM   21  C   UNL     1     -12.639  12.940  71.304  1.00  0.00    -0.352 C  
HETATM   22  H1  UNL     1     -14.354  10.346  70.836  1.00  0.00     0.000 HD 
BRANCH  13  23
HETATM   23  C   UNL     1      -9.523   8.137  67.818  1.00  0.00    -0.142 C  
BRANCH  23  24
HETATM   24  O   UNL     1      -9.692   7.101  68.805  1.00  0.00    -0.144 OA 
BRANCH  24  25
HETATM   25  C   UNL     1     -10.914   6.511  68.823  1.00  0.00    -0.305 C  
HETATM   26  O   UNL     1     -11.467   6.047  69.814  1.00  0.00    -0.395 OA 
HETATM   27  N   UNL     1     -11.423   6.467  67.575  1.00  0.00    -0.714 N  
HETATM   28  H1  UNL     1     -12.340   6.024  67.589  1.00  0.00     0.000 HD 
HETATM   29  H2  UNL     1     -10.958   6.825  66.740  1.00  0.00     0.000 HD 
ENDBRANCH  24  25
ENDBRANCH  23  24
ENDBRANCH  13  23
ENDBRANCH   2   3
TORSDOF 4
ENDMDL
MODEL       24
REMARK 921   NORMALIZED FREE ENERGY PREDICTED BY IDOCK:   -5.57 KCAL/MOL
REMARK 922        TOTAL FREE ENERGY PREDICTED BY IDOCK:   -7.04 KCAL/MOL
REMARK 923 INTER-LIGAND FREE ENERGY PREDICTED BY IDOCK:   -6.97 KCAL/MOL
REMARK 924 INTRA-LIGAND FREE ENERGY PREDICTED BY IDOCK:   -0.07 KCAL/MOL
REMARK 927      BINDING AFFINITY PREDICTED BY RF-SCORE:    0.00 PKD
ROOT
HETATM    1  C   UNL     1     -10.434  17.248  66.367  1.00  0.00    -0.263 C  
HETATM    2  O   UNL     1     -10.504  16.197  67.347  1.00  0.00    -0.299 OA 
ENDROOT
BRANCH   2   3
HETATM    3  C   UNL     1      -9.785  15.036  66.928  1.00  0.00    -0.238 C  
HETATM    4  C   UNL     1      -8.286  15.425  66.774  1.00  0.00    -0.217 C  
HETATM    5  N   UNL     1      -7.676  16.506  67.574  1.00  0.00    -0.144 NA 
HETATM    6  H   UNL     1      -8.027  17.397  67.928  1.00  0.00     0.000 HD 
HETATM    7  C   UNL     1      -7.621  15.170  68.128  1.00  0.00    -0.112 C  
HETATM    8  C   UNL     1      -8.671  14.543  68.994  1.00  0.00    -0.040 C  
HETATM    9  N   UNL     1      -9.595  14.002  68.001  1.00  0.00    -0.210 NA 
HETATM   10  C   UNL     1      -9.317  12.812  67.265  1.00  0.00    -0.200 C  
HETATM   11  C   UNL     1     -10.007  12.822  66.116  1.00  0.00    -0.272 C  
HETATM   12  C   UNL     1      -9.879  11.746  65.139  1.00  0.00    -0.235 C  
HETATM   13  C   UNL     1     -10.601  14.180  65.891  1.00  0.00    -0.301 C  
HETATM   14  C   UNL     1      -9.049  10.576  65.619  1.00  0.00    -0.182 C  
HETATM   15  O   UNL     1     -10.322  11.820  64.001  1.00  0.00    -0.293 OA 
HETATM   16  O   UNL     1      -7.106  12.178  68.011  1.00  0.00    -0.081 OA 
HETATM   17  H2  UNL     1     -10.531   9.272  65.912  1.00  0.00     0.000 HD 
HETATM   18  N   UNL     1      -9.709   9.615  66.408  1.00  0.00    -0.206 NA 
HETATM   19  C   UNL     1      -7.874  11.081  66.034  1.00  0.00    -0.077 C  
HETATM   20  C   UNL     1      -8.018  12.017  67.211  1.00  0.00    -0.174 C  
HETATM   21  C   UNL     1      -6.591  10.372  65.751  1.00  0.00    -0.126 C  
HETATM   22  H1  UNL     1      -9.148   8.826  66.731  1.00  0.00     0.000 HD 
BRANCH  13  23
HETATM   23  C   UNL     1     -12.093  14.161  66.300  1.00  0.00    -0.442 C  
BRANCH  23  24
HETATM   24  O   UNL     1     -12.993  14.447  65.213  1.00  0.00    -0.608 OA 
BRANCH  24  25
HETATM   25  C   UNL     1     -12.410  14.939  64.090  1.00  0.00    -0.185 C  
HETATM   26  O   UNL     1     -12.158  16.120  63.877  1.00  0.00    -0.956 OA 
HETATM   27  N   UNL     1     -12.181  13.940  63.214  1.00  0.00    -1.111 N  
HETATM   28  H1  UNL     1     -11.743  14.310  62.372  1.00  0.00     0.000 HD 
HETATM   29  H2  UNL     1     -12.412  12.959  63.371  1.00  0.00     0.000 HD 
ENDBRANCH  24  25
ENDBRANCH  23  24
ENDBRANCH  13  23
ENDBRANCH   2   3
TORSDOF 4
ENDMDL
MODEL       25
REMARK 921   NORMALIZED FREE ENERGY PREDICTED BY IDOCK:   -5.53 KCAL/MOL
REMARK 922        TOTAL FREE ENERGY PREDICTED BY IDOCK:   -6.99 KCAL/MOL
REMARK 923 INTER-LIGAND FREE ENERGY PREDICTED BY IDOCK:   -7.41 KCAL/MOL
REMARK 924 INTRA-LIGAND FREE ENERGY PREDICTED BY IDOCK:    0.42 KCAL/MOL
REMARK 927      BINDING AFFINITY PREDICTED BY RF-SCORE:    0.00 PKD
ROOT
HETATM    1  C   UNL     1     -11.246  14.296  68.006  1.00  0.00    -0.280 C  
HETATM    2  O   UNL     1     -12.153  13.240  67.637  1.00  0.00    -0.335 OA 
ENDROOT
BRANCH   2   3
HETATM    3  C   UNL     1     -11.582  12.375  66.655  1.00  0.00    -0.385 C  
HETATM    4  C   UNL     1     -12.410  12.518  65.344  1.00  0.00    -0.359 C  
HETATM    5  N   UNL     1     -13.119  13.768  65.005  1.00  0.00    -0.737 NA 
HETATM    6  H   UNL     1     -13.599  14.474  65.564  1.00  0.00     0.000 HD 
HETATM    7  C   UNL     1     -11.758  13.636  64.529  1.00  0.00    -0.400 C  
HETATM    8  C   UNL     1     -10.529  14.039  65.286  1.00  0.00    -0.382 C  
HETATM    9  N   UNL     1     -10.272  12.850  66.095  1.00  0.00    -0.272 NA 
HETATM   10  C   UNL     1      -9.697  11.664  65.551  1.00  0.00    -0.232 C  
HETATM   11  C   UNL     1     -10.041  10.611  66.303  1.00  0.00    -0.291 C  
HETATM   12  C   UNL     1      -9.631   9.255  65.954  1.00  0.00    -0.275 C  
HETATM   13  C   UNL     1     -11.113  11.008  67.274  1.00  0.00    -0.359 C  
HETATM   14  C   UNL     1      -8.667   9.185  64.791  1.00  0.00    -0.176 C  
HETATM   15  O   UNL     1     -10.094   8.257  66.490  1.00  0.00    -0.273 OA 
HETATM   16  O   UNL     1      -9.455  12.169  63.198  1.00  0.00    -0.283 OA 
HETATM   17  H2  UNL     1      -7.012   8.738  65.815  1.00  0.00     0.000 HD 
HETATM   18  N   UNL     1      -7.306   9.389  65.086  1.00  0.00    -0.101 NA 
HETATM   19  C   UNL     1      -9.234   9.864  63.779  1.00  0.00    -0.289 C  
HETATM   20  C   UNL     1      -9.430  11.329  64.087  1.00  0.00    -0.177 C  
HETATM   21  C   UNL     1      -9.140   9.366  62.374  1.00  0.00    -0.207 C  
HETATM   22  H1  UNL     1      -6.656   9.342  64.301  1.00  0.00     0.000 HD 
BRANCH  13  23
HETATM   23  C   UNL     1     -10.478  11.263  68.662  1.00  0.00    -0.203 C  
BRANCH  23  24
HETATM   24  O   UNL     1     -10.866  10.299  69.660  1.00  0.00    -0.234 OA 
BRANCH  24  25
HETATM   25  C   UNL     1     -11.837  10.708  70.515  1.00  0.00    -0.357 C  
HETATM   26  O   UNL     1     -12.662   9.981  71.057  1.00  0.00    -0.331 OA 
HETATM   27  N   UNL     1     -11.794  12.049  70.654  1.00  0.00    -0.468 N  
HETATM   28  H1  UNL     1     -12.523  12.356  71.296  1.00  0.00     0.000 HD 
HETATM   29  H2  UNL     1     -11.129  12.665  70.185  1.00  0.00     0.000 HD 
ENDBRANCH  24  25
ENDBRANCH  23  24
ENDBRANCH  13  23
ENDBRANCH   2   3
TORSDOF 4
ENDMDL
MODEL       26
REMARK 921   NORMALIZED FREE ENERGY PREDICTED BY IDOCK:   -5.47 KCAL/MOL
REMARK 922        TOTAL FREE ENERGY PREDICTED BY IDOCK:   -6.91 KCAL/MOL
REMARK 923 INTER-LIGAND FREE ENERGY PREDICTED BY IDOCK:   -6.98 KCAL/MOL
REMARK 924 INTRA-LIGAND FREE ENERGY PREDICTED BY IDOCK:    0.06 KCAL/MOL
REMARK 927      BINDING AFFINITY PREDICTED BY RF-SCORE:    0.00 PKD
ROOT
HETATM    1  C   UNL     1     -13.823  13.168  72.084  1.00  0.00    -0.414 C  
HETATM    2  O   UNL     1     -12.425  13.250  71.752  1.00  0.00    -0.155 OA 
ENDROOT
BRANCH   2   3
HETATM    3  C   UNL     1     -12.228  13.680  70.404  1.00  0.00    -0.363 C  
HETATM    4  C   UNL     1     -12.997  15.018  70.205  1.00  0.00    -0.167 C  
HETATM    5  N   UNL     1     -13.235  15.953  71.324  1.00  0.00    -0.553 NA 
HETATM    6  H   UNL     1     -13.418  15.821  72.319  1.00  0.00     0.000 HD 
HETATM    7  C   UNL     1     -12.023  16.145  70.555  1.00  0.00    -0.112 C  
HETATM    8  C   UNL     1     -10.706  15.485  70.827  1.00  0.00    -0.167 C  
HETATM    9  N   UNL     1     -10.855  14.216  70.118  1.00  0.00     0.186 NA 
HETATM   10  C   UNL     1     -10.751  14.116  68.700  1.00  0.00    -0.254 C  
HETATM   11  C   UNL     1     -11.416  13.033  68.275  1.00  0.00    -0.347 C  
HETATM   12  C   UNL     1     -11.520  12.707  66.857  1.00  0.00    -0.343 C  
HETATM   13  C   UNL     1     -12.247  12.476  69.392  1.00  0.00    -0.117 C  
HETATM   14  C   UNL     1     -10.681  13.590  65.960  1.00  0.00    -0.279 C  
HETATM   15  O   UNL     1     -12.285  11.858  66.420  1.00  0.00    -0.476 OA 
HETATM   16  O   UNL     1     -10.427  16.402  67.983  1.00  0.00    -0.280 OA 
HETATM   17  H2  UNL     1      -9.254  12.270  65.506  1.00  0.00     0.000 HD 
HETATM   18  N   UNL     1      -9.326  13.239  65.817  1.00  0.00    -0.462 NA 
HETATM   19  C   UNL     1     -11.009  14.860  66.255  1.00  0.00    -0.338 C  
HETATM   20  C   UNL     1     -10.668  15.243  67.676  1.00  0.00    -0.282 C  
HETATM   21  C   UNL     1     -11.143  15.887  65.180  1.00  0.00    -0.319 C  
HETATM   22  H1  UNL     1      -8.761  13.836  65.212  1.00  0.00     0.000 HD 
BRANCH  13  23
HETATM   23  C   UNL     1     -11.517  11.266  70.020  1.00  0.00    -0.275 C  
BRANCH  23  24
HETATM   24  O   UNL     1     -12.407  10.280  70.579  1.00  0.00    -0.289 OA 
BRANCH  24  25
HETATM   25  C   UNL     1     -11.800   9.232  71.191  1.00  0.00    -0.325 C  
HETATM   26  O   UNL     1     -10.690   9.254  71.709  1.00  0.00    -0.363 OA 
HETATM   27  N   UNL     1     -12.583   8.137  71.111  1.00  0.00    -0.482 N  
HETATM   28  H1  UNL     1     -12.127   7.349  71.571  1.00  0.00     0.000 HD 
HETATM   29  H2  UNL     1     -13.496   8.101  70.658  1.00  0.00     0.000 HD 
ENDBRANCH  24  25
ENDBRANCH  23  24
ENDBRANCH  13  23
ENDBRANCH   2   3
TORSDOF 4
ENDMDL
MODEL       27
REMARK 921   NORMALIZED FREE ENERGY PREDICTED BY IDOCK:   -5.44 KCAL/MOL
REMARK 922        TOTAL FREE ENERGY PREDICTED BY IDOCK:   -6.88 KCAL/MOL
REMARK 923 INTER-LIGAND FREE ENERGY PREDICTED BY IDOCK:   -6.32 KCAL/MOL
REMARK 924 INTRA-LIGAND FREE ENERGY PREDICTED BY IDOCK:   -0.56 KCAL/MOL
REMARK 927      BINDING AFFINITY PREDICTED BY RF-SCORE:    0.00 PKD
ROOT
HETATM    1  C   UNL     1     -10.468  14.432  68.520  1.00  0.00    -0.254 C  
HETATM    2  O   UNL     1     -10.419  12.994  68.572  1.00  0.00    -0.249 OA 
ENDROOT
BRANCH   2   3
HETATM    3  C   UNL     1      -9.596  12.457  67.536  1.00  0.00    -0.185 C  
HETATM    4  C   UNL     1      -8.124  12.873  67.823  1.00  0.00    -0.166 C  
HETATM    5  N   UNL     1      -7.637  13.116  69.196  1.00  0.00    -0.323 NA 
HETATM    6  H   UNL     1      -8.071  13.510  70.032  1.00  0.00     0.000 HD 
HETATM    7  C   UNL     1      -7.511  11.768  68.685  1.00  0.00    -0.120 C  
HETATM    8  C   UNL     1      -8.554  10.697  68.788  1.00  0.00    -0.150 C  
HETATM    9  N   UNL     1      -9.384  10.972  67.618  1.00  0.00    -0.155 NA 
HETATM   10  C   UNL     1      -8.982  10.623  66.296  1.00  0.00    -0.165 C  
HETATM   11  C   UNL     1      -9.610  11.409  65.411  1.00  0.00    -0.255 C  
HETATM   12  C   UNL     1      -9.354  11.307  63.979  1.00  0.00    -0.117 C  
HETATM   13  C   UNL     1     -10.292  12.537  66.128  1.00  0.00    -0.274 C  
HETATM   14  C   UNL     1      -8.464  10.145  63.596  1.00  0.00    -0.184 C  
HETATM   15  O   UNL     1      -9.743  12.136  63.168  1.00  0.00    -0.379 OA 
HETATM   16  O   UNL     1      -6.770   9.692  66.594  1.00  0.00    -0.076 OA 
HETATM   17  H2  UNL     1      -9.858   8.970  62.783  1.00  0.00     0.000 HD 
HETATM   18  N   UNL     1      -9.090   8.893  63.449  1.00  0.00    -0.333 NA 
HETATM   19  C   UNL     1      -7.353  10.246  64.346  1.00  0.00    -0.075 C  
HETATM   20  C   UNL     1      -7.625  10.110  65.825  1.00  0.00    -0.134 C  
HETATM   21  C   UNL     1      -6.008   9.952  63.768  1.00  0.00    -0.121 C  
HETATM   22  H1  UNL     1      -8.489   8.109  63.191  1.00  0.00     0.000 HD 
BRANCH  13  23
HETATM   23  C   UNL     1     -11.797  12.213  66.279  1.00  0.00    -0.246 C  
BRANCH  23  24
HETATM   24  O   UNL     1     -12.570  12.495  65.097  1.00  0.00    -0.631 OA 
BRANCH  24  25
HETATM   25  C   UNL     1     -12.637  13.805  64.747  1.00  0.00    -0.290 C  
HETATM   26  O   UNL     1     -13.092  14.706  65.442  1.00  0.00    -0.362 OA 
HETATM   27  N   UNL     1     -12.164  13.971  63.495  1.00  0.00    -1.079 N  
HETATM   28  H1  UNL     1     -12.214  14.955  63.233  1.00  0.00     0.000 HD 
HETATM   29  H2  UNL     1     -11.809  13.223  62.899  1.00  0.00     0.000 HD 
ENDBRANCH  24  25
ENDBRANCH  23  24
ENDBRANCH  13  23
ENDBRANCH   2   3
TORSDOF 4
ENDMDL
MODEL       28
REMARK 921   NORMALIZED FREE ENERGY PREDICTED BY IDOCK:   -5.41 KCAL/MOL
REMARK 922        TOTAL FREE ENERGY PREDICTED BY IDOCK:   -6.84 KCAL/MOL
REMARK 923 INTER-LIGAND FREE ENERGY PREDICTED BY IDOCK:   -6.59 KCAL/MOL
REMARK 924 INTRA-LIGAND FREE ENERGY PREDICTED BY IDOCK:   -0.25 KCAL/MOL
REMARK 927      BINDING AFFINITY PREDICTED BY RF-SCORE:    0.00 PKD
ROOT
HETATM    1  C   UNL     1     -10.388  12.953  67.512  1.00  0.00    -0.223 C  
HETATM    2  O   UNL     1     -10.945  11.643  67.298  1.00  0.00    -0.236 OA 
ENDROOT
BRANCH   2   3
HETATM    3  C   UNL     1      -9.950  10.709  66.877  1.00  0.00    -0.202 C  
HETATM    4  C   UNL     1      -8.911  10.558  68.025  1.00  0.00    -0.131 C  
HETATM    5  N   UNL     1      -9.281  10.759  69.441  1.00  0.00    -0.410 NA 
HETATM    6  H   UNL     1      -9.934  11.386  69.911  1.00  0.00     0.000 HD 
HETATM    7  C   UNL     1      -9.399   9.414  68.916  1.00  0.00    -0.154 C  
HETATM    8  C   UNL     1     -10.610   8.849  68.238  1.00  0.00    -0.152 C  
HETATM    9  N   UNL     1     -10.409   9.279  66.857  1.00  0.00    -0.254 NA 
HETATM   10  C   UNL     1      -9.474   8.646  65.987  1.00  0.00    -0.208 C  
HETATM   11  C   UNL     1      -9.104   9.501  65.023  1.00  0.00    -0.281 C  
HETATM   12  C   UNL     1      -8.116   9.135  64.015  1.00  0.00    -0.151 C  
HETATM   13  C   UNL     1      -9.587  10.881  65.356  1.00  0.00    -0.271 C  
HETATM   14  C   UNL     1      -7.694   7.684  64.065  1.00  0.00    -0.126 C  
HETATM   15  O   UNL     1      -7.602   9.947  63.256  1.00  0.00    -0.127 OA 
HETATM   16  O   UNL     1      -8.422   6.978  67.387  1.00  0.00    -0.121 OA 
HETATM   17  H2  UNL     1      -8.655   7.048  62.435  1.00  0.00     0.000 HD 
HETATM   18  N   UNL     1      -8.528   6.761  63.405  1.00  0.00    -0.327 NA 
HETATM   19  C   UNL     1      -7.304   7.439  65.328  1.00  0.00    -0.076 C  
HETATM   20  C   UNL     1      -8.422   7.597  66.331  1.00  0.00    -0.137 C  
HETATM   21  C   UNL     1      -6.115   6.582  65.611  1.00  0.00    -0.030 C  
HETATM   22  H1  UNL     1      -8.243   5.782  63.440  1.00  0.00     0.000 HD 
BRANCH  13  23
HETATM   23  C   UNL     1     -10.873  11.182  64.551  1.00  0.00    -0.250 C  
BRANCH  23  24
HETATM   24  O   UNL     1     -10.948  12.537  64.068  1.00  0.00    -0.337 OA 
BRANCH  24  25
HETATM   25  C   UNL     1     -12.160  13.134  64.198  1.00  0.00    -0.430 C  
HETATM   26  O   UNL     1     -13.019  12.830  65.018  1.00  0.00    -0.811 OA 
HETATM   27  N   UNL     1     -12.305  14.092  63.261  1.00  0.00    -1.145 N  
HETATM   28  H1  UNL     1     -13.215  14.540  63.359  1.00  0.00     0.000 HD 
HETATM   29  H2  UNL     1     -11.606  14.333  62.557  1.00  0.00     0.000 HD 
ENDBRANCH  24  25
ENDBRANCH  23  24
ENDBRANCH  13  23
ENDBRANCH   2   3
TORSDOF 4
ENDMDL
MODEL       29
REMARK 921   NORMALIZED FREE ENERGY PREDICTED BY IDOCK:   -5.39 KCAL/MOL
REMARK 922        TOTAL FREE ENERGY PREDICTED BY IDOCK:   -6.82 KCAL/MOL
REMARK 923 INTER-LIGAND FREE ENERGY PREDICTED BY IDOCK:   -7.44 KCAL/MOL
REMARK 924 INTRA-LIGAND FREE ENERGY PREDICTED BY IDOCK:    0.62 KCAL/MOL
REMARK 927      BINDING AFFINITY PREDICTED BY RF-SCORE:    0.00 PKD
ROOT
HETATM    1  C   UNL     1     -11.282   9.135  70.603  1.00  0.00    -0.270 C  
HETATM    2  O   UNL     1     -10.256  10.133  70.455  1.00  0.00    -0.190 OA 
ENDROOT
BRANCH   2   3
HETATM    3  C   UNL     1     -10.251  10.694  69.142  1.00  0.00    -0.220 C  
HETATM    4  C   UNL     1      -8.836  10.482  68.529  1.00  0.00    -0.144 C  
HETATM    5  N   UNL     1      -7.980   9.345  68.924  1.00  0.00    -0.086 NA 
HETATM    6  H   UNL     1      -7.839   8.848  69.804  1.00  0.00     0.000 HD 
HETATM    7  C   UNL     1      -8.867   9.139  67.798  1.00  0.00    -0.124 C  
HETATM    8  C   UNL     1     -10.282   8.653  67.884  1.00  0.00    -0.219 C  
HETATM    9  N   UNL     1     -11.012   9.895  68.123  1.00  0.00    -0.238 NA 
HETATM   10  C   UNL     1     -11.270  10.842  67.088  1.00  0.00    -0.147 C  
HETATM   11  C   UNL     1     -11.459  12.055  67.625  1.00  0.00    -0.392 C  
HETATM   12  C   UNL     1     -11.696  13.230  66.794  1.00  0.00    -0.385 C  
HETATM   13  C   UNL     1     -11.067  12.038  69.072  1.00  0.00    -0.291 C  
HETATM   14  C   UNL     1     -11.873  12.918  65.324  1.00  0.00    -0.392 C  
HETATM   15  O   UNL     1     -11.663  14.374  67.227  1.00  0.00    -0.370 OA 
HETATM   16  O   UNL     1     -10.160   9.901  65.157  1.00  0.00    -0.309 OA 
HETATM   17  H2  UNL     1     -13.842  13.221  65.200  1.00  0.00     0.000 HD 
HETATM   18  N   UNL     1     -13.160  12.519  64.914  1.00  0.00    -0.756 NA 
HETATM   19  C   UNL     1     -10.805  12.191  64.953  1.00  0.00    -0.352 C  
HETATM   20  C   UNL     1     -10.718  10.863  65.667  1.00  0.00    -0.108 C  
HETATM   21  C   UNL     1     -10.149  12.411  63.630  1.00  0.00    -0.302 C  
HETATM   22  H1  UNL     1     -13.278  12.308  63.923  1.00  0.00     0.000 HD 
BRANCH  13  23
HETATM   23  C   UNL     1     -12.337  11.914  69.946  1.00  0.00    -0.099 C  
BRANCH  23  24
HETATM   24  O   UNL     1     -12.413  12.895  70.998  1.00  0.00    -0.371 OA 
BRANCH  24  25
HETATM   25  C   UNL     1     -13.281  12.605  72.000  1.00  0.00    -0.427 C  
HETATM   26  O   UNL     1     -13.841  13.426  72.717  1.00  0.00    -0.720 OA 
HETATM   27  N   UNL     1     -13.411  11.269  72.124  1.00  0.00    -0.528 N  
HETATM   28  H1  UNL     1     -14.064  11.052  72.877  1.00  0.00     0.000 HD 
HETATM   29  H2  UNL     1     -12.928  10.577  71.550  1.00  0.00     0.000 HD 
ENDBRANCH  24  25
ENDBRANCH  23  24
ENDBRANCH  13  23
ENDBRANCH   2   3
TORSDOF 4
ENDMDL
MODEL       30
REMARK 921   NORMALIZED FREE ENERGY PREDICTED BY IDOCK:   -5.34 KCAL/MOL
REMARK 922        TOTAL FREE ENERGY PREDICTED BY IDOCK:   -6.76 KCAL/MOL
REMARK 923 INTER-LIGAND FREE ENERGY PREDICTED BY IDOCK:   -7.20 KCAL/MOL
REMARK 924 INTRA-LIGAND FREE ENERGY PREDICTED BY IDOCK:    0.44 KCAL/MOL
REMARK 927      BINDING AFFINITY PREDICTED BY RF-SCORE:    0.00 PKD
ROOT
HETATM    1  C   UNL     1     -11.806  11.512  69.957  1.00  0.00    -0.355 C  
HETATM    2  O   UNL     1     -10.554  12.125  69.599  1.00  0.00     0.197 OA 
ENDROOT
BRANCH   2   3
HETATM    3  C   UNL     1     -10.280  11.989  68.204  1.00  0.00    -0.201 C  
HETATM    4  C   UNL     1      -8.873  11.342  68.048  1.00  0.00    -0.148 C  
HETATM    5  N   UNL     1      -8.315  10.436  69.072  1.00  0.00    -0.140 NA 
HETATM    6  H   UNL     1      -8.383  10.404  70.090  1.00  0.00     0.000 HD 
HETATM    7  C   UNL     1      -9.084   9.827  68.007  1.00  0.00    -0.125 C  
HETATM    8  C   UNL     1     -10.567   9.615  68.017  1.00  0.00    -0.243 C  
HETATM    9  N   UNL     1     -11.057  10.899  67.522  1.00  0.00    -0.299 NA 
HETATM   10  C   UNL     1     -10.995  11.263  66.145  1.00  0.00    -0.191 C  
HETATM   11  C   UNL     1     -11.000  12.598  66.031  1.00  0.00    -0.313 C  
HETATM   12  C   UNL     1     -10.896  13.255  64.733  1.00  0.00    -0.360 C  
HETATM   13  C   UNL     1     -10.795  13.224  67.378  1.00  0.00    -0.279 C  
HETATM   14  C   UNL     1     -10.954  12.305  63.557  1.00  0.00    -0.459 C  
HETATM   15  O   UNL     1     -10.686  14.453  64.604  1.00  0.00    -0.405 OA 
HETATM   16  O   UNL     1      -9.872   9.391  65.106  1.00  0.00    -0.182 OA 
HETATM   17  H2  UNL     1     -12.793  12.747  62.920  1.00  0.00     0.000 HD 
HETATM   18  N   UNL     1     -12.236  11.918  63.122  1.00  0.00    -0.886 NA 
HETATM   19  C   UNL     1     -10.016  11.366  63.773  1.00  0.00    -0.381 C  
HETATM   20  C   UNL     1     -10.283  10.539  65.008  1.00  0.00    -0.295 C  
HETATM   21  C   UNL     1      -9.176  10.850  62.652  1.00  0.00    -0.357 C  
HETATM   22  H1  UNL     1     -12.274  11.277  62.329  1.00  0.00     0.000 HD 
BRANCH  13  23
HETATM   23  C   UNL     1     -12.161  13.685  67.942  1.00  0.00    -0.283 C  
BRANCH  23  24
HETATM   24  O   UNL     1     -12.199  15.082  68.292  1.00  0.00    -0.155 OA 
BRANCH  24  25
HETATM   25  C   UNL     1     -12.010  15.355  69.608  1.00  0.00    -0.343 C  
HETATM   26  O   UNL     1     -10.924  15.422  70.173  1.00  0.00    -0.266 OA 
HETATM   27  N   UNL     1     -13.200  15.504  70.222  1.00  0.00    -0.732 N  
HETATM   28  H1  UNL     1     -13.058  15.710  71.211  1.00  0.00     0.000 HD 
HETATM   29  H2  UNL     1     -14.110  15.424  69.766  1.00  0.00     0.000 HD 
ENDBRANCH  24  25
ENDBRANCH  23  24
ENDBRANCH  13  23
ENDBRANCH   2   3
TORSDOF 4
ENDMDL
MODEL       31
REMARK 921   NORMALIZED FREE ENERGY PREDICTED BY IDOCK:   -5.33 KCAL/MOL
REMARK 922        TOTAL FREE ENERGY PREDICTED BY IDOCK:   -6.74 KCAL/MOL
REMARK 923 INTER-LIGAND FREE ENERGY PREDICTED BY IDOCK:   -6.59 KCAL/MOL
REMARK 924 INTRA-LIGAND FREE ENERGY PREDICTED BY IDOCK:   -0.15 KCAL/MOL
REMARK 927      BINDING AFFINITY PREDICTED BY RF-SCORE:    0.00 PKD
ROOT
HETATM    1  C   UNL     1     -12.004  14.247  67.260  1.00  0.00    -0.405 C  
HETATM    2  O   UNL     1     -12.327  12.846  67.331  1.00  0.00    -0.286 OA 
ENDROOT
BRANCH   2   3
HETATM    3  C   UNL     1     -11.189  12.061  67.690  1.00  0.00    -0.282 C  
HETATM    4  C   UNL     1     -10.765  12.454  69.135  1.00  0.00    -0.034 C  
HETATM    5  N   UNL     1     -11.742  12.960  70.122  1.00  0.00    -0.530 NA 
HETATM    6  H   UNL     1     -12.575  13.543  70.045  1.00  0.00     0.000 HD 
HETATM    7  C   UNL     1     -11.525  11.528  70.087  1.00  0.00    -0.170 C  
HETATM    8  C   UNL     1     -12.265  10.557  69.218  1.00  0.00     0.051 C  
HETATM    9  N   UNL     1     -11.496  10.619  67.978  1.00  0.00    -0.449 NA 
HETATM   10  C   UNL     1     -10.232   9.977  67.829  1.00  0.00    -0.192 C  
HETATM   11  C   UNL     1      -9.527  10.587  66.866  1.00  0.00    -0.191 C  
HETATM   12  C   UNL     1      -8.171  10.170  66.529  1.00  0.00    -0.124 C  
HETATM   13  C   UNL     1     -10.197  11.874  66.484  1.00  0.00    -0.232 C  
HETATM   14  C   UNL     1      -7.722   8.911  67.237  1.00  0.00    -0.092 C  
HETATM   15  O   UNL     1      -7.427  10.826  65.814  1.00  0.00    -0.138 OA 
HETATM   16  O   UNL     1      -9.810   9.022  70.010  1.00  0.00    -0.170 OA 
HETATM   17  H2  UNL     1      -7.809   7.660  65.683  1.00  0.00     0.000 HD 
HETATM   18  N   UNL     1      -8.111   7.688  66.656  1.00  0.00    -0.116 NA 
HETATM   19  C   UNL     1      -7.923   9.114  68.550  1.00  0.00    -0.102 C  
HETATM   20  C   UNL     1      -9.379   9.308  68.901  1.00  0.00    -0.150 C  
HETATM   21  C   UNL     1      -6.932   8.637  69.560  1.00  0.00    -0.048 C  
HETATM   22  H1  UNL     1      -7.808   6.839  67.134  1.00  0.00     0.000 HD 
BRANCH  13  23
HETATM   23  C   UNL     1     -11.005  11.665  65.182  1.00  0.00    -0.266 C  
BRANCH  23  24
HETATM   24  O   UNL     1     -11.057  12.833  64.341  1.00  0.00    -0.312 OA 
BRANCH  24  25
HETATM   25  C   UNL     1     -12.222  13.013  63.669  1.00  0.00    -0.491 C  
HETATM   26  O   UNL     1     -12.990  12.122  63.323  1.00  0.00    -0.735 OA 
HETATM   27  N   UNL     1     -12.399  14.321  63.395  1.00  0.00    -1.126 N  
HETATM   28  H1  UNL     1     -13.275  14.456  62.891  1.00  0.00     0.000 HD 
HETATM   29  H2  UNL     1     -11.752  15.067  63.655  1.00  0.00     0.000 HD 
ENDBRANCH  24  25
ENDBRANCH  23  24
ENDBRANCH  13  23
ENDBRANCH   2   3
TORSDOF 4
ENDMDL
MODEL       32
REMARK 921   NORMALIZED FREE ENERGY PREDICTED BY IDOCK:   -5.33 KCAL/MOL
REMARK 922        TOTAL FREE ENERGY PREDICTED BY IDOCK:   -6.74 KCAL/MOL
REMARK 923 INTER-LIGAND FREE ENERGY PREDICTED BY IDOCK:   -6.18 KCAL/MOL
REMARK 924 INTRA-LIGAND FREE ENERGY PREDICTED BY IDOCK:   -0.56 KCAL/MOL
REMARK 927      BINDING AFFINITY PREDICTED BY RF-SCORE:    0.00 PKD
ROOT
HETATM    1  C   UNL     1     -10.516  11.009  63.664  1.00  0.00    -0.322 C  
HETATM    2  O   UNL     1     -11.254  11.498  64.799  1.00  0.00    -0.274 OA 
ENDROOT
BRANCH   2   3
HETATM    3  C   UNL     1     -10.628  12.641  65.382  1.00  0.00    -0.282 C  
HETATM    4  C   UNL     1     -10.950  13.876  64.490  1.00  0.00    -0.369 C  
HETATM    5  N   UNL     1     -12.188  13.954  63.687  1.00  0.00    -0.971 NA 
HETATM    6  H   UNL     1     -12.742  13.258  63.187  1.00  0.00     0.000 HD 
HETATM    7  C   UNL     1     -12.244  14.487  65.032  1.00  0.00    -0.373 C  
HETATM    8  C   UNL     1     -12.587  13.706  66.264  1.00  0.00    -0.291 C  
HETATM    9  N   UNL     1     -11.291  13.143  66.632  1.00  0.00    -0.312 NA 
HETATM   10  C   UNL     1     -10.271  13.916  67.259  1.00  0.00    -0.249 C  
HETATM   11  C   UNL     1      -9.074  13.364  67.017  1.00  0.00    -0.245 C  
HETATM   12  C   UNL     1      -7.839  13.973  67.499  1.00  0.00    -0.184 C  
HETATM   13  C   UNL     1      -9.207  12.304  65.965  1.00  0.00    -0.086 C  
HETATM   14  C   UNL     1      -8.055  15.158  68.414  1.00  0.00    -0.139 C  
HETATM   15  O   UNL     1      -6.729  13.620  67.125  1.00  0.00    -0.164 OA 
HETATM   16  O   UNL     1     -11.217  16.139  67.366  1.00  0.00    -0.200 OA 
HETATM   17  H2  UNL     1      -7.547  14.287  70.137  1.00  0.00     0.000 HD 
HETATM   18  N   UNL     1      -8.298  14.871  69.771  1.00  0.00    -0.430 NA 
HETATM   19  C   UNL     1      -8.866  16.007  67.761  1.00  0.00    -0.177 C  
HETATM   20  C   UNL     1     -10.231  15.424  67.484  1.00  0.00    -0.244 C  
HETATM   21  C   UNL     1      -8.645  17.482  67.826  1.00  0.00    -0.230 C  
HETATM   22  H1  UNL     1      -8.444  15.671  70.388  1.00  0.00     0.000 HD 
BRANCH  13  23
HETATM   23  C   UNL     1      -9.246  10.913  66.641  1.00  0.00    -0.168 C  
BRANCH  23  24
HETATM   24  O   UNL     1      -7.944  10.396  66.975  1.00  0.00    -0.113 OA 
BRANCH  24  25
HETATM   25  C   UNL     1      -7.075  10.298  65.938  1.00  0.00    -0.131 C  
HETATM   26  O   UNL     1      -7.267   9.669  64.904  1.00  0.00    -0.106 OA 
HETATM   27  N   UNL     1      -5.939  10.965  66.225  1.00  0.00    -0.125 N  
HETATM   28  H1  UNL     1      -5.286  10.892  65.445  1.00  0.00     0.000 HD 
HETATM   29  H2  UNL     1      -5.758  11.469  67.094  1.00  0.00     0.000 HD 
ENDBRANCH  24  25
ENDBRANCH  23  24
ENDBRANCH  13  23
ENDBRANCH   2   3
TORSDOF 4
ENDMDL
MODEL       33
REMARK 921   NORMALIZED FREE ENERGY PREDICTED BY IDOCK:   -5.31 KCAL/MOL
REMARK 922        TOTAL FREE ENERGY PREDICTED BY IDOCK:   -6.73 KCAL/MOL
REMARK 923 INTER-LIGAND FREE ENERGY PREDICTED BY IDOCK:   -6.44 KCAL/MOL
REMARK 924 INTRA-LIGAND FREE ENERGY PREDICTED BY IDOCK:   -0.28 KCAL/MOL
REMARK 927      BINDING AFFINITY PREDICTED BY RF-SCORE:    0.00 PKD
ROOT
HETATM    1  C   UNL     1      -9.264  10.099  63.936  1.00  0.00    -0.280 C  
HETATM    2  O   UNL     1     -10.465  10.363  64.686  1.00  0.00    -0.259 OA 
ENDROOT
BRANCH   2   3
HETATM    3  C   UNL     1     -10.395  11.615  65.369  1.00  0.00    -0.267 C  
HETATM    4  C   UNL     1     -10.349  12.747  64.302  1.00  0.00    -0.377 C  
HETATM    5  N   UNL     1     -10.969  12.587  62.971  1.00  0.00    -0.604 NA 
HETATM    6  H   UNL     1     -11.080  11.791  62.341  1.00  0.00     0.000 HD 
HETATM    7  C   UNL     1     -11.798  13.146  64.018  1.00  0.00    -0.453 C  
HETATM    8  C   UNL     1     -12.641  12.358  64.974  1.00  0.00    -0.223 C  
HETATM    9  N   UNL     1     -11.679  12.036  66.025  1.00  0.00    -0.500 NA 
HETATM   10  C   UNL     1     -11.255  12.992  66.994  1.00  0.00    -0.289 C  
HETATM   11  C   UNL     1     -10.054  12.644  67.475  1.00  0.00    -0.212 C  
HETATM   12  C   UNL     1      -9.352  13.470  68.452  1.00  0.00    -0.171 C  
HETATM   13  C   UNL     1      -9.471  11.543  66.640  1.00  0.00    -0.208 C  
HETATM   14  C   UNL     1     -10.170  14.630  68.975  1.00  0.00    -0.220 C  
HETATM   15  O   UNL     1      -8.179  13.300  68.752  1.00  0.00    -0.057 OA 
HETATM   16  O   UNL     1     -12.388  15.023  66.332  1.00  0.00     0.082 OA 
HETATM   17  H2  UNL     1     -10.548  13.915  70.801  1.00  0.00     0.000 HD 
HETATM   18  N   UNL     1     -11.057  14.350  70.032  1.00  0.00    -0.454 NA 
HETATM   19  C   UNL     1     -10.611  15.307  67.901  1.00  0.00    -0.260 C  
HETATM   20  C   UNL     1     -11.533  14.491  67.028  1.00  0.00    -0.370 C  
HETATM   21  C   UNL     1     -10.648  16.800  67.898  1.00  0.00    -0.350 C  
HETATM   22  H1  UNL     1     -11.609  15.133  70.385  1.00  0.00     0.000 HD 
BRANCH  13  23
HETATM   23  C   UNL     1      -9.686  10.188  67.355  1.00  0.00    -0.161 C  
BRANCH  23  24
HETATM   24  O   UNL     1      -8.547   9.310  67.283  1.00  0.00    -0.124 OA 
BRANCH  24  25
HETATM   25  C   UNL     1      -8.752   8.148  66.613  1.00  0.00    -0.139 C  
HETATM   26  O   UNL     1      -7.882   7.466  66.085  1.00  0.00    -0.100 OA 
HETATM   27  N   UNL     1     -10.071   7.867  66.573  1.00  0.00    -0.448 N  
HETATM   28  H1  UNL     1     -10.225   6.993  66.070  1.00  0.00     0.000 HD 
HETATM   29  H2  UNL     1     -10.805   8.442  66.985  1.00  0.00     0.000 HD 
ENDBRANCH  24  25
ENDBRANCH  23  24
ENDBRANCH  13  23
ENDBRANCH   2   3
TORSDOF 4
ENDMDL
MODEL       34
REMARK 921   NORMALIZED FREE ENERGY PREDICTED BY IDOCK:   -5.28 KCAL/MOL
REMARK 922        TOTAL FREE ENERGY PREDICTED BY IDOCK:   -6.69 KCAL/MOL
REMARK 923 INTER-LIGAND FREE ENERGY PREDICTED BY IDOCK:   -6.24 KCAL/MOL
REMARK 924 INTRA-LIGAND FREE ENERGY PREDICTED BY IDOCK:   -0.45 KCAL/MOL
REMARK 927      BINDING AFFINITY PREDICTED BY RF-SCORE:    0.00 PKD
ROOT
HETATM    1  C   UNL     1      -9.528   8.804  70.001  1.00  0.00    -0.169 C  
HETATM    2  O   UNL     1      -9.330  10.168  69.584  1.00  0.00    -0.218 OA 
ENDROOT
BRANCH   2   3
HETATM    3  C   UNL     1      -9.981  10.439  68.342  1.00  0.00    -0.162 C  
HETATM    4  C   UNL     1     -11.502  10.161  68.522  1.00  0.00    -0.029 C  
HETATM    5  N   UNL     1     -12.170  10.304  69.832  1.00  0.00    -0.497 NA 
HETATM    6  H   UNL     1     -11.870  10.131  70.792  1.00  0.00     0.000 HD 
HETATM    7  C   UNL     1     -12.141  11.474  68.978  1.00  0.00    -0.238 C  
HETATM    8  C   UNL     1     -11.049  12.500  68.946  1.00  0.00    -0.260 C  
HETATM    9  N   UNL     1     -10.101  11.899  68.011  1.00  0.00    -0.189 NA 
HETATM   10  C   UNL     1     -10.312  11.900  66.601  1.00  0.00    -0.211 C  
HETATM   11  C   UNL     1      -9.633  10.889  66.043  1.00  0.00    -0.248 C  
HETATM   12  C   UNL     1      -9.702  10.619  64.611  1.00  0.00    -0.302 C  
HETATM   13  C   UNL     1      -9.122   9.969  67.111  1.00  0.00    -0.154 C  
HETATM   14  C   UNL     1     -10.458  11.667  63.824  1.00  0.00    -0.402 C  
HETATM   15  O   UNL     1      -9.272   9.593  64.102  1.00  0.00    -0.248 OA 
HETATM   16  O   UNL     1     -12.476  12.948  66.343  1.00  0.00    -0.422 OA 
HETATM   17  H2  UNL     1      -8.898  12.541  62.936  1.00  0.00     0.000 HD 
HETATM   18  N   UNL     1      -9.736  12.816  63.448  1.00  0.00    -0.483 NA 
HETATM   19  C   UNL     1     -11.658  11.803  64.415  1.00  0.00    -0.325 C  
HETATM   20  C   UNL     1     -11.562  12.315  65.833  1.00  0.00    -0.393 C  
HETATM   21  C   UNL     1     -12.898  11.977  63.602  1.00  0.00    -0.472 C  
HETATM   22  H1  UNL     1     -10.246  13.522  62.917  1.00  0.00     0.000 HD 
BRANCH  13  23
HETATM   23  C   UNL     1      -7.629  10.273  67.379  1.00  0.00    -0.094 C  
BRANCH  23  24
HETATM   24  O   UNL     1      -7.171  11.497  66.774  1.00  0.00    -0.141 OA 
BRANCH  24  25
HETATM   25  C   UNL     1      -6.521  12.348  67.608  1.00  0.00    -0.130 C  
HETATM   26  O   UNL     1      -5.618  13.111  67.285  1.00  0.00    -0.349 OA 
HETATM   27  N   UNL     1      -6.986  12.206  68.866  1.00  0.00    -0.102 N  
HETATM   28  H1  UNL     1      -6.498  12.845  69.491  1.00  0.00     0.000 HD 
HETATM   29  H2  UNL     1      -7.719  11.554  69.149  1.00  0.00     0.000 HD 
ENDBRANCH  24  25
ENDBRANCH  23  24
ENDBRANCH  13  23
ENDBRANCH   2   3
TORSDOF 4
ENDMDL
MODEL       35
REMARK 921   NORMALIZED FREE ENERGY PREDICTED BY IDOCK:   -5.28 KCAL/MOL
REMARK 922        TOTAL FREE ENERGY PREDICTED BY IDOCK:   -6.68 KCAL/MOL
REMARK 923 INTER-LIGAND FREE ENERGY PREDICTED BY IDOCK:   -6.44 KCAL/MOL
REMARK 924 INTRA-LIGAND FREE ENERGY PREDICTED BY IDOCK:   -0.24 KCAL/MOL
REMARK 927      BINDING AFFINITY PREDICTED BY RF-SCORE:    0.00 PKD
ROOT
HETATM    1  C   UNL     1     -12.004  12.699  63.944  1.00  0.00    -0.479 C  
HETATM    2  O   UNL     1     -11.972  12.999  65.351  1.00  0.00    -0.364 OA 
ENDROOT
BRANCH   2   3
HETATM    3  C   UNL     1     -10.651  13.315  65.792  1.00  0.00    -0.284 C  
HETATM    4  C   UNL     1     -10.179  14.590  65.034  1.00  0.00    -0.365 C  
HETATM    5  N   UNL     1     -11.135  15.608  64.553  1.00  0.00    -0.728 NA 
HETATM    6  H   UNL     1     -12.085  15.557  64.185  1.00  0.00     0.000 HD 
HETATM    7  C   UNL     1     -10.595  15.791  65.885  1.00  0.00    -0.339 C  
HETATM    8  C   UNL     1     -11.177  15.225  67.144  1.00  0.00    -0.291 C  
HETATM    9  N   UNL     1     -10.580  13.892  67.177  1.00  0.00    -0.276 NA 
HETATM   10  C   UNL     1      -9.224  13.670  67.558  1.00  0.00    -0.218 C  
HETATM   11  C   UNL     1      -8.789  12.521  67.023  1.00  0.00    -0.212 C  
HETATM   12  C   UNL     1      -7.416  12.064  67.207  1.00  0.00    -0.158 C  
HETATM   13  C   UNL     1      -9.776  12.026  66.009  1.00  0.00    -0.256 C  
HETATM   14  C   UNL     1      -6.613  12.905  68.175  1.00  0.00    -0.093 C  
HETATM   15  O   UNL     1      -6.926  11.142  66.569  1.00  0.00    -0.138 OA 
HETATM   16  O   UNL     1      -8.362  15.896  67.941  1.00  0.00    -0.151 OA 
HETATM   17  H2  UNL     1      -6.571  11.623  69.705  1.00  0.00     0.000 HD 
HETATM   18  N   UNL     1      -6.765  12.611  69.543  1.00  0.00    -0.311 NA 
HETATM   19  C   UNL     1      -6.714  14.178  67.756  1.00  0.00    -0.190 C  
HETATM   20  C   UNL     1      -8.130  14.703  67.802  1.00  0.00    -0.152 C  
HETATM   21  C   UNL     1      -5.538  15.096  67.800  1.00  0.00    -0.101 C  
HETATM   22  H1  UNL     1      -6.224  13.178  70.196  1.00  0.00     0.000 HD 
BRANCH  13  23
HETATM   23  C   UNL     1     -10.647  10.915  66.642  1.00  0.00    -0.249 C  
BRANCH  23  24
HETATM   24  O   UNL     1     -10.061   9.602  66.557  1.00  0.00    -0.227 OA 
BRANCH  24  25
HETATM   25  C   UNL     1     -10.070   8.887  67.710  1.00  0.00    -0.210 C  
HETATM   26  O   UNL     1      -9.305   9.047  68.654  1.00  0.00    -0.137 OA 
HETATM   27  N   UNL     1     -11.024   7.936  67.654  1.00  0.00    -0.512 N  
HETATM   28  H1  UNL     1     -11.031   7.399  68.521  1.00  0.00     0.000 HD 
HETATM   29  H2  UNL     1     -11.648   7.777  66.862  1.00  0.00     0.000 HD 
ENDBRANCH  24  25
ENDBRANCH  23  24
ENDBRANCH  13  23
ENDBRANCH   2   3
TORSDOF 4
ENDMDL
MODEL       36
REMARK 921   NORMALIZED FREE ENERGY PREDICTED BY IDOCK:   -5.28 KCAL/MOL
REMARK 922        TOTAL FREE ENERGY PREDICTED BY IDOCK:   -6.68 KCAL/MOL
REMARK 923 INTER-LIGAND FREE ENERGY PREDICTED BY IDOCK:   -6.35 KCAL/MOL
REMARK 924 INTRA-LIGAND FREE ENERGY PREDICTED BY IDOCK:   -0.33 KCAL/MOL
REMARK 927      BINDING AFFINITY PREDICTED BY RF-SCORE:    0.00 PKD
ROOT
HETATM    1  C   UNL     1     -11.969  12.044  68.429  1.00  0.00    -0.194 C  
HETATM    2  O   UNL     1     -11.006  12.871  69.108  1.00  0.00    -0.217 OA 
ENDROOT
BRANCH   2   3
HETATM    3  C   UNL     1     -10.987  14.198  68.581  1.00  0.00    -0.258 C  
HETATM    4  C   UNL     1     -12.142  15.000  69.248  1.00  0.00    -0.247 C  
HETATM    5  N   UNL     1     -12.634  14.676  70.602  1.00  0.00    -0.339 NA 
HETATM    6  H   UNL     1     -12.742  13.801  71.116  1.00  0.00     0.000 HD 
HETATM    7  C   UNL     1     -11.564  15.646  70.508  1.00  0.00    -0.360 C  
HETATM    8  C   UNL     1     -10.100  15.328  70.502  1.00  0.00     0.266 C  
HETATM    9  N   UNL     1      -9.859  15.051  69.088  1.00  0.00    -0.226 NA 
HETATM   10  C   UNL     1      -9.763  16.085  68.111  1.00  0.00    -0.217 C  
HETATM   11  C   UNL     1     -10.064  15.592  66.903  1.00  0.00    -0.263 C  
HETATM   12  C   UNL     1     -10.094  16.440  65.717  1.00  0.00    -0.327 C  
HETATM   13  C   UNL     1     -10.650  14.219  67.045  1.00  0.00    -0.280 C  
HETATM   14  C   UNL     1      -9.598  17.849  65.956  1.00  0.00    -0.083 C  
HETATM   15  O   UNL     1     -10.563  16.078  64.646  1.00  0.00    -0.564 OA 
HETATM   16  O   UNL     1     -10.192  18.105  69.368  1.00  0.00    -0.207 OA 
HETATM   17  H2  UNL     1      -7.839  17.698  65.023  1.00  0.00     0.000 HD 
HETATM   18  N   UNL     1      -8.204  18.044  65.910  1.00  0.00    -0.526 NA 
HETATM   19  C   UNL     1     -10.301  18.334  66.994  1.00  0.00    -0.408 C  
HETATM   20  C   UNL     1     -10.063  17.571  68.275  1.00  0.00    -0.346 C  
HETATM   21  C   UNL     1     -10.777  19.749  67.004  1.00  0.00    -0.542 C  
HETATM   22  H1  UNL     1      -7.870  18.994  66.073  1.00  0.00     0.000 HD 
BRANCH  13  23
HETATM   23  C   UNL     1      -9.561  13.162  66.743  1.00  0.00    -0.249 C  
BRANCH  23  24
HETATM   24  O   UNL     1      -8.219  13.638  66.961  1.00  0.00    -0.146 OA 
BRANCH  24  25
HETATM   25  C   UNL     1      -7.419  12.808  67.677  1.00  0.00    -0.144 C  
HETATM   26  O   UNL     1      -6.282  12.473  67.369  1.00  0.00    -0.144 OA 
HETATM   27  N   UNL     1      -8.075  12.365  68.769  1.00  0.00    -0.334 N  
HETATM   28  H1  UNL     1      -7.474  11.742  69.307  1.00  0.00     0.000 HD 
HETATM   29  H2  UNL     1      -9.032  12.616  69.020  1.00  0.00     0.000 HD 
ENDBRANCH  24  25
ENDBRANCH  23  24
ENDBRANCH  13  23
ENDBRANCH   2   3
TORSDOF 4
ENDMDL
MODEL       37
REMARK 921   NORMALIZED FREE ENERGY PREDICTED BY IDOCK:   -5.25 KCAL/MOL
REMARK 922        TOTAL FREE ENERGY PREDICTED BY IDOCK:   -6.65 KCAL/MOL
REMARK 923 INTER-LIGAND FREE ENERGY PREDICTED BY IDOCK:   -6.38 KCAL/MOL
REMARK 924 INTRA-LIGAND FREE ENERGY PREDICTED BY IDOCK:   -0.28 KCAL/MOL
REMARK 927      BINDING AFFINITY PREDICTED BY RF-SCORE:    0.00 PKD
ROOT
HETATM    1  C   UNL     1      -9.256  12.525  67.153  1.00  0.00    -0.205 C  
HETATM    2  O   UNL     1     -10.344  13.430  67.416  1.00  0.00    -0.237 OA 
ENDROOT
BRANCH   2   3
HETATM    3  C   UNL     1      -9.967  14.788  67.186  1.00  0.00    -0.236 C  
HETATM    4  C   UNL     1      -9.319  14.877  65.773  1.00  0.00    -0.099 C  
HETATM    5  N   UNL     1      -9.689  13.946  64.687  1.00  0.00    -0.475 NA 
HETATM    6  H   UNL     1      -9.951  12.960  64.671  1.00  0.00     0.000 HD 
HETATM    7  C   UNL     1     -10.449  15.174  64.786  1.00  0.00    -0.209 C  
HETATM    8  C   UNL     1     -11.683  15.369  65.614  1.00  0.00     0.158 C  
HETATM    9  N   UNL     1     -11.118  15.714  66.916  1.00  0.00    -0.242 NA 
HETATM   10  C   UNL     1     -10.576  17.003  67.198  1.00  0.00    -0.245 C  
HETATM   11  C   UNL     1      -9.692  16.910  68.201  1.00  0.00    -0.254 C  
HETATM   12  C   UNL     1      -8.945  18.071  68.671  1.00  0.00    -0.268 C  
HETATM   13  C   UNL     1      -9.390  15.468  68.481  1.00  0.00    -0.197 C  
HETATM   14  C   UNL     1      -9.382  19.377  68.046  1.00  0.00    -0.336 C  
HETATM   15  O   UNL     1      -7.989  17.989  69.430  1.00  0.00     0.099 OA 
HETATM   16  O   UNL     1     -10.766  18.180  65.095  1.00  0.00    -0.602 OA 
HETATM   17  H2  UNL     1     -10.331  20.149  69.624  1.00  0.00     0.000 HD 
HETATM   18  N   UNL     1     -10.495  20.013  68.627  1.00  0.00    -0.488 NA 
HETATM   19  C   UNL     1      -9.339  19.201  66.714  1.00  0.00    -0.364 C  
HETATM   20  C   UNL     1     -10.306  18.147  66.228  1.00  0.00    -0.397 C  
HETATM   21  C   UNL     1      -8.843  20.283  65.813  1.00  0.00     0.110 C  
HETATM   22  H1  UNL     1     -10.790  20.894  68.205  1.00  0.00     0.000 HD 
BRANCH  13  23
HETATM   23  C   UNL     1     -10.204  15.003  69.712  1.00  0.00    -0.125 C  
BRANCH  23  24
HETATM   24  O   UNL     1     -11.200  15.953  70.138  1.00  0.00    -0.306 OA 
BRANCH  24  25
HETATM   25  C   UNL     1     -12.439  15.440  70.349  1.00  0.00    -0.404 C  
HETATM   26  O   UNL     1     -13.246  15.844  71.177  1.00  0.00    -0.518 OA 
HETATM   27  N   UNL     1     -12.643  14.382  69.538  1.00  0.00    -0.536 N  
HETATM   28  H1  UNL     1     -13.573  13.997  69.696  1.00  0.00     0.000 HD 
HETATM   29  H2  UNL     1     -11.966  14.021  68.865  1.00  0.00     0.000 HD 
ENDBRANCH  24  25
ENDBRANCH  23  24
ENDBRANCH  13  23
ENDBRANCH   2   3
TORSDOF 4
ENDMDL
MODEL       38
REMARK 921   NORMALIZED FREE ENERGY PREDICTED BY IDOCK:   -5.23 KCAL/MOL
REMARK 922        TOTAL FREE ENERGY PREDICTED BY IDOCK:   -6.62 KCAL/MOL
REMARK 923 INTER-LIGAND FREE ENERGY PREDICTED BY IDOCK:   -6.20 KCAL/MOL
REMARK 924 INTRA-LIGAND FREE ENERGY PREDICTED BY IDOCK:   -0.41 KCAL/MOL
REMARK 927      BINDING AFFINITY PREDICTED BY RF-SCORE:    0.00 PKD
ROOT
HETATM    1  C   UNL     1      -8.444   7.211  65.973  1.00  0.00    -0.145 C  
HETATM    2  O   UNL     1      -7.997   7.956  67.120  1.00  0.00    -0.113 OA 
ENDROOT
BRANCH   2   3
HETATM    3  C   UNL     1      -9.092   8.521  67.842  1.00  0.00    -0.140 C  
HETATM    4  C   UNL     1      -9.896   7.357  68.491  1.00  0.00    -0.159 C  
HETATM    5  N   UNL     1      -9.251   6.082  68.869  1.00  0.00    -0.124 NA 
HETATM    6  H   UNL     1      -8.494   5.534  68.461  1.00  0.00     0.000 HD 
HETATM    7  C   UNL     1      -9.292   7.121  69.877  1.00  0.00    -0.150 C  
HETATM    8  C   UNL     1      -8.259   8.190  70.066  1.00  0.00    -0.120 C  
HETATM    9  N   UNL     1      -8.706   9.209  69.119  1.00  0.00    -0.135 NA 
HETATM   10  C   UNL     1      -9.816  10.064  69.382  1.00  0.00    -0.224 C  
HETATM   11  C   UNL     1     -10.329  10.504  68.225  1.00  0.00    -0.193 C  
HETATM   12  C   UNL     1     -11.508  11.363  68.189  1.00  0.00    -0.305 C  
HETATM   13  C   UNL     1      -9.735   9.739  67.081  1.00  0.00    -0.223 C  
HETATM   14  C   UNL     1     -11.971  11.828  69.552  1.00  0.00    -0.300 C  
HETATM   15  O   UNL     1     -12.124  11.610  67.162  1.00  0.00    -0.575 OA 
HETATM   16  O   UNL     1     -10.645   9.290  71.518  1.00  0.00    -0.333 OA 
HETATM   17  H2  UNL     1     -11.371  13.728  69.428  1.00  0.00     0.000 HD 
HETATM   18  N   UNL     1     -11.320  12.953  70.090  1.00  0.00    -0.477 NA 
HETATM   19  C   UNL     1     -12.120  10.725  70.306  1.00  0.00    -0.433 C  
HETATM   20  C   UNL     1     -10.824   9.980  70.523  1.00  0.00    -0.314 C  
HETATM   21  C   UNL     1     -13.267  10.591  71.252  1.00  0.00    -0.399 C  
HETATM   22  H1  UNL     1     -11.632  13.266  71.009  1.00  0.00     0.000 HD 
BRANCH  13  23
HETATM   23  C   UNL     1      -8.617  10.582  66.425  1.00  0.00    -0.144 C  
BRANCH  23  24
HETATM   24  O   UNL     1      -8.650  10.565  64.985  1.00  0.00    -0.176 OA 
BRANCH  24  25
HETATM   25  C   UNL     1      -9.688  11.234  64.421  1.00  0.00    -0.254 C  
HETATM   26  O   UNL     1     -10.313  10.874  63.430  1.00  0.00    -0.337 OA 
HETATM   27  N   UNL     1      -9.910  12.385  65.087  1.00  0.00    -0.431 N  
HETATM   28  H1  UNL     1     -10.690  12.887  64.663  1.00  0.00     0.000 HD 
HETATM   29  H2  UNL     1      -9.377  12.706  65.896  1.00  0.00     0.000 HD 
ENDBRANCH  24  25
ENDBRANCH  23  24
ENDBRANCH  13  23
ENDBRANCH   2   3
TORSDOF 4
ENDMDL
MODEL       39
REMARK 921   NORMALIZED FREE ENERGY PREDICTED BY IDOCK:   -5.20 KCAL/MOL
REMARK 922        TOTAL FREE ENERGY PREDICTED BY IDOCK:   -6.59 KCAL/MOL
REMARK 923 INTER-LIGAND FREE ENERGY PREDICTED BY IDOCK:   -6.27 KCAL/MOL
REMARK 924 INTRA-LIGAND FREE ENERGY PREDICTED BY IDOCK:   -0.32 KCAL/MOL
REMARK 927      BINDING AFFINITY PREDICTED BY RF-SCORE:    0.00 PKD
ROOT
HETATM    1  C   UNL     1      -7.291   8.119  68.211  1.00  0.00    -0.095 C  
HETATM    2  O   UNL     1      -7.473   8.537  69.577  1.00  0.00    -0.076 OA 
ENDROOT
BRANCH   2   3
HETATM    3  C   UNL     1      -8.855   8.611  69.926  1.00  0.00    -0.144 C  
HETATM    4  C   UNL     1      -9.408   7.159  70.024  1.00  0.00    -0.154 C  
HETATM    5  N   UNL     1      -8.542   6.020  70.392  1.00  0.00    -0.131 NA 
HETATM    6  H   UNL     1      -7.564   5.797  70.206  1.00  0.00     0.000 HD 
HETATM    7  C   UNL     1      -9.215   6.709  71.473  1.00  0.00    -0.146 C  
HETATM    8  C   UNL     1      -8.682   7.900  72.210  1.00  0.00    -0.147 C  
HETATM    9  N   UNL     1      -9.116   9.001  71.353  1.00  0.00    -0.282 NA 
HETATM   10  C   UNL     1     -10.463   9.465  71.326  1.00  0.00    -0.315 C  
HETATM   11  C   UNL     1     -10.710  10.067  70.155  1.00  0.00    -0.361 C  
HETATM   12  C   UNL     1     -12.028  10.599  69.831  1.00  0.00    -0.310 C  
HETATM   13  C   UNL     1      -9.585   9.800  69.200  1.00  0.00    -0.192 C  
HETATM   14  C   UNL     1     -13.008  10.556  70.983  1.00  0.00    -0.383 C  
HETATM   15  O   UNL     1     -12.346  10.961  68.706  1.00  0.00    -0.495 OA 
HETATM   16  O   UNL     1     -11.617   7.972  72.839  1.00  0.00    -0.397 OA 
HETATM   17  H2  UNL     1     -13.031  12.505  71.414  1.00  0.00     0.000 HD 
HETATM   18  N   UNL     1     -12.942  11.617  71.906  1.00  0.00    -0.403 NA 
HETATM   19  C   UNL     1     -13.024   9.289  71.429  1.00  0.00    -0.394 C  
HETATM   20  C   UNL     1     -11.691   8.842  71.982  1.00  0.00    -0.372 C  
HETATM   21  C   UNL     1     -14.301   8.638  71.846  1.00  0.00    -0.492 C  
HETATM   22  H1  UNL     1     -13.603  11.587  72.683  1.00  0.00     0.000 HD 
BRANCH  13  23
HETATM   23  C   UNL     1      -8.646  11.029  69.157  1.00  0.00     0.003 C  
BRANCH  23  24
HETATM   24  O   UNL     1      -8.480  11.584  67.838  1.00  0.00    -0.131 OA 
BRANCH  24  25
HETATM   25  C   UNL     1      -9.251  12.666  67.563  1.00  0.00    -0.190 C  
HETATM   26  O   UNL     1      -9.434  13.147  66.451  1.00  0.00    -0.257 OA 
HETATM   27  N   UNL     1      -9.762  13.170  68.705  1.00  0.00    -0.403 N  
HETATM   28  H1  UNL     1     -10.342  13.982  68.498  1.00  0.00     0.000 HD 
HETATM   29  H2  UNL     1      -9.594  12.793  69.638  1.00  0.00     0.000 HD 
ENDBRANCH  24  25
ENDBRANCH  23  24
ENDBRANCH  13  23
ENDBRANCH   2   3
TORSDOF 4
ENDMDL
MODEL       40
REMARK 921   NORMALIZED FREE ENERGY PREDICTED BY IDOCK:   -5.19 KCAL/MOL
REMARK 922        TOTAL FREE ENERGY PREDICTED BY IDOCK:   -6.57 KCAL/MOL
REMARK 923 INTER-LIGAND FREE ENERGY PREDICTED BY IDOCK:   -7.15 KCAL/MOL
REMARK 924 INTRA-LIGAND FREE ENERGY PREDICTED BY IDOCK:    0.58 KCAL/MOL
REMARK 927      BINDING AFFINITY PREDICTED BY RF-SCORE:    0.00 PKD
ROOT
HETATM    1  C   UNL     1     -11.264  12.088  69.745  1.00  0.00    -0.029 C  
HETATM    2  O   UNL     1     -12.424  12.913  69.532  1.00  0.00    -0.056 OA 
ENDROOT
BRANCH   2   3
HETATM    3  C   UNL     1     -12.085  14.145  68.894  1.00  0.00    -0.304 C  
HETATM    4  C   UNL     1     -12.958  15.271  69.520  1.00  0.00     0.462 C  
HETATM    5  N   UNL     1     -13.452  15.190  70.910  1.00  0.00    -0.661 NA 
HETATM    6  H   UNL     1     -13.759  14.416  71.499  1.00  0.00     0.000 HD 
HETATM    7  C   UNL     1     -12.172  15.834  70.705  1.00  0.00    -0.384 C  
HETATM    8  C   UNL     1     -10.843  15.142  70.687  1.00  0.00    -0.179 C  
HETATM    9  N   UNL     1     -10.751  14.705  69.296  1.00  0.00    -0.248 NA 
HETATM   10  C   UNL     1     -10.436  15.601  68.232  1.00  0.00    -0.252 C  
HETATM   11  C   UNL     1     -10.913  15.115  67.078  1.00  0.00    -0.322 C  
HETATM   12  C   UNL     1     -10.778  15.850  65.826  1.00  0.00    -0.316 C  
HETATM   13  C   UNL     1     -11.829  13.961  67.353  1.00  0.00    -0.437 C  
HETATM   14  C   UNL     1      -9.921  17.092  65.931  1.00  0.00    -0.194 C  
HETATM   15  O   UNL     1     -11.376  15.545  64.803  1.00  0.00    -0.410 OA 
HETATM   16  O   UNL     1     -10.263  17.752  69.323  1.00  0.00    -0.312 OA 
HETATM   17  H2  UNL     1      -8.310  16.414  64.967  1.00  0.00     0.000 HD 
HETATM   18  N   UNL     1      -8.529  16.909  65.832  1.00  0.00    -0.499 NA 
HETATM   19  C   UNL     1     -10.423  17.822  66.942  1.00  0.00    -0.308 C  
HETATM   20  C   UNL     1     -10.331  17.121  68.277  1.00  0.00    -0.354 C  
HETATM   21  C   UNL     1     -10.513  19.309  66.844  1.00  0.00    -0.547 C  
HETATM   22  H1  UNL     1      -7.951  17.747  65.903  1.00  0.00     0.000 HD 
BRANCH  13  23
HETATM   23  C   UNL     1     -11.069  12.635  67.113  1.00  0.00    -0.280 C  
BRANCH  23  24
HETATM   24  O   UNL     1     -11.552  11.888  65.980  1.00  0.00    -0.391 OA 
BRANCH  24  25
HETATM   25  C   UNL     1     -10.912  12.133  64.808  1.00  0.00    -0.310 C  
HETATM   26  O   UNL     1     -11.453  12.423  63.748  1.00  0.00    -0.389 OA 
HETATM   27  N   UNL     1      -9.583  11.970  64.967  1.00  0.00    -0.432 N  
HETATM   28  H1  UNL     1      -9.103  12.154  64.087  1.00  0.00     0.000 HD 
HETATM   29  H2  UNL     1      -9.126  11.702  65.839  1.00  0.00     0.000 HD 
ENDBRANCH  24  25
ENDBRANCH  23  24
ENDBRANCH  13  23
ENDBRANCH   2   3
TORSDOF 4
ENDMDL
MODEL       41
REMARK 921   NORMALIZED FREE ENERGY PREDICTED BY IDOCK:   -5.16 KCAL/MOL
REMARK 922        TOTAL FREE ENERGY PREDICTED BY IDOCK:   -6.53 KCAL/MOL
REMARK 923 INTER-LIGAND FREE ENERGY PREDICTED BY IDOCK:   -6.19 KCAL/MOL
REMARK 924 INTRA-LIGAND FREE ENERGY PREDICTED BY IDOCK:   -0.34 KCAL/MOL
REMARK 927      BINDING AFFINITY PREDICTED BY RF-SCORE:    0.00 PKD
ROOT
HETATM    1  C   UNL     1     -13.158  10.716  71.877  1.00  0.00    -0.458 C  
HETATM    2  O   UNL     1     -12.977   9.499  71.130  1.00  0.00    -0.323 OA 
ENDROOT
BRANCH   2   3
HETATM    3  C   UNL     1     -11.602   9.268  70.823  1.00  0.00    -0.285 C  
HETATM    4  C   UNL     1     -10.921   8.657  72.083  1.00  0.00    -0.364 C  
HETATM    5  N   UNL     1     -11.678   7.849  73.061  1.00  0.00    -0.614 NA 
HETATM    6  H   UNL     1     -12.635   7.892  73.413  1.00  0.00     0.000 HD 
HETATM    7  C   UNL     1     -11.054   7.138  71.965  1.00  0.00    -0.245 C  
HETATM    8  C   UNL     1     -11.680   6.879  70.629  1.00  0.00    -0.367 C  
HETATM    9  N   UNL     1     -11.358   8.105  69.904  1.00  0.00    -0.029 NA 
HETATM   10  C   UNL     1     -10.057   8.366  69.381  1.00  0.00    -0.198 C  
HETATM   11  C   UNL     1      -9.881   9.688  69.250  1.00  0.00    -0.195 C  
HETATM   12  C   UNL     1      -8.620  10.249  68.780  1.00  0.00    -0.139 C  
HETATM   13  C   UNL     1     -10.991  10.420  69.944  1.00  0.00    -0.364 C  
HETATM   14  C   UNL     1      -7.624   9.212  68.309  1.00  0.00    -0.083 C  
HETATM   15  O   UNL     1      -8.350  11.440  68.847  1.00  0.00    -0.130 OA 
HETATM   16  O   UNL     1      -8.755   6.459  70.098  1.00  0.00    -0.136 OA 
HETATM   17  H2  UNL     1      -7.769   9.545  66.346  1.00  0.00     0.000 HD 
HETATM   18  N   UNL     1      -7.771   8.752  66.986  1.00  0.00    -0.094 NA 
HETATM   19  C   UNL     1      -7.490   8.323  69.308  1.00  0.00    -0.085 C  
HETATM   20  C   UNL     1      -8.770   7.583  69.614  1.00  0.00    -0.137 C  
HETATM   21  C   UNL     1      -6.155   7.752  69.653  1.00  0.00    -0.030 C  
HETATM   22  H1  UNL     1      -7.100   8.052  66.669  1.00  0.00     0.000 HD 
BRANCH  13  23
HETATM   23  C   UNL     1     -12.036  10.877  68.898  1.00  0.00    -0.206 C  
BRANCH  23  24
HETATM   24  O   UNL     1     -11.547  10.852  67.544  1.00  0.00    -0.526 OA 
BRANCH  24  25
HETATM   25  C   UNL     1     -11.608  12.036  66.883  1.00  0.00    -0.318 C  
HETATM   26  O   UNL     1     -12.244  12.247  65.857  1.00  0.00    -0.634 OA 
HETATM   27  N   UNL     1     -10.826  12.947  67.498  1.00  0.00    -0.232 N  
HETATM   28  H1  UNL     1     -10.872  13.836  67.001  1.00  0.00     0.000 HD 
HETATM   29  H2  UNL     1     -10.271  12.772  68.336  1.00  0.00     0.000 HD 
ENDBRANCH  24  25
ENDBRANCH  23  24
ENDBRANCH  13  23
ENDBRANCH   2   3
TORSDOF 4
ENDMDL
MODEL       42
REMARK 921   NORMALIZED FREE ENERGY PREDICTED BY IDOCK:   -5.15 KCAL/MOL
REMARK 922        TOTAL FREE ENERGY PREDICTED BY IDOCK:   -6.53 KCAL/MOL
REMARK 923 INTER-LIGAND FREE ENERGY PREDICTED BY IDOCK:   -6.05 KCAL/MOL
REMARK 924 INTRA-LIGAND FREE ENERGY PREDICTED BY IDOCK:   -0.48 KCAL/MOL
REMARK 927      BINDING AFFINITY PREDICTED BY RF-SCORE:    0.00 PKD
ROOT
HETATM    1  C   UNL     1     -10.681  10.125  67.298  1.00  0.00    -0.254 C  
HETATM    2  O   UNL     1      -9.720   9.965  68.358  1.00  0.00    -0.146 OA 
ENDROOT
BRANCH   2   3
HETATM    3  C   UNL     1      -9.921   8.744  69.071  1.00  0.00    -0.191 C  
HETATM    4  C   UNL     1      -9.460   7.569  68.159  1.00  0.00    -0.143 C  
HETATM    5  N   UNL     1      -8.408   7.744  67.138  1.00  0.00    -0.117 NA 
HETATM    6  H   UNL     1      -8.147   8.519  66.528  1.00  0.00     0.000 HD 
HETATM    7  C   UNL     1      -7.979   7.332  68.458  1.00  0.00    -0.124 C  
HETATM    8  C   UNL     1      -7.631   8.254  69.586  1.00  0.00    -0.094 C  
HETATM    9  N   UNL     1      -8.940   8.506  70.183  1.00  0.00    -0.143 NA 
HETATM   10  C   UNL     1      -9.602   7.550  71.007  1.00  0.00    -0.160 C  
HETATM   11  C   UNL     1     -10.923   7.774  70.986  1.00  0.00    -0.260 C  
HETATM   12  C   UNL     1     -11.856   6.915  71.705  1.00  0.00    -0.324 C  
HETATM   13  C   UNL     1     -11.253   8.761  69.907  1.00  0.00    -0.059 C  
HETATM   14  C   UNL     1     -11.188   5.883  72.586  1.00  0.00    -0.291 C  
HETATM   15  O   UNL     1     -13.068   6.958  71.542  1.00  0.00    -0.359 OA 
HETATM   16  O   UNL     1      -8.120   5.639  70.977  1.00  0.00    -0.114 OA 
HETATM   17  H2  UNL     1     -11.584   6.716  74.357  1.00  0.00     0.000 HD 
HETATM   18  N   UNL     1     -10.787   6.311  73.866  1.00  0.00    -0.416 NA 
HETATM   19  C   UNL     1     -10.318   5.217  71.808  1.00  0.00    -0.274 C  
HETATM   20  C   UNL     1      -9.217   6.097  71.266  1.00  0.00    -0.150 C  
HETATM   21  C   UNL     1     -10.143   3.740  71.943  1.00  0.00    -0.194 C  
HETATM   22  H1  UNL     1     -10.335   5.615  74.460  1.00  0.00     0.000 HD 
BRANCH  13  23
HETATM   23  C   UNL     1     -11.448  10.162  70.535  1.00  0.00    -0.337 C  
BRANCH  23  24
HETATM   24  O   UNL     1     -12.822  10.590  70.578  1.00  0.00    -0.345 OA 
BRANCH  24  25
HETATM   25  C   UNL     1     -13.268  10.988  71.797  1.00  0.00    -0.400 C  
HETATM   26  O   UNL     1     -13.310  12.146  72.196  1.00  0.00    -0.522 OA 
HETATM   27  N   UNL     1     -13.622   9.914  72.531  1.00  0.00    -0.632 N  
HETATM   28  H1  UNL     1     -13.957  10.213  73.446  1.00  0.00     0.000 HD 
HETATM   29  H2  UNL     1     -13.564   8.945  72.217  1.00  0.00     0.000 HD 
ENDBRANCH  24  25
ENDBRANCH  23  24
ENDBRANCH  13  23
ENDBRANCH   2   3
TORSDOF 4
ENDMDL
MODEL       43
REMARK 921   NORMALIZED FREE ENERGY PREDICTED BY IDOCK:   -5.14 KCAL/MOL
REMARK 922        TOTAL FREE ENERGY PREDICTED BY IDOCK:   -6.51 KCAL/MOL
REMARK 923 INTER-LIGAND FREE ENERGY PREDICTED BY IDOCK:   -6.59 KCAL/MOL
REMARK 924 INTRA-LIGAND FREE ENERGY PREDICTED BY IDOCK:    0.09 KCAL/MOL
REMARK 927      BINDING AFFINITY PREDICTED BY RF-SCORE:    0.00 PKD
ROOT
HETATM    1  C   UNL     1     -11.569  10.622  68.732  1.00  0.00    -0.239 C  
HETATM    2  O   UNL     1     -11.074  11.263  67.542  1.00  0.00    -0.249 OA 
ENDROOT
BRANCH   2   3
HETATM    3  C   UNL     1     -10.220  12.363  67.852  1.00  0.00    -0.213 C  
HETATM    4  C   UNL     1      -9.018  11.824  68.682  1.00  0.00    -0.066 C  
HETATM    5  N   UNL     1      -8.528  10.439  68.532  1.00  0.00    -0.122 NA 
HETATM    6  H   UNL     1      -8.991   9.550  68.344  1.00  0.00     0.000 HD 
HETATM    7  C   UNL     1      -7.925  11.444  67.682  1.00  0.00    -0.123 C  
HETATM    8  C   UNL     1      -8.431  11.862  66.335  1.00  0.00    -0.039 C  
HETATM    9  N   UNL     1      -9.420  12.876  66.689  1.00  0.00    -0.251 NA 
HETATM   10  C   UNL     1      -9.054  14.193  67.095  1.00  0.00    -0.232 C  
HETATM   11  C   UNL     1     -10.037  14.725  67.835  1.00  0.00    -0.221 C  
HETATM   12  C   UNL     1      -9.914  16.052  68.428  1.00  0.00    -0.220 C  
HETATM   13  C   UNL     1     -11.034  13.665  68.195  1.00  0.00    -0.273 C  
HETATM   14  C   UNL     1      -8.678  16.808  67.993  1.00  0.00    -0.212 C  
HETATM   15  O   UNL     1     -10.688  16.482  69.273  1.00  0.00    -0.295 OA 
HETATM   16  O   UNL     1      -6.637  14.137  67.119  1.00  0.00    -0.183 OA 
HETATM   17  H2  UNL     1      -9.559  18.129  66.783  1.00  0.00     0.000 HD 
HETATM   18  N   UNL     1      -8.758  17.497  66.768  1.00  0.00    -0.247 NA 
HETATM   19  C   UNL     1      -7.629  16.002  68.232  1.00  0.00    -0.137 C  
HETATM   20  C   UNL     1      -7.665  14.731  67.418  1.00  0.00    -0.204 C  
HETATM   21  C   UNL     1      -6.349  16.549  68.773  1.00  0.00    -0.145 C  
HETATM   22  H1  UNL     1      -7.924  18.006  66.475  1.00  0.00     0.000 HD 
BRANCH  13  23
HETATM   23  C   UNL     1     -12.256  13.769  67.252  1.00  0.00    -0.278 C  
BRANCH  23  24
HETATM   24  O   UNL     1     -11.959  14.397  65.990  1.00  0.00    -0.386 OA 
BRANCH  24  25
HETATM   25  C   UNL     1     -12.515  13.804  64.903  1.00  0.00    -0.386 C  
HETATM   26  O   UNL     1     -12.919  12.648  64.849  1.00  0.00    -0.830 OA 
HETATM   27  N   UNL     1     -12.524  14.664  63.864  1.00  0.00    -1.041 N  
HETATM   28  H1  UNL     1     -12.942  14.219  63.047  1.00  0.00     0.000 HD 
HETATM   29  H2  UNL     1     -12.165  15.619  63.890  1.00  0.00     0.000 HD 
ENDBRANCH  24  25
ENDBRANCH  23  24
ENDBRANCH  13  23
ENDBRANCH   2   3
TORSDOF 4
ENDMDL
MODEL       44
REMARK 921   NORMALIZED FREE ENERGY PREDICTED BY IDOCK:   -5.11 KCAL/MOL
REMARK 922        TOTAL FREE ENERGY PREDICTED BY IDOCK:   -6.47 KCAL/MOL
REMARK 923 INTER-LIGAND FREE ENERGY PREDICTED BY IDOCK:   -5.94 KCAL/MOL
REMARK 924 INTRA-LIGAND FREE ENERGY PREDICTED BY IDOCK:   -0.53 KCAL/MOL
REMARK 927      BINDING AFFINITY PREDICTED BY RF-SCORE:    0.00 PKD
ROOT
HETATM    1  C   UNL     1     -11.655  12.114  69.150  1.00  0.00    -0.319 C  
HETATM    2  O   UNL     1     -10.363  11.516  68.933  1.00  0.00    -0.209 OA 
ENDROOT
BRANCH   2   3
HETATM    3  C   UNL     1     -10.477  10.170  68.469  1.00  0.00    -0.195 C  
HETATM    4  C   UNL     1     -11.017  10.205  67.009  1.00  0.00    -0.092 C  
HETATM    5  N   UNL     1     -10.760  11.350  66.112  1.00  0.00    -0.270 NA 
HETATM    6  H   UNL     1     -10.678  12.355  66.266  1.00  0.00     0.000 HD 
HETATM    7  C   UNL     1      -9.798  10.268  66.088  1.00  0.00    -0.225 C  
HETATM    8  C   UNL     1      -8.598  10.151  66.978  1.00  0.00    -0.129 C  
HETATM    9  N   UNL     1      -9.165   9.507  68.161  1.00  0.00    -0.130 NA 
HETATM   10  C   UNL     1      -9.481   8.118  68.198  1.00  0.00    -0.141 C  
HETATM   11  C   UNL     1     -10.423   7.895  69.125  1.00  0.00    -0.218 C  
HETATM   12  C   UNL     1     -10.975   6.564  69.350  1.00  0.00    -0.337 C  
HETATM   13  C   UNL     1     -10.994   9.200  69.593  1.00  0.00    -0.168 C  
HETATM   14  C   UNL     1     -10.276   5.470  68.574  1.00  0.00    -0.184 C  
HETATM   15  O   UNL     1     -11.972   6.359  70.029  1.00  0.00    -0.333 OA 
HETATM   16  O   UNL     1      -8.965   7.349  65.964  1.00  0.00    -0.166 OA 
HETATM   17  H2  UNL     1      -9.295   4.622  70.091  1.00  0.00     0.000 HD 
HETATM   18  N   UNL     1      -9.101   4.944  69.143  1.00  0.00    -0.098 NA 
HETATM   19  C   UNL     1     -10.274   5.852  67.285  1.00  0.00    -0.242 C  
HETATM   20  C   UNL     1      -9.486   7.118  67.047  1.00  0.00    -0.155 C  
HETATM   21  C   UNL     1     -10.516   4.864  66.192  1.00  0.00    -0.346 C  
HETATM   22  H1  UNL     1      -8.629   4.206  68.619  1.00  0.00     0.000 HD 
BRANCH  13  23
HETATM   23  C   UNL     1     -10.348   9.588  70.944  1.00  0.00    -0.302 C  
BRANCH  23  24
HETATM   24  O   UNL     1     -11.005   9.007  72.087  1.00  0.00    -0.348 OA 
BRANCH  24  25
HETATM   25  C   UNL     1     -12.350   9.179  72.132  1.00  0.00    -0.354 C  
HETATM   26  O   UNL     1     -12.935  10.251  72.028  1.00  0.00    -0.432 OA 
HETATM   27  N   UNL     1     -12.959   7.996  72.351  1.00  0.00    -0.548 N  
HETATM   28  H1  UNL     1     -13.970   8.126  72.384  1.00  0.00     0.000 HD 
HETATM   29  H2  UNL     1     -12.479   7.103  72.466  1.00  0.00     0.000 HD 
ENDBRANCH  24  25
ENDBRANCH  23  24
ENDBRANCH  13  23
ENDBRANCH   2   3
TORSDOF 4
ENDMDL
MODEL       45
REMARK 921   NORMALIZED FREE ENERGY PREDICTED BY IDOCK:   -5.09 KCAL/MOL
REMARK 922        TOTAL FREE ENERGY PREDICTED BY IDOCK:   -6.45 KCAL/MOL
REMARK 923 INTER-LIGAND FREE ENERGY PREDICTED BY IDOCK:   -5.97 KCAL/MOL
REMARK 924 INTRA-LIGAND FREE ENERGY PREDICTED BY IDOCK:   -0.48 KCAL/MOL
REMARK 927      BINDING AFFINITY PREDICTED BY RF-SCORE:    0.00 PKD
ROOT
HETATM    1  C   UNL     1      -9.360   6.854  67.123  1.00  0.00    -0.141 C  
HETATM    2  O   UNL     1      -8.823   8.128  67.522  1.00  0.00    -0.133 OA 
ENDROOT
BRANCH   2   3
HETATM    3  C   UNL     1      -9.639   9.209  67.069  1.00  0.00    -0.170 C  
HETATM    4  C   UNL     1     -10.982   9.164  67.856  1.00  0.00     0.031 C  
HETATM    5  N   UNL     1     -11.065   8.605  69.221  1.00  0.00    -0.430 NA 
HETATM    6  H   UNL     1     -10.588   7.836  69.692  1.00  0.00     0.000 HD 
HETATM    7  C   UNL     1     -10.790  10.022  69.108  1.00  0.00    -0.222 C  
HETATM    8  C   UNL     1      -9.429  10.637  68.985  1.00  0.00    -0.191 C  
HETATM    9  N   UNL     1      -9.196  10.563  67.545  1.00  0.00    -0.142 NA 
HETATM   10  C   UNL     1      -9.817  11.455  66.622  1.00  0.00    -0.205 C  
HETATM   11  C   UNL     1      -9.873  10.884  65.411  1.00  0.00    -0.308 C  
HETATM   12  C   UNL     1     -10.503  11.554  64.279  1.00  0.00    -0.338 C  
HETATM   13  C   UNL     1      -9.517   9.432  65.517  1.00  0.00    -0.328 C  
HETATM   14  C   UNL     1     -10.919  12.980  64.562  1.00  0.00    -0.358 C  
HETATM   15  O   UNL     1     -10.759  10.988  63.225  1.00  0.00    -0.271 OA 
HETATM   16  O   UNL     1     -11.247  12.820  68.015  1.00  0.00    -0.240 OA 
HETATM   17  H2  UNL     1      -9.503  13.908  63.504  1.00  0.00     0.000 HD 
HETATM   18  N   UNL     1      -9.922  13.966  64.432  1.00  0.00    -0.701 NA 
HETATM   19  C   UNL     1     -11.678  12.948  65.671  1.00  0.00    -0.430 C  
HETATM   20  C   UNL     1     -10.923  12.471  66.888  1.00  0.00    -0.257 C  
HETATM   21  C   UNL     1     -12.896  13.803  65.791  1.00  0.00    -0.430 C  
HETATM   22  H1  UNL     1     -10.202  14.928  64.623  1.00  0.00     0.000 HD 
BRANCH  13  23
HETATM   23  C   UNL     1      -8.046   9.231  65.084  1.00  0.00    -0.124 C  
BRANCH  23  24
HETATM   24  O   UNL     1      -7.329  10.464  64.885  1.00  0.00    -0.134 OA 
BRANCH  24  25
HETATM   25  C   UNL     1      -6.211  10.613  65.640  1.00  0.00    -0.115 C  
HETATM   26  O   UNL     1      -5.228  11.278  65.335  1.00  0.00    -0.265 OA 
HETATM   27  N   UNL     1      -6.317   9.883  66.769  1.00  0.00    -0.064 N  
HETATM   28  H1  UNL     1      -5.477   9.995  67.336  1.00  0.00     0.000 HD 
HETATM   29  H2  UNL     1      -7.120   9.304  67.019  1.00  0.00     0.000 HD 
ENDBRANCH  24  25
ENDBRANCH  23  24
ENDBRANCH  13  23
ENDBRANCH   2   3
TORSDOF 4
ENDMDL
MODEL       46
REMARK 921   NORMALIZED FREE ENERGY PREDICTED BY IDOCK:   -5.07 KCAL/MOL
REMARK 922        TOTAL FREE ENERGY PREDICTED BY IDOCK:   -6.42 KCAL/MOL
REMARK 923 INTER-LIGAND FREE ENERGY PREDICTED BY IDOCK:   -6.19 KCAL/MOL
REMARK 924 INTRA-LIGAND FREE ENERGY PREDICTED BY IDOCK:   -0.23 KCAL/MOL
REMARK 927      BINDING AFFINITY PREDICTED BY RF-SCORE:    0.00 PKD
ROOT
HETATM    1  C   UNL     1      -9.273   9.724  64.073  1.00  0.00    -0.215 C  
HETATM    2  O   UNL     1      -8.589   9.946  65.320  1.00  0.00    -0.140 OA 
ENDROOT
BRANCH   2   3
HETATM    3  C   UNL     1      -9.505  10.197  66.386  1.00  0.00    -0.176 C  
HETATM    4  C   UNL     1     -10.080   8.832  66.863  1.00  0.00    -0.278 C  
HETATM    5  N   UNL     1      -9.310   7.577  66.739  1.00  0.00    -0.157 NA 
HETATM    6  H   UNL     1      -8.648   7.228  66.045  1.00  0.00     0.000 HD 
HETATM    7  C   UNL     1      -9.155   8.324  67.970  1.00  0.00    -0.137 C  
HETATM    8  C   UNL     1      -8.154   9.414  68.206  1.00  0.00    -0.109 C  
HETATM    9  N   UNL     1      -8.855  10.584  67.684  1.00  0.00    -0.131 NA 
HETATM   10  C   UNL     1      -9.908  11.227  68.400  1.00  0.00    -0.199 C  
HETATM   11  C   UNL     1     -10.699  11.885  67.542  1.00  0.00    -0.263 C  
HETATM   12  C   UNL     1     -11.889  12.599  67.993  1.00  0.00    -0.323 C  
HETATM   13  C   UNL     1     -10.361  11.492  66.135  1.00  0.00    -0.287 C  
HETATM   14  C   UNL     1     -12.035  12.661  69.497  1.00  0.00    -0.270 C  
HETATM   15  O   UNL     1     -12.742  13.028  67.228  1.00  0.00     0.154 OA 
HETATM   16  O   UNL     1     -10.172   9.867  70.381  1.00  0.00    -0.277 OA 
HETATM   17  H2  UNL     1     -11.564  14.584  69.753  1.00  0.00     0.000 HD 
HETATM   18  N   UNL     1     -11.323  13.679  70.158  1.00  0.00    -0.495 NA 
HETATM   19  C   UNL     1     -11.952  11.396  69.945  1.00  0.00    -0.434 C  
HETATM   20  C   UNL     1     -10.611  10.760  69.669  1.00  0.00    -0.175 C  
HETATM   21  C   UNL     1     -12.834  10.914  71.049  1.00  0.00    -0.472 C  
HETATM   22  H1  UNL     1     -11.422  13.721  71.173  1.00  0.00     0.000 HD 
BRANCH  13  23
HETATM   23  C   UNL     1      -9.469  12.583  65.498  1.00  0.00     0.056 C  
BRANCH  23  24
HETATM   24  O   UNL     1     -10.205  13.723  65.014  1.00  0.00    -0.364 OA 
BRANCH  24  25
HETATM   25  C   UNL     1     -11.180  13.443  64.112  1.00  0.00    -0.350 C  
HETATM   26  O   UNL     1     -11.164  12.515  63.311  1.00  0.00    -0.452 OA 
HETATM   27  N   UNL     1     -12.160  14.365  64.193  1.00  0.00    -0.698 N  
HETATM   28  H1  UNL     1     -12.892  14.154  63.515  1.00  0.00     0.000 HD 
HETATM   29  H2  UNL     1     -12.169  15.156  64.837  1.00  0.00     0.000 HD 
ENDBRANCH  24  25
ENDBRANCH  23  24
ENDBRANCH  13  23
ENDBRANCH   2   3
TORSDOF 4
ENDMDL
MODEL       47
REMARK 921   NORMALIZED FREE ENERGY PREDICTED BY IDOCK:   -5.06 KCAL/MOL
REMARK 922        TOTAL FREE ENERGY PREDICTED BY IDOCK:   -6.42 KCAL/MOL
REMARK 923 INTER-LIGAND FREE ENERGY PREDICTED BY IDOCK:   -6.85 KCAL/MOL
REMARK 924 INTRA-LIGAND FREE ENERGY PREDICTED BY IDOCK:    0.44 KCAL/MOL
REMARK 927      BINDING AFFINITY PREDICTED BY RF-SCORE:    0.00 PKD
ROOT
HETATM    1  C   UNL     1     -13.740   9.182  72.230  1.00  0.00    -0.487 C  
HETATM    2  O   UNL     1     -12.380   9.530  72.549  1.00  0.00    -0.162 OA 
ENDROOT
BRANCH   2   3
HETATM    3  C   UNL     1     -11.454   8.910  71.656  1.00  0.00    -0.339 C  
HETATM    4  C   UNL     1     -10.486   8.029  72.498  1.00  0.00    -0.316 C  
HETATM    5  N   UNL     1     -10.900   7.424  73.780  1.00  0.00    -0.542 NA 
HETATM    6  H   UNL     1     -11.515   7.734  74.533  1.00  0.00     0.000 HD 
HETATM    7  C   UNL     1     -11.115   6.637  72.584  1.00  0.00    -0.257 C  
HETATM    8  C   UNL     1     -12.339   6.681  71.721  1.00  0.00    -0.337 C  
HETATM    9  N   UNL     1     -12.038   7.799  70.830  1.00  0.00    -0.234 NA 
HETATM   10  C   UNL     1     -11.125   7.684  69.741  1.00  0.00    -0.106 C  
HETATM   11  C   UNL     1     -10.638   8.893  69.432  1.00  0.00    -0.226 C  
HETATM   12  C   UNL     1      -9.642   9.071  68.382  1.00  0.00    -0.152 C  
HETATM   13  C   UNL     1     -11.009   9.879  70.500  1.00  0.00    -0.391 C  
HETATM   14  C   UNL     1      -9.354   7.815  67.589  1.00  0.00    -0.142 C  
HETATM   15  O   UNL     1      -9.024  10.114  68.215  1.00  0.00    -0.118 OA 
HETATM   16  O   UNL     1     -10.292   5.422  69.924  1.00  0.00    -0.260 OA 
HETATM   17  H2  UNL     1     -10.293   8.319  65.901  1.00  0.00     0.000 HD 
HETATM   18  N   UNL     1     -10.237   7.520  66.532  1.00  0.00    -0.485 NA 
HETATM   19  C   UNL     1      -9.045   6.858  68.481  1.00  0.00    -0.127 C  
HETATM   20  C   UNL     1     -10.189   6.527  69.410  1.00  0.00    -0.183 C  
HETATM   21  C   UNL     1      -7.951   5.880  68.208  1.00  0.00    -0.109 C  
HETATM   22  H1  UNL     1     -10.043   6.673  65.998  1.00  0.00     0.000 HD 
BRANCH  13  23
HETATM   23  C   UNL     1     -12.226  10.710  70.029  1.00  0.00    -0.298 C  
BRANCH  23  24
HETATM   24  O   UNL     1     -11.932  12.108  69.841  1.00  0.00    -0.319 OA 
BRANCH  24  25
HETATM   25  C   UNL     1     -11.970  12.541  68.555  1.00  0.00    -0.219 C  
HETATM   26  O   UNL     1     -11.791  11.843  67.563  1.00  0.00    -0.552 OA 
HETATM   27  N   UNL     1     -12.194  13.870  68.523  1.00  0.00    -0.493 N  
HETATM   28  H1  UNL     1     -12.222  14.194  67.557  1.00  0.00     0.000 HD 
HETATM   29  H2  UNL     1     -12.316  14.463  69.344  1.00  0.00     0.000 HD 
ENDBRANCH  24  25
ENDBRANCH  23  24
ENDBRANCH  13  23
ENDBRANCH   2   3
TORSDOF 4
ENDMDL
MODEL       48
REMARK 921   NORMALIZED FREE ENERGY PREDICTED BY IDOCK:   -5.06 KCAL/MOL
REMARK 922        TOTAL FREE ENERGY PREDICTED BY IDOCK:   -6.41 KCAL/MOL
REMARK 923 INTER-LIGAND FREE ENERGY PREDICTED BY IDOCK:   -6.85 KCAL/MOL
REMARK 924 INTRA-LIGAND FREE ENERGY PREDICTED BY IDOCK:    0.44 KCAL/MOL
REMARK 927      BINDING AFFINITY PREDICTED BY RF-SCORE:    0.00 PKD
ROOT
HETATM    1  C   UNL     1     -11.595  14.871  70.730  1.00  0.00    -0.296 C  
HETATM    2  O   UNL     1     -10.362  14.448  70.120  1.00  0.00     0.282 OA 
ENDROOT
BRANCH   2   3
HETATM    3  C   UNL     1     -10.521  14.207  68.722  1.00  0.00    -0.247 C  
HETATM    4  C   UNL     1     -10.065  12.748  68.427  1.00  0.00    -0.226 C  
HETATM    5  N   UNL     1     -10.158  11.683  69.445  1.00  0.00    -0.390 NA 
HETATM    6  H   UNL     1     -10.046  11.674  70.460  1.00  0.00     0.000 HD 
HETATM    7  C   UNL     1     -11.301  11.860  68.574  1.00  0.00    -0.276 C  
HETATM    8  C   UNL     1     -12.451  12.787  68.826  1.00  0.00     0.494 C  
HETATM    9  N   UNL     1     -11.947  14.044  68.279  1.00  0.00    -0.365 NA 
HETATM   10  C   UNL     1     -11.888  14.300  66.877  1.00  0.00    -0.433 C  
HETATM   11  C   UNL     1     -10.953  15.227  66.628  1.00  0.00    -0.297 C  
HETATM   12  C   UNL     1     -10.642  15.652  65.268  1.00  0.00    -0.426 C  
HETATM   13  C   UNL     1     -10.129  15.461  67.858  1.00  0.00    -0.226 C  
HETATM   14  C   UNL     1     -11.570  15.082  64.218  1.00  0.00    -0.181 C  
HETATM   15  O   UNL     1      -9.663  16.330  64.986  1.00  0.00    -0.215 OA 
HETATM   16  O   UNL     1     -12.658  12.235  65.882  1.00  0.00    -0.398 OA 
HETATM   17  H2  UNL     1     -12.605  16.742  63.817  1.00  0.00     0.000 HD 
HETATM   18  N   UNL     1     -12.788  15.759  64.019  1.00  0.00    -0.400 NA 
HETATM   19  C   UNL     1     -11.574  13.749  64.389  1.00  0.00    -0.418 C  
HETATM   20  C   UNL     1     -12.129  13.327  65.728  1.00  0.00    -0.441 C  
HETATM   21  C   UNL     1     -11.576  12.826  63.215  1.00  0.00    -0.378 C  
HETATM   22  H1  UNL     1     -13.415  15.375  63.311  1.00  0.00     0.000 HD 
BRANCH  13  23
HETATM   23  C   UNL     1     -10.618  16.747  68.566  1.00  0.00    -0.354 C  
BRANCH  23  24
HETATM   24  O   UNL     1      -9.753  17.881  68.367  1.00  0.00    -0.306 OA 
BRANCH  24  25
HETATM   25  C   UNL     1     -10.344  18.972  67.817  1.00  0.00    -0.417 C  
HETATM   26  O   UNL     1     -10.713  19.072  66.653  1.00  0.00    -0.405 OA 
HETATM   27  N   UNL     1     -10.431  19.958  68.733  1.00  0.00    -0.535 N  
HETATM   28  H1  UNL     1     -10.876  20.778  68.319  1.00  0.00     0.000 HD 
HETATM   29  H2  UNL     1     -10.102  19.894  69.696  1.00  0.00     0.000 HD 
ENDBRANCH  24  25
ENDBRANCH  23  24
ENDBRANCH  13  23
ENDBRANCH   2   3
TORSDOF 4
ENDMDL
MODEL       49
REMARK 921   NORMALIZED FREE ENERGY PREDICTED BY IDOCK:   -5.04 KCAL/MOL
REMARK 922        TOTAL FREE ENERGY PREDICTED BY IDOCK:   -6.39 KCAL/MOL
REMARK 923 INTER-LIGAND FREE ENERGY PREDICTED BY IDOCK:   -6.23 KCAL/MOL
REMARK 924 INTRA-LIGAND FREE ENERGY PREDICTED BY IDOCK:   -0.16 KCAL/MOL
REMARK 927      BINDING AFFINITY PREDICTED BY RF-SCORE:    0.00 PKD
ROOT
HETATM    1  C   UNL     1      -7.336  15.409  67.157  1.00  0.00    -0.168 C  
HETATM    2  O   UNL     1      -8.681  15.092  66.756  1.00  0.00    -0.243 OA 
ENDROOT
BRANCH   2   3
HETATM    3  C   UNL     1      -9.408  14.457  67.809  1.00  0.00    -0.200 C  
HETATM    4  C   UNL     1      -9.351  15.379  69.062  1.00  0.00    -0.232 C  
HETATM    5  N   UNL     1      -9.216  16.845  68.944  1.00  0.00    -0.255 NA 
HETATM    6  H   UNL     1      -8.724  17.452  68.288  1.00  0.00     0.000 HD 
HETATM    7  C   UNL     1     -10.562  16.310  68.983  1.00  0.00    -0.286 C  
HETATM    8  C   UNL     1     -11.353  15.860  67.793  1.00  0.00    -0.199 C  
HETATM    9  N   UNL     1     -10.900  14.481  67.635  1.00  0.00    -0.268 NA 
HETATM   10  C   UNL     1     -11.347  13.427  68.485  1.00  0.00    -0.289 C  
HETATM   11  C   UNL     1     -10.443  12.438  68.490  1.00  0.00    -0.244 C  
HETATM   12  C   UNL     1     -10.617  11.247  69.313  1.00  0.00    -0.148 C  
HETATM   13  C   UNL     1      -9.179  12.901  67.829  1.00  0.00    -0.200 C  
HETATM   14  C   UNL     1     -11.960  11.169  70.004  1.00  0.00    -0.367 C  
HETATM   15  O   UNL     1      -9.727  10.430  69.505  1.00  0.00    -0.219 OA 
HETATM   16  O   UNL     1     -12.773  14.544  70.086  1.00  0.00    -0.323 OA 
HETATM   17  H2  UNL     1     -12.779   9.734  68.882  1.00  0.00     0.000 HD 
HETATM   18  N   UNL     1     -13.030  10.653  69.248  1.00  0.00    -0.320 NA 
HETATM   19  C   UNL     1     -12.118  12.324  70.672  1.00  0.00    -0.330 C  
HETATM   20  C   UNL     1     -12.172  13.529  69.763  1.00  0.00    -0.269 C  
HETATM   21  C   UNL     1     -12.728  12.345  72.035  1.00  0.00    -0.119 C  
HETATM   22  H1  UNL     1     -13.936  10.600  69.715  1.00  0.00     0.000 HD 
BRANCH  13  23
HETATM   23  C   UNL     1      -9.136  12.370  66.376  1.00  0.00    -0.149 C  
BRANCH  23  24
HETATM   24  O   UNL     1     -10.349  11.711  65.966  1.00  0.00    -0.227 OA 
BRANCH  24  25
HETATM   25  C   UNL     1     -10.969  12.255  64.888  1.00  0.00    -0.302 C  
HETATM   26  O   UNL     1     -10.469  12.408  63.780  1.00  0.00    -0.406 OA 
HETATM   27  N   UNL     1     -12.214  12.648  65.224  1.00  0.00    -0.472 N  
HETATM   28  H1  UNL     1     -12.680  13.057  64.415  1.00  0.00     0.000 HD 
HETATM   29  H2  UNL     1     -12.630  12.550  66.151  1.00  0.00     0.000 HD 
ENDBRANCH  24  25
ENDBRANCH  23  24
ENDBRANCH  13  23
ENDBRANCH   2   3
TORSDOF 4
ENDMDL
MODEL       50
REMARK 921   NORMALIZED FREE ENERGY PREDICTED BY IDOCK:   -5.03 KCAL/MOL
REMARK 922        TOTAL FREE ENERGY PREDICTED BY IDOCK:   -6.38 KCAL/MOL
REMARK 923 INTER-LIGAND FREE ENERGY PREDICTED BY IDOCK:   -5.88 KCAL/MOL
REMARK 924 INTRA-LIGAND FREE ENERGY PREDICTED BY IDOCK:   -0.50 KCAL/MOL
REMARK 927      BINDING AFFINITY PREDICTED BY RF-SCORE:    0.00 PKD
ROOT
HETATM    1  C   UNL     1     -10.513   7.965  66.796  1.00  0.00    -0.247 C  
HETATM    2  O   UNL     1      -9.386   7.638  67.629  1.00  0.00    -0.140 OA 
ENDROOT
BRANCH   2   3
HETATM    3  C   UNL     1      -9.799   7.102  68.887  1.00  0.00    -0.156 C  
HETATM    4  C   UNL     1     -10.257   5.632  68.660  1.00  0.00    -0.200 C  
HETATM    5  N   UNL     1      -9.700   4.802  67.573  1.00  0.00    -0.165 NA 
HETATM    6  H   UNL     1      -9.387   5.011  66.624  1.00  0.00     0.000 HD 
HETATM    7  C   UNL     1      -9.023   4.749  68.852  1.00  0.00    -0.108 C  
HETATM    8  C   UNL     1      -7.922   5.665  69.292  1.00  0.00    -0.096 C  
HETATM    9  N   UNL     1      -8.671   6.797  69.831  1.00  0.00    -0.141 NA 
HETATM   10  C   UNL     1      -9.311   6.754  71.105  1.00  0.00    -0.159 C  
HETATM   11  C   UNL     1     -10.314   7.642  71.135  1.00  0.00    -0.212 C  
HETATM   12  C   UNL     1     -11.176   7.782  72.303  1.00  0.00    -0.312 C  
HETATM   13  C   UNL     1     -10.576   8.160  69.753  1.00  0.00    -0.231 C  
HETATM   14  C   UNL     1     -10.728   6.970  73.499  1.00  0.00    -0.332 C  
HETATM   15  O   UNL     1     -12.219   8.422  72.293  1.00  0.00    -0.351 OA 
HETATM   16  O   UNL     1      -8.905   4.499  71.877  1.00  0.00    -0.115 OA 
HETATM   17  H2  UNL     1     -10.037   8.469  74.622  1.00  0.00     0.000 HD 
HETATM   18  N   UNL     1      -9.735   7.544  74.315  1.00  0.00    -0.355 NA 
HETATM   19  C   UNL     1     -10.584   5.703  73.073  1.00  0.00    -0.275 C  
HETATM   20  C   UNL     1      -9.509   5.553  72.023  1.00  0.00    -0.150 C  
HETATM   21  C   UNL     1     -11.011   4.554  73.925  1.00  0.00    -0.326 C  
HETATM   22  H1  UNL     1      -9.433   6.996  75.121  1.00  0.00     0.000 HD 
BRANCH  13  23
HETATM   23  C   UNL     1      -9.909   9.547  69.590  1.00  0.00    -0.205 C  
BRANCH  23  24
HETATM   24  O   UNL     1     -10.700  10.632  70.112  1.00  0.00    -0.238 OA 
BRANCH  24  25
HETATM   25  C   UNL     1     -11.920  10.789  69.538  1.00  0.00    -0.292 C  
HETATM   26  O   UNL     1     -12.124  11.154  68.387  1.00  0.00    -0.605 OA 
HETATM   27  N   UNL     1     -12.889  10.523  70.438  1.00  0.00    -0.470 N  
HETATM   28  H1  UNL     1     -13.805  10.641  70.007  1.00  0.00     0.000 HD 
HETATM   29  H2  UNL     1     -12.729  10.246  71.407  1.00  0.00     0.000 HD 
ENDBRANCH  24  25
ENDBRANCH  23  24
ENDBRANCH  13  23
ENDBRANCH   2   3
TORSDOF 4
ENDMDL
MODEL       51
REMARK 921   NORMALIZED FREE ENERGY PREDICTED BY IDOCK:   -5.03 KCAL/MOL
REMARK 922        TOTAL FREE ENERGY PREDICTED BY IDOCK:   -6.38 KCAL/MOL
REMARK 923 INTER-LIGAND FREE ENERGY PREDICTED BY IDOCK:   -5.92 KCAL/MOL
REMARK 924 INTRA-LIGAND FREE ENERGY PREDICTED BY IDOCK:   -0.46 KCAL/MOL
REMARK 927      BINDING AFFINITY PREDICTED BY RF-SCORE:    0.00 PKD
ROOT
HETATM    1  C   UNL     1     -10.608  12.526  64.877  1.00  0.00    -0.301 C  
HETATM    2  O   UNL     1      -9.554  12.211  65.806  1.00  0.00    -0.245 OA 
ENDROOT
BRANCH   2   3
HETATM    3  C   UNL     1      -9.923  11.145  66.681  1.00  0.00    -0.207 C  
HETATM    4  C   UNL     1     -10.181   9.877  65.816  1.00  0.00    -0.181 C  
HETATM    5  N   UNL     1      -9.495   9.662  64.526  1.00  0.00    -0.432 NA 
HETATM    6  H   UNL     1      -9.189  10.291  63.783  1.00  0.00     0.000 HD 
HETATM    7  C   UNL     1      -8.848   9.135  65.709  1.00  0.00    -0.175 C  
HETATM    8  C   UNL     1      -7.886   9.883  66.580  1.00  0.00    -0.110 C  
HETATM    9  N   UNL     1      -8.788  10.585  67.490  1.00  0.00    -0.131 NA 
HETATM   10  C   UNL     1      -9.447   9.928  68.571  1.00  0.00    -0.146 C  
HETATM   11  C   UNL     1     -10.558  10.603  68.898  1.00  0.00    -0.241 C  
HETATM   12  C   UNL     1     -11.458  10.132  69.944  1.00  0.00    -0.254 C  
HETATM   13  C   UNL     1     -10.852  11.636  67.851  1.00  0.00    -0.255 C  
HETATM   14  C   UNL     1     -10.937   8.938  70.712  1.00  0.00    -0.253 C  
HETATM   15  O   UNL     1     -12.574  10.599  70.126  1.00  0.00    -0.318 OA 
HETATM   16  O   UNL     1      -8.770   7.618  68.340  1.00  0.00    -0.128 OA 
HETATM   17  H2  UNL     1     -10.474   9.870  72.416  1.00  0.00     0.000 HD 
HETATM   18  N   UNL     1     -10.047   9.206  71.769  1.00  0.00    -0.299 NA 
HETATM   19  C   UNL     1     -10.620   8.002  69.800  1.00  0.00    -0.238 C  
HETATM   20  C   UNL     1      -9.509   8.435  68.873  1.00  0.00    -0.147 C  
HETATM   21  C   UNL     1     -10.914   6.559  70.048  1.00  0.00    -0.388 C  
HETATM   22  H1  UNL     1      -9.695   8.400  72.286  1.00  0.00     0.000 HD 
BRANCH  13  23
HETATM   23  C   UNL     1     -10.367  13.019  68.346  1.00  0.00    -0.252 C  
BRANCH  23  24
HETATM   24  O   UNL     1     -11.436  13.890  68.765  1.00  0.00    -0.252 OA 
BRANCH  24  25
HETATM   25  C   UNL     1     -11.347  14.345  70.040  1.00  0.00    -0.198 C  
HETATM   26  O   UNL     1     -10.669  15.295  70.412  1.00  0.00    -0.288 OA 
HETATM   27  N   UNL     1     -12.085  13.568  70.859  1.00  0.00    -0.482 N  
HETATM   28  H1  UNL     1     -12.018  13.910  71.817  1.00  0.00     0.000 HD 
HETATM   29  H2  UNL     1     -12.631  12.758  70.563  1.00  0.00     0.000 HD 
ENDBRANCH  24  25
ENDBRANCH  23  24
ENDBRANCH  13  23
ENDBRANCH   2   3
TORSDOF 4
ENDMDL
MODEL       52
REMARK 921   NORMALIZED FREE ENERGY PREDICTED BY IDOCK:   -4.99 KCAL/MOL
REMARK 922        TOTAL FREE ENERGY PREDICTED BY IDOCK:   -6.33 KCAL/MOL
REMARK 923 INTER-LIGAND FREE ENERGY PREDICTED BY IDOCK:   -6.19 KCAL/MOL
REMARK 924 INTRA-LIGAND FREE ENERGY PREDICTED BY IDOCK:   -0.14 KCAL/MOL
REMARK 927      BINDING AFFINITY PREDICTED BY RF-SCORE:    0.00 PKD
ROOT
HETATM    1  C   UNL     1      -8.187  11.475  68.299  1.00  0.00    -0.152 C  
HETATM    2  O   UNL     1      -9.479  10.856  68.444  1.00  0.00    -0.164 OA 
ENDROOT
BRANCH   2   3
HETATM    3  C   UNL     1      -9.402   9.438  68.298  1.00  0.00    -0.133 C  
HETATM    4  C   UNL     1      -8.642   8.864  69.530  1.00  0.00    -0.134 C  
HETATM    5  N   UNL     1      -8.666   9.541  70.843  1.00  0.00    -0.339 NA 
HETATM    6  H   UNL     1      -8.690  10.522  71.124  1.00  0.00     0.000 HD 
HETATM    7  C   UNL     1      -9.696   8.554  70.595  1.00  0.00    -0.176 C  
HETATM    8  C   UNL     1     -11.024   8.824  69.956  1.00  0.00    -0.209 C  
HETATM    9  N   UNL     1     -10.700   8.719  68.536  1.00  0.00    -0.122 NA 
HETATM   10  C   UNL     1     -10.504   7.464  67.886  1.00  0.00    -0.205 C  
HETATM   11  C   UNL     1      -9.738   7.634  66.800  1.00  0.00    -0.290 C  
HETATM   12  C   UNL     1      -9.335   6.508  65.966  1.00  0.00     0.001 C  
HETATM   13  C   UNL     1      -9.144   9.010  66.807  1.00  0.00    -0.178 C  
HETATM   14  C   UNL     1      -9.991   5.198  66.342  1.00  0.00    -0.213 C  
HETATM   15  O   UNL     1      -8.475   6.591  65.099  1.00  0.00    -0.128 OA 
HETATM   16  O   UNL     1     -10.729   5.850  69.673  1.00  0.00    -0.279 OA 
HETATM   17  H2  UNL     1     -11.259   5.058  64.807  1.00  0.00     0.000 HD 
HETATM   18  N   UNL     1     -11.278   4.964  65.822  1.00  0.00    -0.893 NA 
HETATM   19  C   UNL     1      -9.764   5.016  67.655  1.00  0.00    -0.188 C  
HETATM   20  C   UNL     1     -10.401   6.080  68.516  1.00  0.00    -0.207 C  
HETATM   21  C   UNL     1      -9.435   3.664  68.196  1.00  0.00    -0.215 C  
HETATM   22  H1  UNL     1     -11.720   4.080  66.077  1.00  0.00     0.000 HD 
BRANCH  13  23
HETATM   23  C   UNL     1      -9.958   9.926  65.862  1.00  0.00    -0.277 C  
BRANCH  23  24
HETATM   24  O   UNL     1      -9.453   9.958  64.513  1.00  0.00    -0.283 OA 
BRANCH  24  25
HETATM   25  C   UNL     1      -9.868  11.012  63.764  1.00  0.00    -0.330 C  
HETATM   26  O   UNL     1     -10.079  12.144  64.182  1.00  0.00    -0.313 OA 
HETATM   27  N   UNL     1     -10.060  10.622  62.488  1.00  0.00    -0.766 N  
HETATM   28  H1  UNL     1     -10.371  11.413  61.926  1.00  0.00     0.000 HD 
HETATM   29  H2  UNL     1      -9.914   9.675  62.137  1.00  0.00     0.000 HD 
ENDBRANCH  24  25
ENDBRANCH  23  24
ENDBRANCH  13  23
ENDBRANCH   2   3
TORSDOF 4
ENDMDL
MODEL       53
REMARK 921   NORMALIZED FREE ENERGY PREDICTED BY IDOCK:   -4.99 KCAL/MOL
REMARK 922        TOTAL FREE ENERGY PREDICTED BY IDOCK:   -6.32 KCAL/MOL
REMARK 923 INTER-LIGAND FREE ENERGY PREDICTED BY IDOCK:   -6.14 KCAL/MOL
REMARK 924 INTRA-LIGAND FREE ENERGY PREDICTED BY IDOCK:   -0.19 KCAL/MOL
REMARK 927      BINDING AFFINITY PREDICTED BY RF-SCORE:    0.00 PKD
ROOT
HETATM    1  C   UNL     1      -8.934   8.535  68.175  1.00  0.00    -0.142 C  
HETATM    2  O   UNL     1      -8.200   9.450  67.340  1.00  0.00    -0.119 OA 
ENDROOT
BRANCH   2   3
HETATM    3  C   UNL     1      -8.779  10.755  67.352  1.00  0.00    -0.126 C  
HETATM    4  C   UNL     1      -8.550  11.374  68.762  1.00  0.00    -0.083 C  
HETATM    5  N   UNL     1      -7.393  10.996  69.598  1.00  0.00    -0.337 NA 
HETATM    6  H   UNL     1      -6.881  10.123  69.732  1.00  0.00     0.000 HD 
HETATM    7  C   UNL     1      -7.217  12.122  68.706  1.00  0.00    -0.103 C  
HETATM    8  C   UNL     1      -6.755  12.041  67.283  1.00  0.00    -0.144 C  
HETATM    9  N   UNL     1      -8.007  11.784  66.575  1.00  0.00    -0.072 NA 
HETATM   10  C   UNL     1      -8.973  12.805  66.332  1.00  0.00    -0.029 C  
HETATM   11  C   UNL     1     -10.182  12.251  66.167  1.00  0.00    -0.263 C  
HETATM   12  C   UNL     1     -11.372  13.066  65.949  1.00  0.00    -0.313 C  
HETATM   13  C   UNL     1     -10.137  10.805  66.561  1.00  0.00    -0.277 C  
HETATM   14  C   UNL     1     -11.083  14.539  65.764  1.00  0.00    -0.324 C  
HETATM   15  O   UNL     1     -12.509  12.618  66.004  1.00  0.00    -0.555 OA 
HETATM   16  O   UNL     1      -8.039  14.751  67.422  1.00  0.00    -0.170 OA 
HETATM   17  H2  UNL     1     -11.423  14.656  63.800  1.00  0.00     0.000 HD 
HETATM   18  N   UNL     1     -10.713  14.952  64.470  1.00  0.00    -0.601 NA 
HETATM   19  C   UNL     1     -10.342  14.922  66.818  1.00  0.00    -0.269 C  
HETATM   20  C   UNL     1      -9.003  14.226  66.883  1.00  0.00    -0.236 C  
HETATM   21  C   UNL     1     -10.569  16.244  67.476  1.00  0.00    -0.310 C  
HETATM   22  H1  UNL     1     -10.518  15.946  64.346  1.00  0.00     0.000 HD 
BRANCH  13  23
HETATM   23  C   UNL     1     -10.024   9.931  65.290  1.00  0.00    -0.249 C  
BRANCH  23  24
HETATM   24  O   UNL     1     -10.493  10.585  64.095  1.00  0.00    -0.256 OA 
BRANCH  24  25
HETATM   25  C   UNL     1      -9.574  10.710  63.104  1.00  0.00    -0.348 C  
HETATM   26  O   UNL     1      -9.002  11.747  62.789  1.00  0.00    -0.246 OA 
HETATM   27  N   UNL     1      -9.406   9.526  62.480  1.00  0.00    -0.564 N  
HETATM   28  H1  UNL     1      -8.716   9.620  61.735  1.00  0.00     0.000 HD 
HETATM   29  H2  UNL     1      -9.898   8.664  62.717  1.00  0.00     0.000 HD 
ENDBRANCH  24  25
ENDBRANCH  23  24
ENDBRANCH  13  23
ENDBRANCH   2   3
TORSDOF 4
ENDMDL
MODEL       54
REMARK 921   NORMALIZED FREE ENERGY PREDICTED BY IDOCK:   -4.98 KCAL/MOL
REMARK 922        TOTAL FREE ENERGY PREDICTED BY IDOCK:   -6.31 KCAL/MOL
REMARK 923 INTER-LIGAND FREE ENERGY PREDICTED BY IDOCK:   -5.82 KCAL/MOL
REMARK 924 INTRA-LIGAND FREE ENERGY PREDICTED BY IDOCK:   -0.49 KCAL/MOL
REMARK 927      BINDING AFFINITY PREDICTED BY RF-SCORE:    0.00 PKD
ROOT
HETATM    1  C   UNL     1      -8.269  15.201  67.274  1.00  0.00    -0.208 C  
HETATM    2  O   UNL     1      -9.116  14.178  66.719  1.00  0.00    -0.254 OA 
ENDROOT
BRANCH   2   3
HETATM    3  C   UNL     1      -9.544  13.250  67.717  1.00  0.00    -0.214 C  
HETATM    4  C   UNL     1     -10.498  13.996  68.695  1.00  0.00    -0.247 C  
HETATM    5  N   UNL     1     -11.315  15.147  68.259  1.00  0.00    -0.313 NA 
HETATM    6  H   UNL     1     -11.156  15.905  67.595  1.00  0.00     0.000 HD 
HETATM    7  C   UNL     1     -11.915  13.834  68.142  1.00  0.00    -0.358 C  
HETATM    8  C   UNL     1     -11.796  12.926  66.956  1.00  0.00    -0.374 C  
HETATM    9  N   UNL     1     -10.539  12.234  67.233  1.00  0.00    -0.221 NA 
HETATM   10  C   UNL     1     -10.438  11.189  68.198  1.00  0.00    -0.189 C  
HETATM   11  C   UNL     1      -9.174  11.096  68.631  1.00  0.00    -0.173 C  
HETATM   12  C   UNL     1      -8.786  10.139  69.661  1.00  0.00    -0.164 C  
HETATM   13  C   UNL     1      -8.386  12.281  68.158  1.00  0.00    -0.174 C  
HETATM   14  C   UNL     1      -9.887   9.179  70.053  1.00  0.00    -0.193 C  
HETATM   15  O   UNL     1      -7.702  10.166  70.226  1.00  0.00    -0.184 OA 
HETATM   16  O   UNL     1     -12.659  11.066  69.148  1.00  0.00    -0.378 OA 
HETATM   17  H2  UNL     1      -9.172   7.541  69.163  1.00  0.00     0.000 HD 
HETATM   18  N   UNL     1     -10.056   8.045  69.236  1.00  0.00    -0.193 NA 
HETATM   19  C   UNL     1     -10.956   9.928  70.375  1.00  0.00    -0.379 C  
HETATM   20  C   UNL     1     -11.483  10.734  69.212  1.00  0.00    -0.298 C  
HETATM   21  C   UNL     1     -11.826   9.565  71.533  1.00  0.00    -0.478 C  
HETATM   22  H1  UNL     1     -10.799   7.397  69.500  1.00  0.00     0.000 HD 
BRANCH  13  23
HETATM   23  C   UNL     1      -7.551  11.881  66.918  1.00  0.00    -0.093 C  
BRANCH  23  24
HETATM   24  O   UNL     1      -7.660  10.486  66.575  1.00  0.00    -0.115 OA 
BRANCH  24  25
HETATM   25  C   UNL     1      -7.932  10.230  65.270  1.00  0.00    -0.148 C  
HETATM   26  O   UNL     1      -7.458   9.313  64.610  1.00  0.00    -0.097 OA 
HETATM   27  N   UNL     1      -8.774  11.164  64.783  1.00  0.00    -0.376 N  
HETATM   28  H1  UNL     1      -8.978  10.971  63.803  1.00  0.00     0.000 HD 
HETATM   29  H2  UNL     1      -9.152  11.948  65.317  1.00  0.00     0.000 HD 
ENDBRANCH  24  25
ENDBRANCH  23  24
ENDBRANCH  13  23
ENDBRANCH   2   3
TORSDOF 4
ENDMDL
MODEL       55
REMARK 921   NORMALIZED FREE ENERGY PREDICTED BY IDOCK:   -4.95 KCAL/MOL
REMARK 922        TOTAL FREE ENERGY PREDICTED BY IDOCK:   -6.28 KCAL/MOL
REMARK 923 INTER-LIGAND FREE ENERGY PREDICTED BY IDOCK:   -6.01 KCAL/MOL
REMARK 924 INTRA-LIGAND FREE ENERGY PREDICTED BY IDOCK:   -0.27 KCAL/MOL
REMARK 927      BINDING AFFINITY PREDICTED BY RF-SCORE:    0.00 PKD
ROOT
HETATM    1  C   UNL     1     -10.150   6.335  74.280  1.00  0.00    -0.335 C  
HETATM    2  O   UNL     1     -10.632   5.401  73.297  1.00  0.00    -0.209 OA 
ENDROOT
BRANCH   2   3
HETATM    3  C   UNL     1     -10.172   5.732  71.986  1.00  0.00    -0.201 C  
HETATM    4  C   UNL     1      -8.632   5.512  71.943  1.00  0.00    -0.131 C  
HETATM    5  N   UNL     1      -7.963   4.516  72.806  1.00  0.00    -0.090 NA 
HETATM    6  H   UNL     1      -8.136   4.185  73.755  1.00  0.00     0.000 HD 
HETATM    7  C   UNL     1      -8.403   4.065  71.502  1.00  0.00    -0.082 C  
HETATM    8  C   UNL     1      -9.758   3.509  71.185  1.00  0.00    -0.167 C  
HETATM    9  N   UNL     1     -10.529   4.724  70.931  1.00  0.00    -0.111 NA 
HETATM   10  C   UNL     1     -10.413   5.464  69.717  1.00  0.00    -0.307 C  
HETATM   11  C   UNL     1     -10.779   6.735  69.928  1.00  0.00    -0.290 C  
HETATM   12  C   UNL     1     -10.715   7.735  68.868  1.00  0.00    -0.085 C  
HETATM   13  C   UNL     1     -10.915   6.988  71.400  1.00  0.00    -0.266 C  
HETATM   14  C   UNL     1     -10.369   7.168  67.509  1.00  0.00    -0.236 C  
HETATM   15  O   UNL     1     -10.837   8.935  69.072  1.00  0.00    -0.167 OA 
HETATM   16  O   UNL     1      -8.698   4.285  68.486  1.00  0.00    -0.092 OA 
HETATM   17  H2  UNL     1     -12.172   7.318  66.666  1.00  0.00     0.000 HD 
HETATM   18  N   UNL     1     -11.431   6.624  66.763  1.00  0.00    -0.727 NA 
HETATM   19  C   UNL     1      -9.236   6.461  67.663  1.00  0.00    -0.116 C  
HETATM   20  C   UNL     1      -9.401   5.281  68.592  1.00  0.00    -0.121 C  
HETATM   21  C   UNL     1      -8.162   6.497  66.628  1.00  0.00    -0.112 C  
HETATM   22  H1  UNL     1     -11.197   6.242  65.847  1.00  0.00     0.000 HD 
BRANCH  13  23
HETATM   23  C   UNL     1     -12.410   6.931  71.794  1.00  0.00    -0.361 C  
BRANCH  23  24
HETATM   24  O   UNL     1     -13.228   7.892  71.100  1.00  0.00    -0.201 OA 
BRANCH  24  25
HETATM   25  C   UNL     1     -13.371   9.089  71.723  1.00  0.00    -0.397 C  
HETATM   26  O   UNL     1     -12.892  10.152  71.345  1.00  0.00    -0.358 OA 
HETATM   27  N   UNL     1     -14.090   8.935  72.854  1.00  0.00    -0.845 N  
HETATM   28  H1  UNL     1     -14.198   9.835  73.322  1.00  0.00     0.000 HD 
HETATM   29  H2  UNL     1     -14.470   8.050  73.191  1.00  0.00     0.000 HD 
ENDBRANCH  24  25
ENDBRANCH  23  24
ENDBRANCH  13  23
ENDBRANCH   2   3
TORSDOF 4
ENDMDL
MODEL       56
REMARK 921   NORMALIZED FREE ENERGY PREDICTED BY IDOCK:   -4.94 KCAL/MOL
REMARK 922        TOTAL FREE ENERGY PREDICTED BY IDOCK:   -6.26 KCAL/MOL
REMARK 923 INTER-LIGAND FREE ENERGY PREDICTED BY IDOCK:   -5.78 KCAL/MOL
REMARK 924 INTRA-LIGAND FREE ENERGY PREDICTED BY IDOCK:   -0.47 KCAL/MOL
REMARK 927      BINDING AFFINITY PREDICTED BY RF-SCORE:    0.00 PKD
ROOT
HETATM    1  C   UNL     1     -10.288   5.640  66.444  1.00  0.00    -0.187 C  
HETATM    2  O   UNL     1      -9.416   6.418  67.285  1.00  0.00    -0.120 OA 
ENDROOT
BRANCH   2   3
HETATM    3  C   UNL     1     -10.124   7.463  67.953  1.00  0.00    -0.178 C  
HETATM    4  C   UNL     1     -11.144   6.809  68.931  1.00  0.00    -0.181 C  
HETATM    5  N   UNL     1     -10.903   5.483  69.535  1.00  0.00    -0.273 NA 
HETATM    6  H   UNL     1     -10.451   4.632  69.197  1.00  0.00     0.000 HD 
HETATM    7  C   UNL     1     -10.425   6.635  70.270  1.00  0.00    -0.209 C  
HETATM    8  C   UNL     1      -9.081   7.276  70.105  1.00  0.00    -0.148 C  
HETATM    9  N   UNL     1      -9.319   8.191  68.992  1.00  0.00    -0.148 NA 
HETATM   10  C   UNL     1     -10.023   9.421  69.150  1.00  0.00    -0.182 C  
HETATM   11  C   UNL     1     -10.550   9.793  67.975  1.00  0.00    -0.291 C  
HETATM   12  C   UNL     1     -11.367  10.995  67.849  1.00  0.00    -0.311 C  
HETATM   13  C   UNL     1     -10.447   8.665  66.992  1.00  0.00    -0.354 C  
HETATM   14  C   UNL     1     -11.411  11.841  69.102  1.00  0.00    -0.297 C  
HETATM   15  O   UNL     1     -12.032  11.251  66.855  1.00  0.00    -0.327 OA 
HETATM   16  O   UNL     1     -10.685   9.412  71.475  1.00  0.00    -0.346 OA 
HETATM   17  H2  UNL     1     -10.247  13.339  68.481  1.00  0.00     0.000 HD 
HETATM   18  N   UNL     1     -10.342  12.736  69.298  1.00  0.00    -0.384 NA 
HETATM   19  C   UNL     1     -11.785  11.027  70.105  1.00  0.00    -0.442 C  
HETATM   20  C   UNL     1     -10.792   9.921  70.368  1.00  0.00    -0.319 C  
HETATM   21  C   UNL     1     -12.733  11.495  71.159  1.00  0.00    -0.458 C  
HETATM   22  H1  UNL     1     -10.373  13.307  70.143  1.00  0.00     0.000 HD 
BRANCH  13  23
HETATM   23  C   UNL     1      -9.241   8.911  66.054  1.00  0.00    -0.228 C  
BRANCH  23  24
HETATM   24  O   UNL     1      -8.508  10.113  66.360  1.00  0.00    -0.128 OA 
BRANCH  24  25
HETATM   25  C   UNL     1      -7.177   9.943  66.565  1.00  0.00    -0.095 C  
HETATM   26  O   UNL     1      -6.296  10.712  66.197  1.00  0.00    -0.107 OA 
HETATM   27  N   UNL     1      -6.954   8.775  67.201  1.00  0.00    -0.071 N  
HETATM   28  H1  UNL     1      -5.955   8.649  67.355  1.00  0.00     0.000 HD 
HETATM   29  H2  UNL     1      -7.679   8.116  67.486  1.00  0.00     0.000 HD 
ENDBRANCH  24  25
ENDBRANCH  23  24
ENDBRANCH  13  23
ENDBRANCH   2   3
TORSDOF 4
ENDMDL
MODEL       57
REMARK 921   NORMALIZED FREE ENERGY PREDICTED BY IDOCK:   -4.92 KCAL/MOL
REMARK 922        TOTAL FREE ENERGY PREDICTED BY IDOCK:   -6.23 KCAL/MOL
REMARK 923 INTER-LIGAND FREE ENERGY PREDICTED BY IDOCK:   -5.92 KCAL/MOL
REMARK 924 INTRA-LIGAND FREE ENERGY PREDICTED BY IDOCK:   -0.31 KCAL/MOL
REMARK 927      BINDING AFFINITY PREDICTED BY RF-SCORE:    0.00 PKD
ROOT
HETATM    1  C   UNL     1     -10.727  14.836  64.893  1.00  0.00    -0.417 C  
HETATM    2  O   UNL     1     -10.804  15.238  66.273  1.00  0.00    -0.311 OA 
ENDROOT
BRANCH   2   3
HETATM    3  C   UNL     1      -9.649  15.977  66.672  1.00  0.00    -0.239 C  
HETATM    4  C   UNL     1      -9.605  17.292  65.841  1.00  0.00    -0.046 C  
HETATM    5  N   UNL     1     -10.834  17.931  65.329  1.00  0.00    -0.554 NA 
HETATM    6  H   UNL     1     -11.721  17.563  64.982  1.00  0.00     0.000 HD 
HETATM    7  C   UNL     1     -10.376  18.345  66.638  1.00  0.00    -0.396 C  
HETATM    8  C   UNL     1     -10.746  17.694  67.936  1.00  0.00    -0.337 C  
HETATM    9  N   UNL     1      -9.760  16.620  68.024  1.00  0.00    -0.237 NA 
HETATM   10  C   UNL     1      -8.402  16.856  68.389  1.00  0.00    -0.238 C  
HETATM   11  C   UNL     1      -7.628  15.876  67.904  1.00  0.00    -0.145 C  
HETATM   12  C   UNL     1      -6.181  15.884  68.085  1.00  0.00    -0.120 C  
HETATM   13  C   UNL     1      -8.412  15.041  66.936  1.00  0.00    -0.269 C  
HETATM   14  C   UNL     1      -5.681  16.985  68.993  1.00  0.00    -0.154 C  
HETATM   15  O   UNL     1      -5.427  15.130  67.485  1.00  0.00    -0.321 OA 
HETATM   16  O   UNL     1      -8.283  19.258  68.643  1.00  0.00    -0.356 OA 
HETATM   17  H2  UNL     1      -5.233  15.866  70.584  1.00  0.00     0.000 HD 
HETATM   18  N   UNL     1      -5.729  16.733  70.377  1.00  0.00    -0.171 NA 
HETATM   19  C   UNL     1      -6.179  18.138  68.512  1.00  0.00    -0.199 C  
HETATM   20  C   UNL     1      -7.688  18.193  68.559  1.00  0.00    -0.297 C  
HETATM   21  C   UNL     1      -5.352  19.380  68.487  1.00  0.00    -0.201 C  
HETATM   22  H1  UNL     1      -5.392  17.476  70.989  1.00  0.00     0.000 HD 
BRANCH  13  23
HETATM   23  C   UNL     1      -8.887  13.749  67.641  1.00  0.00    -0.189 C  
BRANCH  23  24
HETATM   24  O   UNL     1      -8.509  12.542  66.951  1.00  0.00    -0.186 OA 
BRANCH  24  25
HETATM   25  C   UNL     1      -9.382  11.509  67.068  1.00  0.00    -0.178 C  
HETATM   26  O   UNL     1      -9.077  10.334  67.232  1.00  0.00    -0.138 OA 
HETATM   27  N   UNL     1     -10.647  11.958  66.936  1.00  0.00    -0.222 N  
HETATM   28  H1  UNL     1     -11.302  11.182  67.025  1.00  0.00     0.000 HD 
HETATM   29  H2  UNL     1     -10.909  12.930  66.772  1.00  0.00     0.000 HD 
ENDBRANCH  24  25
ENDBRANCH  23  24
ENDBRANCH  13  23
ENDBRANCH   2   3
TORSDOF 4
ENDMDL
MODEL       58
REMARK 921   NORMALIZED FREE ENERGY PREDICTED BY IDOCK:   -4.91 KCAL/MOL
REMARK 922        TOTAL FREE ENERGY PREDICTED BY IDOCK:   -6.23 KCAL/MOL
REMARK 923 INTER-LIGAND FREE ENERGY PREDICTED BY IDOCK:   -5.65 KCAL/MOL
REMARK 924 INTRA-LIGAND FREE ENERGY PREDICTED BY IDOCK:   -0.58 KCAL/MOL
REMARK 927      BINDING AFFINITY PREDICTED BY RF-SCORE:    0.00 PKD
ROOT
HETATM    1  C   UNL     1     -11.265   5.322  72.732  1.00  0.00    -0.284 C  
HETATM    2  O   UNL     1     -11.398   6.723  73.034  1.00  0.00    -0.200 OA 
ENDROOT
BRANCH   2   3
HETATM    3  C   UNL     1     -11.308   7.527  71.858  1.00  0.00    -0.260 C  
HETATM    4  C   UNL     1     -12.654   7.405  71.085  1.00  0.00    -0.293 C  
HETATM    5  N   UNL     1     -13.928   7.129  71.780  1.00  0.00    -0.515 NA 
HETATM    6  H   UNL     1     -14.172   6.569  72.596  1.00  0.00     0.000 HD 
HETATM    7  C   UNL     1     -13.564   8.520  71.603  1.00  0.00    -0.361 C  
HETATM    8  C   UNL     1     -12.732   9.328  72.551  1.00  0.00    -0.240 C  
HETATM    9  N   UNL     1     -11.377   9.006  72.110  1.00  0.00    -0.320 NA 
HETATM   10  C   UNL     1     -10.802   9.568  70.932  1.00  0.00    -0.337 C  
HETATM   11  C   UNL     1      -9.834   8.762  70.475  1.00  0.00    -0.224 C  
HETATM   12  C   UNL     1      -9.102   9.065  69.251  1.00  0.00    -0.145 C  
HETATM   13  C   UNL     1      -9.884   7.448  71.195  1.00  0.00    -0.177 C  
HETATM   14  C   UNL     1      -9.420  10.422  68.664  1.00  0.00    -0.167 C  
HETATM   15  O   UNL     1      -8.367   8.260  68.694  1.00  0.00    -0.122 OA 
HETATM   16  O   UNL     1     -12.586  10.911  70.004  1.00  0.00    -0.295 OA 
HETATM   17  H2  UNL     1      -7.722  11.352  69.152  1.00  0.00     0.000 HD 
HETATM   18  N   UNL     1      -8.727  11.522  69.205  1.00  0.00    -0.364 NA 
HETATM   19  C   UNL     1     -10.756  10.482  68.532  1.00  0.00    -0.259 C  
HETATM   20  C   UNL     1     -11.483  10.403  69.854  1.00  0.00    -0.297 C  
HETATM   21  C   UNL     1     -11.381  11.112  67.332  1.00  0.00    -0.329 C  
HETATM   22  H1  UNL     1      -8.942  12.437  68.809  1.00  0.00     0.000 HD 
BRANCH  13  23
HETATM   23  C   UNL     1      -8.803   7.428  72.302  1.00  0.00    -0.124 C  
BRANCH  23  24
HETATM   24  O   UNL     1      -7.498   7.046  71.828  1.00  0.00    -0.085 OA 
BRANCH  24  25
HETATM   25  C   UNL     1      -7.423   5.814  71.263  1.00  0.00    -0.095 C  
HETATM   26  O   UNL     1      -7.725   4.760  71.810  1.00  0.00    -0.091 OA 
HETATM   27  N   UNL     1      -6.925   5.911  70.013  1.00  0.00    -0.063 N  
HETATM   28  H1  UNL     1      -6.869   4.985  69.589  1.00  0.00     0.000 HD 
HETATM   29  H2  UNL     1      -6.645   6.781  69.560  1.00  0.00     0.000 HD 
ENDBRANCH  24  25
ENDBRANCH  23  24
ENDBRANCH  13  23
ENDBRANCH   2   3
TORSDOF 4
ENDMDL
MODEL       59
REMARK 921   NORMALIZED FREE ENERGY PREDICTED BY IDOCK:   -4.89 KCAL/MOL
REMARK 922        TOTAL FREE ENERGY PREDICTED BY IDOCK:   -6.21 KCAL/MOL
REMARK 923 INTER-LIGAND FREE ENERGY PREDICTED BY IDOCK:   -5.68 KCAL/MOL
REMARK 924 INTRA-LIGAND FREE ENERGY PREDICTED BY IDOCK:   -0.52 KCAL/MOL
REMARK 927      BINDING AFFINITY PREDICTED BY RF-SCORE:    0.00 PKD
ROOT
HETATM    1  C   UNL     1      -8.414   4.820  69.541  1.00  0.00    -0.082 C  
HETATM    2  O   UNL     1      -9.081   5.380  68.395  1.00  0.00    -0.107 OA 
ENDROOT
BRANCH   2   3
HETATM    3  C   UNL     1      -9.128   6.806  68.458  1.00  0.00    -0.129 C  
HETATM    4  C   UNL     1      -7.721   7.354  68.077  1.00  0.00    -0.116 C  
HETATM    5  N   UNL     1      -6.817   6.615  67.173  1.00  0.00    -0.067 NA 
HETATM    6  H   UNL     1      -6.638   5.622  67.021  1.00  0.00     0.000 HD 
HETATM    7  C   UNL     1      -7.724   7.565  66.562  1.00  0.00    -0.097 C  
HETATM    8  C   UNL     1      -9.118   7.265  66.104  1.00  0.00    -0.122 C  
HETATM    9  N   UNL     1      -9.885   7.453  67.333  1.00  0.00    -0.157 NA 
HETATM   10  C   UNL     1     -10.200   8.744  67.848  1.00  0.00    -0.219 C  
HETATM   11  C   UNL     1     -10.417   8.662  69.168  1.00  0.00    -0.223 C  
HETATM   12  C   UNL     1     -10.714   9.844  69.969  1.00  0.00    -0.292 C  
HETATM   13  C   UNL     1      -9.990   7.316  69.670  1.00  0.00    -0.176 C  
HETATM   14  C   UNL     1     -10.916  11.103  69.155  1.00  0.00    -0.242 C  
HETATM   15  O   UNL     1     -10.710   9.842  71.192  1.00  0.00    -0.283 OA 
HETATM   16  O   UNL     1      -9.105  10.259  66.314  1.00  0.00    -0.149 OA 
HETATM   17  H2  UNL     1     -12.897  11.258  69.348  1.00  0.00     0.000 HD 
HETATM   18  N   UNL     1     -12.197  11.303  68.607  1.00  0.00    -0.607 NA 
HETATM   19  C   UNL     1      -9.832  11.232  68.369  1.00  0.00    -0.200 C  
HETATM   20  C   UNL     1      -9.683  10.100  67.381  1.00  0.00    -0.161 C  
HETATM   21  C   UNL     1      -9.217  12.570  68.125  1.00  0.00    -0.209 C  
HETATM   22  H1  UNL     1     -12.332  12.152  68.058  1.00  0.00     0.000 HD 
BRANCH  13  23
HETATM   23  C   UNL     1     -11.234   6.410  69.832  1.00  0.00    -0.420 C  
BRANCH  23  24
HETATM   24  O   UNL     1     -11.569   6.129  71.205  1.00  0.00    -0.300 OA 
BRANCH  24  25
HETATM   25  C   UNL     1     -12.444   6.994  71.777  1.00  0.00    -0.356 C  
HETATM   26  O   UNL     1     -13.588   7.210  71.393  1.00  0.00    -0.375 OA 
HETATM   27  N   UNL     1     -11.857   7.622  72.816  1.00  0.00    -0.593 N  
HETATM   28  H1  UNL     1     -12.515   8.271  73.246  1.00  0.00     0.000 HD 
HETATM   29  H2  UNL     1     -10.897   7.469  73.126  1.00  0.00     0.000 HD 
ENDBRANCH  24  25
ENDBRANCH  23  24
ENDBRANCH  13  23
ENDBRANCH   2   3
TORSDOF 4
ENDMDL
MODEL       60
REMARK 921   NORMALIZED FREE ENERGY PREDICTED BY IDOCK:   -4.87 KCAL/MOL
REMARK 922        TOTAL FREE ENERGY PREDICTED BY IDOCK:   -6.18 KCAL/MOL
REMARK 923 INTER-LIGAND FREE ENERGY PREDICTED BY IDOCK:   -5.61 KCAL/MOL
REMARK 924 INTRA-LIGAND FREE ENERGY PREDICTED BY IDOCK:   -0.57 KCAL/MOL
REMARK 927      BINDING AFFINITY PREDICTED BY RF-SCORE:    0.00 PKD
ROOT
HETATM    1  C   UNL     1      -8.831   8.910  69.806  1.00  0.00    -0.144 C  
HETATM    2  O   UNL     1      -9.073  10.308  69.561  1.00  0.00    -0.206 OA 
ENDROOT
BRANCH   2   3
HETATM    3  C   UNL     1      -9.742  10.516  68.317  1.00  0.00    -0.154 C  
HETATM    4  C   UNL     1     -11.223  10.066  68.481  1.00  0.00    -0.123 C  
HETATM    5  N   UNL     1     -11.912  10.119  69.786  1.00  0.00    -0.478 NA 
HETATM    6  H   UNL     1     -11.602   9.971  70.747  1.00  0.00     0.000 HD 
HETATM    7  C   UNL     1     -12.009  11.293  68.945  1.00  0.00    -0.310 C  
HETATM    8  C   UNL     1     -11.041  12.436  68.931  1.00  0.00    -0.258 C  
HETATM    9  N   UNL     1     -10.024  11.957  67.998  1.00  0.00    -0.185 NA 
HETATM   10  C   UNL     1     -10.224  11.948  66.586  1.00  0.00    -0.208 C  
HETATM   11  C   UNL     1      -9.430  11.026  66.025  1.00  0.00    -0.235 C  
HETATM   12  C   UNL     1      -9.458  10.765  64.590  1.00  0.00    -0.251 C  
HETATM   13  C   UNL     1      -8.827  10.159  67.088  1.00  0.00    -0.138 C  
HETATM   14  C   UNL     1     -10.322  11.728  63.807  1.00  0.00    -0.410 C  
HETATM   15  O   UNL     1      -8.911   9.799  64.075  1.00  0.00    -0.218 OA 
HETATM   16  O   UNL     1     -12.491  12.747  66.321  1.00  0.00    -0.477 OA 
HETATM   17  H2  UNL     1      -8.865  12.782  62.940  1.00  0.00     0.000 HD 
HETATM   18  N   UNL     1      -9.732  12.955  63.447  1.00  0.00    -0.341 NA 
HETATM   19  C   UNL     1     -11.534  11.721  64.389  1.00  0.00    -0.349 C  
HETATM   20  C   UNL     1     -11.507  12.227  65.812  1.00  0.00    -0.367 C  
HETATM   21  C   UNL     1     -12.780  11.763  63.567  1.00  0.00    -0.428 C  
HETATM   22  H1  UNL     1     -10.315  13.605  62.919  1.00  0.00     0.000 HD 
BRANCH  13  23
HETATM   23  C   UNL     1      -7.380  10.627  67.372  1.00  0.00    -0.093 C  
BRANCH  23  24
HETATM   24  O   UNL     1      -6.424  10.175  66.394  1.00  0.00    -0.073 OA 
BRANCH  24  25
HETATM   25  C   UNL     1      -6.251   8.830  66.331  1.00  0.00    -0.061 C  
HETATM   26  O   UNL     1      -6.072   8.089  67.290  1.00  0.00    -0.050 OA 
HETATM   27  N   UNL     1      -6.262   8.424  65.045  1.00  0.00    -0.052 N  
HETATM   28  H1  UNL     1      -6.132   7.414  64.998  1.00  0.00     0.000 HD 
HETATM   29  H2  UNL     1      -6.382   9.038  64.238  1.00  0.00     0.000 HD 
ENDBRANCH  24  25
ENDBRANCH  23  24
ENDBRANCH  13  23
ENDBRANCH   2   3
TORSDOF 4
ENDMDL
MODEL       61
REMARK 921   NORMALIZED FREE ENERGY PREDICTED BY IDOCK:   -4.85 KCAL/MOL
REMARK 922        TOTAL FREE ENERGY PREDICTED BY IDOCK:   -6.15 KCAL/MOL
REMARK 923 INTER-LIGAND FREE ENERGY PREDICTED BY IDOCK:   -5.89 KCAL/MOL
REMARK 924 INTRA-LIGAND FREE ENERGY PREDICTED BY IDOCK:   -0.27 KCAL/MOL
REMARK 927      BINDING AFFINITY PREDICTED BY RF-SCORE:    0.00 PKD
ROOT
HETATM    1  C   UNL     1     -10.474  18.375  67.993  1.00  0.00    -0.363 C  
HETATM    2  O   UNL     1     -10.739  17.239  67.150  1.00  0.00    -0.288 OA 
ENDROOT
BRANCH   2   3
HETATM    3  C   UNL     1     -10.035  16.078  67.593  1.00  0.00    -0.239 C  
HETATM    4  C   UNL     1     -10.750  15.535  68.865  1.00  0.00    -0.242 C  
HETATM    5  N   UNL     1     -12.196  15.739  69.092  1.00  0.00    -0.552 NA 
HETATM    6  H   UNL     1     -12.837  16.502  68.873  1.00  0.00     0.000 HD 
HETATM    7  C   UNL     1     -11.806  14.536  68.387  1.00  0.00    -0.316 C  
HETATM    8  C   UNL     1     -11.623  14.417  66.905  1.00  0.00    -0.388 C  
HETATM    9  N   UNL     1     -10.242  14.862  66.736  1.00  0.00    -0.255 NA 
HETATM   10  C   UNL     1      -9.127  14.036  67.064  1.00  0.00    -0.246 C  
HETATM   11  C   UNL     1      -8.058  14.802  67.321  1.00  0.00    -0.232 C  
HETATM   12  C   UNL     1      -6.784  14.224  67.731  1.00  0.00    -0.176 C  
HETATM   13  C   UNL     1      -8.478  16.237  67.439  1.00  0.00    -0.190 C  
HETATM   14  C   UNL     1      -6.746  12.713  67.671  1.00  0.00    -0.144 C  
HETATM   15  O   UNL     1      -5.858  14.891  68.174  1.00  0.00    -0.116 OA 
HETATM   16  O   UNL     1     -10.139  12.032  67.962  1.00  0.00    -0.186 OA 
HETATM   17  H2  UNL     1      -5.588  12.518  66.057  1.00  0.00     0.000 HD 
HETATM   18  N   UNL     1      -6.463  12.139  66.417  1.00  0.00    -0.343 NA 
HETATM   19  C   UNL     1      -7.801  12.272  68.379  1.00  0.00    -0.151 C  
HETATM   20  C   UNL     1      -9.125  12.694  67.788  1.00  0.00    -0.192 C  
HETATM   21  C   UNL     1      -7.684  11.075  69.263  1.00  0.00    -0.071 C  
HETATM   22  H1  UNL     1      -6.438  11.120  66.377  1.00  0.00     0.000 HD 
BRANCH  13  23
HETATM   23  C   UNL     1      -8.166  16.973  66.115  1.00  0.00    -0.249 C  
BRANCH  23  24
HETATM   24  O   UNL     1      -6.816  17.470  66.036  1.00  0.00    -0.272 OA 
BRANCH  24  25
HETATM   25  C   UNL     1      -6.644  18.750  66.454  1.00  0.00    -0.198 C  
HETATM   26  O   UNL     1      -5.729  19.150  67.165  1.00  0.00    -0.170 OA 
HETATM   27  N   UNL     1      -7.656  19.521  66.008  1.00  0.00    -0.308 N  
HETATM   28  H1  UNL     1      -7.526  20.482  66.322  1.00  0.00     0.000 HD 
HETATM   29  H2  UNL     1      -8.436  19.191  65.439  1.00  0.00     0.000 HD 
ENDBRANCH  24  25
ENDBRANCH  23  24
ENDBRANCH  13  23
ENDBRANCH   2   3
TORSDOF 4
ENDMDL
MODEL       62
REMARK 921   NORMALIZED FREE ENERGY PREDICTED BY IDOCK:   -4.83 KCAL/MOL
REMARK 922        TOTAL FREE ENERGY PREDICTED BY IDOCK:   -6.12 KCAL/MOL
REMARK 923 INTER-LIGAND FREE ENERGY PREDICTED BY IDOCK:   -6.43 KCAL/MOL
REMARK 924 INTRA-LIGAND FREE ENERGY PREDICTED BY IDOCK:    0.30 KCAL/MOL
REMARK 927      BINDING AFFINITY PREDICTED BY RF-SCORE:    0.00 PKD
ROOT
HETATM    1  C   UNL     1      -8.342  10.831  62.489  1.00  0.00    -0.214 C  
HETATM    2  O   UNL     1      -9.268   9.856  63.003  1.00  0.00    -0.266 OA 
ENDROOT
BRANCH   2   3
HETATM    3  C   UNL     1      -9.335   9.894  64.429  1.00  0.00    -0.265 C  
HETATM    4  C   UNL     1      -9.027   8.466  64.967  1.00  0.00     0.112 C  
HETATM    5  N   UNL     1      -8.165   7.524  64.224  1.00  0.00    -0.341 NA 
HETATM    6  H   UNL     1      -8.017   7.346  63.230  1.00  0.00     0.000 HD 
HETATM    7  C   UNL     1      -7.515   8.391  65.184  1.00  0.00    -0.084 C  
HETATM    8  C   UNL     1      -6.987   9.764  64.898  1.00  0.00    -0.124 C  
HETATM    9  N   UNL     1      -8.177  10.589  65.087  1.00  0.00    -0.157 NA 
HETATM   10  C   UNL     1      -8.683  10.918  66.379  1.00  0.00    -0.170 C  
HETATM   11  C   UNL     1      -9.990  11.201  66.293  1.00  0.00    -0.261 C  
HETATM   12  C   UNL     1     -10.780  11.528  67.474  1.00  0.00    -0.223 C  
HETATM   13  C   UNL     1     -10.506  10.811  64.941  1.00  0.00    -0.324 C  
HETATM   14  C   UNL     1      -9.964  11.678  68.738  1.00  0.00    -0.135 C  
HETATM   15  O   UNL     1     -12.003  11.584  67.466  1.00  0.00    -0.629 OA 
HETATM   16  O   UNL     1      -7.212   9.736  67.891  1.00  0.00    -0.083 OA 
HETATM   17  H2  UNL     1     -10.060  13.665  68.909  1.00  0.00     0.000 HD 
HETATM   18  N   UNL     1      -9.355  12.930  68.951  1.00  0.00    -0.383 NA 
HETATM   19  C   UNL     1      -9.233  10.557  68.861  1.00  0.00    -0.188 C  
HETATM   20  C   UNL     1      -8.248  10.368  67.733  1.00  0.00    -0.110 C  
HETATM   21  C   UNL     1      -9.026   9.919  70.195  1.00  0.00    -0.159 C  
HETATM   22  H1  UNL     1      -8.804  13.031  69.804  1.00  0.00     0.000 HD 
BRANCH  13  23
HETATM   23  C   UNL     1     -10.602  12.069  64.045  1.00  0.00    -0.377 C  
BRANCH  23  24
HETATM   24  O   UNL     1     -10.989  13.258  64.760  1.00  0.00    -0.316 OA 
BRANCH  24  25
HETATM   25  C   UNL     1     -12.204  13.764  64.428  1.00  0.00    -0.399 C  
HETATM   26  O   UNL     1     -12.466  14.366  63.393  1.00  0.00    -0.709 OA 
HETATM   27  N   UNL     1     -13.082  13.547  65.427  1.00  0.00    -0.620 N  
HETATM   28  H1  UNL     1     -13.995  13.927  65.177  1.00  0.00     0.000 HD 
HETATM   29  H2  UNL     1     -12.866  13.071  66.304  1.00  0.00     0.000 HD 
ENDBRANCH  24  25
ENDBRANCH  23  24
ENDBRANCH  13  23
ENDBRANCH   2   3
TORSDOF 4
ENDMDL
MODEL       63
REMARK 921   NORMALIZED FREE ENERGY PREDICTED BY IDOCK:   -4.82 KCAL/MOL
REMARK 922        TOTAL FREE ENERGY PREDICTED BY IDOCK:   -6.12 KCAL/MOL
REMARK 923 INTER-LIGAND FREE ENERGY PREDICTED BY IDOCK:   -6.42 KCAL/MOL
REMARK 924 INTRA-LIGAND FREE ENERGY PREDICTED BY IDOCK:    0.30 KCAL/MOL
REMARK 927      BINDING AFFINITY PREDICTED BY RF-SCORE:    0.00 PKD
ROOT
HETATM    1  C   UNL     1     -10.317   5.827  72.802  1.00  0.00    -0.192 C  
HETATM    2  O   UNL     1     -11.573   5.895  72.102  1.00  0.00    -0.296 OA 
ENDROOT
BRANCH   2   3
HETATM    3  C   UNL     1     -11.519   6.816  71.012  1.00  0.00    -0.324 C  
HETATM    4  C   UNL     1     -12.653   7.864  71.207  1.00  0.00    -0.245 C  
HETATM    5  N   UNL     1     -13.153   8.229  72.548  1.00  0.00    -0.589 NA 
HETATM    6  H   UNL     1     -13.284   7.703  73.413  1.00  0.00     0.000 HD 
HETATM    7  C   UNL     1     -12.058   9.015  72.021  1.00  0.00    -0.370 C  
HETATM    8  C   UNL     1     -10.603   8.698  72.184  1.00  0.00    -0.341 C  
HETATM    9  N   UNL     1     -10.369   7.781  71.071  1.00  0.00    -0.202 NA 
HETATM   10  C   UNL     1     -10.247   8.229  69.723  1.00  0.00    -0.204 C  
HETATM   11  C   UNL     1     -10.561   7.231  68.886  1.00  0.00    -0.207 C  
HETATM   12  C   UNL     1     -10.568   7.420  67.440  1.00  0.00    -0.301 C  
HETATM   13  C   UNL     1     -11.183   6.102  69.652  1.00  0.00    -0.488 C  
HETATM   14  C   UNL     1     -10.036   8.764  66.992  1.00  0.00    -0.240 C  
HETATM   15  O   UNL     1     -11.047   6.607  66.661  1.00  0.00    -0.266 OA 
HETATM   16  O   UNL     1     -10.623  10.613  69.873  1.00  0.00    -0.238 OA 
HETATM   17  H2  UNL     1      -8.282   8.150  66.262  1.00  0.00     0.000 HD 
HETATM   18  N   UNL     1      -8.638   8.882  66.877  1.00  0.00    -0.115 NA 
HETATM   19  C   UNL     1     -10.726   9.697  67.670  1.00  0.00    -0.324 C  
HETATM   20  C   UNL     1     -10.508   9.623  69.163  1.00  0.00    -0.214 C  
HETATM   21  C   UNL     1     -11.165  10.960  67.006  1.00  0.00    -0.211 C  
HETATM   22  H1  UNL     1      -8.279   9.788  66.576  1.00  0.00     0.000 HD 
BRANCH  13  23
HETATM   23  C   UNL     1     -10.121   5.003  69.897  1.00  0.00    -0.274 C  
BRANCH  23  24
HETATM   24  O   UNL     1      -9.267   4.763  68.763  1.00  0.00    -0.110 OA 
BRANCH  24  25
HETATM   25  C   UNL     1      -9.514   3.614  68.084  1.00  0.00    -0.156 C  
HETATM   26  O   UNL     1      -9.528   2.488  68.569  1.00  0.00    -0.197 OA 
HETATM   27  N   UNL     1      -9.702   3.883  66.776  1.00  0.00    -0.315 N  
HETATM   28  H1  UNL     1      -9.888   3.020  66.267  1.00  0.00     0.000 HD 
HETATM   29  H2  UNL     1      -9.665   4.814  66.359  1.00  0.00     0.000 HD 
ENDBRANCH  24  25
ENDBRANCH  23  24
ENDBRANCH  13  23
ENDBRANCH   2   3
TORSDOF 4
ENDMDL
MODEL       64
REMARK 921   NORMALIZED FREE ENERGY PREDICTED BY IDOCK:   -4.80 KCAL/MOL
REMARK 922        TOTAL FREE ENERGY PREDICTED BY IDOCK:   -6.09 KCAL/MOL
REMARK 923 INTER-LIGAND FREE ENERGY PREDICTED BY IDOCK:   -6.02 KCAL/MOL
REMARK 924 INTRA-LIGAND FREE ENERGY PREDICTED BY IDOCK:   -0.07 KCAL/MOL
REMARK 927      BINDING AFFINITY PREDICTED BY RF-SCORE:    0.00 PKD
ROOT
HETATM    1  C   UNL     1     -10.509  17.162  68.978  1.00  0.00    -0.321 C  
HETATM    2  O   UNL     1     -11.648  16.282  68.958  1.00  0.00    -0.323 OA 
ENDROOT
BRANCH   2   3
HETATM    3  C   UNL     1     -11.285  14.943  69.294  1.00  0.00    -0.284 C  
HETATM    4  C   UNL     1     -11.131  14.857  70.841  1.00  0.00    -0.103 C  
HETATM    5  N   UNL     1     -11.892  15.739  71.749  1.00  0.00    -0.421 NA 
HETATM    6  H   UNL     1     -12.206  16.708  71.682  1.00  0.00     0.000 HD 
HETATM    7  C   UNL     1     -12.502  14.472  71.401  1.00  0.00    -0.353 C  
HETATM    8  C   UNL     1     -13.381  14.227  70.213  1.00  0.00     0.409 C  
HETATM    9  N   UNL     1     -12.401  13.946  69.167  1.00  0.00    -0.244 NA 
HETATM   10  C   UNL     1     -11.719  12.698  69.074  1.00  0.00    -0.318 C  
HETATM   11  C   UNL     1     -10.563  12.864  68.417  1.00  0.00    -0.267 C  
HETATM   12  C   UNL     1      -9.633  11.759  68.215  1.00  0.00    -0.199 C  
HETATM   13  C   UNL     1     -10.275  14.327  68.258  1.00  0.00    -0.244 C  
HETATM   14  C   UNL     1     -10.169  10.415  68.657  1.00  0.00    -0.181 C  
HETATM   15  O   UNL     1      -8.488  11.913  67.812  1.00  0.00    -0.139 OA 
HETATM   16  O   UNL     1     -12.514  11.462  70.994  1.00  0.00    -0.386 OA 
HETATM   17  H2  UNL     1     -10.499   9.629  66.852  1.00  0.00     0.000 HD 
HETATM   18  N   UNL     1     -10.990   9.731  67.740  1.00  0.00    -0.460 NA 
HETATM   19  C   UNL     1     -10.576  10.562  69.929  1.00  0.00    -0.261 C  
HETATM   20  C   UNL     1     -11.711  11.547  70.075  1.00  0.00    -0.332 C  
HETATM   21  C   UNL     1     -10.337   9.490  70.940  1.00  0.00    -0.372 C  
HETATM   22  H1  UNL     1     -11.351   8.825  68.039  1.00  0.00     0.000 HD 
BRANCH  13  23
HETATM   23  C   UNL     1     -10.668  14.774  66.830  1.00  0.00    -0.309 C  
BRANCH  23  24
HETATM   24  O   UNL     1      -9.639  15.523  66.155  1.00  0.00    -0.278 OA 
BRANCH  24  25
HETATM   25  C   UNL     1     -10.062  16.638  65.509  1.00  0.00    -0.134 C  
HETATM   26  O   UNL     1     -11.045  16.710  64.780  1.00  0.00    -0.643 OA 
HETATM   27  N   UNL     1      -9.216  17.660  65.750  1.00  0.00     0.143 N  
HETATM   28  H1  UNL     1      -9.535  18.498  65.265  1.00  0.00     0.000 HD 
HETATM   29  H2  UNL     1      -8.380  17.603  66.333  1.00  0.00     0.000 HD 
ENDBRANCH  24  25
ENDBRANCH  23  24
ENDBRANCH  13  23
ENDBRANCH   2   3
TORSDOF 4
ENDMDL
MODEL       65
REMARK 921   NORMALIZED FREE ENERGY PREDICTED BY IDOCK:   -4.74 KCAL/MOL
REMARK 922        TOTAL FREE ENERGY PREDICTED BY IDOCK:   -6.02 KCAL/MOL
REMARK 923 INTER-LIGAND FREE ENERGY PREDICTED BY IDOCK:   -5.49 KCAL/MOL
REMARK 924 INTRA-LIGAND FREE ENERGY PREDICTED BY IDOCK:   -0.53 KCAL/MOL
REMARK 927      BINDING AFFINITY PREDICTED BY RF-SCORE:    0.00 PKD
ROOT
HETATM    1  C   UNL     1      -8.745   7.285  72.047  1.00  0.00    -0.117 C  
HETATM    2  O   UNL     1      -8.777   7.387  70.612  1.00  0.00    -0.140 OA 
ENDROOT
BRANCH   2   3
HETATM    3  C   UNL     1      -8.997   8.731  70.183  1.00  0.00    -0.166 C  
HETATM    4  C   UNL     1      -7.704   9.549  70.471  1.00  0.00    -0.157 C  
HETATM    5  N   UNL     1      -6.370   8.915  70.488  1.00  0.00    -0.040 NA 
HETATM    6  H   UNL     1      -6.036   7.997  70.782  1.00  0.00     0.000 HD 
HETATM    7  C   UNL     1      -6.828   9.446  69.222  1.00  0.00    -0.049 C  
HETATM    8  C   UNL     1      -7.639   8.699  68.207  1.00  0.00    -0.097 C  
HETATM    9  N   UNL     1      -8.999   8.914  68.693  1.00  0.00    -0.137 NA 
HETATM   10  C   UNL     1      -9.689  10.150  68.514  1.00  0.00    -0.154 C  
HETATM   11  C   UNL     1     -10.637  10.276  69.452  1.00  0.00    -0.262 C  
HETATM   12  C   UNL     1     -11.471  11.469  69.541  1.00  0.00    -0.311 C  
HETATM   13  C   UNL     1     -10.457   9.220  70.502  1.00  0.00    -0.312 C  
HETATM   14  C   UNL     1     -11.276  12.441  68.398  1.00  0.00    -0.273 C  
HETATM   15  O   UNL     1     -12.193  11.711  70.498  1.00  0.00    -0.356 OA 
HETATM   16  O   UNL     1      -8.058  11.567  67.428  1.00  0.00    -0.133 OA 
HETATM   17  H2  UNL     1     -12.988  12.095  67.431  1.00  0.00     0.000 HD 
HETATM   18  N   UNL     1     -11.995  12.177  67.217  1.00  0.00    -0.578 NA 
HETATM   19  C   UNL     1      -9.959  12.697  68.329  1.00  0.00    -0.229 C  
HETATM   20  C   UNL     1      -9.137  11.474  67.998  1.00  0.00    -0.174 C  
HETATM   21  C   UNL     1      -9.459  14.075  68.046  1.00  0.00    -0.206 C  
HETATM   22  H1  UNL     1     -11.863  12.833  66.446  1.00  0.00     0.000 HD 
BRANCH  13  23
HETATM   23  C   UNL     1     -11.454   8.066  70.244  1.00  0.00    -0.073 C  
BRANCH  23  24
HETATM   24  O   UNL     1     -12.227   7.701  71.403  1.00  0.00    -0.307 OA 
BRANCH  24  25
HETATM   25  C   UNL     1     -13.056   8.667  71.875  1.00  0.00    -0.373 C  
HETATM   26  O   UNL     1     -13.076   9.088  73.026  1.00  0.00    -0.295 OA 
HETATM   27  N   UNL     1     -13.892   9.073  70.899  1.00  0.00    -0.546 N  
HETATM   28  H1  UNL     1     -14.514   9.799  71.254  1.00  0.00     0.000 HD 
HETATM   29  H2  UNL     1     -13.901   8.709  69.946  1.00  0.00     0.000 HD 
ENDBRANCH  24  25
ENDBRANCH  23  24
ENDBRANCH  13  23
ENDBRANCH   2   3
TORSDOF 4
ENDMDL
MODEL       66
REMARK 921   NORMALIZED FREE ENERGY PREDICTED BY IDOCK:   -4.73 KCAL/MOL
REMARK 922        TOTAL FREE ENERGY PREDICTED BY IDOCK:   -6.01 KCAL/MOL
REMARK 923 INTER-LIGAND FREE ENERGY PREDICTED BY IDOCK:   -5.59 KCAL/MOL
REMARK 924 INTRA-LIGAND FREE ENERGY PREDICTED BY IDOCK:   -0.41 KCAL/MOL
REMARK 927      BINDING AFFINITY PREDICTED BY RF-SCORE:    0.00 PKD
ROOT
HETATM    1  C   UNL     1     -12.657  13.996  66.312  1.00  0.00    -0.310 C  
HETATM    2  O   UNL     1     -11.586  13.203  65.768  1.00  0.00    -0.322 OA 
ENDROOT
BRANCH   2   3
HETATM    3  C   UNL     1     -10.486  13.110  66.675  1.00  0.00    -0.277 C  
HETATM    4  C   UNL     1     -10.864  12.093  67.791  1.00  0.00    -0.224 C  
HETATM    5  N   UNL     1     -11.803  10.980  67.545  1.00  0.00    -0.549 NA 
HETATM    6  H   UNL     1     -12.638  10.885  66.966  1.00  0.00     0.000 HD 
HETATM    7  C   UNL     1     -10.398  10.717  67.312  1.00  0.00    -0.220 C  
HETATM    8  C   UNL     1      -9.672  10.950  66.023  1.00  0.00    -0.224 C  
HETATM    9  N   UNL     1      -9.302  12.359  66.138  1.00  0.00    -0.199 NA 
HETATM   10  C   UNL     1      -8.228  12.802  66.966  1.00  0.00    -0.095 C  
HETATM   11  C   UNL     1      -8.421  14.084  67.304  1.00  0.00    -0.220 C  
HETATM   12  C   UNL     1      -7.499  14.788  68.189  1.00  0.00    -0.117 C  
HETATM   13  C   UNL     1      -9.809  14.507  66.926  1.00  0.00    -0.265 C  
HETATM   14  C   UNL     1      -6.255  14.000  68.533  1.00  0.00    -0.093 C  
HETATM   15  O   UNL     1      -7.749  15.878  68.685  1.00  0.00    -0.143 OA 
HETATM   16  O   UNL     1      -7.447  10.777  68.031  1.00  0.00    -0.087 OA 
HETATM   17  H2  UNL     1      -4.951  15.016  67.414  1.00  0.00     0.000 HD 
HETATM   18  N   UNL     1      -5.201  14.045  67.601  1.00  0.00    -0.326 NA 
HETATM   19  C   UNL     1      -6.670  12.812  69.007  1.00  0.00    -0.096 C  
HETATM   20  C   UNL     1      -7.424  11.999  67.982  1.00  0.00    -0.113 C  
HETATM   21  C   UNL     1      -5.985  12.167  70.167  1.00  0.00    -0.154 C  
HETATM   22  H1  UNL     1      -4.362  13.513  67.834  1.00  0.00     0.000 HD 
BRANCH  13  23
HETATM   23  C   UNL     1      -9.760  15.300  65.599  1.00  0.00    -0.325 C  
BRANCH  23  24
HETATM   24  O   UNL     1      -8.760  16.338  65.583  1.00  0.00    -0.329 OA 
BRANCH  24  25
HETATM   25  C   UNL     1      -9.156  17.532  66.092  1.00  0.00    -0.127 C  
HETATM   26  O   UNL     1     -10.266  18.033  65.954  1.00  0.00    -0.540 OA 
HETATM   27  N   UNL     1      -8.131  18.116  66.745  1.00  0.00    -0.238 N  
HETATM   28  H1  UNL     1      -8.428  19.013  67.127  1.00  0.00     0.000 HD 
HETATM   29  H2  UNL     1      -7.196  17.719  66.842  1.00  0.00     0.000 HD 
ENDBRANCH  24  25
ENDBRANCH  23  24
ENDBRANCH  13  23
ENDBRANCH   2   3
TORSDOF 4
ENDMDL
MODEL       67
REMARK 921   NORMALIZED FREE ENERGY PREDICTED BY IDOCK:   -4.72 KCAL/MOL
REMARK 922        TOTAL FREE ENERGY PREDICTED BY IDOCK:   -6.00 KCAL/MOL
REMARK 923 INTER-LIGAND FREE ENERGY PREDICTED BY IDOCK:   -5.49 KCAL/MOL
REMARK 924 INTRA-LIGAND FREE ENERGY PREDICTED BY IDOCK:   -0.51 KCAL/MOL
REMARK 927      BINDING AFFINITY PREDICTED BY RF-SCORE:    0.00 PKD
ROOT
HETATM    1  C   UNL     1     -12.306  11.295  70.944  1.00  0.00    -0.388 C  
HETATM    2  O   UNL     1     -12.164  10.239  69.976  1.00  0.00    -0.217 OA 
ENDROOT
BRANCH   2   3
HETATM    3  C   UNL     1     -10.868  10.244  69.377  1.00  0.00    -0.245 C  
HETATM    4  C   UNL     1      -9.843   9.743  70.435  1.00  0.00    -0.209 C  
HETATM    5  N   UNL     1     -10.231   8.809  71.513  1.00  0.00    -0.271 NA 
HETATM    6  H   UNL     1     -11.084   8.688  72.059  1.00  0.00     0.000 HD 
HETATM    7  C   UNL     1      -9.752   8.224  70.278  1.00  0.00    -0.175 C  
HETATM    8  C   UNL     1     -10.600   7.878  69.093  1.00  0.00    -0.173 C  
HETATM    9  N   UNL     1     -10.644   9.149  68.374  1.00  0.00    -0.201 NA 
HETATM   10  C   UNL     1      -9.545   9.629  67.602  1.00  0.00    -0.142 C  
HETATM   11  C   UNL     1      -9.617  10.963  67.498  1.00  0.00    -0.171 C  
HETATM   12  C   UNL     1      -8.593  11.732  66.800  1.00  0.00    -0.185 C  
HETATM   13  C   UNL     1     -10.655  11.492  68.443  1.00  0.00    -0.227 C  
HETATM   14  C   UNL     1      -7.569  10.881  66.082  1.00  0.00    -0.119 C  
HETATM   15  O   UNL     1      -8.512  12.951  66.863  1.00  0.00    -0.174 OA 
HETATM   16  O   UNL     1      -7.830   7.959  67.941  1.00  0.00    -0.121 OA 
HETATM   17  H2  UNL     1      -8.184  11.206  64.211  1.00  0.00     0.000 HD 
HETATM   18  N   UNL     1      -7.921  10.417  64.800  1.00  0.00    -0.249 NA 
HETATM   19  C   UNL     1      -7.082  10.017  66.989  1.00  0.00    -0.089 C  
HETATM   20  C   UNL     1      -8.129   9.069  67.523  1.00  0.00    -0.108 C  
HETATM   21  C   UNL     1      -5.629   9.673  67.018  1.00  0.00    -0.047 C  
HETATM   22  H1  UNL     1      -7.230   9.843  64.316  1.00  0.00     0.000 HD 
BRANCH  13  23
HETATM   23  C   UNL     1     -11.960  11.779  67.663  1.00  0.00    -0.035 C  
BRANCH  23  24
HETATM   24  O   UNL     1     -12.008  13.096  67.083  1.00  0.00    -0.371 OA 
BRANCH  24  25
HETATM   25  C   UNL     1     -12.063  13.131  65.727  1.00  0.00    -0.447 C  
HETATM   26  O   UNL     1     -12.945  12.635  65.037  1.00  0.00    -0.812 OA 
HETATM   27  N   UNL     1     -10.975  13.761  65.238  1.00  0.00    -0.310 N  
HETATM   28  H1  UNL     1     -11.017  13.787  64.220  1.00  0.00     0.000 HD 
HETATM   29  H2  UNL     1     -10.222  14.153  65.804  1.00  0.00     0.000 HD 
ENDBRANCH  24  25
ENDBRANCH  23  24
ENDBRANCH  13  23
ENDBRANCH   2   3
TORSDOF 4
ENDMDL
MODEL       68
REMARK 921   NORMALIZED FREE ENERGY PREDICTED BY IDOCK:   -4.69 KCAL/MOL
REMARK 922        TOTAL FREE ENERGY PREDICTED BY IDOCK:   -5.96 KCAL/MOL
REMARK 923 INTER-LIGAND FREE ENERGY PREDICTED BY IDOCK:   -5.57 KCAL/MOL
REMARK 924 INTRA-LIGAND FREE ENERGY PREDICTED BY IDOCK:   -0.39 KCAL/MOL
REMARK 927      BINDING AFFINITY PREDICTED BY RF-SCORE:    0.00 PKD
ROOT
HETATM    1  C   UNL     1     -12.759  12.173  70.738  1.00  0.00    -0.132 C  
HETATM    2  O   UNL     1     -11.424  12.464  70.284  1.00  0.00    -0.083 OA 
ENDROOT
BRANCH   2   3
HETATM    3  C   UNL     1     -11.218  12.026  68.940  1.00  0.00    -0.261 C  
HETATM    4  C   UNL     1     -12.086  12.914  68.002  1.00  0.00    -0.152 C  
HETATM    5  N   UNL     1     -12.435  14.306  68.352  1.00  0.00    -0.504 NA 
HETATM    6  H   UNL     1     -12.640  14.774  69.235  1.00  0.00     0.000 HD 
HETATM    7  C   UNL     1     -11.218  14.106  67.593  1.00  0.00    -0.297 C  
HETATM    8  C   UNL     1      -9.862  13.851  68.177  1.00  0.00    -0.240 C  
HETATM    9  N   UNL     1      -9.883  12.402  68.363  1.00  0.00    -0.217 NA 
HETATM   10  C   UNL     1      -9.724  11.489  67.279  1.00  0.00    -0.182 C  
HETATM   11  C   UNL     1     -10.285  10.314  67.595  1.00  0.00    -0.247 C  
HETATM   12  C   UNL     1     -10.314   9.203  66.650  1.00  0.00    -0.218 C  
HETATM   13  C   UNL     1     -11.105  10.460  68.841  1.00  0.00    -0.296 C  
HETATM   14  C   UNL     1      -9.521   9.450  65.386  1.00  0.00    -0.253 C  
HETATM   15  O   UNL     1     -10.993   8.199  66.819  1.00  0.00    -0.063 OA 
HETATM   16  O   UNL     1      -9.563  12.922  65.338  1.00  0.00    -0.088 OA 
HETATM   17  H2  UNL     1      -7.977   8.245  65.775  1.00  0.00     0.000 HD 
HETATM   18  N   UNL     1      -8.137   9.198  65.451  1.00  0.00    -0.119 NA 
HETATM   19  C   UNL     1      -9.959  10.613  64.877  1.00  0.00    -0.382 C  
HETATM   20  C   UNL     1      -9.698  11.791  65.785  1.00  0.00    -0.237 C  
HETATM   21  C   UNL     1     -10.140  10.786  63.405  1.00  0.00    -0.345 C  
HETATM   22  H1  UNL     1      -7.602   9.365  64.598  1.00  0.00     0.000 HD 
BRANCH  13  23
HETATM   23  C   UNL     1     -10.301   9.926  70.050  1.00  0.00    -0.272 C  
BRANCH  23  24
HETATM   24  O   UNL     1     -10.969   8.870  70.767  1.00  0.00    -0.230 OA 
BRANCH  24  25
HETATM   25  C   UNL     1     -10.757   7.618  70.286  1.00  0.00    -0.239 C  
HETATM   26  O   UNL     1     -11.606   6.740  70.188  1.00  0.00    -0.354 OA 
HETATM   27  N   UNL     1      -9.457   7.461  69.967  1.00  0.00    -0.161 N  
HETATM   28  H1  UNL     1      -9.299   6.521  69.606  1.00  0.00     0.000 HD 
HETATM   29  H2  UNL     1      -8.737   8.177  70.072  1.00  0.00     0.000 HD 
ENDBRANCH  24  25
ENDBRANCH  23  24
ENDBRANCH  13  23
ENDBRANCH   2   3
TORSDOF 4
ENDMDL
MODEL       69
REMARK 921   NORMALIZED FREE ENERGY PREDICTED BY IDOCK:   -4.67 KCAL/MOL
REMARK 922        TOTAL FREE ENERGY PREDICTED BY IDOCK:   -5.93 KCAL/MOL
REMARK 923 INTER-LIGAND FREE ENERGY PREDICTED BY IDOCK:   -5.47 KCAL/MOL
REMARK 924 INTRA-LIGAND FREE ENERGY PREDICTED BY IDOCK:   -0.47 KCAL/MOL
REMARK 927      BINDING AFFINITY PREDICTED BY RF-SCORE:    0.00 PKD
ROOT
HETATM    1  C   UNL     1     -10.666   7.343  73.435  1.00  0.00    -0.357 C  
HETATM    2  O   UNL     1     -11.205   6.830  72.203  1.00  0.00    -0.241 OA 
ENDROOT
BRANCH   2   3
HETATM    3  C   UNL     1     -10.433   7.245  71.076  1.00  0.00    -0.215 C  
HETATM    4  C   UNL     1      -9.060   6.513  71.133  1.00  0.00    -0.152 C  
HETATM    5  N   UNL     1      -8.910   5.189  71.771  1.00  0.00    -0.133 NA 
HETATM    6  H   UNL     1      -9.350   4.749  72.580  1.00  0.00     0.000 HD 
HETATM    7  C   UNL     1      -9.224   5.205  70.358  1.00  0.00    -0.148 C  
HETATM    8  C   UNL     1     -10.602   5.239  69.773  1.00  0.00    -0.213 C  
HETATM    9  N   UNL     1     -10.890   6.671  69.765  1.00  0.00    -0.261 NA 
HETATM   10  C   UNL     1     -10.327   7.559  68.803  1.00  0.00    -0.200 C  
HETATM   11  C   UNL     1     -10.305   8.804  69.297  1.00  0.00    -0.221 C  
HETATM   12  C   UNL     1      -9.736   9.916  68.544  1.00  0.00    -0.154 C  
HETATM   13  C   UNL     1     -10.621   8.775  70.763  1.00  0.00    -0.269 C  
HETATM   14  C   UNL     1      -9.343   9.562  67.127  1.00  0.00    -0.143 C  
HETATM   15  O   UNL     1      -9.508  11.012  69.038  1.00  0.00    -0.184 OA 
HETATM   16  O   UNL     1      -8.876   6.139  67.488  1.00  0.00    -0.109 OA 
HETATM   17  H2  UNL     1     -10.821  10.507  66.174  1.00  0.00     0.000 HD 
HETATM   18  N   UNL     1     -10.368   9.593  66.162  1.00  0.00    -0.190 NA 
HETATM   19  C   UNL     1      -8.541   8.486  67.206  1.00  0.00    -0.123 C  
HETATM   20  C   UNL     1      -9.236   7.273  67.776  1.00  0.00    -0.126 C  
HETATM   21  C   UNL     1      -7.339   8.359  66.329  1.00  0.00    -0.086 C  
HETATM   22  H1  UNL     1     -10.103   9.354  65.206  1.00  0.00     0.000 HD 
BRANCH  13  23
HETATM   23  C   UNL     1     -12.103   9.164  70.975  1.00  0.00    -0.263 C  
BRANCH  23  24
HETATM   24  O   UNL     1     -12.499  10.346  70.253  1.00  0.00    -0.282 OA 
BRANCH  24  25
HETATM   25  C   UNL     1     -12.553  11.485  70.990  1.00  0.00    -0.357 C  
HETATM   26  O   UNL     1     -13.231  11.650  71.998  1.00  0.00    -0.501 OA 
HETATM   27  N   UNL     1     -11.779  12.435  70.427  1.00  0.00    -0.540 N  
HETATM   28  H1  UNL     1     -11.820  13.290  70.981  1.00  0.00     0.000 HD 
HETATM   29  H2  UNL     1     -11.234  12.316  69.573  1.00  0.00     0.000 HD 
ENDBRANCH  24  25
ENDBRANCH  23  24
ENDBRANCH  13  23
ENDBRANCH   2   3
TORSDOF 4
ENDMDL
MODEL       70
REMARK 921   NORMALIZED FREE ENERGY PREDICTED BY IDOCK:   -4.67 KCAL/MOL
REMARK 922        TOTAL FREE ENERGY PREDICTED BY IDOCK:   -5.93 KCAL/MOL
REMARK 923 INTER-LIGAND FREE ENERGY PREDICTED BY IDOCK:   -5.52 KCAL/MOL
REMARK 924 INTRA-LIGAND FREE ENERGY PREDICTED BY IDOCK:   -0.41 KCAL/MOL
REMARK 927      BINDING AFFINITY PREDICTED BY RF-SCORE:    0.00 PKD
ROOT
HETATM    1  C   UNL     1      -9.905   8.522  66.241  1.00  0.00    -0.215 C  
HETATM    2  O   UNL     1     -10.820   9.605  66.488  1.00  0.00    -0.038 OA 
ENDROOT
BRANCH   2   3
HETATM    3  C   UNL     1     -10.141  10.858  66.585  1.00  0.00    -0.219 C  
HETATM    4  C   UNL     1      -9.779  11.324  65.144  1.00  0.00    -0.244 C  
HETATM    5  N   UNL     1     -10.589  10.932  63.973  1.00  0.00    -0.482 NA 
HETATM    6  H   UNL     1     -11.107  10.087  63.732  1.00  0.00     0.000 HD 
HETATM    7  C   UNL     1     -10.954  12.164  64.642  1.00  0.00    -0.312 C  
HETATM    8  C   UNL     1     -11.905  12.278  65.795  1.00  0.00    -0.352 C  
HETATM    9  N   UNL     1     -11.027  12.019  66.934  1.00  0.00    -0.266 NA 
HETATM   10  C   UNL     1     -10.113  12.993  67.432  1.00  0.00    -0.231 C  
HETATM   11  C   UNL     1      -9.111  12.381  68.078  1.00  0.00    -0.195 C  
HETATM   12  C   UNL     1      -8.001  13.132  68.653  1.00  0.00    -0.033 C  
HETATM   13  C   UNL     1      -9.163  10.906  67.815  1.00  0.00    -0.155 C  
HETATM   14  C   UNL     1      -8.179  14.633  68.596  1.00  0.00    -0.159 C  
HETATM   15  O   UNL     1      -6.975  12.603  69.060  1.00  0.00    -0.102 OA 
HETATM   16  O   UNL     1     -10.378  14.860  65.918  1.00  0.00    -0.281 OA 
HETATM   17  H2  UNL     1      -8.560  14.951  70.530  1.00  0.00     0.000 HD 
HETATM   18  N   UNL     1      -8.945  15.216  69.623  1.00  0.00    -0.447 NA 
HETATM   19  C   UNL     1      -8.444  14.942  67.315  1.00  0.00    -0.229 C  
HETATM   20  C   UNL     1      -9.735  14.336  66.817  1.00  0.00    -0.275 C  
HETATM   21  C   UNL     1      -7.857  16.160  66.682  1.00  0.00    -0.288 C  
HETATM   22  H1  UNL     1      -9.065  16.229  69.584  1.00  0.00     0.000 HD 
BRANCH  13  23
HETATM   23  C   UNL     1      -9.819  10.193  69.021  1.00  0.00    -0.205 C  
BRANCH  23  24
HETATM   24  O   UNL     1      -9.031   9.109  69.551  1.00  0.00    -0.139 OA 
BRANCH  24  25
HETATM   25  C   UNL     1      -8.465   9.342  70.762  1.00  0.00    -0.195 C  
HETATM   26  O   UNL     1      -8.941   9.022  71.845  1.00  0.00    -0.364 OA 
HETATM   27  N   UNL     1      -7.310  10.021  70.608  1.00  0.00    -0.088 N  
HETATM   28  H1  UNL     1      -6.885  10.195  71.518  1.00  0.00     0.000 HD 
HETATM   29  H2  UNL     1      -6.919  10.316  69.712  1.00  0.00     0.000 HD 
ENDBRANCH  24  25
ENDBRANCH  23  24
ENDBRANCH  13  23
ENDBRANCH   2   3
TORSDOF 4
ENDMDL
MODEL       71
REMARK 921   NORMALIZED FREE ENERGY PREDICTED BY IDOCK:   -4.61 KCAL/MOL
REMARK 922        TOTAL FREE ENERGY PREDICTED BY IDOCK:   -5.86 KCAL/MOL
REMARK 923 INTER-LIGAND FREE ENERGY PREDICTED BY IDOCK:   -6.35 KCAL/MOL
REMARK 924 INTRA-LIGAND FREE ENERGY PREDICTED BY IDOCK:    0.49 KCAL/MOL
REMARK 927      BINDING AFFINITY PREDICTED BY RF-SCORE:    0.00 PKD
ROOT
HETATM    1  C   UNL     1      -6.138  13.015  68.019  1.00  0.00    -0.112 C  
HETATM    2  O   UNL     1      -6.986  13.622  69.011  1.00  0.00    -0.109 OA 
ENDROOT
BRANCH   2   3
HETATM    3  C   UNL     1      -7.827  14.626  68.443  1.00  0.00    -0.131 C  
HETATM    4  C   UNL     1      -7.567  15.961  69.200  1.00  0.00    -0.213 C  
HETATM    5  N   UNL     1      -6.263  16.259  69.827  1.00  0.00    -0.200 NA 
HETATM    6  H   UNL     1      -5.564  15.682  70.294  1.00  0.00     0.000 HD 
HETATM    7  C   UNL     1      -6.444  16.682  68.454  1.00  0.00    -0.135 C  
HETATM    8  C   UNL     1      -6.151  15.852  67.242  1.00  0.00    -0.051 C  
HETATM    9  N   UNL     1      -7.395  15.102  67.085  1.00  0.00    -0.174 NA 
HETATM   10  C   UNL     1      -8.579  15.687  66.549  1.00  0.00    -0.300 C  
HETATM   11  C   UNL     1      -9.652  15.011  66.982  1.00  0.00    -0.233 C  
HETATM   12  C   UNL     1     -11.007  15.419  66.628  1.00  0.00    -0.275 C  
HETATM   13  C   UNL     1      -9.250  14.066  68.075  1.00  0.00    -0.201 C  
HETATM   14  C   UNL     1     -11.066  16.542  65.617  1.00  0.00     0.089 C  
HETATM   15  O   UNL     1     -12.005  14.962  67.167  1.00  0.00    -0.304 OA 
HETATM   16  O   UNL     1      -7.961  17.994  66.172  1.00  0.00    -0.405 OA 
HETATM   17  H2  UNL     1     -11.659  15.475  64.037  1.00  0.00     0.000 HD 
HETATM   18  N   UNL     1     -10.954  16.177  64.262  1.00  0.00    -1.066 NA 
HETATM   19  C   UNL     1     -10.303  17.537  66.100  1.00  0.00    -0.330 C  
HETATM   20  C   UNL     1      -8.848  17.154  66.232  1.00  0.00    -0.231 C  
HETATM   21  C   UNL     1     -10.728  18.962  65.968  1.00  0.00    -0.373 C  
HETATM   22  H1  UNL     1     -10.994  16.935  63.580  1.00  0.00     0.000 HD 
BRANCH  13  23
HETATM   23  C   UNL     1      -9.106  12.640  67.493  1.00  0.00    -0.192 C  
BRANCH  23  24
HETATM   24  O   UNL     1      -9.828  11.638  68.234  1.00  0.00    -0.187 OA 
BRANCH  24  25
HETATM   25  C   UNL     1     -10.863  11.061  67.572  1.00  0.00    -0.263 C  
HETATM   26  O   UNL     1     -11.721  11.658  66.932  1.00  0.00    -0.552 OA 
HETATM   27  N   UNL     1     -10.838   9.725  67.754  1.00  0.00    -0.397 N  
HETATM   28  H1  UNL     1     -11.615   9.292  67.257  1.00  0.00     0.000 HD 
HETATM   29  H2  UNL     1     -10.144   9.222  68.308  1.00  0.00     0.000 HD 
ENDBRANCH  24  25
ENDBRANCH  23  24
ENDBRANCH  13  23
ENDBRANCH   2   3
TORSDOF 4
ENDMDL
MODEL       72
REMARK 921   NORMALIZED FREE ENERGY PREDICTED BY IDOCK:   -4.60 KCAL/MOL
REMARK 922        TOTAL FREE ENERGY PREDICTED BY IDOCK:   -5.85 KCAL/MOL
REMARK 923 INTER-LIGAND FREE ENERGY PREDICTED BY IDOCK:   -6.39 KCAL/MOL
REMARK 924 INTRA-LIGAND FREE ENERGY PREDICTED BY IDOCK:    0.54 KCAL/MOL
REMARK 927      BINDING AFFINITY PREDICTED BY RF-SCORE:    0.00 PKD
ROOT
HETATM    1  C   UNL     1     -10.855  11.767  63.176  1.00  0.00    -0.223 C  
HETATM    2  O   UNL     1      -9.727  12.189  63.964  1.00  0.00    -0.204 OA 
ENDROOT
BRANCH   2   3
HETATM    3  C   UNL     1     -10.091  12.415  65.326  1.00  0.00    -0.265 C  
HETATM    4  C   UNL     1      -9.843  13.917  65.650  1.00  0.00    -0.205 C  
HETATM    5  N   UNL     1      -9.923  14.962  64.608  1.00  0.00    -0.451 NA 
HETATM    6  H   UNL     1      -9.684  14.980  63.617  1.00  0.00     0.000 HD 
HETATM    7  C   UNL     1     -11.142  14.659  65.330  1.00  0.00    -0.348 C  
HETATM    8  C   UNL     1     -12.139  13.607  64.952  1.00  0.00    -0.397 C  
HETATM    9  N   UNL     1     -11.571  12.417  65.581  1.00  0.00    -0.375 NA 
HETATM   10  C   UNL     1     -11.664  12.175  66.983  1.00  0.00    -0.303 C  
HETATM   11  C   UNL     1     -10.671  11.361  67.366  1.00  0.00    -0.274 C  
HETATM   12  C   UNL     1     -10.491  10.979  68.763  1.00  0.00    -0.198 C  
HETATM   13  C   UNL     1      -9.674  11.217  66.256  1.00  0.00    -0.244 C  
HETATM   14  C   UNL     1     -11.605  11.443  69.675  1.00  0.00    -0.330 C  
HETATM   15  O   UNL     1      -9.487  10.417  69.179  1.00  0.00    -0.193 OA 
HETATM   16  O   UNL     1     -12.783  14.142  67.834  1.00  0.00     0.290 OA 
HETATM   17  H2  UNL     1     -12.489   9.678  69.971  1.00  0.00     0.000 HD 
HETATM   18  N   UNL     1     -12.755  10.633  69.730  1.00  0.00    -0.529 NA 
HETATM   19  C   UNL     1     -11.736  12.767  69.481  1.00  0.00    -0.383 C  
HETATM   20  C   UNL     1     -12.158  13.118  68.074  1.00  0.00    -0.197 C  
HETATM   21  C   UNL     1     -11.993  13.688  70.627  1.00  0.00    -0.328 C  
HETATM   22  H1  UNL     1     -13.506  10.947  70.345  1.00  0.00     0.000 HD 
BRANCH  13  23
HETATM   23  C   UNL     1      -9.921   9.882  65.514  1.00  0.00    -0.292 C  
BRANCH  23  24
HETATM   24  O   UNL     1     -10.498   8.857  66.347  1.00  0.00    -0.219 OA 
BRANCH  24  25
HETATM   25  C   UNL     1      -9.680   7.812  66.630  1.00  0.00    -0.222 C  
HETATM   26  O   UNL     1      -9.398   7.412  67.754  1.00  0.00    -0.136 OA 
HETATM   27  N   UNL     1      -9.181   7.295  65.489  1.00  0.00    -0.361 N  
HETATM   28  H1  UNL     1      -8.567   6.510  65.702  1.00  0.00     0.000 HD 
HETATM   29  H2  UNL     1      -9.388   7.639  64.551  1.00  0.00     0.000 HD 
ENDBRANCH  24  25
ENDBRANCH  23  24
ENDBRANCH  13  23
ENDBRANCH   2   3
TORSDOF 4
ENDMDL
MODEL       73
REMARK 921   NORMALIZED FREE ENERGY PREDICTED BY IDOCK:   -4.60 KCAL/MOL
REMARK 922        TOTAL FREE ENERGY PREDICTED BY IDOCK:   -5.85 KCAL/MOL
REMARK 923 INTER-LIGAND FREE ENERGY PREDICTED BY IDOCK:   -6.17 KCAL/MOL
REMARK 924 INTRA-LIGAND FREE ENERGY PREDICTED BY IDOCK:    0.32 KCAL/MOL
REMARK 927      BINDING AFFINITY PREDICTED BY RF-SCORE:    0.00 PKD
ROOT
HETATM    1  C   UNL     1     -12.521   9.822  71.500  1.00  0.00    -0.403 C  
HETATM    2  O   UNL     1     -11.082   9.828  71.494  1.00  0.00    -0.343 OA 
ENDROOT
BRANCH   2   3
HETATM    3  C   UNL     1     -10.554   8.759  70.708  1.00  0.00    -0.220 C  
HETATM    4  C   UNL     1      -9.538   7.969  71.584  1.00  0.00    -0.167 C  
HETATM    5  N   UNL     1      -9.665   7.904  73.054  1.00  0.00    -0.263 NA 
HETATM    6  H   UNL     1      -9.987   8.568  73.759  1.00  0.00     0.000 HD 
HETATM    7  C   UNL     1     -10.327   6.867  72.292  1.00  0.00    -0.196 C  
HETATM    8  C   UNL     1     -11.722   6.942  71.750  1.00  0.00    -0.302 C  
HETATM    9  N   UNL     1     -11.513   7.626  70.477  1.00  0.00    -0.255 NA 
HETATM   10  C   UNL     1     -10.973   6.967  69.334  1.00  0.00    -0.237 C  
HETATM   11  C   UNL     1     -10.408   7.868  68.518  1.00  0.00    -0.229 C  
HETATM   12  C   UNL     1      -9.733   7.469  67.289  1.00  0.00    -0.167 C  
HETATM   13  C   UNL     1     -10.305   9.191  69.216  1.00  0.00    -0.223 C  
HETATM   14  C   UNL     1      -9.881   6.001  66.955  1.00  0.00    -0.158 C  
HETATM   15  O   UNL     1      -9.031   8.228  66.634  1.00  0.00    -0.135 OA 
HETATM   16  O   UNL     1     -10.487   4.737  70.132  1.00  0.00    -0.199 OA 
HETATM   17  H2  UNL     1     -11.165   6.178  65.437  1.00  0.00     0.000 HD 
HETATM   18  N   UNL     1     -11.059   5.622  66.285  1.00  0.00    -0.772 NA 
HETATM   19  C   UNL     1      -9.487   5.316  68.043  1.00  0.00    -0.147 C  
HETATM   20  C   UNL     1     -10.360   5.573  69.248  1.00  0.00    -0.265 C  
HETATM   21  C   UNL     1      -8.682   4.066  67.913  1.00  0.00    -0.118 C  
HETATM   22  H1  UNL     1     -11.159   4.631  66.060  1.00  0.00     0.000 HD 
BRANCH  13  23
HETATM   23  C   UNL     1     -11.459  10.109  68.748  1.00  0.00    -0.047 C  
BRANCH  23  24
HETATM   24  O   UNL     1     -11.015  11.386  68.251  1.00  0.00    -0.187 OA 
BRANCH  24  25
HETATM   25  C   UNL     1     -11.316  11.638  66.952  1.00  0.00    -0.295 C  
HETATM   26  O   UNL     1     -12.273  12.293  66.556  1.00  0.00    -0.588 OA 
HETATM   27  N   UNL     1     -10.426  11.025  66.146  1.00  0.00    -0.251 N  
HETATM   28  H1  UNL     1     -10.651  11.215  65.170  1.00  0.00     0.000 HD 
HETATM   29  H2  UNL     1      -9.642  10.455  66.465  1.00  0.00     0.000 HD 
ENDBRANCH  24  25
ENDBRANCH  23  24
ENDBRANCH  13  23
ENDBRANCH   2   3
TORSDOF 4
ENDMDL
MODEL       74
REMARK 921   NORMALIZED FREE ENERGY PREDICTED BY IDOCK:   -4.60 KCAL/MOL
REMARK 922        TOTAL FREE ENERGY PREDICTED BY IDOCK:   -5.85 KCAL/MOL
REMARK 923 INTER-LIGAND FREE ENERGY PREDICTED BY IDOCK:   -5.48 KCAL/MOL
REMARK 924 INTRA-LIGAND FREE ENERGY PREDICTED BY IDOCK:   -0.36 KCAL/MOL
REMARK 927      BINDING AFFINITY PREDICTED BY RF-SCORE:    0.00 PKD
ROOT
HETATM    1  C   UNL     1     -11.770   5.089  72.636  1.00  0.00     0.022 C  
HETATM    2  O   UNL     1     -10.526   5.699  72.245  1.00  0.00    -0.199 OA 
ENDROOT
BRANCH   2   3
HETATM    3  C   UNL     1     -10.697   6.580  71.134  1.00  0.00    -0.240 C  
HETATM    4  C   UNL     1     -11.679   7.711  71.559  1.00  0.00    -0.281 C  
HETATM    5  N   UNL     1     -11.798   8.151  72.964  1.00  0.00    -0.559 NA 
HETATM    6  H   UNL     1     -11.735   7.662  73.858  1.00  0.00     0.000 HD 
HETATM    7  C   UNL     1     -10.828   8.841  72.140  1.00  0.00    -0.330 C  
HETATM    8  C   UNL     1      -9.401   8.428  71.945  1.00  0.00    -0.244 C  
HETATM    9  N   UNL     1      -9.514   7.463  70.854  1.00  0.00    -0.166 NA 
HETATM   10  C   UNL     1      -9.713   7.859  69.499  1.00  0.00    -0.173 C  
HETATM   11  C   UNL     1     -10.290   6.860  68.817  1.00  0.00    -0.200 C  
HETATM   12  C   UNL     1     -10.655   7.004  67.413  1.00  0.00    -0.302 C  
HETATM   13  C   UNL     1     -10.762   5.802  69.769  1.00  0.00    -0.418 C  
HETATM   14  C   UNL     1     -10.175   8.292  66.782  1.00  0.00    -0.304 C  
HETATM   15  O   UNL     1     -11.365   6.203  66.820  1.00  0.00    -0.188 OA 
HETATM   16  O   UNL     1      -9.895  10.267  69.625  1.00  0.00    -0.230 OA 
HETATM   17  H2  UNL     1      -8.705   7.535  65.662  1.00  0.00     0.000 HD 
HETATM   18  N   UNL     1      -8.848   8.308  66.312  1.00  0.00    -0.152 NA 
HETATM   19  C   UNL     1     -10.611   9.293  67.567  1.00  0.00    -0.329 C  
HETATM   20  C   UNL     1     -10.025   9.250  68.957  1.00  0.00    -0.182 C  
HETATM   21  C   UNL     1     -11.129  10.562  66.975  1.00  0.00    -0.183 C  
HETATM   22  H1  UNL     1      -8.524   9.178  65.886  1.00  0.00     0.000 HD 
BRANCH  13  23
HETATM   23  C   UNL     1      -9.742   4.639  69.791  1.00  0.00    -0.209 C  
BRANCH  23  24
HETATM   24  O   UNL     1      -8.788   4.688  68.712  1.00  0.00    -0.095 OA 
BRANCH  24  25
HETATM   25  C   UNL     1      -8.700   3.558  67.964  1.00  0.00    -0.107 C  
HETATM   26  O   UNL     1      -7.761   2.771  67.971  1.00  0.00    -0.056 OA 
HETATM   27  N   UNL     1      -9.786   3.445  67.173  1.00  0.00    -0.357 N  
HETATM   28  H1  UNL     1      -9.720   2.596  66.612  1.00  0.00     0.000 HD 
HETATM   29  H2  UNL     1     -10.559   4.110  67.140  1.00  0.00     0.000 HD 
ENDBRANCH  24  25
ENDBRANCH  23  24
ENDBRANCH  13  23
ENDBRANCH   2   3
TORSDOF 4
ENDMDL
MODEL       75
REMARK 921   NORMALIZED FREE ENERGY PREDICTED BY IDOCK:   -4.60 KCAL/MOL
REMARK 922        TOTAL FREE ENERGY PREDICTED BY IDOCK:   -5.84 KCAL/MOL
REMARK 923 INTER-LIGAND FREE ENERGY PREDICTED BY IDOCK:   -5.34 KCAL/MOL
REMARK 924 INTRA-LIGAND FREE ENERGY PREDICTED BY IDOCK:   -0.50 KCAL/MOL
REMARK 927      BINDING AFFINITY PREDICTED BY RF-SCORE:    0.00 PKD
ROOT
HETATM    1  C   UNL     1     -12.466  10.930  70.869  1.00  0.00    -0.408 C  
HETATM    2  O   UNL     1     -12.270   9.635  70.272  1.00  0.00    -0.086 OA 
ENDROOT
BRANCH   2   3
HETATM    3  C   UNL     1     -11.193   8.928  70.889  1.00  0.00    -0.279 C  
HETATM    4  C   UNL     1     -11.701   8.365  72.248  1.00  0.00    -0.385 C  
HETATM    5  N   UNL     1     -13.121   8.026  72.469  1.00  0.00    -0.544 NA 
HETATM    6  H   UNL     1     -13.997   8.432  72.138  1.00  0.00     0.000 HD 
HETATM    7  C   UNL     1     -12.265   6.971  71.967  1.00  0.00    -0.282 C  
HETATM    8  C   UNL     1     -11.982   6.693  70.523  1.00  0.00    -0.316 C  
HETATM    9  N   UNL     1     -10.874   7.606  70.253  1.00  0.00    -0.244 NA 
HETATM   10  C   UNL     1      -9.543   7.343  70.691  1.00  0.00    -0.171 C  
HETATM   11  C   UNL     1      -8.867   8.495  70.793  1.00  0.00    -0.187 C  
HETATM   12  C   UNL     1      -7.488   8.533  71.268  1.00  0.00    -0.098 C  
HETATM   13  C   UNL     1      -9.813   9.652  70.677  1.00  0.00    -0.268 C  
HETATM   14  C   UNL     1      -6.867   7.168  71.461  1.00  0.00    -0.056 C  
HETATM   15  O   UNL     1      -6.913   9.570  71.573  1.00  0.00    -0.319 OA 
HETATM   16  O   UNL     1      -9.742   5.279  71.934  1.00  0.00    -0.152 OA 
HETATM   17  H2  UNL     1      -5.650   7.178  69.878  1.00  0.00     0.000 HD 
HETATM   18  N   UNL     1      -6.326   6.553  70.316  1.00  0.00    -0.038 NA 
HETATM   19  C   UNL     1      -7.700   6.474  72.255  1.00  0.00    -0.097 C  
HETATM   20  C   UNL     1      -9.056   6.245  71.630  1.00  0.00    -0.145 C  
HETATM   21  C   UNL     1      -7.171   5.577  73.325  1.00  0.00    -0.090 C  
HETATM   22  H1  UNL     1      -5.907   5.631  70.446  1.00  0.00     0.000 HD 
BRANCH  13  23
HETATM   23  C   UNL     1      -9.749  10.226  69.242  1.00  0.00    -0.225 C  
BRANCH  23  24
HETATM   24  O   UNL     1      -9.005   9.402  68.324  1.00  0.00    -0.128 OA 
BRANCH  24  25
HETATM   25  C   UNL     1      -9.662   9.065  67.185  1.00  0.00    -0.181 C  
HETATM   26  O   UNL     1      -9.168   9.018  66.064  1.00  0.00    -0.192 OA 
HETATM   27  N   UNL     1     -10.961   8.826  67.456  1.00  0.00    -0.453 N  
HETATM   28  H1  UNL     1     -11.454   8.573  66.601  1.00  0.00     0.000 HD 
HETATM   29  H2  UNL     1     -11.388   8.890  68.381  1.00  0.00     0.000 HD 
ENDBRANCH  24  25
ENDBRANCH  23  24
ENDBRANCH  13  23
ENDBRANCH   2   3
TORSDOF 4
ENDMDL
MODEL       76
REMARK 921   NORMALIZED FREE ENERGY PREDICTED BY IDOCK:   -4.59 KCAL/MOL
REMARK 922        TOTAL FREE ENERGY PREDICTED BY IDOCK:   -5.84 KCAL/MOL
REMARK 923 INTER-LIGAND FREE ENERGY PREDICTED BY IDOCK:   -5.42 KCAL/MOL
REMARK 924 INTRA-LIGAND FREE ENERGY PREDICTED BY IDOCK:   -0.42 KCAL/MOL
REMARK 927      BINDING AFFINITY PREDICTED BY RF-SCORE:    0.00 PKD
ROOT
HETATM    1  C   UNL     1     -11.513  12.049  66.161  1.00  0.00    -0.339 C  
HETATM    2  O   UNL     1     -10.511  12.184  67.186  1.00  0.00    -0.215 OA 
ENDROOT
BRANCH   2   3
HETATM    3  C   UNL     1      -9.967  10.919  67.562  1.00  0.00    -0.174 C  
HETATM    4  C   UNL     1      -9.173  10.353  66.349  1.00  0.00    -0.161 C  
HETATM    5  N   UNL     1      -8.539  11.240  65.352  1.00  0.00    -0.386 NA 
HETATM    6  H   UNL     1      -8.798  12.143  64.954  1.00  0.00     0.000 HD 
HETATM    7  C   UNL     1      -7.734  10.852  66.491  1.00  0.00    -0.149 C  
HETATM    8  C   UNL     1      -7.673  11.577  67.801  1.00  0.00    -0.124 C  
HETATM    9  N   UNL     1      -8.809  11.000  68.515  1.00  0.00    -0.154 NA 
HETATM   10  C   UNL     1      -8.768   9.697  69.094  1.00  0.00    -0.151 C  
HETATM   11  C   UNL     1     -10.013   9.214  69.206  1.00  0.00    -0.187 C  
HETATM   12  C   UNL     1     -10.270   7.875  69.725  1.00  0.00    -0.212 C  
HETATM   13  C   UNL     1     -10.967  10.086  68.446  1.00  0.00    -0.266 C  
HETATM   14  C   UNL     1      -9.040   7.179  70.264  1.00  0.00    -0.156 C  
HETATM   15  O   UNL     1     -11.360   7.325  69.647  1.00  0.00    -0.144 OA 
HETATM   16  O   UNL     1      -6.583   8.863  68.478  1.00  0.00    -0.057 OA 
HETATM   17  H2  UNL     1      -9.459   7.320  72.211  1.00  0.00     0.000 HD 
HETATM   18  N   UNL     1      -8.670   7.487  71.587  1.00  0.00    -0.115 NA 
HETATM   19  C   UNL     1      -8.114   7.221  69.290  1.00  0.00    -0.124 C  
HETATM   20  C   UNL     1      -7.692   8.628  68.938  1.00  0.00    -0.100 C  
HETATM   21  C   UNL     1      -7.230   6.049  69.021  1.00  0.00    -0.083 C  
HETATM   22  H1  UNL     1      -7.840   7.017  71.950  1.00  0.00     0.000 HD 
BRANCH  13  23
HETATM   23  C   UNL     1     -11.693  11.033  69.431  1.00  0.00    -0.323 C  
BRANCH  23  24
HETATM   24  O   UNL     1     -11.655  10.582  70.799  1.00  0.00    -0.333 OA 
BRANCH  24  25
HETATM   25  C   UNL     1     -12.865  10.461  71.403  1.00  0.00    -0.452 C  
HETATM   26  O   UNL     1     -13.377  11.291  72.145  1.00  0.00    -0.457 OA 
HETATM   27  N   UNL     1     -13.413   9.267  71.101  1.00  0.00    -0.557 N  
HETATM   28  H1  UNL     1     -14.321   9.176  71.554  1.00  0.00     0.000 HD 
HETATM   29  H2  UNL     1     -12.982   8.558  70.506  1.00  0.00     0.000 HD 
ENDBRANCH  24  25
ENDBRANCH  23  24
ENDBRANCH  13  23
ENDBRANCH   2   3
TORSDOF 4
ENDMDL
MODEL       77
REMARK 921   NORMALIZED FREE ENERGY PREDICTED BY IDOCK:   -4.54 KCAL/MOL
REMARK 922        TOTAL FREE ENERGY PREDICTED BY IDOCK:   -5.77 KCAL/MOL
REMARK 923 INTER-LIGAND FREE ENERGY PREDICTED BY IDOCK:   -6.25 KCAL/MOL
REMARK 924 INTRA-LIGAND FREE ENERGY PREDICTED BY IDOCK:    0.48 KCAL/MOL
REMARK 927      BINDING AFFINITY PREDICTED BY RF-SCORE:    0.00 PKD
ROOT
HETATM    1  C   UNL     1     -12.921  11.819  63.462  1.00  0.00    -0.082 C  
HETATM    2  O   UNL     1     -11.765  12.611  63.132  1.00  0.00    -0.452 OA 
ENDROOT
BRANCH   2   3
HETATM    3  C   UNL     1     -11.045  13.004  64.301  1.00  0.00    -0.385 C  
HETATM    4  C   UNL     1     -10.998  14.560  64.341  1.00  0.00    -0.116 C  
HETATM    5  N   UNL     1     -12.060  15.386  63.730  1.00  0.00    -0.965 NA 
HETATM    6  H   UNL     1     -12.643  15.274  62.901  1.00  0.00     0.000 HD 
HETATM    7  C   UNL     1     -12.231  15.020  65.121  1.00  0.00    -0.015 C  
HETATM    8  C   UNL     1     -12.898  13.773  65.616  1.00  0.00    -0.408 C  
HETATM    9  N   UNL     1     -11.797  12.813  65.587  1.00  0.00    -0.402 NA 
HETATM   10  C   UNL     1     -10.767  12.800  66.573  1.00  0.00    -0.258 C  
HETATM   11  C   UNL     1      -9.665  12.232  66.065  1.00  0.00    -0.254 C  
HETATM   12  C   UNL     1      -8.433  12.126  66.838  1.00  0.00    -0.173 C  
HETATM   13  C   UNL     1      -9.817  12.063  64.583  1.00  0.00    -0.182 C  
HETATM   14  C   UNL     1      -8.575  12.555  68.282  1.00  0.00    -0.173 C  
HETATM   15  O   UNL     1      -7.358  11.810  66.346  1.00  0.00     0.023 OA 
HETATM   16  O   UNL     1     -11.307  14.680  67.995  1.00  0.00    -0.283 OA 
HETATM   17  H2  UNL     1      -8.508  10.747  69.127  1.00  0.00     0.000 HD 
HETATM   18  N   UNL     1      -9.077  11.592  69.179  1.00  0.00    -0.363 NA 
HETATM   19  C   UNL     1      -9.109  13.788  68.267  1.00  0.00    -0.195 C  
HETATM   20  C   UNL     1     -10.495  13.824  67.670  1.00  0.00    -0.242 C  
HETATM   21  C   UNL     1      -8.641  14.838  69.221  1.00  0.00    -0.036 C  
HETATM   22  H1  UNL     1      -9.173  11.882  70.153  1.00  0.00     0.000 HD 
BRANCH  13  23
HETATM   23  C   UNL     1     -10.210  10.599  64.271  1.00  0.00    -0.320 C  
BRANCH  23  24
HETATM   24  O   UNL     1      -9.496  10.035  63.154  1.00  0.00    -0.299 OA 
BRANCH  24  25
HETATM   25  C   UNL     1      -8.305   9.459  63.458  1.00  0.00    -0.184 C  
HETATM   26  O   UNL     1      -7.209   9.834  63.057  1.00  0.00    -0.111 OA 
HETATM   27  N   UNL     1      -8.502   8.379  64.240  1.00  0.00    -0.373 N  
HETATM   28  H1  UNL     1      -7.608   7.947  64.469  1.00  0.00     0.000 HD 
HETATM   29  H2  UNL     1      -9.413   8.043  64.557  1.00  0.00     0.000 HD 
ENDBRANCH  24  25
ENDBRANCH  23  24
ENDBRANCH  13  23
ENDBRANCH   2   3
TORSDOF 4
ENDMDL
MODEL       78
REMARK 921   NORMALIZED FREE ENERGY PREDICTED BY IDOCK:   -4.46 KCAL/MOL
REMARK 922        TOTAL FREE ENERGY PREDICTED BY IDOCK:   -5.67 KCAL/MOL
REMARK 923 INTER-LIGAND FREE ENERGY PREDICTED BY IDOCK:   -5.44 KCAL/MOL
REMARK 924 INTRA-LIGAND FREE ENERGY PREDICTED BY IDOCK:   -0.23 KCAL/MOL
REMARK 927      BINDING AFFINITY PREDICTED BY RF-SCORE:    0.00 PKD
ROOT
HETATM    1  C   UNL     1      -9.183  15.027  69.615  1.00  0.00     0.006 C  
HETATM    2  O   UNL     1      -8.764  15.163  68.244  1.00  0.00    -0.162 OA 
ENDROOT
BRANCH   2   3
HETATM    3  C   UNL     1      -9.606  14.422  67.360  1.00  0.00    -0.216 C  
HETATM    4  C   UNL     1     -11.062  14.948  67.524  1.00  0.00    -0.317 C  
HETATM    5  N   UNL     1     -11.346  16.339  67.933  1.00  0.00    -0.214 NA 
HETATM    6  H   UNL     1     -10.878  16.992  68.562  1.00  0.00     0.000 HD 
HETATM    7  C   UNL     1     -11.241  16.081  66.512  1.00  0.00     0.145 C  
HETATM    8  C   UNL     1      -9.975  16.125  65.712  1.00  0.00    -0.340 C  
HETATM    9  N   UNL     1      -9.448  14.777  65.910  1.00  0.00    -0.278 NA 
HETATM   10  C   UNL     1      -9.981  13.641  65.233  1.00  0.00    -0.204 C  
HETATM   11  C   UNL     1      -9.717  12.532  65.937  1.00  0.00    -0.226 C  
HETATM   12  C   UNL     1     -10.187  11.221  65.504  1.00  0.00    -0.260 C  
HETATM   13  C   UNL     1      -9.204  12.903  67.296  1.00  0.00    -0.208 C  
HETATM   14  C   UNL     1     -10.833  11.221  64.137  1.00  0.00    -0.337 C  
HETATM   15  O   UNL     1     -10.149  10.227  66.217  1.00  0.00    -0.222 OA 
HETATM   16  O   UNL     1     -11.828  14.543  63.959  1.00  0.00    -0.305 OA 
HETATM   17  H2  UNL     1      -9.366  10.321  63.125  1.00  0.00     0.000 HD 
HETATM   18  N   UNL     1      -9.967  11.140  63.030  1.00  0.00    -0.526 NA 
HETATM   19  C   UNL     1     -11.790  12.165  64.162  1.00  0.00    -0.490 C  
HETATM   20  C   UNL     1     -11.241  13.555  64.378  1.00  0.00    -0.379 C  
HETATM   21  C   UNL     1     -13.108  11.939  63.499  1.00  0.00    -0.140 C  
HETATM   22  H1  UNL     1     -10.404  11.140  62.107  1.00  0.00     0.000 HD 
BRANCH  13  23
HETATM   23  C   UNL     1      -7.662  12.780  67.314  1.00  0.00    -0.127 C  
BRANCH  23  24
HETATM   24  O   UNL     1      -7.193  11.440  67.558  1.00  0.00    -0.095 OA 
BRANCH  24  25
HETATM   25  C   UNL     1      -7.404  10.971  68.814  1.00  0.00    -0.111 C  
HETATM   26  O   UNL     1      -7.946   9.909  69.097  1.00  0.00    -0.094 OA 
HETATM   27  N   UNL     1      -6.966  11.868  69.720  1.00  0.00    -0.345 N  
HETATM   28  H1  UNL     1      -7.124  11.516  70.663  1.00  0.00     0.000 HD 
HETATM   29  H2  UNL     1      -6.538  12.767  69.495  1.00  0.00     0.000 HD 
ENDBRANCH  24  25
ENDBRANCH  23  24
ENDBRANCH  13  23
ENDBRANCH   2   3
TORSDOF 4
ENDMDL
MODEL       79
REMARK 921   NORMALIZED FREE ENERGY PREDICTED BY IDOCK:   -4.44 KCAL/MOL
REMARK 922        TOTAL FREE ENERGY PREDICTED BY IDOCK:   -5.65 KCAL/MOL
REMARK 923 INTER-LIGAND FREE ENERGY PREDICTED BY IDOCK:   -5.26 KCAL/MOL
REMARK 924 INTRA-LIGAND FREE ENERGY PREDICTED BY IDOCK:   -0.39 KCAL/MOL
REMARK 927      BINDING AFFINITY PREDICTED BY RF-SCORE:    0.00 PKD
ROOT
HETATM    1  C   UNL     1     -10.548  17.729  65.640  1.00  0.00    -0.123 C  
HETATM    2  O   UNL     1     -10.596  17.251  66.997  1.00  0.00    -0.310 OA 
ENDROOT
BRANCH   2   3
HETATM    3  C   UNL     1      -9.583  16.277  67.249  1.00  0.00    -0.230 C  
HETATM    4  C   UNL     1      -8.200  16.935  66.969  1.00  0.00    -0.199 C  
HETATM    5  N   UNL     1      -7.982  18.387  67.128  1.00  0.00    -0.227 NA 
HETATM    6  H   UNL     1      -8.572  19.204  66.970  1.00  0.00     0.000 HD 
HETATM    7  C   UNL     1      -7.730  17.555  68.286  1.00  0.00    -0.247 C  
HETATM    8  C   UNL     1      -8.747  17.164  69.315  1.00  0.00     0.151 C  
HETATM    9  N   UNL     1      -9.352  15.983  68.704  1.00  0.00    -0.205 NA 
HETATM   10  C   UNL     1      -8.704  14.714  68.684  1.00  0.00    -0.174 C  
HETATM   11  C   UNL     1      -9.178  13.981  67.667  1.00  0.00    -0.194 C  
HETATM   12  C   UNL     1      -8.658  12.650  67.377  1.00  0.00    -0.189 C  
HETATM   13  C   UNL     1     -10.008  14.843  66.764  1.00  0.00    -0.252 C  
HETATM   14  C   UNL     1      -7.684  12.131  68.411  1.00  0.00    -0.134 C  
HETATM   15  O   UNL     1      -8.911  12.043  66.345  1.00  0.00    -0.203 OA 
HETATM   16  O   UNL     1      -6.563  15.145  69.722  1.00  0.00    -0.155 OA 
HETATM   17  H2  UNL     1      -8.874  10.781  69.277  1.00  0.00     0.000 HD 
HETATM   18  N   UNL     1      -8.240  11.530  69.556  1.00  0.00    -0.103 NA 
HETATM   19  C   UNL     1      -6.734  13.071  68.552  1.00  0.00    -0.092 C  
HETATM   20  C   UNL     1      -7.271  14.378  69.085  1.00  0.00    -0.118 C  
HETATM   21  C   UNL     1      -5.298  12.693  68.711  1.00  0.00    -0.058 C  
HETATM   22  H1  UNL     1      -7.583  11.181  70.254  1.00  0.00     0.000 HD 
BRANCH  13  23
HETATM   23  C   UNL     1     -11.506  14.618  67.075  1.00  0.00    -0.368 C  
BRANCH  23  24
HETATM   24  O   UNL     1     -12.015  13.360  66.593  1.00  0.00    -0.381 OA 
BRANCH  24  25
HETATM   25  C   UNL     1     -12.238  13.299  65.256  1.00  0.00    -0.448 C  
HETATM   26  O   UNL     1     -12.770  14.174  64.582  1.00  0.00    -0.656 OA 
HETATM   27  N   UNL     1     -11.827  12.109  64.773  1.00  0.00    -0.344 N  
HETATM   28  H1  UNL     1     -11.995  12.064  63.769  1.00  0.00     0.000 HD 
HETATM   29  H2  UNL     1     -11.409  11.364  65.331  1.00  0.00     0.000 HD 
ENDBRANCH  24  25
ENDBRANCH  23  24
ENDBRANCH  13  23
ENDBRANCH   2   3
TORSDOF 4
ENDMDL
MODEL       80
REMARK 921   NORMALIZED FREE ENERGY PREDICTED BY IDOCK:   -4.43 KCAL/MOL
REMARK 922        TOTAL FREE ENERGY PREDICTED BY IDOCK:   -5.64 KCAL/MOL
REMARK 923 INTER-LIGAND FREE ENERGY PREDICTED BY IDOCK:   -5.48 KCAL/MOL
REMARK 924 INTRA-LIGAND FREE ENERGY PREDICTED BY IDOCK:   -0.16 KCAL/MOL
REMARK 927      BINDING AFFINITY PREDICTED BY RF-SCORE:    0.00 PKD
ROOT
HETATM    1  C   UNL     1     -10.555   8.186  67.156  1.00  0.00    -0.285 C  
HETATM    2  O   UNL     1      -9.497   8.001  68.115  1.00  0.00    -0.142 OA 
ENDROOT
BRANCH   2   3
HETATM    3  C   UNL     1      -9.819   6.985  69.065  1.00  0.00    -0.154 C  
HETATM    4  C   UNL     1      -9.666   5.602  68.367  1.00  0.00    -0.128 C  
HETATM    5  N   UNL     1      -8.720   5.395  67.251  1.00  0.00    -0.108 NA 
HETATM    6  H   UNL     1      -8.402   5.987  66.484  1.00  0.00     0.000 HD 
HETATM    7  C   UNL     1      -8.221   5.152  68.589  1.00  0.00    -0.085 C  
HETATM    8  C   UNL     1      -7.599   6.179  69.485  1.00  0.00    -0.094 C  
HETATM    9  N   UNL     1      -8.773   6.771  70.122  1.00  0.00    -0.140 NA 
HETATM   10  C   UNL     1      -9.490   6.115  71.166  1.00  0.00    -0.167 C  
HETATM   11  C   UNL     1     -10.749   6.573  71.204  1.00  0.00    -0.285 C  
HETATM   12  C   UNL     1     -11.727   6.042  72.148  1.00  0.00    -0.279 C  
HETATM   13  C   UNL     1     -11.028   7.397  69.983  1.00  0.00    -0.264 C  
HETATM   14  C   UNL     1     -11.146   5.078  73.158  1.00  0.00    -0.326 C  
HETATM   15  O   UNL     1     -12.924   6.280  72.075  1.00  0.00    -0.125 OA 
HETATM   16  O   UNL     1      -8.361   3.989  71.392  1.00  0.00    -0.075 OA 
HETATM   17  H2  UNL     1     -11.197   6.270  74.758  1.00  0.00     0.000 HD 
HETATM   18  N   UNL     1     -10.538   5.644  74.295  1.00  0.00    -0.319 NA 
HETATM   19  C   UNL     1     -10.492   4.134  72.458  1.00  0.00    -0.205 C  
HETATM   20  C   UNL     1      -9.327   4.685  71.671  1.00  0.00    -0.143 C  
HETATM   21  C   UNL     1     -10.552   2.699  72.864  1.00  0.00    -0.223 C  
HETATM   22  H1  UNL     1     -10.146   4.993  74.976  1.00  0.00     0.000 HD 
BRANCH  13  23
HETATM   23  C   UNL     1     -10.914   8.898  70.340  1.00  0.00    -0.244 C  
BRANCH  23  24
HETATM   24  O   UNL     1     -11.561   9.247  71.579  1.00  0.00    -0.329 OA 
BRANCH  24  25
HETATM   25  C   UNL     1     -12.854   9.643  71.467  1.00  0.00    -0.392 C  
HETATM   26  O   UNL     1     -13.762   9.336  72.230  1.00  0.00    -0.447 OA 
HETATM   27  N   UNL     1     -13.010  10.396  70.359  1.00  0.00    -0.517 N  
HETATM   28  H1  UNL     1     -13.982  10.694  70.275  1.00  0.00     0.000 HD 
HETATM   29  H2  UNL     1     -12.266  10.634  69.702  1.00  0.00     0.000 HD 
ENDBRANCH  24  25
ENDBRANCH  23  24
ENDBRANCH  13  23
ENDBRANCH   2   3
TORSDOF 4
ENDMDL
MODEL       81
REMARK 921   NORMALIZED FREE ENERGY PREDICTED BY IDOCK:   -4.43 KCAL/MOL
REMARK 922        TOTAL FREE ENERGY PREDICTED BY IDOCK:   -5.63 KCAL/MOL
REMARK 923 INTER-LIGAND FREE ENERGY PREDICTED BY IDOCK:   -5.39 KCAL/MOL
REMARK 924 INTRA-LIGAND FREE ENERGY PREDICTED BY IDOCK:   -0.24 KCAL/MOL
REMARK 927      BINDING AFFINITY PREDICTED BY RF-SCORE:    0.00 PKD
ROOT
HETATM    1  C   UNL     1     -12.871  11.475  71.230  1.00  0.00    -0.360 C  
HETATM    2  O   UNL     1     -13.085  10.177  70.644  1.00  0.00    -0.341 OA 
ENDROOT
BRANCH   2   3
HETATM    3  C   UNL     1     -12.245   9.186  71.238  1.00  0.00    -0.327 C  
HETATM    4  C   UNL     1     -12.719   8.964  72.703  1.00  0.00    -0.219 C  
HETATM    5  N   UNL     1     -14.123   9.181  73.108  1.00  0.00    -1.155 NA 
HETATM    6  H   UNL     1     -14.841   9.845  72.817  1.00  0.00     0.000 HD 
HETATM    7  C   UNL     1     -13.765   7.849  72.667  1.00  0.00     0.374 C  
HETATM    8  C   UNL     1     -13.803   7.363  71.250  1.00  0.00    -0.247 C  
HETATM    9  N   UNL     1     -12.497   7.787  70.752  1.00  0.00    -0.048 NA 
HETATM   10  C   UNL     1     -11.292   7.102  71.084  1.00  0.00    -0.275 C  
HETATM   11  C   UNL     1     -10.251   7.937  70.965  1.00  0.00    -0.217 C  
HETATM   12  C   UNL     1      -8.892   7.516  71.289  1.00  0.00    -0.133 C  
HETATM   13  C   UNL     1     -10.744   9.343  70.795  1.00  0.00    -0.373 C  
HETATM   14  C   UNL     1      -8.763   6.041  71.597  1.00  0.00    -0.135 C  
HETATM   15  O   UNL     1      -7.957   8.298  71.396  1.00  0.00    -0.098 OA 
HETATM   16  O   UNL     1     -12.017   5.365  72.602  1.00  0.00    -0.214 OA 
HETATM   17  H2  UNL     1      -7.854   5.474  69.912  1.00  0.00     0.000 HD 
HETATM   18  N   UNL     1      -8.637   5.175  70.494  1.00  0.00    -0.116 NA 
HETATM   19  C   UNL     1      -9.665   5.766  72.555  1.00  0.00    -0.175 C  
HETATM   20  C   UNL     1     -11.089   5.988  72.105  1.00  0.00    -0.279 C  
HETATM   21  C   UNL     1      -9.334   4.836  73.675  1.00  0.00    -0.127 C  
HETATM   22  H1  UNL     1      -8.549   4.180  70.702  1.00  0.00     0.000 HD 
BRANCH  13  23
HETATM   23  C   UNL     1     -10.688   9.727  69.297  1.00  0.00    -0.224 C  
BRANCH  23  24
HETATM   24  O   UNL     1      -9.447  10.345  68.906  1.00  0.00    -0.168 OA 
BRANCH  24  25
HETATM   25  C   UNL     1      -9.507  11.684  68.691  1.00  0.00    -0.123 C  
HETATM   26  O   UNL     1     -10.530  12.359  68.689  1.00  0.00    -0.228 OA 
HETATM   27  N   UNL     1      -8.274  12.166  68.436  1.00  0.00    -0.186 N  
HETATM   28  H1  UNL     1      -8.320  13.171  68.275  1.00  0.00     0.000 HD 
HETATM   29  H2  UNL     1      -7.421  11.606  68.408  1.00  0.00     0.000 HD 
ENDBRANCH  24  25
ENDBRANCH  23  24
ENDBRANCH  13  23
ENDBRANCH   2   3
TORSDOF 4
ENDMDL
MODEL       82
REMARK 921   NORMALIZED FREE ENERGY PREDICTED BY IDOCK:   -4.40 KCAL/MOL
REMARK 922        TOTAL FREE ENERGY PREDICTED BY IDOCK:   -5.60 KCAL/MOL
REMARK 923 INTER-LIGAND FREE ENERGY PREDICTED BY IDOCK:   -6.33 KCAL/MOL
REMARK 924 INTRA-LIGAND FREE ENERGY PREDICTED BY IDOCK:    0.73 KCAL/MOL
REMARK 927      BINDING AFFINITY PREDICTED BY RF-SCORE:    0.00 PKD
ROOT
HETATM    1  C   UNL     1     -11.990  12.555  68.311  1.00  0.00    -0.221 C  
HETATM    2  O   UNL     1     -10.995  13.071  69.213  1.00  0.00    -0.181 OA 
ENDROOT
BRANCH   2   3
HETATM    3  C   UNL     1     -10.379  14.252  68.698  1.00  0.00    -0.246 C  
HETATM    4  C   UNL     1      -8.917  13.900  68.297  1.00  0.00    -0.187 C  
HETATM    5  N   UNL     1      -8.533  12.538  67.872  1.00  0.00    -0.161 NA 
HETATM    6  H   UNL     1      -8.842  11.606  68.149  1.00  0.00     0.000 HD 
HETATM    7  C   UNL     1      -8.954  13.456  66.834  1.00  0.00    -0.209 C  
HETATM    8  C   UNL     1     -10.366  13.661  66.374  1.00  0.00    -0.286 C  
HETATM    9  N   UNL     1     -10.851  14.653  67.330  1.00  0.00    -0.291 NA 
HETATM   10  C   UNL     1     -10.495  16.031  67.249  1.00  0.00    -0.308 C  
HETATM   11  C   UNL     1     -10.609  16.597  68.458  1.00  0.00    -0.338 C  
HETATM   12  C   UNL     1     -10.263  17.996  68.683  1.00  0.00    -0.377 C  
HETATM   13  C   UNL     1     -10.803  15.537  69.500  1.00  0.00    -0.267 C  
HETATM   14  C   UNL     1      -9.936  18.759  67.419  1.00  0.00    -0.335 C  
HETATM   15  O   UNL     1     -10.153  18.487  69.799  1.00  0.00     0.197 OA 
HETATM   16  O   UNL     1      -8.966  16.122  65.378  1.00  0.00    -0.172 OA 
HETATM   17  H2  UNL     1     -11.602  19.854  67.304  1.00  0.00     0.000 HD 
HETATM   18  N   UNL     1     -11.027  19.274  66.693  1.00  0.00    -0.292 NA 
HETATM   19  C   UNL     1      -8.987  18.056  66.778  1.00  0.00    -0.279 C  
HETATM   20  C   UNL     1      -9.458  16.688  66.345  1.00  0.00    -0.280 C  
HETATM   21  C   UNL     1      -7.851  18.744  66.095  1.00  0.00    -0.263 C  
HETATM   22  H1  UNL     1     -10.806  19.789  65.840  1.00  0.00     0.000 HD 
BRANCH  13  23
HETATM   23  C   UNL     1     -12.304  15.443  69.863  1.00  0.00    -0.293 C  
BRANCH  23  24
HETATM   24  O   UNL     1     -12.642  16.102  71.099  1.00  0.00    -0.294 OA 
BRANCH  24  25
HETATM   25  C   UNL     1     -13.041  15.282  72.104  1.00  0.00    -0.381 C  
HETATM   26  O   UNL     1     -12.374  14.984  73.087  1.00  0.00    -0.375 OA 
HETATM   27  N   UNL     1     -14.274  14.803  71.844  1.00  0.00    -0.493 N  
HETATM   28  H1  UNL     1     -14.574  14.187  72.600  1.00  0.00     0.000 HD 
HETATM   29  H2  UNL     1     -14.827  15.023  71.015  1.00  0.00     0.000 HD 
ENDBRANCH  24  25
ENDBRANCH  23  24
ENDBRANCH  13  23
ENDBRANCH   2   3
TORSDOF 4
ENDMDL
MODEL       83
REMARK 921   NORMALIZED FREE ENERGY PREDICTED BY IDOCK:   -4.34 KCAL/MOL
REMARK 922        TOTAL FREE ENERGY PREDICTED BY IDOCK:   -5.52 KCAL/MOL
REMARK 923 INTER-LIGAND FREE ENERGY PREDICTED BY IDOCK:   -5.35 KCAL/MOL
REMARK 924 INTRA-LIGAND FREE ENERGY PREDICTED BY IDOCK:   -0.17 KCAL/MOL
REMARK 927      BINDING AFFINITY PREDICTED BY RF-SCORE:    0.00 PKD
ROOT
HETATM    1  C   UNL     1     -10.123   9.935  65.523  1.00  0.00    -0.227 C  
HETATM    2  O   UNL     1      -9.106   9.472  66.429  1.00  0.00    -0.147 OA 
ENDROOT
BRANCH   2   3
HETATM    3  C   UNL     1      -9.671   8.899  67.609  1.00  0.00    -0.161 C  
HETATM    4  C   UNL     1     -10.422   7.597  67.203  1.00  0.00    -0.342 C  
HETATM    5  N   UNL     1     -10.011   6.794  66.033  1.00  0.00    -0.351 NA 
HETATM    6  H   UNL     1      -9.624   7.036  65.121  1.00  0.00     0.000 HD 
HETATM    7  C   UNL     1      -9.411   6.453  67.307  1.00  0.00    -0.123 C  
HETATM    8  C   UNL     1      -8.159   7.055  67.868  1.00  0.00    -0.115 C  
HETATM    9  N   UNL     1      -8.672   8.254  68.526  1.00  0.00    -0.133 NA 
HETATM   10  C   UNL     1      -9.356   8.206  69.777  1.00  0.00    -0.159 C  
HETATM   11  C   UNL     1     -10.149   9.280  69.898  1.00  0.00    -0.230 C  
HETATM   12  C   UNL     1     -11.007   9.470  71.062  1.00  0.00    -0.353 C  
HETATM   13  C   UNL     1     -10.240   9.995  68.583  1.00  0.00    -0.198 C  
HETATM   14  C   UNL     1     -10.788   8.452  72.159  1.00  0.00    -0.337 C  
HETATM   15  O   UNL     1     -11.889  10.316  71.112  1.00  0.00    -0.353 OA 
HETATM   16  O   UNL     1      -9.468   5.845  70.282  1.00  0.00    -0.157 OA 
HETATM   17  H2  UNL     1      -9.840   9.631  73.462  1.00  0.00     0.000 HD 
HETATM   18  N   UNL     1      -9.729   8.703  73.051  1.00  0.00     0.007 NA 
HETATM   19  C   UNL     1     -10.899   7.240  71.588  1.00  0.00    -0.246 C  
HETATM   20  C   UNL     1      -9.840   6.981  70.543  1.00  0.00    -0.179 C  
HETATM   21  C   UNL     1     -11.594   6.121  72.292  1.00  0.00    -0.362 C  
HETATM   22  H1  UNL     1      -9.582   8.016  73.791  1.00  0.00     0.000 HD 
BRANCH  13  23
HETATM   23  C   UNL     1      -9.289  11.215  68.595  1.00  0.00    -0.184 C  
BRANCH  23  24
HETATM   24  O   UNL     1      -9.862  12.400  68.009  1.00  0.00    -0.194 OA 
BRANCH  24  25
HETATM   25  C   UNL     1      -9.011  13.449  67.873  1.00  0.00    -0.201 C  
HETATM   26  O   UNL     1      -8.916  14.394  68.646  1.00  0.00    -0.189 OA 
HETATM   27  N   UNL     1      -8.305  13.324  66.730  1.00  0.00    -0.419 N  
HETATM   28  H1  UNL     1      -7.666  14.111  66.628  1.00  0.00     0.000 HD 
HETATM   29  H2  UNL     1      -8.397  12.554  66.066  1.00  0.00     0.000 HD 
ENDBRANCH  24  25
ENDBRANCH  23  24
ENDBRANCH  13  23
ENDBRANCH   2   3
TORSDOF 4
ENDMDL
MODEL       84
REMARK 921   NORMALIZED FREE ENERGY PREDICTED BY IDOCK:   -4.33 KCAL/MOL
REMARK 922        TOTAL FREE ENERGY PREDICTED BY IDOCK:   -5.51 KCAL/MOL
REMARK 923 INTER-LIGAND FREE ENERGY PREDICTED BY IDOCK:   -5.29 KCAL/MOL
REMARK 924 INTRA-LIGAND FREE ENERGY PREDICTED BY IDOCK:   -0.22 KCAL/MOL
REMARK 927      BINDING AFFINITY PREDICTED BY RF-SCORE:    0.00 PKD
ROOT
HETATM    1  C   UNL     1      -8.592   8.597  71.465  1.00  0.00    -0.195 C  
HETATM    2  O   UNL     1      -9.611   7.594  71.301  1.00  0.00    -0.157 OA 
ENDROOT
BRANCH   2   3
HETATM    3  C   UNL     1      -9.351   6.759  70.171  1.00  0.00    -0.159 C  
HETATM    4  C   UNL     1      -8.143   5.840  70.516  1.00  0.00    -0.110 C  
HETATM    5  N   UNL     1      -7.845   5.435  71.905  1.00  0.00    -0.110 NA 
HETATM    6  H   UNL     1      -7.939   5.905  72.806  1.00  0.00     0.000 HD 
HETATM    7  C   UNL     1      -8.719   4.569  71.142  1.00  0.00    -0.115 C  
HETATM    8  C   UNL     1     -10.209   4.699  71.050  1.00  0.00    -0.136 C  
HETATM    9  N   UNL     1     -10.359   5.664  69.964  1.00  0.00    -0.249 NA 
HETATM   10  C   UNL     1     -10.182   5.309  68.595  1.00  0.00    -0.153 C  
HETATM   11  C   UNL     1      -9.857   6.398  67.885  1.00  0.00    -0.130 C  
HETATM   12  C   UNL     1      -9.569   6.323  66.457  1.00  0.00    -0.146 C  
HETATM   13  C   UNL     1      -9.532   7.531  68.813  1.00  0.00    -0.148 C  
HETATM   14  C   UNL     1      -9.836   4.965  65.848  1.00  0.00    -0.191 C  
HETATM   15  O   UNL     1      -9.069   7.244  65.826  1.00  0.00    -0.086 OA 
HETATM   16  O   UNL     1      -9.533   2.982  68.683  1.00  0.00    -0.181 OA 
HETATM   17  H2  UNL     1     -11.497   5.422  64.840  1.00  0.00     0.000 HD 
HETATM   18  N   UNL     1     -11.164   4.692  65.470  1.00  0.00    -0.946 NA 
HETATM   19  C   UNL     1      -9.161   4.070  66.590  1.00  0.00    -0.173 C  
HETATM   20  C   UNL     1      -9.647   4.003  68.019  1.00  0.00    -0.136 C  
HETATM   21  C   UNL     1      -8.452   2.922  65.951  1.00  0.00    -0.111 C  
HETATM   22  H1  UNL     1     -11.343   3.776  65.059  1.00  0.00     0.000 HD 
BRANCH  13  23
HETATM   23  C   UNL     1     -10.753   8.475  68.917  1.00  0.00    -0.073 C  
BRANCH  23  24
HETATM   24  O   UNL     1     -10.561   9.741  68.257  1.00  0.00    -0.209 OA 
BRANCH  24  25
HETATM   25  C   UNL     1     -11.305  10.767  68.743  1.00  0.00    -0.288 C  
HETATM   26  O   UNL     1     -12.108  11.433  68.100  1.00  0.00    -0.623 OA 
HETATM   27  N   UNL     1     -11.001  10.982  70.039  1.00  0.00    -0.467 N  
HETATM   28  H1  UNL     1     -11.560  11.752  70.404  1.00  0.00     0.000 HD 
HETATM   29  H2  UNL     1     -10.314  10.451  70.575  1.00  0.00     0.000 HD 
ENDBRANCH  24  25
ENDBRANCH  23  24
ENDBRANCH  13  23
ENDBRANCH   2   3
TORSDOF 4
ENDMDL
MODEL       85
REMARK 921   NORMALIZED FREE ENERGY PREDICTED BY IDOCK:   -4.31 KCAL/MOL
REMARK 922        TOTAL FREE ENERGY PREDICTED BY IDOCK:   -5.49 KCAL/MOL
REMARK 923 INTER-LIGAND FREE ENERGY PREDICTED BY IDOCK:   -4.91 KCAL/MOL
REMARK 924 INTRA-LIGAND FREE ENERGY PREDICTED BY IDOCK:   -0.58 KCAL/MOL
REMARK 927      BINDING AFFINITY PREDICTED BY RF-SCORE:    0.00 PKD
ROOT
HETATM    1  C   UNL     1     -10.011   4.292  71.078  1.00  0.00    -0.153 C  
HETATM    2  O   UNL     1      -9.716   5.490  71.819  1.00  0.00    -0.158 OA 
ENDROOT
BRANCH   2   3
HETATM    3  C   UNL     1     -10.075   6.664  71.089  1.00  0.00    -0.182 C  
HETATM    4  C   UNL     1     -11.629   6.745  71.035  1.00  0.00    -0.339 C  
HETATM    5  N   UNL     1     -12.475   6.165  72.097  1.00  0.00    -0.404 NA 
HETATM    6  H   UNL     1     -12.388   5.337  72.687  1.00  0.00     0.000 HD 
HETATM    7  C   UNL     1     -12.073   7.546  72.259  1.00  0.00    -0.230 C  
HETATM    8  C   UNL     1     -10.816   8.013  72.928  1.00  0.00    -0.330 C  
HETATM    9  N   UNL     1      -9.852   7.950  71.832  1.00  0.00    -0.169 NA 
HETATM   10  C   UNL     1      -9.809   8.926  70.793  1.00  0.00    -0.223 C  
HETATM   11  C   UNL     1      -9.250   8.395  69.698  1.00  0.00    -0.160 C  
HETATM   12  C   UNL     1      -9.119   9.156  68.461  1.00  0.00    -0.132 C  
HETATM   13  C   UNL     1      -9.121   6.910  69.862  1.00  0.00    -0.144 C  
HETATM   14  C   UNL     1      -9.509  10.611  68.590  1.00  0.00    -0.176 C  
HETATM   15  O   UNL     1      -8.812   8.647  67.391  1.00  0.00    -0.132 OA 
HETATM   16  O   UNL     1     -11.652  10.403  71.315  1.00  0.00    -0.311 OA 
HETATM   17  H2  UNL     1      -7.679  11.407  68.524  1.00  0.00     0.000 HD 
HETATM   18  N   UNL     1      -8.525  11.486  69.088  1.00  0.00    -0.370 NA 
HETATM   19  C   UNL     1     -10.745  10.634  69.119  1.00  0.00    -0.264 C  
HETATM   20  C   UNL     1     -10.802  10.048  70.509  1.00  0.00    -0.314 C  
HETATM   21  C   UNL     1     -11.766  11.612  68.639  1.00  0.00    -0.386 C  
HETATM   22  H1  UNL     1      -8.789  12.468  69.175  1.00  0.00     0.000 HD 
BRANCH  13  23
HETATM   23  C   UNL     1      -7.668   6.562  70.264  1.00  0.00    -0.098 C  
BRANCH  23  24
HETATM   24  O   UNL     1      -6.766   6.472  69.144  1.00  0.00    -0.045 OA 
BRANCH  24  25
HETATM   25  C   UNL     1      -7.046   5.489  68.252  1.00  0.00    -0.066 C  
HETATM   26  O   UNL     1      -7.145   4.296  68.513  1.00  0.00    -0.051 OA 
HETATM   27  N   UNL     1      -7.160   6.011  67.013  1.00  0.00    -0.069 N  
HETATM   28  H1  UNL     1      -7.371   5.272  66.343  1.00  0.00     0.000 HD 
HETATM   29  H2  UNL     1      -7.052   6.999  66.782  1.00  0.00     0.000 HD 
ENDBRANCH  24  25
ENDBRANCH  23  24
ENDBRANCH  13  23
ENDBRANCH   2   3
TORSDOF 4
ENDMDL
MODEL       86
REMARK 921   NORMALIZED FREE ENERGY PREDICTED BY IDOCK:   -4.30 KCAL/MOL
REMARK 922        TOTAL FREE ENERGY PREDICTED BY IDOCK:   -5.48 KCAL/MOL
REMARK 923 INTER-LIGAND FREE ENERGY PREDICTED BY IDOCK:   -5.91 KCAL/MOL
REMARK 924 INTRA-LIGAND FREE ENERGY PREDICTED BY IDOCK:    0.43 KCAL/MOL
REMARK 927      BINDING AFFINITY PREDICTED BY RF-SCORE:    0.00 PKD
ROOT
HETATM    1  C   UNL     1      -9.502   7.530  73.797  1.00  0.00    -0.276 C  
HETATM    2  O   UNL     1      -8.845   8.582  73.067  1.00  0.00    -0.321 OA 
ENDROOT
BRANCH   2   3
HETATM    3  C   UNL     1      -8.804   8.306  71.667  1.00  0.00    -0.172 C  
HETATM    4  C   UNL     1      -7.311   8.187  71.241  1.00  0.00    -0.072 C  
HETATM    5  N   UNL     1      -6.266   7.740  72.184  1.00  0.00    -0.039 NA 
HETATM    6  H   UNL     1      -6.127   7.869  73.187  1.00  0.00     0.000 HD 
HETATM    7  C   UNL     1      -6.922   6.716  71.397  1.00  0.00    -0.075 C  
HETATM    8  C   UNL     1      -8.177   5.994  71.781  1.00  0.00    -0.118 C  
HETATM    9  N   UNL     1      -9.209   6.907  71.298  1.00  0.00    -0.157 NA 
HETATM   10  C   UNL     1      -9.548   7.017  69.918  1.00  0.00    -0.159 C  
HETATM   11  C   UNL     1     -10.092   8.218  69.681  1.00  0.00    -0.199 C  
HETATM   12  C   UNL     1     -10.493   8.625  68.339  1.00  0.00    -0.176 C  
HETATM   13  C   UNL     1      -9.901   9.106  70.874  1.00  0.00    -0.359 C  
HETATM   14  C   UNL     1     -10.395   7.523  67.308  1.00  0.00    -0.296 C  
HETATM   15  O   UNL     1     -10.793   9.776  68.050  1.00  0.00    -0.250 OA 
HETATM   16  O   UNL     1      -8.000   5.516  68.823  1.00  0.00    -0.093 OA 
HETATM   17  H2  UNL     1     -12.345   7.158  67.089  1.00  0.00     0.000 HD 
HETATM   18  N   UNL     1     -11.482   6.633  67.230  1.00  0.00    -0.749 NA 
HETATM   19  C   UNL     1      -9.144   7.036  67.381  1.00  0.00    -0.124 C  
HETATM   20  C   UNL     1      -8.835   6.404  68.717  1.00  0.00    -0.124 C  
HETATM   21  C   UNL     1      -8.392   6.662  66.147  1.00  0.00    -0.130 C  
HETATM   22  H1  UNL     1     -11.415   5.889  66.534  1.00  0.00     0.000 HD 
BRANCH  13  23
HETATM   23  C   UNL     1     -11.208   9.142  71.701  1.00  0.00    -0.377 C  
BRANCH  23  24
HETATM   24  O   UNL     1     -12.304   9.785  71.022  1.00  0.00    -0.308 OA 
BRANCH  24  25
HETATM   25  C   UNL     1     -12.439  11.113  71.269  1.00  0.00    -0.360 C  
HETATM   26  O   UNL     1     -13.093  11.605  72.181  1.00  0.00    -0.457 OA 
HETATM   27  N   UNL     1     -11.779  11.825  70.333  1.00  0.00    -0.519 N  
HETATM   28  H1  UNL     1     -11.881  12.822  70.519  1.00  0.00     0.000 HD 
HETATM   29  H2  UNL     1     -11.255  11.425  69.554  1.00  0.00     0.000 HD 
ENDBRANCH  24  25
ENDBRANCH  23  24
ENDBRANCH  13  23
ENDBRANCH   2   3
TORSDOF 4
ENDMDL
MODEL       87
REMARK 921   NORMALIZED FREE ENERGY PREDICTED BY IDOCK:   -4.29 KCAL/MOL
REMARK 922        TOTAL FREE ENERGY PREDICTED BY IDOCK:   -5.47 KCAL/MOL
REMARK 923 INTER-LIGAND FREE ENERGY PREDICTED BY IDOCK:   -6.08 KCAL/MOL
REMARK 924 INTRA-LIGAND FREE ENERGY PREDICTED BY IDOCK:    0.62 KCAL/MOL
REMARK 927      BINDING AFFINITY PREDICTED BY RF-SCORE:    0.00 PKD
ROOT
HETATM    1  C   UNL     1     -11.540  15.458  68.795  1.00  0.00    -0.368 C  
HETATM    2  O   UNL     1     -11.535  15.115  67.397  1.00  0.00    -0.332 OA 
ENDROOT
BRANCH   2   3
HETATM    3  C   UNL     1     -10.468  14.222  67.077  1.00  0.00    -0.271 C  
HETATM    4  C   UNL     1      -9.584  14.894  65.987  1.00  0.00    -0.313 C  
HETATM    5  N   UNL     1      -9.468  16.362  65.875  1.00  0.00    -0.469 NA 
HETATM    6  H   UNL     1     -10.122  17.129  66.033  1.00  0.00     0.000 HD 
HETATM    7  C   UNL     1      -8.504  15.690  66.721  1.00  0.00    -0.272 C  
HETATM    8  C   UNL     1      -8.686  15.390  68.178  1.00  0.00    -0.161 C  
HETATM    9  N   UNL     1      -9.406  14.119  68.134  1.00  0.00    -0.199 NA 
HETATM   10  C   UNL     1      -8.761  12.884  67.834  1.00  0.00    -0.186 C  
HETATM   11  C   UNL     1      -9.658  12.013  67.352  1.00  0.00    -0.176 C  
HETATM   12  C   UNL     1      -9.267  10.677  66.914  1.00  0.00    -0.155 C  
HETATM   13  C   UNL     1     -10.943  12.722  67.048  1.00  0.00    -0.295 C  
HETATM   14  C   UNL     1      -7.826  10.330  67.212  1.00  0.00    -0.103 C  
HETATM   15  O   UNL     1     -10.008   9.938  66.281  1.00  0.00    -0.227 OA 
HETATM   16  O   UNL     1      -6.475  13.525  67.374  1.00  0.00    -0.260 OA 
HETATM   17  H2  UNL     1      -8.141   9.052  68.713  1.00  0.00     0.000 HD 
HETATM   18  N   UNL     1      -7.546   9.854  68.507  1.00  0.00    -0.079 NA 
HETATM   19  C   UNL     1      -7.076  11.317  66.693  1.00  0.00    -0.127 C  
HETATM   20  C   UNL     1      -7.337  12.658  67.338  1.00  0.00    -0.140 C  
HETATM   21  C   UNL     1      -5.785  11.019  66.004  1.00  0.00    -0.135 C  
HETATM   22  H1  UNL     1      -6.573   9.620  68.708  1.00  0.00     0.000 HD 
BRANCH  13  23
HETATM   23  C   UNL     1     -11.948  12.479  68.199  1.00  0.00    -0.219 C  
BRANCH  23  24
HETATM   24  O   UNL     1     -12.170  11.085  68.486  1.00  0.00    -0.582 OA 
BRANCH  24  25
HETATM   25  C   UNL     1     -11.777  10.677  69.720  1.00  0.00    -0.310 C  
HETATM   26  O   UNL     1     -10.629  10.399  70.046  1.00  0.00    -0.271 OA 
HETATM   27  N   UNL     1     -12.847  10.580  70.535  1.00  0.00    -0.435 N  
HETATM   28  H1  UNL     1     -12.552  10.274  71.461  1.00  0.00     0.000 HD 
HETATM   29  H2  UNL     1     -13.810  10.783  70.265  1.00  0.00     0.000 HD 
ENDBRANCH  24  25
ENDBRANCH  23  24
ENDBRANCH  13  23
ENDBRANCH   2   3
TORSDOF 4
ENDMDL
MODEL       88
REMARK 921   NORMALIZED FREE ENERGY PREDICTED BY IDOCK:   -4.26 KCAL/MOL
REMARK 922        TOTAL FREE ENERGY PREDICTED BY IDOCK:   -5.42 KCAL/MOL
REMARK 923 INTER-LIGAND FREE ENERGY PREDICTED BY IDOCK:   -5.24 KCAL/MOL
REMARK 924 INTRA-LIGAND FREE ENERGY PREDICTED BY IDOCK:   -0.18 KCAL/MOL
REMARK 927      BINDING AFFINITY PREDICTED BY RF-SCORE:    0.00 PKD
ROOT
HETATM    1  C   UNL     1     -11.196  16.660  68.359  1.00  0.00    -0.239 C  
HETATM    2  O   UNL     1     -10.825  15.988  67.141  1.00  0.00    -0.310 OA 
ENDROOT
BRANCH   2   3
HETATM    3  C   UNL     1     -10.112  14.779  67.403  1.00  0.00    -0.231 C  
HETATM    4  C   UNL     1     -10.925  13.953  68.442  1.00  0.00    -0.253 C  
HETATM    5  N   UNL     1     -12.394  14.062  68.545  1.00  0.00    -0.506 NA 
HETATM    6  H   UNL     1     -13.048  14.836  68.423  1.00  0.00     0.000 HD 
HETATM    7  C   UNL     1     -11.873  13.053  67.647  1.00  0.00    -0.351 C  
HETATM    8  C   UNL     1     -11.533  13.264  66.203  1.00  0.00    -0.328 C  
HETATM    9  N   UNL     1     -10.166  13.773  66.288  1.00  0.00    -0.290 NA 
HETATM   10  C   UNL     1      -9.050  12.927  66.554  1.00  0.00    -0.132 C  
HETATM   11  C   UNL     1      -8.054  13.649  67.086  1.00  0.00    -0.094 C  
HETATM   12  C   UNL     1      -6.801  13.031  67.503  1.00  0.00    -0.151 C  
HETATM   13  C   UNL     1      -8.557  15.011  67.460  1.00  0.00    -0.192 C  
HETATM   14  C   UNL     1      -6.680  11.571  67.126  1.00  0.00    -0.129 C  
HETATM   15  O   UNL     1      -5.961  13.611  68.178  1.00  0.00    -0.093 OA 
HETATM   16  O   UNL     1     -10.045  10.748  66.886  1.00  0.00    -0.197 OA 
HETATM   17  H2  UNL     1      -5.353  11.764  65.647  1.00  0.00     0.000 HD 
HETATM   18  N   UNL     1      -6.240  11.291  65.819  1.00  0.00    -0.384 NA 
HETATM   19  C   UNL     1      -7.777  10.958  67.602  1.00  0.00    -0.108 C  
HETATM   20  C   UNL     1      -9.054  11.460  66.971  1.00  0.00    -0.167 C  
HETATM   21  C   UNL     1      -7.691   9.601  68.219  1.00  0.00    -0.082 C  
HETATM   22  H1  UNL     1      -6.159  10.306  65.565  1.00  0.00     0.000 HD 
BRANCH  13  23
HETATM   23  C   UNL     1      -8.149  16.026  66.367  1.00  0.00    -0.220 C  
BRANCH  23  24
HETATM   24  O   UNL     1      -6.983  16.802  66.705  1.00  0.00    -0.195 OA 
BRANCH  24  25
HETATM   25  C   UNL     1      -6.992  17.350  67.947  1.00  0.00    -0.175 C  
HETATM   26  O   UNL     1      -7.757  18.225  68.334  1.00  0.00    -0.280 OA 
HETATM   27  N   UNL     1      -6.002  16.818  68.692  1.00  0.00    -0.133 N  
HETATM   28  H1  UNL     1      -6.009  17.229  69.625  1.00  0.00     0.000 HD 
HETATM   29  H2  UNL     1      -5.343  16.109  68.370  1.00  0.00     0.000 HD 
ENDBRANCH  24  25
ENDBRANCH  23  24
ENDBRANCH  13  23
ENDBRANCH   2   3
TORSDOF 4
ENDMDL
MODEL       89
REMARK 921   NORMALIZED FREE ENERGY PREDICTED BY IDOCK:   -4.24 KCAL/MOL
REMARK 922        TOTAL FREE ENERGY PREDICTED BY IDOCK:   -5.40 KCAL/MOL
REMARK 923 INTER-LIGAND FREE ENERGY PREDICTED BY IDOCK:   -6.03 KCAL/MOL
REMARK 924 INTRA-LIGAND FREE ENERGY PREDICTED BY IDOCK:    0.63 KCAL/MOL
REMARK 927      BINDING AFFINITY PREDICTED BY RF-SCORE:    0.00 PKD
ROOT
HETATM    1  C   UNL     1      -6.433  12.607  67.241  1.00  0.00    -0.097 C  
HETATM    2  O   UNL     1      -7.382  12.702  68.319  1.00  0.00    -0.099 OA 
ENDROOT
BRANCH   2   3
HETATM    3  C   UNL     1      -7.922  14.019  68.431  1.00  0.00    -0.143 C  
HETATM    4  C   UNL     1      -7.461  14.617  69.792  1.00  0.00     0.032 C  
HETATM    5  N   UNL     1      -6.197  14.205  70.435  1.00  0.00    -0.285 NA 
HETATM    6  H   UNL     1      -5.691  13.320  70.480  1.00  0.00     0.000 HD 
HETATM    7  C   UNL     1      -6.137  15.337  69.534  1.00  0.00    -0.125 C  
HETATM    8  C   UNL     1      -5.905  15.261  68.056  1.00  0.00    -0.141 C  
HETATM    9  N   UNL     1      -7.258  15.039  67.551  1.00  0.00    -0.190 NA 
HETATM   10  C   UNL     1      -8.225  16.083  67.470  1.00  0.00    -0.152 C  
HETATM   11  C   UNL     1      -9.458  15.558  67.491  1.00  0.00    -0.208 C  
HETATM   12  C   UNL     1     -10.648  16.400  67.468  1.00  0.00    -0.309 C  
HETATM   13  C   UNL     1      -9.386  14.107  67.863  1.00  0.00    -0.204 C  
HETATM   14  C   UNL     1     -10.358  17.869  67.252  1.00  0.00    -0.369 C  
HETATM   15  O   UNL     1     -11.773  15.976  67.697  1.00  0.00    -0.019 OA 
HETATM   16  O   UNL     1      -7.088  17.996  68.415  1.00  0.00    -0.229 OA 
HETATM   17  H2  UNL     1     -10.998  18.014  65.366  1.00  0.00     0.000 HD 
HETATM   18  N   UNL     1     -10.186  18.288  65.919  1.00  0.00    -0.587 NA 
HETATM   19  C   UNL     1      -9.453  18.224  68.180  1.00  0.00    -0.313 C  
HETATM   20  C   UNL     1      -8.137  17.499  68.029  1.00  0.00    -0.237 C  
HETATM   21  C   UNL     1      -9.544  19.543  68.874  1.00  0.00    -0.460 C  
HETATM   22  H1  UNL     1      -9.990  19.279  65.773  1.00  0.00     0.000 HD 
BRANCH  13  23
HETATM   23  C   UNL     1      -9.493  13.244  66.583  1.00  0.00    -0.260 C  
BRANCH  23  24
HETATM   24  O   UNL     1      -9.810  14.002  65.400  1.00  0.00    -0.278 OA 
BRANCH  24  25
HETATM   25  C   UNL     1     -10.770  13.464  64.606  1.00  0.00    -0.411 C  
HETATM   26  O   UNL     1     -10.873  12.277  64.317  1.00  0.00    -0.300 OA 
HETATM   27  N   UNL     1     -11.582  14.435  64.142  1.00  0.00    -0.646 N  
HETATM   28  H1  UNL     1     -12.303  14.030  63.546  1.00  0.00     0.000 HD 
HETATM   29  H2  UNL     1     -11.488  15.429  64.355  1.00  0.00     0.000 HD 
ENDBRANCH  24  25
ENDBRANCH  23  24
ENDBRANCH  13  23
ENDBRANCH   2   3
TORSDOF 4
ENDMDL
MODEL       90
REMARK 921   NORMALIZED FREE ENERGY PREDICTED BY IDOCK:   -4.21 KCAL/MOL
REMARK 922        TOTAL FREE ENERGY PREDICTED BY IDOCK:   -5.37 KCAL/MOL
REMARK 923 INTER-LIGAND FREE ENERGY PREDICTED BY IDOCK:   -4.85 KCAL/MOL
REMARK 924 INTRA-LIGAND FREE ENERGY PREDICTED BY IDOCK:   -0.52 KCAL/MOL
REMARK 927      BINDING AFFINITY PREDICTED BY RF-SCORE:    0.00 PKD
ROOT
HETATM    1  C   UNL     1      -6.498   8.023  68.152  1.00  0.00    -0.055 C  
HETATM    2  O   UNL     1      -7.586   8.454  68.991  1.00  0.00    -0.088 OA 
ENDROOT
BRANCH   2   3
HETATM    3  C   UNL     1      -8.316   9.528  68.398  1.00  0.00    -0.118 C  
HETATM    4  C   UNL     1      -9.065   8.973  67.151  1.00  0.00    -0.137 C  
HETATM    5  N   UNL     1      -9.491   7.562  67.064  1.00  0.00    -0.153 NA 
HETATM    6  H   UNL     1      -9.086   6.687  67.397  1.00  0.00     0.000 HD 
HETATM    7  C   UNL     1     -10.437   8.499  67.634  1.00  0.00    -0.241 C  
HETATM    8  C   UNL     1     -10.521   8.877  69.081  1.00  0.00    -0.223 C  
HETATM    9  N   UNL     1      -9.534   9.950  69.168  1.00  0.00    -0.184 NA 
HETATM   10  C   UNL     1      -9.790  11.266  68.683  1.00  0.00    -0.202 C  
HETATM   11  C   UNL     1      -8.631  11.875  68.399  1.00  0.00    -0.152 C  
HETATM   12  C   UNL     1      -8.592  13.221  67.838  1.00  0.00    -0.188 C  
HETATM   13  C   UNL     1      -7.511  10.879  68.433  1.00  0.00    -0.098 C  
HETATM   14  C   UNL     1      -9.942  13.900  67.773  1.00  0.00    -0.241 C  
HETATM   15  O   UNL     1      -7.577  13.723  67.374  1.00  0.00    -0.173 OA 
HETATM   16  O   UNL     1     -11.999  11.103  67.714  1.00  0.00    -0.630 OA 
HETATM   17  H2  UNL     1      -9.682  15.203  69.263  1.00  0.00     0.000 HD 
HETATM   18  N   UNL     1     -10.386  14.535  68.948  1.00  0.00    -0.237 NA 
HETATM   19  C   UNL     1     -10.765  13.059  67.123  1.00  0.00    -0.266 C  
HETATM   20  C   UNL     1     -10.974  11.755  67.855  1.00  0.00    -0.221 C  
HETATM   21  C   UNL     1     -11.764  13.571  66.138  1.00  0.00    -0.397 C  
HETATM   22  H1  UNL     1     -11.297  14.992  68.904  1.00  0.00     0.000 HD 
BRANCH  13  23
HETATM   23  C   UNL     1      -6.761  10.995  69.781  1.00  0.00    -0.136 C  
BRANCH  23  24
HETATM   24  O   UNL     1      -5.568  11.799  69.711  1.00  0.00    -0.072 OA 
BRANCH  24  25
HETATM   25  C   UNL     1      -5.624  12.981  70.375  1.00  0.00    -0.159 C  
HETATM   26  O   UNL     1      -5.747  13.111  71.588  1.00  0.00    -0.392 OA 
HETATM   27  N   UNL     1      -5.568  14.004  69.500  1.00  0.00    -0.085 N  
HETATM   28  H1  UNL     1      -5.610  14.892  69.999  1.00  0.00     0.000 HD 
HETATM   29  H2  UNL     1      -5.494  13.906  68.487  1.00  0.00     0.000 HD 
ENDBRANCH  24  25
ENDBRANCH  23  24
ENDBRANCH  13  23
ENDBRANCH   2   3
TORSDOF 4
ENDMDL
MODEL       91
REMARK 921   NORMALIZED FREE ENERGY PREDICTED BY IDOCK:   -4.21 KCAL/MOL
REMARK 922        TOTAL FREE ENERGY PREDICTED BY IDOCK:   -5.36 KCAL/MOL
REMARK 923 INTER-LIGAND FREE ENERGY PREDICTED BY IDOCK:   -4.94 KCAL/MOL
REMARK 924 INTRA-LIGAND FREE ENERGY PREDICTED BY IDOCK:   -0.42 KCAL/MOL
REMARK 927      BINDING AFFINITY PREDICTED BY RF-SCORE:    0.00 PKD
ROOT
HETATM    1  C   UNL     1     -10.026   9.448  66.299  1.00  0.00    -0.283 C  
HETATM    2  O   UNL     1      -9.095   8.807  67.190  1.00  0.00    -0.129 OA 
ENDROOT
BRANCH   2   3
HETATM    3  C   UNL     1      -9.760   8.202  68.300  1.00  0.00    -0.161 C  
HETATM    4  C   UNL     1     -10.585   6.993  67.770  1.00  0.00    -0.233 C  
HETATM    5  N   UNL     1     -10.178   6.241  66.565  1.00  0.00    -0.377 NA 
HETATM    6  H   UNL     1      -9.729   6.513  65.690  1.00  0.00     0.000 HD 
HETATM    7  C   UNL     1      -9.669   5.769  67.836  1.00  0.00    -0.120 C  
HETATM    8  C   UNL     1      -8.405   6.232  68.493  1.00  0.00    -0.115 C  
HETATM    9  N   UNL     1      -8.859   7.420  69.212  1.00  0.00    -0.137 NA 
HETATM   10  C   UNL     1      -9.605   7.342  70.424  1.00  0.00    -0.165 C  
HETATM   11  C   UNL     1     -10.320   8.464  70.586  1.00  0.00    -0.224 C  
HETATM   12  C   UNL     1     -11.218   8.641  71.722  1.00  0.00    -0.326 C  
HETATM   13  C   UNL     1     -10.292   9.271  69.323  1.00  0.00    -0.222 C  
HETATM   14  C   UNL     1     -11.131   7.537  72.752  1.00  0.00    -0.366 C  
HETATM   15  O   UNL     1     -12.035   9.548  71.794  1.00  0.00    -0.370 OA 
HETATM   16  O   UNL     1      -9.919   4.967  70.755  1.00  0.00    -0.192 OA 
HETATM   17  H2  UNL     1     -10.163   8.547  74.177  1.00  0.00     0.000 HD 
HETATM   18  N   UNL     1     -10.101   7.644  73.707  1.00  0.00    -0.367 NA 
HETATM   19  C   UNL     1     -11.304   6.379  72.092  1.00  0.00    -0.332 C  
HETATM   20  C   UNL     1     -10.217   6.108  71.080  1.00  0.00    -0.196 C  
HETATM   21  C   UNL     1     -12.115   5.273  72.684  1.00  0.00     0.074 C  
HETATM   22  H1  UNL     1     -10.043   6.899  74.401  1.00  0.00     0.000 HD 
BRANCH  13  23
HETATM   23  C   UNL     1      -9.254  10.409  69.464  1.00  0.00    -0.120 C  
BRANCH  23  24
HETATM   24  O   UNL     1      -8.230  10.138  70.440  1.00  0.00    -0.107 OA 
BRANCH  24  25
HETATM   25  C   UNL     1      -6.958  10.361  70.022  1.00  0.00    -0.157 C  
HETATM   26  O   UNL     1      -6.138  11.078  70.585  1.00  0.00    -0.271 OA 
HETATM   27  N   UNL     1      -6.732   9.708  68.865  1.00  0.00    -0.047 N  
HETATM   28  H1  UNL     1      -5.776   9.875  68.551  1.00  0.00     0.000 HD 
HETATM   29  H2  UNL     1      -7.416   9.131  68.375  1.00  0.00     0.000 HD 
ENDBRANCH  24  25
ENDBRANCH  23  24
ENDBRANCH  13  23
ENDBRANCH   2   3
TORSDOF 4
ENDMDL
MODEL       92
REMARK 921   NORMALIZED FREE ENERGY PREDICTED BY IDOCK:   -4.20 KCAL/MOL
REMARK 922        TOTAL FREE ENERGY PREDICTED BY IDOCK:   -5.35 KCAL/MOL
REMARK 923 INTER-LIGAND FREE ENERGY PREDICTED BY IDOCK:   -4.83 KCAL/MOL
REMARK 924 INTRA-LIGAND FREE ENERGY PREDICTED BY IDOCK:   -0.52 KCAL/MOL
REMARK 927      BINDING AFFINITY PREDICTED BY RF-SCORE:    0.00 PKD
ROOT
HETATM    1  C   UNL     1      -8.204   4.733  67.988  1.00  0.00    -0.095 C  
HETATM    2  O   UNL     1      -7.782   5.729  68.938  1.00  0.00    -0.087 OA 
ENDROOT
BRANCH   2   3
HETATM    3  C   UNL     1      -8.820   6.672  69.208  1.00  0.00    -0.133 C  
HETATM    4  C   UNL     1      -9.914   5.960  70.055  1.00  0.00    -0.183 C  
HETATM    5  N   UNL     1      -9.591   4.836  70.958  1.00  0.00    -0.164 NA 
HETATM    6  H   UNL     1      -8.917   4.072  70.909  1.00  0.00     0.000 HD 
HETATM    7  C   UNL     1      -9.541   6.168  71.524  1.00  0.00    -0.155 C  
HETATM    8  C   UNL     1      -8.345   7.069  71.525  1.00  0.00    -0.112 C  
HETATM    9  N   UNL     1      -8.458   7.720  70.222  1.00  0.00    -0.131 NA 
HETATM   10  C   UNL     1      -9.397   8.762  69.966  1.00  0.00    -0.168 C  
HETATM   11  C   UNL     1      -9.667   8.814  68.655  1.00  0.00    -0.170 C  
HETATM   12  C   UNL     1     -10.635   9.760  68.111  1.00  0.00    -0.231 C  
HETATM   13  C   UNL     1      -9.107   7.602  67.972  1.00  0.00    -0.135 C  
HETATM   14  C   UNL     1     -11.155  10.757  69.122  1.00  0.00    -0.249 C  
HETATM   15  O   UNL     1     -11.060   9.697  66.965  1.00  0.00    -0.071 OA 
HETATM   16  O   UNL     1     -10.616   8.961  72.045  1.00  0.00    -0.341 OA 
HETATM   17  H2  UNL     1     -10.173  12.368  68.470  1.00  0.00     0.000 HD 
HETATM   18  N   UNL     1     -10.359  11.894  69.354  1.00  0.00    -0.408 NA 
HETATM   19  C   UNL     1     -11.613  10.045  70.166  1.00  0.00    -0.320 C  
HETATM   20  C   UNL     1     -10.530   9.254  70.860  1.00  0.00    -0.302 C  
HETATM   21  C   UNL     1     -12.869  10.438  70.871  1.00  0.00    -0.482 C  
HETATM   22  H1  UNL     1     -10.710  12.567  70.036  1.00  0.00     0.000 HD 
BRANCH  13  23
HETATM   23  C   UNL     1      -7.770   7.972  67.286  1.00  0.00    -0.101 C  
BRANCH  23  24
HETATM   24  O   UNL     1      -7.858   8.041  65.850  1.00  0.00    -0.091 OA 
BRANCH  24  25
HETATM   25  C   UNL     1      -8.139   9.269  65.345  1.00  0.00    -0.122 C  
HETATM   26  O   UNL     1      -7.462  10.278  65.505  1.00  0.00    -0.140 OA 
HETATM   27  N   UNL     1      -9.305   9.233  64.668  1.00  0.00    -0.435 N  
HETATM   28  H1  UNL     1      -9.516  10.155  64.289  1.00  0.00     0.000 HD 
HETATM   29  H2  UNL     1      -9.890   8.405  64.553  1.00  0.00     0.000 HD 
ENDBRANCH  24  25
ENDBRANCH  23  24
ENDBRANCH  13  23
ENDBRANCH   2   3
TORSDOF 4
ENDMDL
MODEL       93
REMARK 921   NORMALIZED FREE ENERGY PREDICTED BY IDOCK:   -4.18 KCAL/MOL
REMARK 922        TOTAL FREE ENERGY PREDICTED BY IDOCK:   -5.33 KCAL/MOL
REMARK 923 INTER-LIGAND FREE ENERGY PREDICTED BY IDOCK:   -4.91 KCAL/MOL
REMARK 924 INTRA-LIGAND FREE ENERGY PREDICTED BY IDOCK:   -0.42 KCAL/MOL
REMARK 927      BINDING AFFINITY PREDICTED BY RF-SCORE:    0.00 PKD
ROOT
HETATM    1  C   UNL     1      -7.348   8.731  69.810  1.00  0.00    -0.052 C  
HETATM    2  O   UNL     1      -7.743   9.195  68.506  1.00  0.00    -0.091 OA 
ENDROOT
BRANCH   2   3
HETATM    3  C   UNL     1      -8.326  10.497  68.564  1.00  0.00    -0.129 C  
HETATM    4  C   UNL     1      -7.222  11.502  69.006  1.00  0.00    -0.106 C  
HETATM    5  N   UNL     1      -5.794  11.270  68.711  1.00  0.00    -0.043 NA 
HETATM    6  H   UNL     1      -5.219  10.429  68.657  1.00  0.00     0.000 HD 
HETATM    7  C   UNL     1      -6.554  12.016  67.730  1.00  0.00    -0.093 C  
HETATM    8  C   UNL     1      -7.325  11.422  66.591  1.00  0.00    -0.107 C  
HETATM    9  N   UNL     1      -8.605  11.113  67.223  1.00  0.00    -0.137 NA 
HETATM   10  C   UNL     1      -9.575  12.116  67.517  1.00  0.00    -0.179 C  
HETATM   11  C   UNL     1     -10.367  11.698  68.513  1.00  0.00    -0.224 C  
HETATM   12  C   UNL     1     -11.424  12.545  69.055  1.00  0.00    -0.304 C  
HETATM   13  C   UNL     1      -9.790  10.463  69.138  1.00  0.00    -0.237 C  
HETATM   14  C   UNL     1     -11.637  13.830  68.287  1.00  0.00    -0.338 C  
HETATM   15  O   UNL     1     -12.022  12.287  70.091  1.00  0.00    -0.334 OA 
HETATM   16  O   UNL     1      -8.499  14.173  66.839  1.00  0.00    -0.185 OA 
HETATM   17  H2  UNL     1     -13.357  13.350  67.394  1.00  0.00     0.000 HD 
HETATM   18  N   UNL     1     -12.454  13.753  67.143  1.00  0.00    -0.413 NA 
HETATM   19  C   UNL     1     -10.439  14.434  68.206  1.00  0.00    -0.245 C  
HETATM   20  C   UNL     1      -9.425  13.631  67.427  1.00  0.00    -0.225 C  
HETATM   21  C   UNL     1     -10.314  15.914  68.357  1.00  0.00    -0.240 C  
HETATM   22  H1  UNL     1     -12.597  14.620  66.625  1.00  0.00     0.000 HD 
BRANCH  13  23
HETATM   23  C   UNL     1     -10.528   9.219  68.590  1.00  0.00    -0.209 C  
BRANCH  23  24
HETATM   24  O   UNL     1     -10.887   8.266  69.608  1.00  0.00    -0.226 OA 
BRANCH  24  25
HETATM   25  C   UNL     1     -10.832   6.964  69.229  1.00  0.00    -0.237 C  
HETATM   26  O   UNL     1     -11.395   6.033  69.793  1.00  0.00    -0.409 OA 
HETATM   27  N   UNL     1     -10.026   6.830  68.156  1.00  0.00    -0.144 N  
HETATM   28  H1  UNL     1      -9.985   5.852  67.872  1.00  0.00     0.000 HD 
HETATM   29  H2  UNL     1      -9.531   7.595  67.697  1.00  0.00     0.000 HD 
ENDBRANCH  24  25
ENDBRANCH  23  24
ENDBRANCH  13  23
ENDBRANCH   2   3
TORSDOF 4
ENDMDL
MODEL       94
REMARK 921   NORMALIZED FREE ENERGY PREDICTED BY IDOCK:   -4.14 KCAL/MOL
REMARK 922        TOTAL FREE ENERGY PREDICTED BY IDOCK:   -5.28 KCAL/MOL
REMARK 923 INTER-LIGAND FREE ENERGY PREDICTED BY IDOCK:   -5.10 KCAL/MOL
REMARK 924 INTRA-LIGAND FREE ENERGY PREDICTED BY IDOCK:   -0.18 KCAL/MOL
REMARK 927      BINDING AFFINITY PREDICTED BY RF-SCORE:    0.00 PKD
ROOT
HETATM    1  C   UNL     1     -11.608  12.541  68.412  1.00  0.00    -0.322 C  
HETATM    2  O   UNL     1     -11.801  11.154  68.078  1.00  0.00    -0.582 OA 
ENDROOT
BRANCH   2   3
HETATM    3  C   UNL     1     -10.559  10.495  67.825  1.00  0.00    -0.243 C  
HETATM    4  C   UNL     1      -9.751  10.459  69.155  1.00  0.00    -0.220 C  
HETATM    5  N   UNL     1     -10.420  10.444  70.472  1.00  0.00    -0.374 NA 
HETATM    6  H   UNL     1     -11.275  10.873  70.827  1.00  0.00     0.000 HD 
HETATM    7  C   UNL     1     -10.130   9.160  69.868  1.00  0.00    -0.202 C  
HETATM    8  C   UNL     1     -11.030   8.418  68.928  1.00  0.00     0.152 C  
HETATM    9  N   UNL     1     -10.672   9.009  67.641  1.00  0.00    -0.222 NA 
HETATM   10  C   UNL     1      -9.470   8.671  66.952  1.00  0.00    -0.180 C  
HETATM   11  C   UNL     1      -9.126   9.670  66.129  1.00  0.00    -0.201 C  
HETATM   12  C   UNL     1      -7.908   9.618  65.329  1.00  0.00    -0.115 C  
HETATM   13  C   UNL     1      -9.962  10.880  66.422  1.00  0.00    -0.266 C  
HETATM   14  C   UNL     1      -7.187   8.289  65.394  1.00  0.00    -0.071 C  
HETATM   15  O   UNL     1      -7.455  10.586  64.734  1.00  0.00    -0.091 OA 
HETATM   16  O   UNL     1      -8.356   7.138  68.455  1.00  0.00    -0.123 OA 
HETATM   17  H2  UNL     1      -7.651   7.620  63.571  1.00  0.00     0.000 HD 
HETATM   18  N   UNL     1      -7.650   7.277  64.532  1.00  0.00    -0.099 NA 
HETATM   19  C   UNL     1      -7.000   8.015  66.697  1.00  0.00    -0.072 C  
HETATM   20  C   UNL     1      -8.295   7.839  67.454  1.00  0.00    -0.123 C  
HETATM   21  C   UNL     1      -5.724   7.406  67.177  1.00  0.00    -0.030 C  
HETATM   22  H1  UNL     1      -7.164   6.381  64.576  1.00  0.00     0.000 HD 
BRANCH  13  23
HETATM   23  C   UNL     1     -11.106  10.978  65.386  1.00  0.00     0.071 C  
BRANCH  23  24
HETATM   24  O   UNL     1     -10.831  11.892  64.307  1.00  0.00    -0.298 OA 
BRANCH  24  25
HETATM   25  C   UNL     1     -11.638  12.982  64.251  1.00  0.00    -0.385 C  
HETATM   26  O   UNL     1     -11.300  14.133  64.504  1.00  0.00    -0.372 OA 
HETATM   27  N   UNL     1     -12.890  12.612  63.916  1.00  0.00    -0.732 N  
HETATM   28  H1  UNL     1     -13.496  13.430  63.874  1.00  0.00     0.000 HD 
HETATM   29  H2  UNL     1     -13.187  11.653  63.730  1.00  0.00     0.000 HD 
ENDBRANCH  24  25
ENDBRANCH  23  24
ENDBRANCH  13  23
ENDBRANCH   2   3
TORSDOF 4
ENDMDL
MODEL       95
REMARK 921   NORMALIZED FREE ENERGY PREDICTED BY IDOCK:   -4.11 KCAL/MOL
REMARK 922        TOTAL FREE ENERGY PREDICTED BY IDOCK:   -5.24 KCAL/MOL
REMARK 923 INTER-LIGAND FREE ENERGY PREDICTED BY IDOCK:   -5.71 KCAL/MOL
REMARK 924 INTRA-LIGAND FREE ENERGY PREDICTED BY IDOCK:    0.47 KCAL/MOL
REMARK 927      BINDING AFFINITY PREDICTED BY RF-SCORE:    0.00 PKD
ROOT
HETATM    1  C   UNL     1     -10.484  17.107  67.568  1.00  0.00    -0.348 C  
HETATM    2  O   UNL     1      -9.889  16.379  68.658  1.00  0.00    -0.217 OA 
ENDROOT
BRANCH   2   3
HETATM    3  C   UNL     1      -9.843  14.976  68.392  1.00  0.00    -0.222 C  
HETATM    4  C   UNL     1     -10.555  14.238  69.564  1.00  0.00    -0.011 C  
HETATM    5  N   UNL     1     -11.632  14.877  70.346  1.00  0.00    -0.267 NA 
HETATM    6  H   UNL     1     -11.803  15.837  70.647  1.00  0.00     0.000 HD 
HETATM    7  C   UNL     1     -12.030  14.117  69.180  1.00  0.00    -0.349 C  
HETATM    8  C   UNL     1     -12.142  14.656  67.786  1.00  0.00    -0.176 C  
HETATM    9  N   UNL     1     -10.770  14.521  67.302  1.00  0.00    -0.283 NA 
HETATM   10  C   UNL     1     -10.220  13.267  66.904  1.00  0.00    -0.250 C  
HETATM   11  C   UNL     1      -8.885  13.307  67.012  1.00  0.00    -0.216 C  
HETATM   12  C   UNL     1      -8.059  12.142  66.715  1.00  0.00    -0.055 C  
HETATM   13  C   UNL     1      -8.472  14.540  67.759  1.00  0.00    -0.176 C  
HETATM   14  C   UNL     1      -8.826  10.978  66.128  1.00  0.00    -0.190 C  
HETATM   15  O   UNL     1      -6.871  12.074  67.000  1.00  0.00    -0.143 OA 
HETATM   16  O   UNL     1     -11.996  11.690  67.353  1.00  0.00    -0.621 OA 
HETATM   17  H2  UNL     1      -8.175  11.124  64.246  1.00  0.00     0.000 HD 
HETATM   18  N   UNL     1      -9.060  11.013  64.740  1.00  0.00    -0.313 NA 
HETATM   19  C   UNL     1      -9.847  10.727  66.966  1.00  0.00    -0.221 C  
HETATM   20  C   UNL     1     -10.821  11.876  67.069  1.00  0.00    -0.259 C  
HETATM   21  C   UNL     1     -10.254   9.325  67.279  1.00  0.00    -0.315 C  
HETATM   22  H1  UNL     1      -9.578  10.228  64.344  1.00  0.00     0.000 HD 
BRANCH  13  23
HETATM   23  C   UNL     1      -8.005  15.617  66.752  1.00  0.00    -0.211 C  
BRANCH  23  24
HETATM   24  O   UNL     1      -6.606  15.942  66.861  1.00  0.00    -0.282 OA 
BRANCH  24  25
HETATM   25  C   UNL     1      -6.310  17.265  66.794  1.00  0.00    -0.203 C  
HETATM   26  O   UNL     1      -5.568  17.788  65.971  1.00  0.00    -0.183 OA 
HETATM   27  N   UNL     1      -6.922  17.924  67.798  1.00  0.00    -0.196 N  
HETATM   28  H1  UNL     1      -6.700  18.918  67.747  1.00  0.00     0.000 HD 
HETATM   29  H2  UNL     1      -7.519  17.493  68.504  1.00  0.00     0.000 HD 
ENDBRANCH  24  25
ENDBRANCH  23  24
ENDBRANCH  13  23
ENDBRANCH   2   3
TORSDOF 4
ENDMDL
MODEL       96
REMARK 921   NORMALIZED FREE ENERGY PREDICTED BY IDOCK:   -4.10 KCAL/MOL
REMARK 922        TOTAL FREE ENERGY PREDICTED BY IDOCK:   -5.23 KCAL/MOL
REMARK 923 INTER-LIGAND FREE ENERGY PREDICTED BY IDOCK:   -5.01 KCAL/MOL
REMARK 924 INTRA-LIGAND FREE ENERGY PREDICTED BY IDOCK:   -0.22 KCAL/MOL
REMARK 927      BINDING AFFINITY PREDICTED BY RF-SCORE:    0.00 PKD
ROOT
HETATM    1  C   UNL     1      -7.091  18.727  66.779  1.00  0.00    -0.213 C  
HETATM    2  O   UNL     1      -7.861  18.031  67.776  1.00  0.00    -0.217 OA 
ENDROOT
BRANCH   2   3
HETATM    3  C   UNL     1      -7.667  16.618  67.699  1.00  0.00    -0.166 C  
HETATM    4  C   UNL     1      -6.137  16.342  67.631  1.00  0.00    -0.149 C  
HETATM    5  N   UNL     1      -5.153  17.259  68.240  1.00  0.00    -0.126 NA 
HETATM    6  H   UNL     1      -5.118  18.273  68.352  1.00  0.00     0.000 HD 
HETATM    7  C   UNL     1      -5.651  16.184  69.072  1.00  0.00    -0.114 C  
HETATM    8  C   UNL     1      -6.876  16.247  69.932  1.00  0.00     0.108 C  
HETATM    9  N   UNL     1      -7.927  15.885  68.984  1.00  0.00    -0.208 NA 
HETATM   10  C   UNL     1      -8.144  14.542  68.559  1.00  0.00    -0.148 C  
HETATM   11  C   UNL     1      -8.755  14.540  67.366  1.00  0.00    -0.210 C  
HETATM   12  C   UNL     1      -9.060  13.298  66.665  1.00  0.00    -0.171 C  
HETATM   13  C   UNL     1      -8.745  15.924  66.788  1.00  0.00    -0.303 C  
HETATM   14  C   UNL     1      -8.780  12.051  67.475  1.00  0.00    -0.166 C  
HETATM   15  O   UNL     1      -9.420  13.260  65.497  1.00  0.00    -0.011 OA 
HETATM   16  O   UNL     1      -6.389  13.297  69.662  1.00  0.00    -0.115 OA 
HETATM   17  H2  UNL     1     -10.668  11.540  67.878  1.00  0.00     0.000 HD 
HETATM   18  N   UNL     1      -9.783  11.645  68.375  1.00  0.00    -0.196 NA 
HETATM   19  C   UNL     1      -7.508  12.143  67.898  1.00  0.00    -0.117 C  
HETATM   20  C   UNL     1      -7.277  13.315  68.821  1.00  0.00    -0.088 C  
HETATM   21  C   UNL     1      -6.618  10.944  67.918  1.00  0.00    -0.063 C  
HETATM   22  H1  UNL     1      -9.595  10.804  68.921  1.00  0.00     0.000 HD 
BRANCH  13  23
HETATM   23  C   UNL     1     -10.123  16.587  67.025  1.00  0.00    -0.279 C  
BRANCH  23  24
HETATM   24  O   UNL     1     -11.207  15.926  66.346  1.00  0.00    -0.102 OA 
BRANCH  24  25
HETATM   25  C   UNL     1     -11.273  16.145  65.008  1.00  0.00    -0.220 C  
HETATM   26  O   UNL     1     -11.197  17.238  64.460  1.00  0.00    -1.083 OA 
HETATM   27  N   UNL     1     -11.478  14.980  64.361  1.00  0.00    -0.649 N  
HETATM   28  H1  UNL     1     -11.527  15.144  63.356  1.00  0.00     0.000 HD 
HETATM   29  H2  UNL     1     -11.571  14.068  64.810  1.00  0.00     0.000 HD 
ENDBRANCH  24  25
ENDBRANCH  23  24
ENDBRANCH  13  23
ENDBRANCH   2   3
TORSDOF 4
ENDMDL
MODEL       97
REMARK 921   NORMALIZED FREE ENERGY PREDICTED BY IDOCK:   -4.08 KCAL/MOL
REMARK 922        TOTAL FREE ENERGY PREDICTED BY IDOCK:   -5.20 KCAL/MOL
REMARK 923 INTER-LIGAND FREE ENERGY PREDICTED BY IDOCK:   -4.86 KCAL/MOL
REMARK 924 INTRA-LIGAND FREE ENERGY PREDICTED BY IDOCK:   -0.34 KCAL/MOL
REMARK 927      BINDING AFFINITY PREDICTED BY RF-SCORE:    0.00 PKD
ROOT
HETATM    1  C   UNL     1      -6.572  11.070  69.657  1.00  0.00    -0.132 C  
HETATM    2  O   UNL     1      -7.934  10.706  69.951  1.00  0.00    -0.026 OA 
ENDROOT
BRANCH   2   3
HETATM    3  C   UNL     1      -8.214   9.360  69.565  1.00  0.00    -0.124 C  
HETATM    4  C   UNL     1      -7.532   8.410  70.593  1.00  0.00    -0.065 C  
HETATM    5  N   UNL     1      -7.301   8.817  71.994  1.00  0.00    -0.298 NA 
HETATM    6  H   UNL     1      -7.067   9.708  72.434  1.00  0.00     0.000 HD 
HETATM    7  C   UNL     1      -8.553   8.153  71.703  1.00  0.00    -0.140 C  
HETATM    8  C   UNL     1      -9.817   8.831  71.268  1.00  0.00    -0.266 C  
HETATM    9  N   UNL     1      -9.627   8.922  69.823  1.00  0.00    -0.167 NA 
HETATM   10  C   UNL     1      -9.787   7.800  68.958  1.00  0.00    -0.169 C  
HETATM   11  C   UNL     1      -9.079   7.991  67.837  1.00  0.00    -0.134 C  
HETATM   12  C   UNL     1      -9.019   6.979  66.788  1.00  0.00    -0.132 C  
HETATM   13  C   UNL     1      -8.170   9.171  68.004  1.00  0.00    -0.112 C  
HETATM   14  C   UNL     1      -9.945   5.805  67.014  1.00  0.00    -0.165 C  
HETATM   15  O   UNL     1      -8.226   7.026  65.857  1.00  0.00    -0.119 OA 
HETATM   16  O   UNL     1     -10.273   5.974  70.467  1.00  0.00    -0.188 OA 
HETATM   17  H2  UNL     1     -11.312   6.244  65.627  1.00  0.00     0.000 HD 
HETATM   18  N   UNL     1     -11.283   5.969  66.609  1.00  0.00    -0.742 NA 
HETATM   19  C   UNL     1      -9.679   5.335  68.245  1.00  0.00    -0.185 C  
HETATM   20  C   UNL     1      -9.979   6.335  69.336  1.00  0.00    -0.159 C  
HETATM   21  C   UNL     1      -9.651   3.867  68.516  1.00  0.00    -0.179 C  
HETATM   22  H1  UNL     1     -11.908   5.177  66.761  1.00  0.00     0.000 HD 
BRANCH  13  23
HETATM   23  C   UNL     1      -8.801  10.407  67.320  1.00  0.00    -0.132 C  
BRANCH  23  24
HETATM   24  O   UNL     1     -10.175  10.213  66.932  1.00  0.00    -0.215 OA 
BRANCH  24  25
HETATM   25  C   UNL     1     -11.049  11.132  67.415  1.00  0.00    -0.307 C  
HETATM   26  O   UNL     1     -11.136  12.296  67.044  1.00  0.00    -0.258 OA 
HETATM   27  N   UNL     1     -11.789  10.588  68.403  1.00  0.00    -0.446 N  
HETATM   28  H1  UNL     1     -12.446  11.278  68.765  1.00  0.00     0.000 HD 
HETATM   29  H2  UNL     1     -11.704   9.628  68.737  1.00  0.00     0.000 HD 
ENDBRANCH  24  25
ENDBRANCH  23  24
ENDBRANCH  13  23
ENDBRANCH   2   3
TORSDOF 4
ENDMDL
MODEL       98
REMARK 921   NORMALIZED FREE ENERGY PREDICTED BY IDOCK:   -4.07 KCAL/MOL
REMARK 922        TOTAL FREE ENERGY PREDICTED BY IDOCK:   -5.19 KCAL/MOL
REMARK 923 INTER-LIGAND FREE ENERGY PREDICTED BY IDOCK:   -4.93 KCAL/MOL
REMARK 924 INTRA-LIGAND FREE ENERGY PREDICTED BY IDOCK:   -0.26 KCAL/MOL
REMARK 927      BINDING AFFINITY PREDICTED BY RF-SCORE:    0.00 PKD
ROOT
HETATM    1  C   UNL     1     -11.078   8.829  70.473  1.00  0.00    -0.246 C  
HETATM    2  O   UNL     1     -10.227   9.926  70.092  1.00  0.00    -0.254 OA 
ENDROOT
BRANCH   2   3
HETATM    3  C   UNL     1     -10.099  10.025  68.673  1.00  0.00    -0.172 C  
HETATM    4  C   UNL     1     -11.489  10.413  68.088  1.00  0.00    -0.118 C  
HETATM    5  N   UNL     1     -12.471  11.194  68.867  1.00  0.00    -0.566 NA 
HETATM    6  H   UNL     1     -12.710  11.227  69.858  1.00  0.00     0.000 HD 
HETATM    7  C   UNL     1     -11.540  11.941  68.045  1.00  0.00    -0.332 C  
HETATM    8  C   UNL     1     -10.186  12.414  68.476  1.00  0.00    -0.205 C  
HETATM    9  N   UNL     1      -9.358  11.242  68.200  1.00  0.00    -0.174 NA 
HETATM   10  C   UNL     1      -8.950  10.887  66.881  1.00  0.00    -0.151 C  
HETATM   11  C   UNL     1      -8.681   9.576  66.830  1.00  0.00    -0.136 C  
HETATM   12  C   UNL     1      -8.284   8.924  65.587  1.00  0.00    -0.125 C  
HETATM   13  C   UNL     1      -9.159   8.910  68.085  1.00  0.00    -0.142 C  
HETATM   14  C   UNL     1      -8.050   9.881  64.439  1.00  0.00    -0.157 C  
HETATM   15  O   UNL     1      -8.236   7.709  65.454  1.00  0.00    -0.126 OA 
HETATM   16  O   UNL     1     -10.025  12.540  65.481  1.00  0.00    -0.263 OA 
HETATM   17  H2  UNL     1      -6.057   9.780  64.382  1.00  0.00     0.000 HD 
HETATM   18  N   UNL     1      -6.784  10.494  64.378  1.00  0.00    -0.351 NA 
HETATM   19  C   UNL     1      -9.157  10.636  64.333  1.00  0.00    -0.240 C  
HETATM   20  C   UNL     1      -9.411  11.485  65.556  1.00  0.00    -0.212 C  
HETATM   21  C   UNL     1      -9.708  11.006  62.996  1.00  0.00    -0.381 C  
HETATM   22  H1  UNL     1      -6.626  11.140  63.603  1.00  0.00     0.000 HD 
BRANCH  13  23
HETATM   23  C   UNL     1      -7.960   8.694  69.040  1.00  0.00    -0.115 C  
BRANCH  23  24
HETATM   24  O   UNL     1      -7.544   7.318  69.141  1.00  0.00    -0.098 OA 
BRANCH  24  25
HETATM   25  C   UNL     1      -8.403   6.499  69.799  1.00  0.00    -0.127 C  
HETATM   26  O   UNL     1      -9.184   5.715  69.273  1.00  0.00    -0.115 OA 
HETATM   27  N   UNL     1      -8.305   6.701  71.129  1.00  0.00    -0.124 N  
HETATM   28  H1  UNL     1      -8.950   6.086  71.622  1.00  0.00     0.000 HD 
HETATM   29  H2  UNL     1      -7.677   7.371  71.574  1.00  0.00     0.000 HD 
ENDBRANCH  24  25
ENDBRANCH  23  24
ENDBRANCH  13  23
ENDBRANCH   2   3
TORSDOF 4
ENDMDL
MODEL       99
REMARK 921   NORMALIZED FREE ENERGY PREDICTED BY IDOCK:   -4.06 KCAL/MOL
REMARK 922        TOTAL FREE ENERGY PREDICTED BY IDOCK:   -5.18 KCAL/MOL
REMARK 923 INTER-LIGAND FREE ENERGY PREDICTED BY IDOCK:   -5.90 KCAL/MOL
REMARK 924 INTRA-LIGAND FREE ENERGY PREDICTED BY IDOCK:    0.72 KCAL/MOL
REMARK 927      BINDING AFFINITY PREDICTED BY RF-SCORE:    0.00 PKD
ROOT
HETATM    1  C   UNL     1     -10.869  16.477  64.860  1.00  0.00    -0.204 C  
HETATM    2  O   UNL     1     -11.485  15.841  65.995  1.00  0.00     0.027 OA 
ENDROOT
BRANCH   2   3
HETATM    3  C   UNL     1     -11.108  14.468  66.099  1.00  0.00    -0.334 C  
HETATM    4  C   UNL     1     -12.405  13.608  66.098  1.00  0.00    -0.426 C  
HETATM    5  N   UNL     1     -13.636  14.057  65.416  1.00  0.00    -0.348 NA 
HETATM    6  H   UNL     1     -14.062  14.973  65.275  1.00  0.00     0.000 HD 
HETATM    7  C   UNL     1     -12.707  13.265  64.638  1.00  0.00    -0.218 C  
HETATM    8  C   UNL     1     -11.560  13.804  63.839  1.00  0.00    -0.195 C  
HETATM    9  N   UNL     1     -10.507  13.893  64.848  1.00  0.00    -0.410 NA 
HETATM   10  C   UNL     1      -9.801  12.747  65.319  1.00  0.00    -0.101 C  
HETATM   11  C   UNL     1      -9.308  12.993  66.541  1.00  0.00    -0.220 C  
HETATM   12  C   UNL     1      -8.576  11.977  67.289  1.00  0.00    -0.177 C  
HETATM   13  C   UNL     1      -9.896  14.262  67.081  1.00  0.00    -0.252 C  
HETATM   14  C   UNL     1      -8.293  10.718  66.499  1.00  0.00    -0.146 C  
HETATM   15  O   UNL     1      -8.297  12.089  68.474  1.00  0.00    -0.153 OA 
HETATM   16  O   UNL     1     -10.854  10.905  64.162  1.00  0.00    -0.305 OA 
HETATM   17  H2  UNL     1      -6.338  10.996  66.205  1.00  0.00     0.000 HD 
HETATM   18  N   UNL     1      -7.162  10.740  65.661  1.00  0.00    -0.328 NA 
HETATM   19  C   UNL     1      -9.471  10.296  66.010  1.00  0.00    -0.234 C  
HETATM   20  C   UNL     1     -10.095  11.277  65.046  1.00  0.00    -0.279 C  
HETATM   21  C   UNL     1      -9.812   8.842  65.976  1.00  0.00    -0.277 C  
HETATM   22  H1  UNL     1      -6.971   9.891  65.128  1.00  0.00     0.000 HD 
BRANCH  13  23
HETATM   23  C   UNL     1      -8.883  15.416  66.897  1.00  0.00    -0.253 C  
BRANCH  23  24
HETATM   24  O   UNL     1      -8.601  16.137  68.112  1.00  0.00    -0.172 OA 
BRANCH  24  25
HETATM   25  C   UNL     1      -9.689  16.490  68.842  1.00  0.00    -0.257 C  
HETATM   26  O   UNL     1     -10.416  17.451  68.618  1.00  0.00    -0.352 OA 
HETATM   27  N   UNL     1      -9.835  15.650  69.887  1.00  0.00    -0.283 N  
HETATM   28  H1  UNL     1     -10.653  15.916  70.435  1.00  0.00     0.000 HD 
HETATM   29  H2  UNL     1      -9.219  14.865  70.097  1.00  0.00     0.000 HD 
ENDBRANCH  24  25
ENDBRANCH  23  24
ENDBRANCH  13  23
ENDBRANCH   2   3
TORSDOF 4
ENDMDL
MODEL      100
REMARK 921   NORMALIZED FREE ENERGY PREDICTED BY IDOCK:   -4.05 KCAL/MOL
REMARK 922        TOTAL FREE ENERGY PREDICTED BY IDOCK:   -5.17 KCAL/MOL
REMARK 923 INTER-LIGAND FREE ENERGY PREDICTED BY IDOCK:   -5.04 KCAL/MOL
REMARK 924 INTRA-LIGAND FREE ENERGY PREDICTED BY IDOCK:   -0.13 KCAL/MOL
REMARK 927      BINDING AFFINITY PREDICTED BY RF-SCORE:    0.00 PKD
ROOT
HETATM    1  C   UNL     1     -11.494   6.283  69.914  1.00  0.00    -0.389 C  
HETATM    2  O   UNL     1     -10.101   6.555  69.671  1.00  0.00    -0.174 OA 
ENDROOT
BRANCH   2   3
HETATM    3  C   UNL     1      -9.903   7.876  69.166  1.00  0.00    -0.174 C  
HETATM    4  C   UNL     1     -10.323   8.886  70.273  1.00  0.00    -0.206 C  
HETATM    5  N   UNL     1     -10.235   8.549  71.708  1.00  0.00    -0.254 NA 
HETATM    6  H   UNL     1     -10.371   7.684  72.233  1.00  0.00     0.000 HD 
HETATM    7  C   UNL     1      -9.074   9.173  71.108  1.00  0.00    -0.205 C  
HETATM    8  C   UNL     1      -7.949   8.450  70.433  1.00  0.00    -0.099 C  
HETATM    9  N   UNL     1      -8.464   8.296  69.075  1.00  0.00    -0.130 NA 
HETATM   10  C   UNL     1      -8.494   9.374  68.141  1.00  0.00    -0.120 C  
HETATM   11  C   UNL     1      -9.440   9.146  67.220  1.00  0.00    -0.187 C  
HETATM   12  C   UNL     1      -9.727  10.110  66.164  1.00  0.00    -0.218 C  
HETATM   13  C   UNL     1     -10.299   7.994  67.648  1.00  0.00    -0.312 C  
HETATM   14  C   UNL     1      -8.762  11.274  66.116  1.00  0.00    -0.179 C  
HETATM   15  O   UNL     1     -10.711  10.037  65.441  1.00  0.00     0.099 OA 
HETATM   16  O   UNL     1      -7.660  11.257  69.409  1.00  0.00    -0.072 OA 
HETATM   17  H2  UNL     1      -7.751  10.742  64.479  1.00  0.00     0.000 HD 
HETATM   18  N   UNL     1      -7.553  11.063  65.426  1.00  0.00    -0.358 NA 
HETATM   19  C   UNL     1      -8.737  11.805  67.350  1.00  0.00    -0.162 C  
HETATM   20  C   UNL     1      -8.206  10.850  68.393  1.00  0.00    -0.133 C  
HETATM   21  C   UNL     1      -8.688  13.284  67.548  1.00  0.00    -0.202 C  
HETATM   22  H1  UNL     1      -6.902  11.848  65.394  1.00  0.00     0.000 HD 
BRANCH  13  23
HETATM   23  C   UNL     1      -9.852   6.715  66.900  1.00  0.00    -0.171 C  
BRANCH  23  24
HETATM   24  O   UNL     1     -10.946   5.953  66.355  1.00  0.00    -0.189 OA 
BRANCH  24  25
HETATM   25  C   UNL     1     -10.625   4.707  65.922  1.00  0.00    -0.223 C  
HETATM   26  O   UNL     1      -9.903   3.912  66.512  1.00  0.00    -0.198 OA 
HETATM   27  N   UNL     1     -11.186   4.480  64.717  1.00  0.00    -0.783 N  
HETATM   28  H1  UNL     1     -10.946   3.544  64.393  1.00  0.00     0.000 HD 
HETATM   29  H2  UNL     1     -11.766   5.146  64.206  1.00  0.00     0.000 HD 
ENDBRANCH  24  25
ENDBRANCH  23  24
ENDBRANCH  13  23
ENDBRANCH   2   3
TORSDOF 4
ENDMDL
MODEL      101
REMARK 921   NORMALIZED FREE ENERGY PREDICTED BY IDOCK:   -4.04 KCAL/MOL
REMARK 922        TOTAL FREE ENERGY PREDICTED BY IDOCK:   -5.16 KCAL/MOL
REMARK 923 INTER-LIGAND FREE ENERGY PREDICTED BY IDOCK:   -5.00 KCAL/MOL
REMARK 924 INTRA-LIGAND FREE ENERGY PREDICTED BY IDOCK:   -0.16 KCAL/MOL
REMARK 927      BINDING AFFINITY PREDICTED BY RF-SCORE:    0.00 PKD
ROOT
HETATM    1  C   UNL     1      -7.395  15.087  67.344  1.00  0.00    -0.201 C  
HETATM    2  O   UNL     1      -7.785  14.083  68.299  1.00  0.00    -0.121 OA 
ENDROOT
BRANCH   2   3
HETATM    3  C   UNL     1      -7.853  12.787  67.703  1.00  0.00    -0.165 C  
HETATM    4  C   UNL     1      -6.407  12.351  67.327  1.00  0.00    -0.142 C  
HETATM    5  N   UNL     1      -5.229  12.835  68.074  1.00  0.00    -0.082 NA 
HETATM    6  H   UNL     1      -5.005  13.720  68.530  1.00  0.00     0.000 HD 
HETATM    7  C   UNL     1      -5.840  11.606  68.536  1.00  0.00    -0.049 C  
HETATM    8  C   UNL     1      -6.960  11.511  69.527  1.00  0.00    -0.034 C  
HETATM    9  N   UNL     1      -8.132  11.673  68.671  1.00  0.00    -0.144 NA 
HETATM   10  C   UNL     1      -8.619  10.625  67.835  1.00  0.00    -0.124 C  
HETATM   11  C   UNL     1      -9.316  11.148  66.818  1.00  0.00    -0.193 C  
HETATM   12  C   UNL     1      -9.894  10.307  65.775  1.00  0.00    -0.257 C  
HETATM   13  C   UNL     1      -9.109  12.632  66.769  1.00  0.00    -0.214 C  
HETATM   14  C   UNL     1      -9.776   8.824  66.046  1.00  0.00    -0.206 C  
HETATM   15  O   UNL     1     -10.350  10.754  64.731  1.00  0.00    -0.321 OA 
HETATM   16  O   UNL     1      -7.029   8.835  68.170  1.00  0.00    -0.072 OA 
HETATM   17  H2  UNL     1     -11.684   8.461  66.506  1.00  0.00     0.000 HD 
HETATM   18  N   UNL     1     -10.757   8.254  66.878  1.00  0.00    -0.351 NA 
HETATM   19  C   UNL     1      -8.477   8.579  66.290  1.00  0.00    -0.130 C  
HETATM   20  C   UNL     1      -7.965   9.283  67.524  1.00  0.00    -0.099 C  
HETATM   21  C   UNL     1      -7.815   7.349  65.760  1.00  0.00    -0.108 C  
HETATM   22  H1  UNL     1     -10.677   7.253  67.061  1.00  0.00     0.000 HD 
BRANCH  13  23
HETATM   23  C   UNL     1     -10.322  13.341  67.416  1.00  0.00    -0.243 C  
BRANCH  23  24
HETATM   24  O   UNL     1     -10.645  14.606  66.807  1.00  0.00    -0.281 OA 
BRANCH  24  25
HETATM   25  C   UNL     1     -11.441  14.534  65.710  1.00  0.00    -0.342 C  
HETATM   26  O   UNL     1     -12.550  14.015  65.667  1.00  0.00    -0.497 OA 
HETATM   27  N   UNL     1     -10.814  15.084  64.650  1.00  0.00    -0.625 N  
HETATM   28  H1  UNL     1     -11.412  15.030  63.826  1.00  0.00     0.000 HD 
HETATM   29  H2  UNL     1      -9.880  15.494  64.669  1.00  0.00     0.000 HD 
ENDBRANCH  24  25
ENDBRANCH  23  24
ENDBRANCH  13  23
ENDBRANCH   2   3
TORSDOF 4
ENDMDL
MODEL      102
REMARK 921   NORMALIZED FREE ENERGY PREDICTED BY IDOCK:   -4.03 KCAL/MOL
REMARK 922        TOTAL FREE ENERGY PREDICTED BY IDOCK:   -5.14 KCAL/MOL
REMARK 923 INTER-LIGAND FREE ENERGY PREDICTED BY IDOCK:   -5.67 KCAL/MOL
REMARK 924 INTRA-LIGAND FREE ENERGY PREDICTED BY IDOCK:    0.53 KCAL/MOL
REMARK 927      BINDING AFFINITY PREDICTED BY RF-SCORE:    0.00 PKD
ROOT
HETATM    1  C   UNL     1     -11.671   9.472  70.861  1.00  0.00    -0.317 C  
HETATM    2  O   UNL     1     -10.340  10.007  70.740  1.00  0.00    -0.223 OA 
ENDROOT
BRANCH   2   3
HETATM    3  C   UNL     1      -9.884   9.980  69.387  1.00  0.00    -0.224 C  
HETATM    4  C   UNL     1      -8.639   9.048  69.314  1.00  0.00    -0.136 C  
HETATM    5  N   UNL     1      -8.456   7.920  70.250  1.00  0.00    -0.127 NA 
HETATM    6  H   UNL     1      -8.690   7.783  71.234  1.00  0.00     0.000 HD 
HETATM    7  C   UNL     1      -9.157   7.640  69.015  1.00  0.00    -0.144 C  
HETATM    8  C   UNL     1     -10.634   7.779  68.803  1.00  0.00    -0.135 C  
HETATM    9  N   UNL     1     -10.756   9.192  68.453  1.00  0.00    -0.162 NA 
HETATM   10  C   UNL     1     -10.400   9.694  67.167  1.00  0.00    -0.254 C  
HETATM   11  C   UNL     1     -10.103  10.998  67.259  1.00  0.00    -0.222 C  
HETATM   12  C   UNL     1      -9.658  11.764  66.101  1.00  0.00    -0.232 C  
HETATM   13  C   UNL     1      -9.988  11.392  68.701  1.00  0.00    -0.209 C  
HETATM   14  C   UNL     1      -9.728  11.003  64.796  1.00  0.00    -0.262 C  
HETATM   15  O   UNL     1      -9.181  12.888  66.186  1.00  0.00    -0.154 OA 
HETATM   16  O   UNL     1      -9.549   7.752  66.005  1.00  0.00    -0.087 OA 
HETATM   17  H2  UNL     1     -11.307  11.934  64.004  1.00  0.00     0.000 HD 
HETATM   18  N   UNL     1     -10.977  10.980  64.146  1.00  0.00    -0.394 NA 
HETATM   19  C   UNL     1      -9.057   9.854  64.983  1.00  0.00    -0.264 C  
HETATM   20  C   UNL     1      -9.686   8.968  66.032  1.00  0.00    -0.269 C  
HETATM   21  C   UNL     1      -8.179   9.296  63.913  1.00  0.00    -0.165 C  
HETATM   22  H1  UNL     1     -11.024  10.466  63.266  1.00  0.00     0.000 HD 
BRANCH  13  23
HETATM   23  C   UNL     1     -11.296  12.086  69.150  1.00  0.00    -0.281 C  
BRANCH  23  24
HETATM   24  O   UNL     1     -11.172  13.513  69.296  1.00  0.00    -0.261 OA 
BRANCH  24  25
HETATM   25  C   UNL     1     -12.138  14.245  68.684  1.00  0.00    -0.260 C  
HETATM   26  O   UNL     1     -12.382  14.241  67.484  1.00  0.00    -0.287 OA 
HETATM   27  N   UNL     1     -12.772  15.018  69.589  1.00  0.00    -0.599 N  
HETATM   28  H1  UNL     1     -13.498  15.567  69.130  1.00  0.00     0.000 HD 
HETATM   29  H2  UNL     1     -12.557  15.048  70.587  1.00  0.00     0.000 HD 
ENDBRANCH  24  25
ENDBRANCH  23  24
ENDBRANCH  13  23
ENDBRANCH   2   3
TORSDOF 4
ENDMDL
MODEL      103
REMARK 921   NORMALIZED FREE ENERGY PREDICTED BY IDOCK:   -4.01 KCAL/MOL
REMARK 922        TOTAL FREE ENERGY PREDICTED BY IDOCK:   -5.12 KCAL/MOL
REMARK 923 INTER-LIGAND FREE ENERGY PREDICTED BY IDOCK:   -4.83 KCAL/MOL
REMARK 924 INTRA-LIGAND FREE ENERGY PREDICTED BY IDOCK:   -0.29 KCAL/MOL
REMARK 927      BINDING AFFINITY PREDICTED BY RF-SCORE:    0.00 PKD
ROOT
HETATM    1  C   UNL     1      -9.767   4.784  67.904  1.00  0.00    -0.149 C  
HETATM    2  O   UNL     1      -9.034   5.852  68.530  1.00  0.00    -0.114 OA 
ENDROOT
BRANCH   2   3
HETATM    3  C   UNL     1      -9.537   7.132  68.146  1.00  0.00    -0.131 C  
HETATM    4  C   UNL     1     -10.989   7.265  68.694  1.00  0.00     0.014 C  
HETATM    5  N   UNL     1     -11.429   6.557  69.913  1.00  0.00    -0.511 NA 
HETATM    6  H   UNL     1     -11.199   5.647  70.314  1.00  0.00     0.000 HD 
HETATM    7  C   UNL     1     -10.881   7.886  70.087  1.00  0.00    -0.243 C  
HETATM    8  C   UNL     1      -9.432   8.210  70.286  1.00  0.00    -0.170 C  
HETATM    9  N   UNL     1      -8.950   8.285  68.909  1.00  0.00    -0.144 NA 
HETATM   10  C   UNL     1      -9.212   9.405  68.067  1.00  0.00    -0.130 C  
HETATM   11  C   UNL     1      -9.143   9.029  66.783  1.00  0.00    -0.178 C  
HETATM   12  C   UNL     1      -9.414   9.964  65.697  1.00  0.00    -0.235 C  
HETATM   13  C   UNL     1      -9.087   7.533  66.694  1.00  0.00    -0.189 C  
HETATM   14  C   UNL     1      -9.606  11.394  66.150  1.00  0.00    -0.218 C  
HETATM   15  O   UNL     1      -9.567   9.613  64.535  1.00  0.00    -0.224 OA 
HETATM   16  O   UNL     1     -10.602  10.839  69.431  1.00  0.00    -0.219 OA 
HETATM   17  H2  UNL     1      -7.870  12.137  65.502  1.00  0.00     0.000 HD 
HETATM   18  N   UNL     1      -8.438  12.155  66.349  1.00  0.00    -0.396 NA 
HETATM   19  C   UNL     1     -10.553  11.372  67.104  1.00  0.00    -0.279 C  
HETATM   20  C   UNL     1     -10.141  10.585  68.326  1.00  0.00    -0.160 C  
HETATM   21  C   UNL     1     -11.594  12.440  67.176  1.00  0.00    -0.435 C  
HETATM   22  H1  UNL     1      -8.568  13.119  66.655  1.00  0.00     0.000 HD 
BRANCH  13  23
HETATM   23  C   UNL     1      -7.623   7.087  66.469  1.00  0.00    -0.089 C  
BRANCH  23  24
HETATM   24  O   UNL     1      -7.488   5.996  65.538  1.00  0.00    -0.077 OA 
BRANCH  24  25
HETATM   25  C   UNL     1      -8.002   6.221  64.302  1.00  0.00    -0.108 C  
HETATM   26  O   UNL     1      -7.636   7.096  63.526  1.00  0.00    -0.096 OA 
HETATM   27  N   UNL     1      -9.014   5.362  64.061  1.00  0.00    -0.347 N  
HETATM   28  H1  UNL     1      -9.400   5.531  63.133  1.00  0.00     0.000 HD 
HETATM   29  H2  UNL     1      -9.344   4.649  64.712  1.00  0.00     0.000 HD 
ENDBRANCH  24  25
ENDBRANCH  23  24
ENDBRANCH  13  23
ENDBRANCH   2   3
TORSDOF 4
ENDMDL
MODEL      104
REMARK 921   NORMALIZED FREE ENERGY PREDICTED BY IDOCK:   -3.99 KCAL/MOL
REMARK 922        TOTAL FREE ENERGY PREDICTED BY IDOCK:   -5.10 KCAL/MOL
REMARK 923 INTER-LIGAND FREE ENERGY PREDICTED BY IDOCK:   -4.96 KCAL/MOL
REMARK 924 INTRA-LIGAND FREE ENERGY PREDICTED BY IDOCK:   -0.14 KCAL/MOL
REMARK 927      BINDING AFFINITY PREDICTED BY RF-SCORE:    0.00 PKD
ROOT
HETATM    1  C   UNL     1     -11.246  12.001  67.154  1.00  0.00    -0.316 C  
HETATM    2  O   UNL     1      -9.865  11.600  67.219  1.00  0.00    -0.186 OA 
ENDROOT
BRANCH   2   3
HETATM    3  C   UNL     1      -9.673  10.285  66.696  1.00  0.00    -0.185 C  
HETATM    4  C   UNL     1      -9.763  10.364  65.144  1.00  0.00    -0.291 C  
HETATM    5  N   UNL     1      -9.395  11.589  64.405  1.00  0.00    -0.420 NA 
HETATM    6  H   UNL     1      -9.485  12.584  64.612  1.00  0.00     0.000 HD 
HETATM    7  C   UNL     1      -8.344  10.619  64.631  1.00  0.00    -0.056 C  
HETATM    8  C   UNL     1      -7.453  10.568  65.834  1.00  0.00    -0.147 C  
HETATM    9  N   UNL     1      -8.258   9.787  66.770  1.00  0.00    -0.119 NA 
HETATM   10  C   UNL     1      -8.400   8.373  66.662  1.00  0.00    -0.110 C  
HETATM   11  C   UNL     1      -9.537   7.988  67.258  1.00  0.00    -0.210 C  
HETATM   12  C   UNL     1      -9.965   6.594  67.260  1.00  0.00    -0.154 C  
HETATM   13  C   UNL     1     -10.375   9.189  67.579  1.00  0.00    -0.324 C  
HETATM   14  C   UNL     1      -8.942   5.636  66.690  1.00  0.00    -0.120 C  
HETATM   15  O   UNL     1     -11.084   6.237  67.603  1.00  0.00    -0.341 OA 
HETATM   16  O   UNL     1      -7.164   7.821  64.659  1.00  0.00    -0.065 OA 
HETATM   17  H2  UNL     1      -8.352   4.793  68.401  1.00  0.00     0.000 HD 
HETATM   18  N   UNL     1      -7.930   5.199  67.566  1.00  0.00    -0.099 NA 
HETATM   19  C   UNL     1      -8.610   6.105  65.475  1.00  0.00    -0.133 C  
HETATM   20  C   UNL     1      -7.947   7.461  65.528  1.00  0.00    -0.122 C  
HETATM   21  C   UNL     1      -8.400   5.176  64.326  1.00  0.00    -0.137 C  
HETATM   22  H1  UNL     1      -7.240   4.553  67.182  1.00  0.00     0.000 HD 
BRANCH  13  23
HETATM   23  C   UNL     1     -10.204   9.549  69.074  1.00  0.00    -0.200 C  
BRANCH  23  24
HETATM   24  O   UNL     1     -10.716   8.544  69.972  1.00  0.00    -0.229 OA 
BRANCH  24  25
HETATM   25  C   UNL     1     -11.177   9.010  71.160  1.00  0.00    -0.305 C  
HETATM   26  O   UNL     1     -10.970   8.498  72.254  1.00  0.00    -0.338 OA 
HETATM   27  N   UNL     1     -11.938  10.104  70.962  1.00  0.00    -0.348 N  
HETATM   28  H1  UNL     1     -12.284  10.454  71.855  1.00  0.00     0.000 HD 
HETATM   29  H2  UNL     1     -12.139  10.522  70.053  1.00  0.00     0.000 HD 
ENDBRANCH  24  25
ENDBRANCH  23  24
ENDBRANCH  13  23
ENDBRANCH   2   3
TORSDOF 4
ENDMDL
MODEL      105
REMARK 921   NORMALIZED FREE ENERGY PREDICTED BY IDOCK:   -3.96 KCAL/MOL
REMARK 922        TOTAL FREE ENERGY PREDICTED BY IDOCK:   -5.05 KCAL/MOL
REMARK 923 INTER-LIGAND FREE ENERGY PREDICTED BY IDOCK:   -4.93 KCAL/MOL
REMARK 924 INTRA-LIGAND FREE ENERGY PREDICTED BY IDOCK:   -0.12 KCAL/MOL
REMARK 927      BINDING AFFINITY PREDICTED BY RF-SCORE:    0.00 PKD
ROOT
HETATM    1  C   UNL     1     -12.992  15.598  71.286  1.00  0.00    -0.492 C  
HETATM    2  O   UNL     1     -11.590  15.597  70.957  1.00  0.00    -0.319 OA 
ENDROOT
BRANCH   2   3
HETATM    3  C   UNL     1     -11.356  15.071  69.650  1.00  0.00    -0.286 C  
HETATM    4  C   UNL     1     -11.445  16.245  68.632  1.00  0.00    -0.288 C  
HETATM    5  N   UNL     1     -11.115  17.633  69.015  1.00  0.00    -0.004 NA 
HETATM    6  H   UNL     1     -11.237  18.169  69.874  1.00  0.00     0.000 HD 
HETATM    7  C   UNL     1     -10.035  16.821  68.496  1.00  0.00    -0.271 C  
HETATM    8  C   UNL     1      -9.144  15.934  69.312  1.00  0.00    -0.253 C  
HETATM    9  N   UNL     1      -9.926  14.702  69.376  1.00  0.00    -0.093 NA 
HETATM   10  C   UNL     1     -10.024  13.799  68.277  1.00  0.00    -0.243 C  
HETATM   11  C   UNL     1     -11.149  13.080  68.383  1.00  0.00    -0.292 C  
HETATM   12  C   UNL     1     -11.533  12.106  67.367  1.00  0.00    -0.345 C  
HETATM   13  C   UNL     1     -12.025  13.661  69.453  1.00  0.00    -0.394 C  
HETATM   14  C   UNL     1     -10.479  11.877  66.306  1.00  0.00    -0.239 C  
HETATM   15  O   UNL     1     -12.641  11.589  67.320  1.00  0.00     0.836 OA 
HETATM   16  O   UNL     1      -8.767  14.890  66.523  1.00  0.00    -0.254 OA 
HETATM   17  H2  UNL     1      -9.866  10.070  66.894  1.00  0.00     0.000 HD 
HETATM   18  N   UNL     1      -9.456  10.963  66.621  1.00  0.00    -0.176 NA 
HETATM   19  C   UNL     1     -10.159  13.086  65.813  1.00  0.00    -0.294 C  
HETATM   20  C   UNL     1      -9.540  13.998  66.845  1.00  0.00    -0.271 C  
HETATM   21  C   UNL     1      -9.918  13.279  64.352  1.00  0.00    -0.040 C  
HETATM   22  H1  UNL     1      -8.745  10.809  65.905  1.00  0.00     0.000 HD 
BRANCH  13  23
HETATM   23  C   UNL     1     -11.868  12.832  70.750  1.00  0.00     0.211 C  
BRANCH  23  24
HETATM   24  O   UNL     1     -12.735  11.683  70.809  1.00  0.00    -0.285 OA 
BRANCH  24  25
HETATM   25  C   UNL     1     -12.162  10.548  71.283  1.00  0.00    -0.368 C  
HETATM   26  O   UNL     1     -12.640   9.813  72.139  1.00  0.00    -0.358 OA 
HETATM   27  N   UNL     1     -10.959  10.363  70.703  1.00  0.00    -0.414 N  
HETATM   28  H1  UNL     1     -10.529   9.510  71.059  1.00  0.00     0.000 HD 
HETATM   29  H2  UNL     1     -10.541  10.984  70.010  1.00  0.00     0.000 HD 
ENDBRANCH  24  25
ENDBRANCH  23  24
ENDBRANCH  13  23
ENDBRANCH   2   3
TORSDOF 4
ENDMDL
MODEL      106
REMARK 921   NORMALIZED FREE ENERGY PREDICTED BY IDOCK:   -3.95 KCAL/MOL
REMARK 922        TOTAL FREE ENERGY PREDICTED BY IDOCK:   -5.05 KCAL/MOL
REMARK 923 INTER-LIGAND FREE ENERGY PREDICTED BY IDOCK:   -4.95 KCAL/MOL
REMARK 924 INTRA-LIGAND FREE ENERGY PREDICTED BY IDOCK:   -0.09 KCAL/MOL
REMARK 927      BINDING AFFINITY PREDICTED BY RF-SCORE:    0.00 PKD
ROOT
HETATM    1  C   UNL     1      -6.105   8.418  68.620  1.00  0.00    -0.045 C  
HETATM    2  O   UNL     1      -7.373   8.137  68.001  1.00  0.00    -0.092 OA 
ENDROOT
BRANCH   2   3
HETATM    3  C   UNL     1      -7.936   9.304  67.400  1.00  0.00    -0.106 C  
HETATM    4  C   UNL     1      -7.029   9.718  66.205  1.00  0.00    -0.095 C  
HETATM    5  N   UNL     1      -6.231   8.728  65.454  1.00  0.00    -0.058 NA 
HETATM    6  H   UNL     1      -5.743   7.873  65.723  1.00  0.00     0.000 HD 
HETATM    7  C   UNL     1      -7.568   8.996  64.968  1.00  0.00    -0.103 C  
HETATM    8  C   UNL     1      -8.813   8.289  65.411  1.00  0.00    -0.073 C  
HETATM    9  N   UNL     1      -9.183   9.050  66.602  1.00  0.00    -0.157 NA 
HETATM   10  C   UNL     1      -9.793  10.337  66.528  1.00  0.00    -0.212 C  
HETATM   11  C   UNL     1      -9.554  11.015  67.658  1.00  0.00    -0.181 C  
HETATM   12  C   UNL     1     -10.020  12.384  67.842  1.00  0.00    -0.204 C  
HETATM   13  C   UNL     1      -8.518  10.298  68.471  1.00  0.00    -0.121 C  
HETATM   14  C   UNL     1     -10.920  12.881  66.732  1.00  0.00    -0.272 C  
HETATM   15  O   UNL     1      -9.646  13.102  68.760  1.00  0.00    -0.078 OA 
HETATM   16  O   UNL     1      -9.873  10.801  64.156  1.00  0.00    -0.270 OA 
HETATM   17  H2  UNL     1     -12.653  12.835  67.722  1.00  0.00     0.000 HD 
HETATM   18  N   UNL     1     -12.282  12.536  66.820  1.00  0.00    -0.481 NA 
HETATM   19  C   UNL     1     -10.258  12.678  65.579  1.00  0.00    -0.298 C  
HETATM   20  C   UNL     1      -9.997  11.217  65.299  1.00  0.00    -0.253 C  
HETATM   21  C   UNL     1     -10.301  13.689  64.482  1.00  0.00    -0.355 C  
HETATM   22  H1  UNL     1     -12.888  12.871  66.071  1.00  0.00     0.000 HD 
BRANCH  13  23
HETATM   23  C   UNL     1      -9.213   9.493  69.594  1.00  0.00    -0.200 C  
BRANCH  23  24
HETATM   24  O   UNL     1     -10.507  10.011  69.959  1.00  0.00    -0.256 OA 
BRANCH  24  25
HETATM   25  C   UNL     1     -11.022   9.522  71.116  1.00  0.00    -0.368 C  
HETATM   26  O   UNL     1     -12.177   9.669  71.500  1.00  0.00    -0.347 OA 
HETATM   27  N   UNL     1     -10.063   8.879  71.812  1.00  0.00    -0.328 N  
HETATM   28  H1  UNL     1     -10.450   8.512  72.680  1.00  0.00     0.000 HD 
HETATM   29  H2  UNL     1      -9.092   8.776  71.513  1.00  0.00     0.000 HD 
ENDBRANCH  24  25
ENDBRANCH  23  24
ENDBRANCH  13  23
ENDBRANCH   2   3
TORSDOF 4
ENDMDL
MODEL      107
REMARK 921   NORMALIZED FREE ENERGY PREDICTED BY IDOCK:   -3.95 KCAL/MOL
REMARK 922        TOTAL FREE ENERGY PREDICTED BY IDOCK:   -5.04 KCAL/MOL
REMARK 923 INTER-LIGAND FREE ENERGY PREDICTED BY IDOCK:   -4.84 KCAL/MOL
REMARK 924 INTRA-LIGAND FREE ENERGY PREDICTED BY IDOCK:   -0.20 KCAL/MOL
REMARK 927      BINDING AFFINITY PREDICTED BY RF-SCORE:    0.00 PKD
ROOT
HETATM    1  C   UNL     1     -11.815  12.730  68.436  1.00  0.00    -0.310 C  
HETATM    2  O   UNL     1     -12.518  11.512  68.741  1.00  0.00    -0.331 OA 
ENDROOT
BRANCH   2   3
HETATM    3  C   UNL     1     -11.815  10.725  69.704  1.00  0.00    -0.320 C  
HETATM    4  C   UNL     1     -11.824  11.495  71.057  1.00  0.00     0.214 C  
HETATM    5  N   UNL     1     -12.913  12.427  71.415  1.00  0.00    -0.321 NA 
HETATM    6  H   UNL     1     -13.490  13.070  70.872  1.00  0.00     0.000 HD 
HETATM    7  C   UNL     1     -13.074  11.044  71.814  1.00  0.00    -0.449 C  
HETATM    8  C   UNL     1     -13.697   9.965  70.982  1.00  0.00     0.012 C  
HETATM    9  N   UNL     1     -12.562   9.513  70.180  1.00  0.00     0.365 NA 
HETATM   10  C   UNL     1     -11.534   8.680  70.711  1.00  0.00    -0.259 C  
HETATM   11  C   UNL     1     -10.412   8.840  69.998  1.00  0.00    -0.222 C  
HETATM   12  C   UNL     1      -9.179   8.143  70.346  1.00  0.00    -0.151 C  
HETATM   13  C   UNL     1     -10.554  10.019  69.083  1.00  0.00    -0.240 C  
HETATM   14  C   UNL     1      -9.340   7.125  71.453  1.00  0.00    -0.154 C  
HETATM   15  O   UNL     1      -8.092   8.419  69.856  1.00  0.00    -0.113 OA 
HETATM   16  O   UNL     1     -12.145   8.423  73.037  1.00  0.00    -0.235 OA 
HETATM   17  H2  UNL     1      -9.209   5.470  70.345  1.00  0.00     0.000 HD 
HETATM   18  N   UNL     1      -9.808   5.852  71.077  1.00  0.00    -0.178 NA 
HETATM   19  C   UNL     1      -9.917   7.765  72.485  1.00  0.00    -0.284 C  
HETATM   20  C   UNL     1     -11.303   8.273  72.162  1.00  0.00    -0.352 C  
HETATM   21  C   UNL     1      -9.490   7.498  73.890  1.00  0.00    -0.286 C  
HETATM   22  H1  UNL     1      -9.917   5.166  71.825  1.00  0.00     0.000 HD 
BRANCH  13  23
HETATM   23  C   UNL     1     -10.894   9.524  67.657  1.00  0.00    -0.187 C  
BRANCH  23  24
HETATM   24  O   UNL     1      -9.833   8.769  67.040  1.00  0.00    -0.177 OA 
BRANCH  24  25
HETATM   25  C   UNL     1     -10.097   7.451  66.847  1.00  0.00    -0.257 C  
HETATM   26  O   UNL     1     -11.085   6.855  67.257  1.00  0.00    -0.339 OA 
HETATM   27  N   UNL     1      -9.085   6.875  66.167  1.00  0.00    -0.264 N  
HETATM   28  H1  UNL     1      -9.283   5.885  66.022  1.00  0.00     0.000 HD 
HETATM   29  H2  UNL     1      -8.245   7.357  65.846  1.00  0.00     0.000 HD 
ENDBRANCH  24  25
ENDBRANCH  23  24
ENDBRANCH  13  23
ENDBRANCH   2   3
TORSDOF 4
ENDMDL
MODEL      108
REMARK 921   NORMALIZED FREE ENERGY PREDICTED BY IDOCK:   -3.94 KCAL/MOL
REMARK 922        TOTAL FREE ENERGY PREDICTED BY IDOCK:   -5.03 KCAL/MOL
REMARK 923 INTER-LIGAND FREE ENERGY PREDICTED BY IDOCK:   -5.56 KCAL/MOL
REMARK 924 INTRA-LIGAND FREE ENERGY PREDICTED BY IDOCK:    0.53 KCAL/MOL
REMARK 927      BINDING AFFINITY PREDICTED BY RF-SCORE:    0.00 PKD
ROOT
HETATM    1  C   UNL     1      -6.391  15.868  68.277  1.00  0.00    -0.117 C  
HETATM    2  O   UNL     1      -7.650  15.857  68.974  1.00  0.00    -0.173 OA 
ENDROOT
BRANCH   2   3
HETATM    3  C   UNL     1      -8.712  15.403  68.135  1.00  0.00    -0.161 C  
HETATM    4  C   UNL     1      -9.856  16.457  68.187  1.00  0.00    -0.238 C  
HETATM    5  N   UNL     1      -9.585  17.886  68.445  1.00  0.00    -0.307 NA 
HETATM    6  H   UNL     1      -8.902  18.376  69.024  1.00  0.00     0.000 HD 
HETATM    7  C   UNL     1      -9.588  17.458  67.062  1.00  0.00    -0.273 C  
HETATM    8  C   UNL     1      -8.402  16.931  66.312  1.00  0.00    -0.296 C  
HETATM    9  N   UNL     1      -8.432  15.513  66.663  1.00  0.00    -0.275 NA 
HETATM   10  C   UNL     1      -9.360  14.600  66.082  1.00  0.00    -0.230 C  
HETATM   11  C   UNL     1      -9.539  13.556  66.903  1.00  0.00    -0.258 C  
HETATM   12  C   UNL     1     -10.476  12.485  66.584  1.00  0.00    -0.233 C  
HETATM   13  C   UNL     1      -8.922  13.847  68.238  1.00  0.00    -0.187 C  
HETATM   14  C   UNL     1     -11.074  12.584  65.198  1.00  0.00    -0.299 C  
HETATM   15  O   UNL     1     -10.820  11.634  67.393  1.00  0.00    -0.224 OA 
HETATM   16  O   UNL     1     -10.722  15.996  64.652  1.00  0.00    -0.601 OA 
HETATM   17  H2  UNL     1     -10.064  11.091  64.340  1.00  0.00     0.000 HD 
HETATM   18  N   UNL     1     -10.307  12.062  64.140  1.00  0.00    -0.319 NA 
HETATM   19  C   UNL     1     -11.597  13.818  65.091  1.00  0.00    -0.341 C  
HETATM   20  C   UNL     1     -10.557  14.909  65.190  1.00  0.00    -0.428 C  
HETATM   21  C   UNL     1     -12.902  14.042  64.401  1.00  0.00     0.156 C  
HETATM   22  H1  UNL     1     -10.711  12.129  63.205  1.00  0.00     0.000 HD 
BRANCH  13  23
HETATM   23  C   UNL     1      -7.545  13.148  68.330  1.00  0.00    -0.139 C  
BRANCH  23  24
HETATM   24  O   UNL     1      -7.505  11.863  67.680  1.00  0.00    -0.110 OA 
BRANCH  24  25
HETATM   25  C   UNL     1      -7.563  10.792  68.511  1.00  0.00    -0.104 C  
HETATM   26  O   UNL     1      -8.058   9.704  68.237  1.00  0.00    -0.103 OA 
HETATM   27  N   UNL     1      -7.032  11.108  69.709  1.00  0.00    -0.302 N  
HETATM   28  H1  UNL     1      -7.076  10.303  70.332  1.00  0.00     0.000 HD 
HETATM   29  H2  UNL     1      -6.643  12.019  69.955  1.00  0.00     0.000 HD 
ENDBRANCH  24  25
ENDBRANCH  23  24
ENDBRANCH  13  23
ENDBRANCH   2   3
TORSDOF 4
ENDMDL
MODEL      109
REMARK 921   NORMALIZED FREE ENERGY PREDICTED BY IDOCK:   -3.93 KCAL/MOL
REMARK 922        TOTAL FREE ENERGY PREDICTED BY IDOCK:   -5.02 KCAL/MOL
REMARK 923 INTER-LIGAND FREE ENERGY PREDICTED BY IDOCK:   -4.73 KCAL/MOL
REMARK 924 INTRA-LIGAND FREE ENERGY PREDICTED BY IDOCK:   -0.29 KCAL/MOL
REMARK 927      BINDING AFFINITY PREDICTED BY RF-SCORE:    0.00 PKD
ROOT
HETATM    1  C   UNL     1      -6.561   4.875  69.038  1.00  0.00    -0.045 C  
HETATM    2  O   UNL     1      -7.942   4.979  68.646  1.00  0.00    -0.084 OA 
ENDROOT
BRANCH   2   3
HETATM    3  C   UNL     1      -8.408   6.327  68.712  1.00  0.00    -0.120 C  
HETATM    4  C   UNL     1      -7.643   7.157  67.640  1.00  0.00    -0.110 C  
HETATM    5  N   UNL     1      -7.127   6.540  66.401  1.00  0.00    -0.066 NA 
HETATM    6  H   UNL     1      -6.738   5.621  66.186  1.00  0.00     0.000 HD 
HETATM    7  C   UNL     1      -8.467   7.086  66.353  1.00  0.00    -0.130 C  
HETATM    8  C   UNL     1      -9.721   6.345  66.705  1.00  0.00    -0.153 C  
HETATM    9  N   UNL     1      -9.786   6.535  68.151  1.00  0.00    -0.129 NA 
HETATM   10  C   UNL     1     -10.200   7.764  68.744  1.00  0.00    -0.201 C  
HETATM   11  C   UNL     1      -9.691   7.863  69.979  1.00  0.00    -0.179 C  
HETATM   12  C   UNL     1      -9.913   9.044  70.805  1.00  0.00    -0.245 C  
HETATM   13  C   UNL     1      -8.663   6.793  70.192  1.00  0.00    -0.141 C  
HETATM   14  C   UNL     1     -10.887  10.037  70.210  1.00  0.00    -0.313 C  
HETATM   15  O   UNL     1      -9.300   9.261  71.841  1.00  0.00    -0.299 OA 
HETATM   16  O   UNL     1     -10.572   9.220  66.849  1.00  0.00    -0.236 OA 
HETATM   17  H2  UNL     1     -12.435   9.684  71.420  1.00  0.00     0.000 HD 
HETATM   18  N   UNL     1     -12.255   9.783  70.421  1.00  0.00    -0.470 NA 
HETATM   19  C   UNL     1     -10.448  10.311  68.969  1.00  0.00    -0.238 C  
HETATM   20  C   UNL     1     -10.454   9.104  68.061  1.00  0.00    -0.224 C  
HETATM   21  C   UNL     1     -10.505  11.700  68.424  1.00  0.00    -0.230 C  
HETATM   22  H1  UNL     1     -12.912  10.453  70.019  1.00  0.00     0.000 HD 
BRANCH  13  23
HETATM   23  C   UNL     1      -9.292   5.630  70.995  1.00  0.00    -0.153 C  
BRANCH  23  24
HETATM   24  O   UNL     1      -9.279   5.839  72.421  1.00  0.00    -0.144 OA 
BRANCH  24  25
HETATM   25  C   UNL     1     -10.496   6.030  72.990  1.00  0.00    -0.224 C  
HETATM   26  O   UNL     1     -10.856   7.042  73.579  1.00  0.00    -0.341 OA 
HETATM   27  N   UNL     1     -11.249   4.920  72.850  1.00  0.00    -0.258 N  
HETATM   28  H1  UNL     1     -12.163   5.064  73.278  1.00  0.00     0.000 HD 
HETATM   29  H2  UNL     1     -10.948   4.063  72.385  1.00  0.00     0.000 HD 
ENDBRANCH  24  25
ENDBRANCH  23  24
ENDBRANCH  13  23
ENDBRANCH   2   3
TORSDOF 4
ENDMDL
MODEL      110
REMARK 921   NORMALIZED FREE ENERGY PREDICTED BY IDOCK:   -3.91 KCAL/MOL
REMARK 922        TOTAL FREE ENERGY PREDICTED BY IDOCK:   -4.99 KCAL/MOL
REMARK 923 INTER-LIGAND FREE ENERGY PREDICTED BY IDOCK:   -5.55 KCAL/MOL
REMARK 924 INTRA-LIGAND FREE ENERGY PREDICTED BY IDOCK:    0.56 KCAL/MOL
REMARK 927      BINDING AFFINITY PREDICTED BY RF-SCORE:    0.00 PKD
ROOT
HETATM    1  C   UNL     1     -10.202   5.336  71.646  1.00  0.00    -0.212 C  
HETATM    2  O   UNL     1      -9.002   6.113  71.475  1.00  0.00    -0.142 OA 
ENDROOT
BRANCH   2   3
HETATM    3  C   UNL     1      -9.057   6.913  70.293  1.00  0.00    -0.153 C  
HETATM    4  C   UNL     1      -8.056   6.320  69.259  1.00  0.00    -0.110 C  
HETATM    5  N   UNL     1      -7.711   4.883  69.247  1.00  0.00    -0.074 NA 
HETATM    6  H   UNL     1      -7.602   4.184  69.981  1.00  0.00     0.000 HD 
HETATM    7  C   UNL     1      -8.833   5.296  68.429  1.00  0.00    -0.101 C  
HETATM    8  C   UNL     1     -10.256   5.385  68.886  1.00  0.00    -0.196 C  
HETATM    9  N   UNL     1     -10.300   6.723  69.472  1.00  0.00    -0.193 NA 
HETATM   10  C   UNL     1     -10.353   7.905  68.676  1.00  0.00    -0.201 C  
HETATM   11  C   UNL     1      -9.869   8.940  69.375  1.00  0.00    -0.183 C  
HETATM   12  C   UNL     1      -9.758  10.272  68.791  1.00  0.00    -0.177 C  
HETATM   13  C   UNL     1      -9.203   8.444  70.623  1.00  0.00    -0.177 C  
HETATM   14  C   UNL     1     -10.385  10.396  67.420  1.00  0.00    -0.228 C  
HETATM   15  O   UNL     1      -9.134  11.184  69.317  1.00  0.00    -0.009 OA 
HETATM   16  O   UNL     1     -10.236   7.077  66.407  1.00  0.00    -0.098 OA 
HETATM   17  H2  UNL     1     -11.999  11.452  67.934  1.00  0.00     0.000 HD 
HETATM   18  N   UNL     1     -11.773  10.628  67.379  1.00  0.00    -0.436 NA 
HETATM   19  C   UNL     1      -9.853   9.420  66.663  1.00  0.00    -0.309 C  
HETATM   20  C   UNL     1     -10.188   8.036  67.166  1.00  0.00    -0.292 C  
HETATM   21  C   UNL     1      -9.490   9.667  65.236  1.00  0.00    -0.342 C  
HETATM   22  H1  UNL     1     -12.195  10.711  66.453  1.00  0.00     0.000 HD 
BRANCH  13  23
HETATM   23  C   UNL     1     -10.163   8.622  71.823  1.00  0.00    -0.308 C  
BRANCH  23  24
HETATM   24  O   UNL     1     -11.152   9.651  71.623  1.00  0.00    -0.348 OA 
BRANCH  24  25
HETATM   25  C   UNL     1     -12.440   9.257  71.790  1.00  0.00    -0.381 C  
HETATM   26  O   UNL     1     -13.324   9.918  72.322  1.00  0.00    -0.435 OA 
HETATM   27  N   UNL     1     -12.603   8.004  71.319  1.00  0.00    -0.445 N  
HETATM   28  H1  UNL     1     -13.570   7.708  71.444  1.00  0.00     0.000 HD 
HETATM   29  H2  UNL     1     -11.866   7.435  70.900  1.00  0.00     0.000 HD 
ENDBRANCH  24  25
ENDBRANCH  23  24
ENDBRANCH  13  23
ENDBRANCH   2   3
TORSDOF 4
ENDMDL
MODEL      111
REMARK 921   NORMALIZED FREE ENERGY PREDICTED BY IDOCK:   -3.87 KCAL/MOL
REMARK 922        TOTAL FREE ENERGY PREDICTED BY IDOCK:   -4.95 KCAL/MOL
REMARK 923 INTER-LIGAND FREE ENERGY PREDICTED BY IDOCK:   -5.56 KCAL/MOL
REMARK 924 INTRA-LIGAND FREE ENERGY PREDICTED BY IDOCK:    0.61 KCAL/MOL
REMARK 927      BINDING AFFINITY PREDICTED BY RF-SCORE:    0.00 PKD
ROOT
HETATM    1  C   UNL     1     -12.110  11.811  70.291  1.00  0.00    -0.342 C  
HETATM    2  O   UNL     1     -12.394  11.214  69.012  1.00  0.00    -0.479 OA 
ENDROOT
BRANCH   2   3
HETATM    3  C   UNL     1     -11.197  10.855  68.321  1.00  0.00    -0.286 C  
HETATM    4  C   UNL     1     -11.276  11.438  66.880  1.00  0.00    -0.264 C  
HETATM    5  N   UNL     1     -12.048  12.660  66.576  1.00  0.00    -0.552 NA 
HETATM    6  H   UNL     1     -12.918  13.047  66.943  1.00  0.00     0.000 HD 
HETATM    7  C   UNL     1     -10.656  12.835  66.932  1.00  0.00    -0.244 C  
HETATM    8  C   UNL     1     -10.128  13.003  68.324  1.00  0.00    -0.239 C  
HETATM    9  N   UNL     1      -9.977  11.616  68.757  1.00  0.00    -0.176 NA 
HETATM   10  C   UNL     1      -8.900  10.790  68.317  1.00  0.00    -0.139 C  
HETATM   11  C   UNL     1      -9.255   9.502  68.407  1.00  0.00    -0.130 C  
HETATM   12  C   UNL     1      -8.362   8.431  67.978  1.00  0.00    -0.128 C  
HETATM   13  C   UNL     1     -10.726   9.397  68.674  1.00  0.00    -0.196 C  
HETATM   14  C   UNL     1      -6.977   8.903  67.595  1.00  0.00    -0.075 C  
HETATM   15  O   UNL     1      -8.723   7.269  67.849  1.00  0.00    -0.123 OA 
HETATM   16  O   UNL     1      -7.689  12.200  66.770  1.00  0.00    -0.093 OA 
HETATM   17  H2  UNL     1      -5.988   8.221  69.190  1.00  0.00     0.000 HD 
HETATM   18  N   UNL     1      -6.058   9.081  68.646  1.00  0.00    -0.045 NA 
HETATM   19  C   UNL     1      -7.140   9.878  66.685  1.00  0.00    -0.087 C  
HETATM   20  C   UNL     1      -7.867  11.082  67.234  1.00  0.00    -0.122 C  
HETATM   21  C   UNL     1      -6.232   9.985  65.504  1.00  0.00    -0.092 C  
HETATM   22  H1  UNL     1      -5.123   9.400  68.388  1.00  0.00     0.000 HD 
BRANCH  13  23
HETATM   23  C   UNL     1     -10.957   9.133  70.181  1.00  0.00    -0.239 C  
BRANCH  23  24
HETATM   24  O   UNL     1     -11.594   7.870  70.456  1.00  0.00    -0.247 OA 
BRANCH  24  25
HETATM   25  C   UNL     1     -12.489   7.882  71.476  1.00  0.00    -0.318 C  
HETATM   26  O   UNL     1     -12.247   8.208  72.633  1.00  0.00    -0.334 OA 
HETATM   27  N   UNL     1     -13.686   7.440  71.043  1.00  0.00    -0.613 N  
HETATM   28  H1  UNL     1     -14.359   7.449  71.809  1.00  0.00     0.000 HD 
HETATM   29  H2  UNL     1     -13.890   7.141  70.089  1.00  0.00     0.000 HD 
ENDBRANCH  24  25
ENDBRANCH  23  24
ENDBRANCH  13  23
ENDBRANCH   2   3
TORSDOF 4
ENDMDL
MODEL      112
REMARK 921   NORMALIZED FREE ENERGY PREDICTED BY IDOCK:   -3.87 KCAL/MOL
REMARK 922        TOTAL FREE ENERGY PREDICTED BY IDOCK:   -4.94 KCAL/MOL
REMARK 923 INTER-LIGAND FREE ENERGY PREDICTED BY IDOCK:   -4.76 KCAL/MOL
REMARK 924 INTRA-LIGAND FREE ENERGY PREDICTED BY IDOCK:   -0.18 KCAL/MOL
REMARK 927      BINDING AFFINITY PREDICTED BY RF-SCORE:    0.00 PKD
ROOT
HETATM    1  C   UNL     1     -12.581  11.234  70.962  1.00  0.00    -0.394 C  
HETATM    2  O   UNL     1     -12.368   9.951  70.346  1.00  0.00    -0.195 OA 
ENDROOT
BRANCH   2   3
HETATM    3  C   UNL     1     -11.511   9.124  71.134  1.00  0.00    -0.318 C  
HETATM    4  C   UNL     1     -12.224   8.839  72.488  1.00  0.00    -0.277 C  
HETATM    5  N   UNL     1     -13.696   8.816  72.603  1.00  0.00    -0.731 NA 
HETATM    6  H   UNL     1     -14.441   9.345  72.149  1.00  0.00     0.000 HD 
HETATM    7  C   UNL     1     -13.042   7.561  72.297  1.00  0.00     0.070 C  
HETATM    8  C   UNL     1     -12.716   7.062  70.923  1.00  0.00    -0.167 C  
HETATM    9  N   UNL     1     -11.426   7.698  70.670  1.00  0.00    -0.279 NA 
HETATM   10  C   UNL     1     -10.215   7.232  71.260  1.00  0.00    -0.189 C  
HETATM   11  C   UNL     1      -9.324   8.232  71.309  1.00  0.00    -0.218 C  
HETATM   12  C   UNL     1      -8.006   8.053  71.909  1.00  0.00    -0.115 C  
HETATM   13  C   UNL     1      -9.999   9.530  70.984  1.00  0.00    -0.269 C  
HETATM   14  C   UNL     1      -7.698   6.625  72.300  1.00  0.00    -0.096 C  
HETATM   15  O   UNL     1      -7.254   8.984  72.160  1.00  0.00    -0.329 OA 
HETATM   16  O   UNL     1     -10.930   5.412  72.682  1.00  0.00    -0.238 OA 
HETATM   17  H2  UNL     1      -6.391   6.204  70.850  1.00  0.00     0.000 HD 
HETATM   18  N   UNL     1      -7.213   5.782  71.281  1.00  0.00    -0.072 NA 
HETATM   19  C   UNL     1      -8.714   6.209  73.076  1.00  0.00    -0.121 C  
HETATM   20  C   UNL     1     -10.037   6.179  72.349  1.00  0.00    -0.178 C  
HETATM   21  C   UNL     1      -8.463   5.361  74.278  1.00  0.00    -0.110 C  
HETATM   22  H1  UNL     1      -7.006   4.819  71.546  1.00  0.00     0.000 HD 
BRANCH  13  23
HETATM   23  C   UNL     1      -9.711   9.904  69.511  1.00  0.00    -0.220 C  
BRANCH  23  24
HETATM   24  O   UNL     1      -8.741  10.959  69.362  1.00  0.00    -0.042 OA 
BRANCH  24  25
HETATM   25  C   UNL     1      -7.760  10.721  68.455  1.00  0.00    -0.118 C  
HETATM   26  O   UNL     1      -7.523   9.640  67.929  1.00  0.00    -0.082 OA 
HETATM   27  N   UNL     1      -7.046  11.846  68.244  1.00  0.00    -0.075 N  
HETATM   28  H1  UNL     1      -6.309  11.667  67.562  1.00  0.00     0.000 HD 
HETATM   29  H2  UNL     1      -7.219  12.743  68.698  1.00  0.00     0.000 HD 
ENDBRANCH  24  25
ENDBRANCH  23  24
ENDBRANCH  13  23
ENDBRANCH   2   3
TORSDOF 4
ENDMDL
MODEL      113
REMARK 921   NORMALIZED FREE ENERGY PREDICTED BY IDOCK:   -3.87 KCAL/MOL
REMARK 922        TOTAL FREE ENERGY PREDICTED BY IDOCK:   -4.94 KCAL/MOL
REMARK 923 INTER-LIGAND FREE ENERGY PREDICTED BY IDOCK:   -4.82 KCAL/MOL
REMARK 924 INTRA-LIGAND FREE ENERGY PREDICTED BY IDOCK:   -0.12 KCAL/MOL
REMARK 927      BINDING AFFINITY PREDICTED BY RF-SCORE:    0.00 PKD
ROOT
HETATM    1  C   UNL     1      -7.898   8.993  69.488  1.00  0.00    -0.094 C  
HETATM    2  O   UNL     1      -7.725   9.693  68.243  1.00  0.00    -0.082 OA 
ENDROOT
BRANCH   2   3
HETATM    3  C   UNL     1      -7.967  11.093  68.388  1.00  0.00    -0.137 C  
HETATM    4  C   UNL     1      -6.805  11.701  69.227  1.00  0.00    -0.104 C  
HETATM    5  N   UNL     1      -5.450  11.111  69.222  1.00  0.00    -0.041 NA 
HETATM    6  H   UNL     1      -5.105  10.153  69.157  1.00  0.00     0.000 HD 
HETATM    7  C   UNL     1      -5.724  12.136  68.236  1.00  0.00    -0.052 C  
HETATM    8  C   UNL     1      -6.293  11.900  66.871  1.00  0.00    -0.107 C  
HETATM    9  N   UNL     1      -7.729  11.896  67.141  1.00  0.00    -0.159 NA 
HETATM   10  C   UNL     1      -8.466  13.094  67.376  1.00  0.00    -0.201 C  
HETATM   11  C   UNL     1      -9.566  12.814  68.086  1.00  0.00    -0.223 C  
HETATM   12  C   UNL     1     -10.488  13.861  68.514  1.00  0.00    -0.250 C  
HETATM   13  C   UNL     1      -9.492  11.410  68.607  1.00  0.00    -0.168 C  
HETATM   14  C   UNL     1     -10.173  15.227  67.944  1.00  0.00    -0.235 C  
HETATM   15  O   UNL     1     -11.378  13.676  69.332  1.00  0.00    -0.262 OA 
HETATM   16  O   UNL     1      -6.782  14.829  67.310  1.00  0.00    -0.279 OA 
HETATM   17  H2  UNL     1     -11.666  15.339  66.623  1.00  0.00     0.000 HD 
HETATM   18  N   UNL     1     -10.659  15.498  66.651  1.00  0.00    -0.304 NA 
HETATM   19  C   UNL     1      -8.885  15.478  68.235  1.00  0.00    -0.179 C  
HETATM   20  C   UNL     1      -7.932  14.508  67.577  1.00  0.00    -0.191 C  
HETATM   21  C   UNL     1      -8.446  16.841  68.656  1.00  0.00    -0.259 C  
HETATM   22  H1  UNL     1     -10.446  16.419  66.267  1.00  0.00     0.000 HD 
BRANCH  13  23
HETATM   23  C   UNL     1     -10.343  10.483  67.708  1.00  0.00    -0.212 C  
BRANCH  23  24
HETATM   24  O   UNL     1     -10.554  11.001  66.380  1.00  0.00    -0.257 OA 
BRANCH  24  25
HETATM   25  C   UNL     1     -10.043  10.245  65.375  1.00  0.00    -0.284 C  
HETATM   26  O   UNL     1      -9.810  10.636  64.237  1.00  0.00    -0.278 OA 
HETATM   27  N   UNL     1      -9.866   8.977  65.797  1.00  0.00    -0.461 N  
HETATM   28  H1  UNL     1      -9.483   8.409  65.042  1.00  0.00     0.000 HD 
HETATM   29  H2  UNL     1     -10.084   8.636  66.734  1.00  0.00     0.000 HD 
ENDBRANCH  24  25
ENDBRANCH  23  24
ENDBRANCH  13  23
ENDBRANCH   2   3
TORSDOF 4
ENDMDL
MODEL      114
REMARK 921   NORMALIZED FREE ENERGY PREDICTED BY IDOCK:   -3.86 KCAL/MOL
REMARK 922        TOTAL FREE ENERGY PREDICTED BY IDOCK:   -4.93 KCAL/MOL
REMARK 923 INTER-LIGAND FREE ENERGY PREDICTED BY IDOCK:   -4.83 KCAL/MOL
REMARK 924 INTRA-LIGAND FREE ENERGY PREDICTED BY IDOCK:   -0.10 KCAL/MOL
REMARK 927      BINDING AFFINITY PREDICTED BY RF-SCORE:    0.00 PKD
ROOT
HETATM    1  C   UNL     1     -12.045  11.214  69.634  1.00  0.00    -0.336 C  
HETATM    2  O   UNL     1     -11.873  10.502  68.395  1.00  0.00    -0.380 OA 
ENDROOT
BRANCH   2   3
HETATM    3  C   UNL     1     -10.500  10.192  68.152  1.00  0.00    -0.206 C  
HETATM    4  C   UNL     1     -10.120   8.962  69.027  1.00  0.00    -0.197 C  
HETATM    5  N   UNL     1     -11.119   7.948  69.420  1.00  0.00    -0.439 NA 
HETATM    6  H   UNL     1     -12.111   7.997  69.653  1.00  0.00     0.000 HD 
HETATM    7  C   UNL     1     -10.400   7.716  68.185  1.00  0.00    -0.204 C  
HETATM    8  C   UNL     1     -10.812   8.214  66.833  1.00  0.00     0.063 C  
HETATM    9  N   UNL     1     -10.234   9.555  66.818  1.00  0.00    -0.244 NA 
HETATM   10  C   UNL     1      -8.842   9.786  66.615  1.00  0.00    -0.138 C  
HETATM   11  C   UNL     1      -8.498  10.966  67.150  1.00  0.00    -0.128 C  
HETATM   12  C   UNL     1      -7.120  11.441  67.131  1.00  0.00    -0.134 C  
HETATM   13  C   UNL     1      -9.621  11.487  67.995  1.00  0.00    -0.180 C  
HETATM   14  C   UNL     1      -6.181  10.573  66.322  1.00  0.00    -0.105 C  
HETATM   15  O   UNL     1      -6.733  12.400  67.786  1.00  0.00    -0.088 OA 
HETATM   16  O   UNL     1      -7.906   7.562  66.457  1.00  0.00    -0.097 OA 
HETATM   17  H2  UNL     1      -5.947  11.786  64.754  1.00  0.00     0.000 HD 
HETATM   18  N   UNL     1      -6.149  10.803  64.933  1.00  0.00    -0.371 NA 
HETATM   19  C   UNL     1      -6.322   9.318  66.783  1.00  0.00    -0.066 C  
HETATM   20  C   UNL     1      -7.711   8.764  66.570  1.00  0.00    -0.099 C  
HETATM   21  C   UNL     1      -5.139   8.422  66.942  1.00  0.00    -0.028 C  
HETATM   22  H1  UNL     1      -5.516  10.217  64.388  1.00  0.00     0.000 HD 
BRANCH  13  23
HETATM   23  C   UNL     1     -10.412  12.551  67.199  1.00  0.00    -0.224 C  
BRANCH  23  24
HETATM   24  O   UNL     1      -9.857  13.877  67.296  1.00  0.00    -0.235 OA 
BRANCH  24  25
HETATM   25  C   UNL     1     -10.568  14.750  68.053  1.00  0.00    -0.244 C  
HETATM   26  O   UNL     1     -11.230  15.688  67.626  1.00  0.00    -0.326 OA 
HETATM   27  N   UNL     1     -10.409  14.461  69.361  1.00  0.00    -0.424 N  
HETATM   28  H1  UNL     1     -10.943  15.117  69.929  1.00  0.00     0.000 HD 
HETATM   29  H2  UNL     1      -9.837  13.699  69.727  1.00  0.00     0.000 HD 
ENDBRANCH  24  25
ENDBRANCH  23  24
ENDBRANCH  13  23
ENDBRANCH   2   3
TORSDOF 4
ENDMDL
MODEL      115
REMARK 921   NORMALIZED FREE ENERGY PREDICTED BY IDOCK:   -3.86 KCAL/MOL
REMARK 922        TOTAL FREE ENERGY PREDICTED BY IDOCK:   -4.93 KCAL/MOL
REMARK 923 INTER-LIGAND FREE ENERGY PREDICTED BY IDOCK:   -4.93 KCAL/MOL
REMARK 924 INTRA-LIGAND FREE ENERGY PREDICTED BY IDOCK:   -0.00 KCAL/MOL
REMARK 927      BINDING AFFINITY PREDICTED BY RF-SCORE:    0.00 PKD
ROOT
HETATM    1  C   UNL     1     -12.056  13.788  68.003  1.00  0.00    -0.280 C  
HETATM    2  O   UNL     1     -12.331  12.375  68.005  1.00  0.00    -0.237 OA 
ENDROOT
BRANCH   2   3
HETATM    3  C   UNL     1     -11.416  11.662  68.839  1.00  0.00    -0.287 C  
HETATM    4  C   UNL     1     -11.446  12.309  70.254  1.00  0.00     0.185 C  
HETATM    5  N   UNL     1     -12.650  12.989  70.774  1.00  0.00    -0.286 NA 
HETATM    6  H   UNL     1     -13.379  13.552  70.335  1.00  0.00     0.000 HD 
HETATM    7  C   UNL     1     -12.523  11.574  71.054  1.00  0.00    -0.356 C  
HETATM    8  C   UNL     1     -13.011  10.465  70.172  1.00  0.00     0.056 C  
HETATM    9  N   UNL     1     -11.888  10.298  69.253  1.00  0.00    -0.085 NA 
HETATM   10  C   UNL     1     -10.684   9.634  69.630  1.00  0.00    -0.240 C  
HETATM   11  C   UNL     1      -9.675  10.056  68.856  1.00  0.00    -0.181 C  
HETATM   12  C   UNL     1      -8.311   9.578  69.049  1.00  0.00    -0.126 C  
HETATM   13  C   UNL     1     -10.108  11.255  68.066  1.00  0.00    -0.192 C  
HETATM   14  C   UNL     1      -8.188   8.466  70.066  1.00  0.00    -0.121 C  
HETATM   15  O   UNL     1      -7.339  10.091  68.510  1.00  0.00    -0.075 OA 
HETATM   16  O   UNL     1     -11.032   9.087  71.959  1.00  0.00    -0.358 OA 
HETATM   17  H2  UNL     1      -7.858   6.955  68.803  1.00  0.00     0.000 HD 
HETATM   18  N   UNL     1      -8.449   7.160  69.608  1.00  0.00    -0.133 NA 
HETATM   19  C   UNL     1      -8.779   8.904  71.191  1.00  0.00    -0.280 C  
HETATM   20  C   UNL     1     -10.256   9.166  71.017  1.00  0.00    -0.302 C  
HETATM   21  C   UNL     1      -8.190   8.613  72.531  1.00  0.00    -0.062 C  
HETATM   22  H1  UNL     1      -8.366   6.410  70.295  1.00  0.00     0.000 HD 
BRANCH  13  23
HETATM   23  C   UNL     1     -10.475  10.818  66.629  1.00  0.00    -0.246 C  
BRANCH  23  24
HETATM   24  O   UNL     1      -9.798  11.572  65.605  1.00  0.00    -0.220 OA 
BRANCH  24  25
HETATM   25  C   UNL     1     -10.488  11.726  64.446  1.00  0.00    -0.311 C  
HETATM   26  O   UNL     1     -11.683  11.500  64.293  1.00  0.00    -0.229 OA 
HETATM   27  N   UNL     1      -9.656  12.129  63.465  1.00  0.00    -0.562 N  
HETATM   28  H1  UNL     1     -10.174  12.245  62.595  1.00  0.00     0.000 HD 
HETATM   29  H2  UNL     1      -8.655  12.293  63.576  1.00  0.00     0.000 HD 
ENDBRANCH  24  25
ENDBRANCH  23  24
ENDBRANCH  13  23
ENDBRANCH   2   3
TORSDOF 4
ENDMDL
MODEL      116
REMARK 921   NORMALIZED FREE ENERGY PREDICTED BY IDOCK:   -3.83 KCAL/MOL
REMARK 922        TOTAL FREE ENERGY PREDICTED BY IDOCK:   -4.90 KCAL/MOL
REMARK 923 INTER-LIGAND FREE ENERGY PREDICTED BY IDOCK:   -5.42 KCAL/MOL
REMARK 924 INTRA-LIGAND FREE ENERGY PREDICTED BY IDOCK:    0.52 KCAL/MOL
REMARK 927      BINDING AFFINITY PREDICTED BY RF-SCORE:    0.00 PKD
ROOT
HETATM    1  C   UNL     1     -10.368   7.946  67.164  1.00  0.00    -0.328 C  
HETATM    2  O   UNL     1     -11.044   9.080  67.737  1.00  0.00    -0.040 OA 
ENDROOT
BRANCH   2   3
HETATM    3  C   UNL     1     -10.122  10.086  68.159  1.00  0.00    -0.159 C  
HETATM    4  C   UNL     1     -10.319  10.313  69.686  1.00  0.00    -0.248 C  
HETATM    5  N   UNL     1     -10.806   9.240  70.576  1.00  0.00    -0.243 NA 
HETATM    6  H   UNL     1     -11.470   8.475  70.451  1.00  0.00     0.000 HD 
HETATM    7  C   UNL     1      -9.373   9.348  70.403  1.00  0.00    -0.268 C  
HETATM    8  C   UNL     1      -8.573   8.677  69.329  1.00  0.00    -0.131 C  
HETATM    9  N   UNL     1      -8.693   9.628  68.227  1.00  0.00    -0.119 NA 
HETATM   10  C   UNL     1      -7.955  10.847  68.185  1.00  0.00    -0.117 C  
HETATM   11  C   UNL     1      -8.595  11.735  67.412  1.00  0.00    -0.160 C  
HETATM   12  C   UNL     1      -8.090  13.091  67.226  1.00  0.00    -0.161 C  
HETATM   13  C   UNL     1      -9.971  11.233  67.094  1.00  0.00    -0.219 C  
HETATM   14  C   UNL     1      -6.726  13.328  67.836  1.00  0.00    -0.143 C  
HETATM   15  O   UNL     1      -8.745  13.984  66.707  1.00  0.00    -0.203 OA 
HETATM   16  O   UNL     1      -6.739  10.856  70.275  1.00  0.00    -0.230 OA 
HETATM   17  H2  UNL     1      -5.661  13.383  66.148  1.00  0.00     0.000 HD 
HETATM   18  N   UNL     1      -5.614  12.939  67.065  1.00  0.00    -0.409 NA 
HETATM   19  C   UNL     1      -6.807  12.945  69.122  1.00  0.00    -0.054 C  
HETATM   20  C   UNL     1      -7.099  11.472  69.282  1.00  0.00    -0.077 C  
HETATM   21  C   UNL     1      -6.135  13.731  70.199  1.00  0.00    -0.139 C  
HETATM   22  H1  UNL     1      -4.694  13.099  67.477  1.00  0.00     0.000 HD 
BRANCH  13  23
HETATM   23  C   UNL     1      -9.978  10.620  65.674  1.00  0.00    -0.268 C  
BRANCH  23  24
HETATM   24  O   UNL     1     -11.055  11.096  64.844  1.00  0.00    -0.187 OA 
BRANCH  24  25
HETATM   25  C   UNL     1     -10.683  11.908  63.822  1.00  0.00    -0.418 C  
HETATM   26  O   UNL     1     -10.693  13.133  63.846  1.00  0.00    -0.361 OA 
HETATM   27  N   UNL     1     -10.338  11.169  62.749  1.00  0.00    -0.741 N  
HETATM   28  H1  UNL     1     -10.059  11.779  61.981  1.00  0.00     0.000 HD 
HETATM   29  H2  UNL     1     -10.354  10.149  62.710  1.00  0.00     0.000 HD 
ENDBRANCH  24  25
ENDBRANCH  23  24
ENDBRANCH  13  23
ENDBRANCH   2   3
TORSDOF 4
ENDMDL
MODEL      117
REMARK 921   NORMALIZED FREE ENERGY PREDICTED BY IDOCK:   -3.83 KCAL/MOL
REMARK 922        TOTAL FREE ENERGY PREDICTED BY IDOCK:   -4.90 KCAL/MOL
REMARK 923 INTER-LIGAND FREE ENERGY PREDICTED BY IDOCK:   -5.52 KCAL/MOL
REMARK 924 INTRA-LIGAND FREE ENERGY PREDICTED BY IDOCK:    0.62 KCAL/MOL
REMARK 927      BINDING AFFINITY PREDICTED BY RF-SCORE:    0.00 PKD
ROOT
HETATM    1  C   UNL     1      -8.790   7.299  66.154  1.00  0.00    -0.158 C  
HETATM    2  O   UNL     1      -8.303   8.332  67.030  1.00  0.00    -0.119 OA 
ENDROOT
BRANCH   2   3
HETATM    3  C   UNL     1      -8.772   9.622  66.637  1.00  0.00    -0.134 C  
HETATM    4  C   UNL     1      -7.556  10.440  66.110  1.00  0.00    -0.130 C  
HETATM    5  N   UNL     1      -6.386   9.783  65.494  1.00  0.00    -0.074 NA 
HETATM    6  H   UNL     1      -5.908   8.898  65.666  1.00  0.00     0.000 HD 
HETATM    7  C   UNL     1      -7.462  10.174  64.607  1.00  0.00    -0.132 C  
HETATM    8  C   UNL     1      -8.651   9.332  64.259  1.00  0.00    -0.193 C  
HETATM    9  N   UNL     1      -9.563   9.631  65.360  1.00  0.00    -0.285 NA 
HETATM   10  C   UNL     1     -10.296  10.852  65.436  1.00  0.00    -0.261 C  
HETATM   11  C   UNL     1     -10.616  11.107  66.712  1.00  0.00    -0.311 C  
HETATM   12  C   UNL     1     -11.329  12.320  67.093  1.00  0.00    -0.335 C  
HETATM   13  C   UNL     1      -9.868  10.176  67.619  1.00  0.00    -0.201 C  
HETATM   14  C   UNL     1     -11.805  13.148  65.920  1.00  0.00    -0.406 C  
HETATM   15  O   UNL     1     -11.453  12.687  68.254  1.00  0.00    -0.267 OA 
HETATM   16  O   UNL     1      -9.539  12.099  63.507  1.00  0.00    -0.235 OA 
HETATM   17  H2  UNL     1     -13.753  12.729  66.042  1.00  0.00     0.000 HD 
HETATM   18  N   UNL     1     -13.024  12.764  65.330  1.00  0.00    -0.658 NA 
HETATM   19  C   UNL     1     -10.731  13.366  65.142  1.00  0.00    -0.339 C  
HETATM   20  C   UNL     1     -10.153  12.096  64.565  1.00  0.00    -0.259 C  
HETATM   21  C   UNL     1     -10.513  14.691  64.489  1.00  0.00    -0.010 C  
HETATM   22  H1  UNL     1     -13.344  13.323  64.538  1.00  0.00     0.000 HD 
BRANCH  13  23
HETATM   23  C   UNL     1     -10.801   9.021  68.052  1.00  0.00    -0.041 C  
BRANCH  23  24
HETATM   24  O   UNL     1     -10.650   8.644  69.434  1.00  0.00    -0.220 OA 
BRANCH  24  25
HETATM   25  C   UNL     1     -10.580   7.308  69.666  1.00  0.00    -0.235 C  
HETATM   26  O   UNL     1     -11.139   6.440  69.006  1.00  0.00    -0.327 OA 
HETATM   27  N   UNL     1      -9.834   7.070  70.763  1.00  0.00    -0.186 N  
HETATM   28  H1  UNL     1      -9.781   6.067  70.937  1.00  0.00     0.000 HD 
HETATM   29  H2  UNL     1      -9.387   7.788  71.335  1.00  0.00     0.000 HD 
ENDBRANCH  24  25
ENDBRANCH  23  24
ENDBRANCH  13  23
ENDBRANCH   2   3
TORSDOF 4
ENDMDL
MODEL      118
REMARK 921   NORMALIZED FREE ENERGY PREDICTED BY IDOCK:   -3.83 KCAL/MOL
REMARK 922        TOTAL FREE ENERGY PREDICTED BY IDOCK:   -4.90 KCAL/MOL
REMARK 923 INTER-LIGAND FREE ENERGY PREDICTED BY IDOCK:   -5.36 KCAL/MOL
REMARK 924 INTRA-LIGAND FREE ENERGY PREDICTED BY IDOCK:    0.47 KCAL/MOL
REMARK 927      BINDING AFFINITY PREDICTED BY RF-SCORE:    0.00 PKD
ROOT
HETATM    1  C   UNL     1      -8.134   6.605  68.369  1.00  0.00    -0.115 C  
HETATM    2  O   UNL     1      -7.670   7.391  69.481  1.00  0.00    -0.103 OA 
ENDROOT
BRANCH   2   3
HETATM    3  C   UNL     1      -8.723   8.168  70.054  1.00  0.00    -0.131 C  
HETATM    4  C   UNL     1      -8.240   9.645  70.146  1.00  0.00    -0.187 C  
HETATM    5  N   UNL     1      -7.249  10.200  69.202  1.00  0.00    -0.073 NA 
HETATM    6  H   UNL     1      -6.435   9.805  68.729  1.00  0.00     0.000 HD 
HETATM    7  C   UNL     1      -8.644  10.325  68.837  1.00  0.00    -0.150 C  
HETATM    8  C   UNL     1      -9.437   9.311  68.070  1.00  0.00    -0.137 C  
HETATM    9  N   UNL     1      -9.884   8.414  69.133  1.00  0.00    -0.178 NA 
HETATM   10  C   UNL     1     -10.944   8.751  70.024  1.00  0.00    -0.209 C  
HETATM   11  C   UNL     1     -10.812   8.060  71.164  1.00  0.00    -0.267 C  
HETATM   12  C   UNL     1     -11.735   8.240  72.279  1.00  0.00    -0.388 C  
HETATM   13  C   UNL     1      -9.469   7.395  71.203  1.00  0.00    -0.157 C  
HETATM   14  C   UNL     1     -12.915   9.131  71.962  1.00  0.00    -0.424 C  
HETATM   15  O   UNL     1     -11.528   7.791  73.398  1.00  0.00    -0.237 OA 
HETATM   16  O   UNL     1     -11.560  10.994  69.363  1.00  0.00    -0.256 OA 
HETATM   17  H2  UNL     1     -14.323   7.719  71.858  1.00  0.00     0.000 HD 
HETATM   18  N   UNL     1     -14.009   8.524  71.316  1.00  0.00    -0.603 NA 
HETATM   19  C   UNL     1     -12.413  10.279  71.475  1.00  0.00    -0.524 C  
HETATM   20  C   UNL     1     -11.657  10.090  70.182  1.00  0.00    -0.252 C  
HETATM   21  C   UNL     1     -13.009  11.596  71.848  1.00  0.00    -0.442 C  
HETATM   22  H1  UNL     1     -14.805   9.125  71.102  1.00  0.00     0.000 HD 
BRANCH  13  23
HETATM   23  C   UNL     1      -9.620   5.908  70.807  1.00  0.00    -0.170 C  
BRANCH  23  24
HETATM   24  O   UNL     1      -9.407   4.994  71.900  1.00  0.00    -0.138 OA 
BRANCH  24  25
HETATM   25  C   UNL     1      -8.304   4.211  71.794  1.00  0.00    -0.095 C  
HETATM   26  O   UNL     1      -8.292   2.986  71.845  1.00  0.00    -0.058 OA 
HETATM   27  N   UNL     1      -7.203   4.979  71.665  1.00  0.00    -0.068 N  
HETATM   28  H1  UNL     1      -6.375   4.390  71.585  1.00  0.00     0.000 HD 
HETATM   29  H2  UNL     1      -7.200   6.000  71.649  1.00  0.00     0.000 HD 
ENDBRANCH  24  25
ENDBRANCH  23  24
ENDBRANCH  13  23
ENDBRANCH   2   3
TORSDOF 4
ENDMDL
MODEL      119
REMARK 921   NORMALIZED FREE ENERGY PREDICTED BY IDOCK:   -3.78 KCAL/MOL
REMARK 922        TOTAL FREE ENERGY PREDICTED BY IDOCK:   -4.83 KCAL/MOL
REMARK 923 INTER-LIGAND FREE ENERGY PREDICTED BY IDOCK:   -4.41 KCAL/MOL
REMARK 924 INTRA-LIGAND FREE ENERGY PREDICTED BY IDOCK:   -0.42 KCAL/MOL
REMARK 927      BINDING AFFINITY PREDICTED BY RF-SCORE:    0.00 PKD
ROOT
HETATM    1  C   UNL     1     -12.993   7.471  71.420  1.00  0.00    -0.335 C  
HETATM    2  O   UNL     1     -12.084   6.616  70.702  1.00  0.00    -0.394 OA 
ENDROOT
BRANCH   2   3
HETATM    3  C   UNL     1     -10.747   6.745  71.184  1.00  0.00    -0.229 C  
HETATM    4  C   UNL     1     -10.718   6.266  72.665  1.00  0.00    -0.232 C  
HETATM    5  N   UNL     1     -11.666   5.254  73.174  1.00  0.00    -0.535 NA 
HETATM    6  H   UNL     1     -12.643   5.044  72.967  1.00  0.00     0.000 HD 
HETATM    7  C   UNL     1     -10.411   4.767  72.640  1.00  0.00    -0.203 C  
HETATM    8  C   UNL     1     -10.153   4.421  71.205  1.00  0.00    -0.132 C  
HETATM    9  N   UNL     1      -9.791   5.720  70.644  1.00  0.00    -0.180 NA 
HETATM   10  C   UNL     1      -8.513   6.316  70.858  1.00  0.00    -0.131 C  
HETATM   11  C   UNL     1      -8.607   7.645  70.714  1.00  0.00    -0.134 C  
HETATM   12  C   UNL     1      -7.459   8.520  70.923  1.00  0.00    -0.074 C  
HETATM   13  C   UNL     1     -10.049   8.049  70.651  1.00  0.00    -0.203 C  
HETATM   14  C   UNL     1      -6.157   7.782  71.144  1.00  0.00    -0.034 C  
HETATM   15  O   UNL     1      -7.551   9.737  71.008  1.00  0.00    -0.311 OA 
HETATM   16  O   UNL     1      -7.390   4.759  72.328  1.00  0.00    -0.077 OA 
HETATM   17  H2  UNL     1      -5.311   8.156  69.374  1.00  0.00     0.000 HD 
HETATM   18  N   UNL     1      -5.468   7.359  69.991  1.00  0.00    -0.023 NA 
HETATM   19  C   UNL     1      -6.371   6.911  72.144  1.00  0.00    -0.045 C  
HETATM   20  C   UNL     1      -7.406   5.865  71.804  1.00  0.00    -0.093 C  
HETATM   21  C   UNL     1      -5.332   6.672  73.190  1.00  0.00    -0.038 C  
HETATM   22  H1  UNL     1      -4.590   6.861  70.140  1.00  0.00     0.000 HD 
BRANCH  13  23
HETATM   23  C   UNL     1     -10.453   8.281  69.175  1.00  0.00    -0.206 C  
BRANCH  23  24
HETATM   24  O   UNL     1     -10.992   9.592  68.923  1.00  0.00    -0.202 OA 
BRANCH  24  25
HETATM   25  C   UNL     1     -10.327  10.323  67.992  1.00  0.00    -0.181 C  
HETATM   26  O   UNL     1     -10.694  10.512  66.839  1.00  0.00    -0.253 OA 
HETATM   27  N   UNL     1      -9.170  10.783  68.509  1.00  0.00    -0.167 N  
HETATM   28  H1  UNL     1      -8.670  11.332  67.811  1.00  0.00     0.000 HD 
HETATM   29  H2  UNL     1      -8.842  10.608  69.460  1.00  0.00     0.000 HD 
ENDBRANCH  24  25
ENDBRANCH  23  24
ENDBRANCH  13  23
ENDBRANCH   2   3
TORSDOF 4
ENDMDL
MODEL      120
REMARK 921   NORMALIZED FREE ENERGY PREDICTED BY IDOCK:   -3.76 KCAL/MOL
REMARK 922        TOTAL FREE ENERGY PREDICTED BY IDOCK:   -4.80 KCAL/MOL
REMARK 923 INTER-LIGAND FREE ENERGY PREDICTED BY IDOCK:   -6.00 KCAL/MOL
REMARK 924 INTRA-LIGAND FREE ENERGY PREDICTED BY IDOCK:    1.19 KCAL/MOL
REMARK 927      BINDING AFFINITY PREDICTED BY RF-SCORE:    0.00 PKD
ROOT
HETATM    1  C   UNL     1     -10.215  18.228  68.660  1.00  0.00    -0.353 C  
HETATM    2  O   UNL     1     -11.007  17.120  68.194  1.00  0.00    -0.361 OA 
ENDROOT
BRANCH   2   3
HETATM    3  C   UNL     1     -10.328  15.876  68.370  1.00  0.00    -0.240 C  
HETATM    4  C   UNL     1     -10.415  15.485  69.874  1.00  0.00    -0.313 C  
HETATM    5  N   UNL     1     -11.541  15.918  70.726  1.00  0.00    -0.381 NA 
HETATM    6  H   UNL     1     -12.110  16.765  70.757  1.00  0.00     0.000 HD 
HETATM    7  C   UNL     1     -11.686  14.651  70.042  1.00  0.00    -0.294 C  
HETATM    8  C   UNL     1     -12.245  14.465  68.664  1.00  0.00    -0.150 C  
HETATM    9  N   UNL     1     -11.066  14.684  67.830  1.00  0.00    -0.280 NA 
HETATM   10  C   UNL     1     -10.042  13.703  67.680  1.00  0.00    -0.242 C  
HETATM   11  C   UNL     1      -8.893  14.301  67.335  1.00  0.00    -0.211 C  
HETATM   12  C   UNL     1      -7.660  13.542  67.159  1.00  0.00     0.061 C  
HETATM   13  C   UNL     1      -9.024  15.786  67.495  1.00  0.00    -0.201 C  
HETATM   14  C   UNL     1      -7.844  12.043  67.236  1.00  0.00    -0.170 C  
HETATM   15  O   UNL     1      -6.560  14.068  67.054  1.00  0.00    -0.021 OA 
HETATM   16  O   UNL     1     -10.747  11.907  69.137  1.00  0.00    -0.189 OA 
HETATM   17  H2  UNL     1      -7.625  11.626  65.296  1.00  0.00     0.000 HD 
HETATM   18  N   UNL     1      -8.264  11.398  66.057  1.00  0.00    -0.363 NA 
HETATM   19  C   UNL     1      -8.482  11.791  68.392  1.00  0.00    -0.155 C  
HETATM   20  C   UNL     1      -9.864  12.398  68.447  1.00  0.00    -0.198 C  
HETATM   21  C   UNL     1      -8.110  10.615  69.233  1.00  0.00    -0.133 C  
HETATM   22  H1  UNL     1      -8.389  10.386  66.109  1.00  0.00     0.000 HD 
BRANCH  13  23
HETATM   23  C   UNL     1      -9.288  16.429  66.112  1.00  0.00    -0.325 C  
BRANCH  23  24
HETATM   24  O   UNL     1      -9.552  15.470  65.070  1.00  0.00    -0.173 OA 
BRANCH  24  25
HETATM   25  C   UNL     1     -10.863  15.278  64.777  1.00  0.00    -0.358 C  
HETATM   26  O   UNL     1     -11.543  14.327  65.145  1.00  0.00    -0.329 OA 
HETATM   27  N   UNL     1     -11.307  16.270  63.980  1.00  0.00    -0.617 N  
HETATM   28  H1  UNL     1     -12.292  16.126  63.761  1.00  0.00     0.000 HD 
HETATM   29  H2  UNL     1     -10.741  17.051  63.647  1.00  0.00     0.000 HD 
ENDBRANCH  24  25
ENDBRANCH  23  24
ENDBRANCH  13  23
ENDBRANCH   2   3
TORSDOF 4
ENDMDL
MODEL      121
REMARK 921   NORMALIZED FREE ENERGY PREDICTED BY IDOCK:   -3.74 KCAL/MOL
REMARK 922        TOTAL FREE ENERGY PREDICTED BY IDOCK:   -4.78 KCAL/MOL
REMARK 923 INTER-LIGAND FREE ENERGY PREDICTED BY IDOCK:   -4.29 KCAL/MOL
REMARK 924 INTRA-LIGAND FREE ENERGY PREDICTED BY IDOCK:   -0.50 KCAL/MOL
REMARK 927      BINDING AFFINITY PREDICTED BY RF-SCORE:    0.00 PKD
ROOT
HETATM    1  C   UNL     1     -11.003   5.129  72.134  1.00  0.00    -0.104 C  
HETATM    2  O   UNL     1      -9.636   5.442  71.811  1.00  0.00    -0.145 OA 
ENDROOT
BRANCH   2   3
HETATM    3  C   UNL     1      -9.535   6.654  71.063  1.00  0.00    -0.164 C  
HETATM    4  C   UNL     1      -9.892   7.838  72.008  1.00  0.00    -0.174 C  
HETATM    5  N   UNL     1      -9.660   7.768  73.465  1.00  0.00    -0.290 NA 
HETATM    6  H   UNL     1      -9.714   7.010  74.146  1.00  0.00     0.000 HD 
HETATM    7  C   UNL     1      -8.584   8.298  72.654  1.00  0.00    -0.198 C  
HETATM    8  C   UNL     1      -7.498   7.489  72.013  1.00  0.00    -0.080 C  
HETATM    9  N   UNL     1      -8.128   7.081  70.759  1.00  0.00    -0.112 NA 
HETATM   10  C   UNL     1      -8.285   7.971  69.657  1.00  0.00    -0.121 C  
HETATM   11  C   UNL     1      -9.301   7.560  68.887  1.00  0.00    -0.142 C  
HETATM   12  C   UNL     1      -9.720   8.310  67.708  1.00  0.00    -0.158 C  
HETATM   13  C   UNL     1     -10.072   6.486  69.594  1.00  0.00    -0.209 C  
HETATM   14  C   UNL     1      -8.809   9.467  67.361  1.00  0.00    -0.128 C  
HETATM   15  O   UNL     1     -10.762   8.087  67.108  1.00  0.00    -0.322 OA 
HETATM   16  O   UNL     1      -7.412  10.070  70.482  1.00  0.00    -0.269 OA 
HETATM   17  H2  UNL     1      -7.931   8.670  65.754  1.00  0.00     0.000 HD 
HETATM   18  N   UNL     1      -7.661   9.161  66.606  1.00  0.00    -0.089 NA 
HETATM   19  C   UNL     1      -8.692  10.214  68.472  1.00  0.00    -0.123 C  
HETATM   20  C   UNL     1      -8.033   9.474  69.612  1.00  0.00    -0.120 C  
HETATM   21  C   UNL     1      -8.683  11.705  68.397  1.00  0.00    -0.158 C  
HETATM   22  H1  UNL     1      -7.047   9.942  66.372  1.00  0.00     0.000 HD 
BRANCH  13  23
HETATM   23  C   UNL     1      -9.646   5.103  69.046  1.00  0.00    -0.145 C  
BRANCH  23  24
HETATM   24  O   UNL     1     -10.512   4.600  68.010  1.00  0.00     0.071 OA 
BRANCH  24  25
HETATM   25  C   UNL     1     -10.018   4.685  66.749  1.00  0.00    -0.225 C  
HETATM   26  O   UNL     1      -8.852   4.488  66.426  1.00  0.00    -0.112 OA 
HETATM   27  N   UNL     1     -10.992   5.061  65.897  1.00  0.00    -0.770 N  
HETATM   28  H1  UNL     1     -10.621   5.124  64.950  1.00  0.00     0.000 HD 
HETATM   29  H2  UNL     1     -11.959   5.254  66.161  1.00  0.00     0.000 HD 
ENDBRANCH  24  25
ENDBRANCH  23  24
ENDBRANCH  13  23
ENDBRANCH   2   3
TORSDOF 4
ENDMDL
MODEL      122
REMARK 921   NORMALIZED FREE ENERGY PREDICTED BY IDOCK:   -3.74 KCAL/MOL
REMARK 922        TOTAL FREE ENERGY PREDICTED BY IDOCK:   -4.78 KCAL/MOL
REMARK 923 INTER-LIGAND FREE ENERGY PREDICTED BY IDOCK:   -4.36 KCAL/MOL
REMARK 924 INTRA-LIGAND FREE ENERGY PREDICTED BY IDOCK:   -0.43 KCAL/MOL
REMARK 927      BINDING AFFINITY PREDICTED BY RF-SCORE:    0.00 PKD
ROOT
HETATM    1  C   UNL     1      -5.764   4.608  67.158  1.00  0.00    -0.022 C  
HETATM    2  O   UNL     1      -6.829   5.478  66.734  1.00  0.00    -0.060 OA 
ENDROOT
BRANCH   2   3
HETATM    3  C   UNL     1      -7.551   6.008  67.846  1.00  0.00    -0.097 C  
HETATM    4  C   UNL     1      -6.606   6.969  68.624  1.00  0.00    -0.054 C  
HETATM    5  N   UNL     1      -5.512   7.698  67.951  1.00  0.00    -0.030 NA 
HETATM    6  H   UNL     1      -4.887   7.464  67.179  1.00  0.00     0.000 HD 
HETATM    7  C   UNL     1      -6.797   8.362  68.021  1.00  0.00    -0.070 C  
HETATM    8  C   UNL     1      -7.899   8.231  67.015  1.00  0.00    -0.096 C  
HETATM    9  N   UNL     1      -8.589   7.030  67.481  1.00  0.00    -0.122 NA 
HETATM   10  C   UNL     1      -9.456   7.037  68.614  1.00  0.00    -0.135 C  
HETATM   11  C   UNL     1      -9.530   5.803  69.131  1.00  0.00    -0.157 C  
HETATM   12  C   UNL     1     -10.312   5.523  70.330  1.00  0.00    -0.276 C  
HETATM   13  C   UNL     1      -8.480   4.929  68.514  1.00  0.00    -0.095 C  
HETATM   14  C   UNL     1     -11.140   6.694  70.811  1.00  0.00    -0.286 C  
HETATM   15  O   UNL     1     -10.236   4.470  70.948  1.00  0.00    -0.191 OA 
HETATM   16  O   UNL     1      -9.314   9.307  69.434  1.00  0.00    -0.153 OA 
HETATM   17  H2  UNL     1     -12.937   6.024  70.256  1.00  0.00     0.000 HD 
HETATM   18  N   UNL     1     -12.389   6.881  70.189  1.00  0.00    -0.578 NA 
HETATM   19  C   UNL     1     -10.300   7.736  70.937  1.00  0.00    -0.208 C  
HETATM   20  C   UNL     1      -9.682   8.156  69.624  1.00  0.00    -0.170 C  
HETATM   21  C   UNL     1     -10.418   8.683  72.084  1.00  0.00    -0.411 C  
HETATM   22  H1  UNL     1     -12.948   7.671  70.514  1.00  0.00     0.000 HD 
BRANCH  13  23
HETATM   23  C   UNL     1      -9.125   4.053  67.413  1.00  0.00    -0.150 C  
BRANCH  23  24
HETATM   24  O   UNL     1     -10.372   4.575  66.916  1.00  0.00    -0.169 OA 
BRANCH  24  25
HETATM   25  C   UNL     1     -10.465   4.668  65.565  1.00  0.00    -0.189 C  
HETATM   26  O   UNL     1     -11.382   4.228  64.882  1.00  0.00    -0.278 OA 
HETATM   27  N   UNL     1      -9.371   5.282  65.070  1.00  0.00    -0.359 N  
HETATM   28  H1  UNL     1      -9.442   5.352  64.055  1.00  0.00     0.000 HD 
HETATM   29  H2  UNL     1      -8.590   5.627  65.628  1.00  0.00     0.000 HD 
ENDBRANCH  24  25
ENDBRANCH  23  24
ENDBRANCH  13  23
ENDBRANCH   2   3
TORSDOF 4
ENDMDL
MODEL      123
REMARK 921   NORMALIZED FREE ENERGY PREDICTED BY IDOCK:   -3.73 KCAL/MOL
REMARK 922        TOTAL FREE ENERGY PREDICTED BY IDOCK:   -4.77 KCAL/MOL
REMARK 923 INTER-LIGAND FREE ENERGY PREDICTED BY IDOCK:   -5.40 KCAL/MOL
REMARK 924 INTRA-LIGAND FREE ENERGY PREDICTED BY IDOCK:    0.63 KCAL/MOL
REMARK 927      BINDING AFFINITY PREDICTED BY RF-SCORE:    0.00 PKD
ROOT
HETATM    1  C   UNL     1     -10.661   9.660  66.127  1.00  0.00     0.085 C  
HETATM    2  O   UNL     1      -9.714  10.263  65.225  1.00  0.00    -0.246 OA 
ENDROOT
BRANCH   2   3
HETATM    3  C   UNL     1      -9.828  11.687  65.218  1.00  0.00    -0.248 C  
HETATM    4  C   UNL     1      -9.935  12.156  63.737  1.00  0.00    -0.318 C  
HETATM    5  N   UNL     1     -10.516  11.293  62.688  1.00  0.00    -0.580 NA 
HETATM    6  H   UNL     1     -10.507  10.286  62.526  1.00  0.00     0.000 HD 
HETATM    7  C   UNL     1     -11.424  12.179  63.386  1.00  0.00    -0.416 C  
HETATM    8  C   UNL     1     -12.153  11.853  64.654  1.00  0.00    -0.137 C  
HETATM    9  N   UNL     1     -11.164  12.205  65.669  1.00  0.00    -0.324 NA 
HETATM   10  C   UNL     1     -10.887  13.556  66.031  1.00  0.00    -0.278 C  
HETATM   11  C   UNL     1      -9.652  13.641  66.545  1.00  0.00    -0.294 C  
HETATM   12  C   UNL     1      -9.083  14.918  66.959  1.00  0.00    -0.237 C  
HETATM   13  C   UNL     1      -8.914  12.358  66.307  1.00  0.00    -0.041 C  
HETATM   14  C   UNL     1     -10.060  16.072  66.911  1.00  0.00    -0.265 C  
HETATM   15  O   UNL     1      -7.899  15.066  67.232  1.00  0.00    -0.186 OA 
HETATM   16  O   UNL     1     -12.291  14.850  64.546  1.00  0.00    -0.439 OA 
HETATM   17  H2  UNL     1     -10.348  16.288  68.875  1.00  0.00     0.000 HD 
HETATM   18  N   UNL     1     -10.907  16.228  68.024  1.00  0.00    -0.333 NA 
HETATM   19  C   UNL     1     -10.584  16.082  65.673  1.00  0.00    -0.392 C  
HETATM   20  C   UNL     1     -11.375  14.834  65.358  1.00  0.00    -0.356 C  
HETATM   21  C   UNL     1     -10.832  17.367  64.956  1.00  0.00     0.278 C  
HETATM   22  H1  UNL     1     -11.567  17.006  67.991  1.00  0.00     0.000 HD 
BRANCH  13  23
HETATM   23  C   UNL     1      -8.940  11.504  67.597  1.00  0.00    -0.160 C  
BRANCH  23  24
HETATM   24  O   UNL     1      -7.742  10.731  67.803  1.00  0.00    -0.101 OA 
BRANCH  24  25
HETATM   25  C   UNL     1      -7.004  11.083  68.886  1.00  0.00    -0.088 C  
HETATM   26  O   UNL     1      -5.860  11.520  68.857  1.00  0.00    -0.047 OA 
HETATM   27  N   UNL     1      -7.701  10.842  70.015  1.00  0.00    -0.276 N  
HETATM   28  H1  UNL     1      -7.146  11.106  70.829  1.00  0.00     0.000 HD 
HETATM   29  H2  UNL     1      -8.643  10.452  70.050  1.00  0.00     0.000 HD 
ENDBRANCH  24  25
ENDBRANCH  23  24
ENDBRANCH  13  23
ENDBRANCH   2   3
TORSDOF 4
ENDMDL
MODEL      124
REMARK 921   NORMALIZED FREE ENERGY PREDICTED BY IDOCK:   -3.71 KCAL/MOL
REMARK 922        TOTAL FREE ENERGY PREDICTED BY IDOCK:   -4.75 KCAL/MOL
REMARK 923 INTER-LIGAND FREE ENERGY PREDICTED BY IDOCK:   -4.82 KCAL/MOL
REMARK 924 INTRA-LIGAND FREE ENERGY PREDICTED BY IDOCK:    0.08 KCAL/MOL
REMARK 927      BINDING AFFINITY PREDICTED BY RF-SCORE:    0.00 PKD
ROOT
HETATM    1  C   UNL     1     -10.106   9.309  67.360  1.00  0.00    -0.223 C  
HETATM    2  O   UNL     1     -11.069   8.611  68.171  1.00  0.00     0.090 OA 
ENDROOT
BRANCH   2   3
HETATM    3  C   UNL     1     -10.460   8.012  69.315  1.00  0.00    -0.215 C  
HETATM    4  C   UNL     1      -9.762   9.135  70.136  1.00  0.00    -0.204 C  
HETATM    5  N   UNL     1     -10.250  10.529  70.118  1.00  0.00    -0.409 NA 
HETATM    6  H   UNL     1     -10.675  11.112  69.397  1.00  0.00     0.000 HD 
HETATM    7  C   UNL     1     -10.794   9.657  71.138  1.00  0.00    -0.334 C  
HETATM    8  C   UNL     1     -12.002   8.784  70.982  1.00  0.00    -0.251 C  
HETATM    9  N   UNL     1     -11.428   7.583  70.380  1.00  0.00    -0.241 NA 
HETATM   10  C   UNL     1     -10.685   6.629  71.135  1.00  0.00    -0.234 C  
HETATM   11  C   UNL     1      -9.862   5.954  70.322  1.00  0.00    -0.234 C  
HETATM   12  C   UNL     1      -8.943   4.942  70.833  1.00  0.00    -0.132 C  
HETATM   13  C   UNL     1      -9.817   6.616  68.978  1.00  0.00    -0.149 C  
HETATM   14  C   UNL     1      -9.132   4.625  72.300  1.00  0.00    -0.126 C  
HETATM   15  O   UNL     1      -8.039   4.460  70.164  1.00  0.00    -0.059 OA 
HETATM   16  O   UNL     1     -10.605   7.588  73.354  1.00  0.00    -0.375 OA 
HETATM   17  H2  UNL     1      -9.985   2.831  72.099  1.00  0.00     0.000 HD 
HETATM   18  N   UNL     1     -10.139   3.695  72.620  1.00  0.00    -0.158 NA 
HETATM   19  C   UNL     1      -9.078   5.796  72.958  1.00  0.00    -0.124 C  
HETATM   20  C   UNL     1     -10.193   6.739  72.575  1.00  0.00    -0.179 C  
HETATM   21  C   UNL     1      -8.377   5.906  74.271  1.00  0.00    -0.108 C  
HETATM   22  H1  UNL     1     -10.266   3.482  73.609  1.00  0.00     0.000 HD 
BRANCH  13  23
HETATM   23  C   UNL     1     -10.737   5.850  67.998  1.00  0.00    -0.252 C  
BRANCH  23  24
HETATM   24  O   UNL     1     -10.406   6.060  66.612  1.00  0.00    -0.205 OA 
BRANCH  24  25
HETATM   25  C   UNL     1      -9.780   5.022  66.002  1.00  0.00    -0.180 C  
HETATM   26  O   UNL     1      -9.150   5.086  64.953  1.00  0.00    -0.149 OA 
HETATM   27  N   UNL     1      -9.986   3.886  66.699  1.00  0.00    -0.374 N  
HETATM   28  H1  UNL     1      -9.516   3.106  66.241  1.00  0.00     0.000 HD 
HETATM   29  H2  UNL     1     -10.532   3.817  67.558  1.00  0.00     0.000 HD 
ENDBRANCH  24  25
ENDBRANCH  23  24
ENDBRANCH  13  23
ENDBRANCH   2   3
TORSDOF 4
ENDMDL
MODEL      125
REMARK 921   NORMALIZED FREE ENERGY PREDICTED BY IDOCK:   -3.64 KCAL/MOL
REMARK 922        TOTAL FREE ENERGY PREDICTED BY IDOCK:   -4.66 KCAL/MOL
REMARK 923 INTER-LIGAND FREE ENERGY PREDICTED BY IDOCK:   -4.15 KCAL/MOL
REMARK 924 INTRA-LIGAND FREE ENERGY PREDICTED BY IDOCK:   -0.51 KCAL/MOL
REMARK 927      BINDING AFFINITY PREDICTED BY RF-SCORE:    0.00 PKD
ROOT
HETATM    1  C   UNL     1     -10.176   6.740  74.005  1.00  0.00    -0.369 C  
HETATM    2  O   UNL     1     -10.463   5.381  73.625  1.00  0.00    -0.215 OA 
ENDROOT
BRANCH   2   3
HETATM    3  C   UNL     1      -9.716   4.986  72.474  1.00  0.00    -0.155 C  
HETATM    4  C   UNL     1      -8.313   4.506  72.950  1.00  0.00    -0.103 C  
HETATM    5  N   UNL     1      -8.104   3.919  74.289  1.00  0.00    -0.089 NA 
HETATM    6  H   UNL     1      -8.520   4.098  75.203  1.00  0.00     0.000 HD 
HETATM    7  C   UNL     1      -8.426   3.004  73.214  1.00  0.00    -0.077 C  
HETATM    8  C   UNL     1      -9.808   2.611  72.790  1.00  0.00    -0.128 C  
HETATM    9  N   UNL     1     -10.155   3.686  71.865  1.00  0.00    -0.153 NA 
HETATM   10  C   UNL     1      -9.635   3.752  70.539  1.00  0.00    -0.192 C  
HETATM   11  C   UNL     1      -9.662   5.020  70.106  1.00  0.00    -0.280 C  
HETATM   12  C   UNL     1      -9.145   5.392  68.795  1.00  0.00    -0.118 C  
HETATM   13  C   UNL     1      -9.969   5.940  71.250  1.00  0.00    -0.232 C  
HETATM   14  C   UNL     1      -8.746   4.213  67.935  1.00  0.00    -0.103 C  
HETATM   15  O   UNL     1      -8.960   6.552  68.452  1.00  0.00    -0.126 OA 
HETATM   16  O   UNL     1      -8.134   1.860  70.415  1.00  0.00    -0.042 OA 
HETATM   17  H2  UNL     1     -10.267   4.270  66.643  1.00  0.00     0.000 HD 
HETATM   18  N   UNL     1      -9.776   3.581  67.213  1.00  0.00    -0.318 NA 
HETATM   19  C   UNL     1      -7.898   3.470  68.668  1.00  0.00    -0.055 C  
HETATM   20  C   UNL     1      -8.539   2.898  69.910  1.00  0.00    -0.058 C  
HETATM   21  C   UNL     1      -6.698   2.838  68.045  1.00  0.00    -0.040 C  
HETATM   22  H1  UNL     1      -9.507   2.786  66.633  1.00  0.00     0.000 HD 
BRANCH  13  23
HETATM   23  C   UNL     1     -11.465   6.333  71.205  1.00  0.00    -0.291 C  
BRANCH  23  24
HETATM   24  O   UNL     1     -11.768   7.344  70.225  1.00  0.00    -0.196 OA 
BRANCH  24  25
HETATM   25  C   UNL     1     -11.156   8.540  70.419  1.00  0.00    -0.231 C  
HETATM   26  O   UNL     1     -11.146   9.174  71.468  1.00  0.00    -0.313 OA 
HETATM   27  N   UNL     1     -10.590   8.960  69.270  1.00  0.00    -0.271 N  
HETATM   28  H1  UNL     1     -10.131   9.858  69.415  1.00  0.00     0.000 HD 
HETATM   29  H2  UNL     1     -10.617   8.453  68.384  1.00  0.00     0.000 HD 
ENDBRANCH  24  25
ENDBRANCH  23  24
ENDBRANCH  13  23
ENDBRANCH   2   3
TORSDOF 4
ENDMDL
MODEL      126
REMARK 921   NORMALIZED FREE ENERGY PREDICTED BY IDOCK:   -3.61 KCAL/MOL
REMARK 922        TOTAL FREE ENERGY PREDICTED BY IDOCK:   -4.62 KCAL/MOL
REMARK 923 INTER-LIGAND FREE ENERGY PREDICTED BY IDOCK:   -4.93 KCAL/MOL
REMARK 924 INTRA-LIGAND FREE ENERGY PREDICTED BY IDOCK:    0.32 KCAL/MOL
REMARK 927      BINDING AFFINITY PREDICTED BY RF-SCORE:    0.00 PKD
ROOT
HETATM    1  C   UNL     1     -10.650   5.836  73.615  1.00  0.00    -0.276 C  
HETATM    2  O   UNL     1     -11.229   5.556  72.327  1.00  0.00    -0.257 OA 
ENDROOT
BRANCH   2   3
HETATM    3  C   UNL     1     -11.021   6.631  71.411  1.00  0.00    -0.250 C  
HETATM    4  C   UNL     1     -12.407   7.062  70.847  1.00  0.00    -0.314 C  
HETATM    5  N   UNL     1     -13.650   6.895  71.627  1.00  0.00    -0.359 NA 
HETATM    6  H   UNL     1     -13.970   6.188  72.290  1.00  0.00     0.000 HD 
HETATM    7  C   UNL     1     -12.944   8.150  71.779  1.00  0.00    -0.342 C  
HETATM    8  C   UNL     1     -11.856   8.422  72.771  1.00  0.00    -0.164 C  
HETATM    9  N   UNL     1     -10.674   7.941  72.060  1.00  0.00    -0.227 NA 
HETATM   10  C   UNL     1     -10.064   8.680  71.004  1.00  0.00    -0.215 C  
HETATM   11  C   UNL     1      -9.383   7.846  70.206  1.00  0.00    -0.159 C  
HETATM   12  C   UNL     1      -8.695   8.323  69.011  1.00  0.00    -0.143 C  
HETATM   13  C   UNL     1      -9.725   6.426  70.544  1.00  0.00    -0.186 C  
HETATM   14  C   UNL     1      -8.685   9.829  68.867  1.00  0.00    -0.136 C  
HETATM   15  O   UNL     1      -8.246   7.575  68.154  1.00  0.00    -0.122 OA 
HETATM   16  O   UNL     1     -11.493  10.614  70.754  1.00  0.00    -0.327 OA 
HETATM   17  H2  UNL     1      -6.768  10.150  69.324  1.00  0.00     0.000 HD 
HETATM   18  N   UNL     1      -7.684  10.524  69.573  1.00  0.00    -0.228 NA 
HETATM   19  C   UNL     1      -9.964  10.233  68.961  1.00  0.00    -0.223 C  
HETATM   20  C   UNL     1     -10.580   9.934  70.307  1.00  0.00    -0.301 C  
HETATM   21  C   UNL     1     -10.490  11.321  68.084  1.00  0.00    -0.215 C  
HETATM   22  H1  UNL     1      -7.678  11.539  69.475  1.00  0.00     0.000 HD 
BRANCH  13  23
HETATM   23  C   UNL     1      -8.606   5.825  71.427  1.00  0.00    -0.129 C  
BRANCH  23  24
HETATM   24  O   UNL     1      -8.235   4.484  71.056  1.00  0.00    -0.085 OA 
BRANCH  24  25
HETATM   25  C   UNL     1      -8.460   3.538  72.003  1.00  0.00    -0.082 C  
HETATM   26  O   UNL     1      -7.687   3.233  72.904  1.00  0.00    -0.057 OA 
HETATM   27  N   UNL     1      -9.651   2.943  71.786  1.00  0.00    -0.137 N  
HETATM   28  H1  UNL     1      -9.820   2.233  72.498  1.00  0.00     0.000 HD 
HETATM   29  H2  UNL     1     -10.289   3.171  71.023  1.00  0.00     0.000 HD 
ENDBRANCH  24  25
ENDBRANCH  23  24
ENDBRANCH  13  23
ENDBRANCH   2   3
TORSDOF 4
ENDMDL
MODEL      127
REMARK 921   NORMALIZED FREE ENERGY PREDICTED BY IDOCK:   -3.57 KCAL/MOL
REMARK 922        TOTAL FREE ENERGY PREDICTED BY IDOCK:   -4.57 KCAL/MOL
REMARK 923 INTER-LIGAND FREE ENERGY PREDICTED BY IDOCK:   -4.46 KCAL/MOL
REMARK 924 INTRA-LIGAND FREE ENERGY PREDICTED BY IDOCK:   -0.11 KCAL/MOL
REMARK 927      BINDING AFFINITY PREDICTED BY RF-SCORE:    0.00 PKD
ROOT
HETATM    1  C   UNL     1      -7.195  14.131  67.861  1.00  0.00    -0.158 C  
HETATM    2  O   UNL     1      -7.873  13.162  68.682  1.00  0.00    -0.126 OA 
ENDROOT
BRANCH   2   3
HETATM    3  C   UNL     1      -7.909  11.877  68.059  1.00  0.00    -0.140 C  
HETATM    4  C   UNL     1      -6.442  11.414  67.821  1.00  0.00    -0.065 C  
HETATM    5  N   UNL     1      -5.335  11.859  68.691  1.00  0.00    -0.049 NA 
HETATM    6  H   UNL     1      -5.139  12.731  69.183  1.00  0.00     0.000 HD 
HETATM    7  C   UNL     1      -6.015  10.637  69.068  1.00  0.00    -0.040 C  
HETATM    8  C   UNL     1      -7.231  10.553  69.940  1.00  0.00    -0.130 C  
HETATM    9  N   UNL     1      -8.308  10.755  68.974  1.00  0.00    -0.151 NA 
HETATM   10  C   UNL     1      -8.731   9.732  68.075  1.00  0.00    -0.118 C  
HETATM   11  C   UNL     1      -9.311  10.287  67.002  1.00  0.00    -0.177 C  
HETATM   12  C   UNL     1      -9.799   9.476  65.892  1.00  0.00    -0.290 C  
HETATM   13  C   UNL     1      -9.067  11.766  67.001  1.00  0.00    -0.187 C  
HETATM   14  C   UNL     1      -9.740   7.986  66.146  1.00  0.00    -0.046 C  
HETATM   15  O   UNL     1     -10.138   9.950  64.816  1.00  0.00    -0.232 OA 
HETATM   16  O   UNL     1      -7.221   7.900  68.536  1.00  0.00    -0.081 OA 
HETATM   17  H2  UNL     1     -11.692   7.661  66.407  1.00  0.00     0.000 HD 
HETATM   18  N   UNL     1     -10.812   7.426  66.866  1.00  0.00    -0.557 NA 
HETATM   19  C   UNL     1      -8.477   7.708  66.515  1.00  0.00    -0.133 C  
HETATM   20  C   UNL     1      -8.078   8.381  67.806  1.00  0.00    -0.122 C  
HETATM   21  C   UNL     1      -7.793   6.471  66.033  1.00  0.00    -0.103 C  
HETATM   22  H1  UNL     1     -10.772   6.421  67.038  1.00  0.00     0.000 HD 
BRANCH  13  23
HETATM   23  C   UNL     1     -10.323  12.493  67.536  1.00  0.00    -0.220 C  
BRANCH  23  24
HETATM   24  O   UNL     1     -11.327  11.602  68.061  1.00  0.00    -0.249 OA 
BRANCH  24  25
HETATM   25  C   UNL     1     -11.748  11.881  69.320  1.00  0.00    -0.328 C  
HETATM   26  O   UNL     1     -12.354  11.111  70.056  1.00  0.00    -0.304 OA 
HETATM   27  N   UNL     1     -11.441  13.155  69.637  1.00  0.00    -0.455 N  
HETATM   28  H1  UNL     1     -11.758  13.364  70.583  1.00  0.00     0.000 HD 
HETATM   29  H2  UNL     1     -10.962  13.813  69.021  1.00  0.00     0.000 HD 
ENDBRANCH  24  25
ENDBRANCH  23  24
ENDBRANCH  13  23
ENDBRANCH   2   3
TORSDOF 4
ENDMDL
MODEL      128
REMARK 921   NORMALIZED FREE ENERGY PREDICTED BY IDOCK:   -3.56 KCAL/MOL
REMARK 922        TOTAL FREE ENERGY PREDICTED BY IDOCK:   -4.56 KCAL/MOL
REMARK 923 INTER-LIGAND FREE ENERGY PREDICTED BY IDOCK:   -4.43 KCAL/MOL
REMARK 924 INTRA-LIGAND FREE ENERGY PREDICTED BY IDOCK:   -0.13 KCAL/MOL
REMARK 927      BINDING AFFINITY PREDICTED BY RF-SCORE:    0.00 PKD
ROOT
HETATM    1  C   UNL     1      -7.878   8.641  71.240  1.00  0.00    -0.128 C  
HETATM    2  O   UNL     1      -7.927   8.719  69.803  1.00  0.00    -0.089 OA 
ENDROOT
BRANCH   2   3
HETATM    3  C   UNL     1      -7.904  10.072  69.348  1.00  0.00    -0.141 C  
HETATM    4  C   UNL     1      -6.676  10.779  69.993  1.00  0.00    -0.149 C  
HETATM    5  N   UNL     1      -5.459  10.034  70.371  1.00  0.00    -0.046 NA 
HETATM    6  H   UNL     1      -5.299   9.094  70.734  1.00  0.00     0.000 HD 
HETATM    7  C   UNL     1      -5.500  10.588  69.034  1.00  0.00    -0.041 C  
HETATM    8  C   UNL     1      -6.058   9.901  67.825  1.00  0.00    -0.054 C  
HETATM    9  N   UNL     1      -7.477  10.238  67.917  1.00  0.00    -0.087 NA 
HETATM   10  C   UNL     1      -7.981  11.526  67.571  1.00  0.00    -0.133 C  
HETATM   11  C   UNL     1      -9.138  11.743  68.211  1.00  0.00    -0.187 C  
HETATM   12  C   UNL     1      -9.859  13.005  68.080  1.00  0.00    -0.228 C  
HETATM   13  C   UNL     1      -9.348  10.689  69.255  1.00  0.00    -0.136 C  
HETATM   14  C   UNL     1      -9.273  13.944  67.049  1.00  0.00    -0.250 C  
HETATM   15  O   UNL     1     -10.795  13.319  68.803  1.00  0.00    -0.245 OA 
HETATM   16  O   UNL     1      -5.999  12.786  66.997  1.00  0.00    -0.307 OA 
HETATM   17  H2  UNL     1     -10.672  13.734  65.641  1.00  0.00     0.000 HD 
HETATM   18  N   UNL     1      -9.655  13.728  65.711  1.00  0.00    -0.505 NA 
HETATM   19  C   UNL     1      -7.971  14.085  67.351  1.00  0.00    -0.191 C  
HETATM   20  C   UNL     1      -7.197  12.792  67.245  1.00  0.00    -0.082 C  
HETATM   21  C   UNL     1      -7.296  15.412  67.236  1.00  0.00    -0.239 C  
HETATM   22  H1  UNL     1      -9.259  14.362  65.015  1.00  0.00     0.000 HD 
BRANCH  13  23
HETATM   23  C   UNL     1     -10.329   9.621  68.717  1.00  0.00    -0.213 C  
BRANCH  23  24
HETATM   24  O   UNL     1     -11.535   9.499  69.495  1.00  0.00    -0.069 OA 
BRANCH  24  25
HETATM   25  C   UNL     1     -11.381   8.933  70.719  1.00  0.00    -0.278 C  
HETATM   26  O   UNL     1     -11.530   9.505  71.792  1.00  0.00    -0.384 OA 
HETATM   27  N   UNL     1     -10.994   7.648  70.586  1.00  0.00    -0.246 N  
HETATM   28  H1  UNL     1     -10.879   7.223  71.505  1.00  0.00     0.000 HD 
HETATM   29  H2  UNL     1     -10.840   7.171  69.697  1.00  0.00     0.000 HD 
ENDBRANCH  24  25
ENDBRANCH  23  24
ENDBRANCH  13  23
ENDBRANCH   2   3
TORSDOF 4
ENDMDL
MODEL      129
REMARK 921   NORMALIZED FREE ENERGY PREDICTED BY IDOCK:   -3.50 KCAL/MOL
REMARK 922        TOTAL FREE ENERGY PREDICTED BY IDOCK:   -4.49 KCAL/MOL
REMARK 923 INTER-LIGAND FREE ENERGY PREDICTED BY IDOCK:   -4.08 KCAL/MOL
REMARK 924 INTRA-LIGAND FREE ENERGY PREDICTED BY IDOCK:   -0.41 KCAL/MOL
REMARK 927      BINDING AFFINITY PREDICTED BY RF-SCORE:    0.00 PKD
ROOT
HETATM    1  C   UNL     1      -9.335   5.737  69.796  1.00  0.00    -0.147 C  
HETATM    2  O   UNL     1      -8.640   6.995  69.710  1.00  0.00    -0.139 OA 
ENDROOT
BRANCH   2   3
HETATM    3  C   UNL     1      -8.991   7.710  68.525  1.00  0.00    -0.129 C  
HETATM    4  C   UNL     1     -10.503   8.070  68.606  1.00  0.00    -0.167 C  
HETATM    5  N   UNL     1     -11.188   8.266  69.899  1.00  0.00    -0.448 NA 
HETATM    6  H   UNL     1     -11.088   7.831  70.817  1.00  0.00     0.000 HD 
HETATM    7  C   UNL     1     -10.597   9.437  69.286  1.00  0.00    -0.225 C  
HETATM    8  C   UNL     1      -9.186   9.902  69.480  1.00  0.00    -0.223 C  
HETATM    9  N   UNL     1      -8.472   9.119  68.475  1.00  0.00    -0.127 NA 
HETATM   10  C   UNL     1      -8.515   9.436  67.085  1.00  0.00    -0.128 C  
HETATM   11  C   UNL     1      -8.251   8.338  66.364  1.00  0.00    -0.107 C  
HETATM   12  C   UNL     1      -8.274   8.357  64.906  1.00  0.00    -0.153 C  
HETATM   13  C   UNL     1      -8.274   7.130  67.251  1.00  0.00    -0.119 C  
HETATM   14  C   UNL     1      -8.451   9.737  64.312  1.00  0.00    -0.178 C  
HETATM   15  O   UNL     1      -8.247   7.343  64.223  1.00  0.00    -0.093 OA 
HETATM   16  O   UNL     1     -10.027  11.320  66.972  1.00  0.00    -0.192 OA 
HETATM   17  H2  UNL     1      -6.588  10.008  63.650  1.00  0.00     0.000 HD 
HETATM   18  N   UNL     1      -7.290  10.522  64.182  1.00  0.00    -0.344 NA 
HETATM   19  C   UNL     1      -9.547  10.265  64.884  1.00  0.00    -0.365 C  
HETATM   20  C   UNL     1      -9.401  10.455  66.375  1.00  0.00    -0.164 C  
HETATM   21  C   UNL     1     -10.517  11.072  64.085  1.00  0.00    -0.434 C  
HETATM   22  H1  UNL     1      -7.410  11.453  63.781  1.00  0.00     0.000 HD 
BRANCH  13  23
HETATM   23  C   UNL     1      -6.823   6.732  67.614  1.00  0.00    -0.080 C  
BRANCH  23  24
HETATM   24  O   UNL     1      -6.545   5.331  67.431  1.00  0.00    -0.050 OA 
BRANCH  24  25
HETATM   25  C   UNL     1      -6.122   4.674  68.540  1.00  0.00    -0.031 C  
HETATM   26  O   UNL     1      -6.169   3.461  68.711  1.00  0.00    -0.027 OA 
HETATM   27  N   UNL     1      -5.677   5.556  69.457  1.00  0.00    -0.012 N  
HETATM   28  H1  UNL     1      -5.359   5.062  70.290  1.00  0.00     0.000 HD 
HETATM   29  H2  UNL     1      -5.660   6.569  69.334  1.00  0.00     0.000 HD 
ENDBRANCH  24  25
ENDBRANCH  23  24
ENDBRANCH  13  23
ENDBRANCH   2   3
TORSDOF 4
ENDMDL
MODEL      130
REMARK 921   NORMALIZED FREE ENERGY PREDICTED BY IDOCK:   -3.49 KCAL/MOL
REMARK 922        TOTAL FREE ENERGY PREDICTED BY IDOCK:   -4.48 KCAL/MOL
REMARK 923 INTER-LIGAND FREE ENERGY PREDICTED BY IDOCK:   -5.91 KCAL/MOL
REMARK 924 INTRA-LIGAND FREE ENERGY PREDICTED BY IDOCK:    1.43 KCAL/MOL
REMARK 927      BINDING AFFINITY PREDICTED BY RF-SCORE:    0.00 PKD
ROOT
HETATM    1  C   UNL     1      -8.595   9.145  64.007  1.00  0.00    -0.166 C  
HETATM    2  O   UNL     1      -9.781   9.625  64.666  1.00  0.00    -0.202 OA 
ENDROOT
BRANCH   2   3
HETATM    3  C   UNL     1      -9.671  11.008  65.007  1.00  0.00    -0.254 C  
HETATM    4  C   UNL     1      -9.417  11.810  63.697  1.00  0.00    -0.086 C  
HETATM    5  N   UNL     1      -9.909  11.338  62.387  1.00  0.00    -0.504 NA 
HETATM    6  H   UNL     1     -10.024  10.411  61.976  1.00  0.00     0.000 HD 
HETATM    7  C   UNL     1     -10.788  12.204  63.145  1.00  0.00    -0.171 C  
HETATM    8  C   UNL     1     -11.790  11.750  64.162  1.00  0.00    -0.256 C  
HETATM    9  N   UNL     1     -10.973  11.663  65.370  1.00  0.00    -0.292 NA 
HETATM   10  C   UNL     1     -10.568  12.816  66.104  1.00  0.00    -0.266 C  
HETATM   11  C   UNL     1      -9.458  12.539  66.801  1.00  0.00    -0.231 C  
HETATM   12  C   UNL     1      -8.790  13.553  67.610  1.00  0.00    -0.202 C  
HETATM   13  C   UNL     1      -8.893  11.224  66.356  1.00  0.00    -0.184 C  
HETATM   14  C   UNL     1      -9.551  14.856  67.713  1.00  0.00    -0.208 C  
HETATM   15  O   UNL     1      -7.673  13.400  68.086  1.00  0.00    -0.119 OA 
HETATM   16  O   UNL     1     -11.442  14.660  64.808  1.00  0.00    -0.384 OA 
HETATM   17  H2  UNL     1     -10.176  14.676  69.601  1.00  0.00     0.000 HD 
HETATM   18  N   UNL     1     -10.563  14.920  68.690  1.00  0.00    -0.243 NA 
HETATM   19  C   UNL     1      -9.818  15.247  66.456  1.00  0.00    -0.283 C  
HETATM   20  C   UNL     1     -10.714  14.283  65.716  1.00  0.00    -0.305 C  
HETATM   21  C   UNL     1      -9.722  16.685  66.063  1.00  0.00    -0.306 C  
HETATM   22  H1  UNL     1     -11.076  15.799  68.759  1.00  0.00     0.000 HD 
BRANCH  13  23
HETATM   23  C   UNL     1      -9.299  10.123  67.365  1.00  0.00    -0.148 C  
BRANCH  23  24
HETATM   24  O   UNL     1     -10.309   9.226  66.865  1.00  0.00    -0.249 OA 
BRANCH  24  25
HETATM   25  C   UNL     1     -10.177   7.932  67.251  1.00  0.00    -0.273 C  
HETATM   26  O   UNL     1     -10.545   7.467  68.324  1.00  0.00    -0.193 OA 
HETATM   27  N   UNL     1      -9.539   7.228  66.294  1.00  0.00    -0.388 N  
HETATM   28  H1  UNL     1      -9.441   6.256  66.585  1.00  0.00     0.000 HD 
HETATM   29  H2  UNL     1      -9.204   7.612  65.410  1.00  0.00     0.000 HD 
ENDBRANCH  24  25
ENDBRANCH  23  24
ENDBRANCH  13  23
ENDBRANCH   2   3
TORSDOF 4
ENDMDL
MODEL      131
REMARK 921   NORMALIZED FREE ENERGY PREDICTED BY IDOCK:   -3.49 KCAL/MOL
REMARK 922        TOTAL FREE ENERGY PREDICTED BY IDOCK:   -4.48 KCAL/MOL
REMARK 923 INTER-LIGAND FREE ENERGY PREDICTED BY IDOCK:   -4.37 KCAL/MOL
REMARK 924 INTRA-LIGAND FREE ENERGY PREDICTED BY IDOCK:   -0.11 KCAL/MOL
REMARK 927      BINDING AFFINITY PREDICTED BY RF-SCORE:    0.00 PKD
ROOT
HETATM    1  C   UNL     1      -8.664   5.808  68.504  1.00  0.00    -0.111 C  
HETATM    2  O   UNL     1      -8.664   6.782  69.564  1.00  0.00    -0.132 OA 
ENDROOT
BRANCH   2   3
HETATM    3  C   UNL     1      -9.226   8.024  69.138  1.00  0.00    -0.151 C  
HETATM    4  C   UNL     1     -10.746   7.805  68.882  1.00  0.00    -0.085 C  
HETATM    5  N   UNL     1     -11.517   6.777  69.610  1.00  0.00    -0.575 NA 
HETATM    6  H   UNL     1     -11.287   5.845  69.956  1.00  0.00     0.000 HD 
HETATM    7  C   UNL     1     -11.463   8.097  70.201  1.00  0.00     0.006 C  
HETATM    8  C   UNL     1     -10.409   8.584  71.148  1.00  0.00    -0.215 C  
HETATM    9  N   UNL     1      -9.371   9.046  70.230  1.00  0.00    -0.182 NA 
HETATM   10  C   UNL     1      -9.473  10.276  69.517  1.00  0.00    -0.185 C  
HETATM   11  C   UNL     1      -8.717  10.220  68.411  1.00  0.00    -0.129 C  
HETATM   12  C   UNL     1      -8.667  11.327  67.463  1.00  0.00    -0.138 C  
HETATM   13  C   UNL     1      -8.259   8.812  68.179  1.00  0.00    -0.114 C  
HETATM   14  C   UNL     1      -9.396  12.569  67.928  1.00  0.00    -0.200 C  
HETATM   15  O   UNL     1      -8.163  11.234  66.352  1.00  0.00    -0.165 OA 
HETATM   16  O   UNL     1     -11.646  11.129  70.147  1.00  0.00    -0.303 OA 
HETATM   17  H2  UNL     1      -7.803  13.696  68.351  1.00  0.00     0.000 HD 
HETATM   18  N   UNL     1      -8.687  13.432  68.785  1.00  0.00    -0.371 NA 
HETATM   19  C   UNL     1     -10.641  12.184  68.256  1.00  0.00    -0.236 C  
HETATM   20  C   UNL     1     -10.673  11.210  69.409  1.00  0.00    -0.175 C  
HETATM   21  C   UNL     1     -11.820  13.036  67.919  1.00  0.00    -0.389 C  
HETATM   22  H1  UNL     1      -9.179  14.269  69.099  1.00  0.00     0.000 HD 
BRANCH  13  23
HETATM   23  C   UNL     1      -6.803   8.657  68.678  1.00  0.00    -0.063 C  
BRANCH  23  24
HETATM   24  O   UNL     1      -6.122   9.912  68.871  1.00  0.00    -0.041 OA 
BRANCH  24  25
HETATM   25  C   UNL     1      -5.948  10.284  70.164  1.00  0.00    -0.076 C  
HETATM   26  O   UNL     1      -5.556   9.556  71.069  1.00  0.00    -0.047 OA 
HETATM   27  N   UNL     1      -6.310  11.573  70.325  1.00  0.00    -0.287 N  
HETATM   28  H1  UNL     1      -6.178  11.853  71.297  1.00  0.00     0.000 HD 
HETATM   29  H2  UNL     1      -6.663  12.179  69.584  1.00  0.00     0.000 HD 
ENDBRANCH  24  25
ENDBRANCH  23  24
ENDBRANCH  13  23
ENDBRANCH   2   3
TORSDOF 4
ENDMDL
MODEL      132
REMARK 921   NORMALIZED FREE ENERGY PREDICTED BY IDOCK:   -3.49 KCAL/MOL
REMARK 922        TOTAL FREE ENERGY PREDICTED BY IDOCK:   -4.48 KCAL/MOL
REMARK 923 INTER-LIGAND FREE ENERGY PREDICTED BY IDOCK:   -4.40 KCAL/MOL
REMARK 924 INTRA-LIGAND FREE ENERGY PREDICTED BY IDOCK:   -0.08 KCAL/MOL
REMARK 927      BINDING AFFINITY PREDICTED BY RF-SCORE:    0.00 PKD
ROOT
HETATM    1  C   UNL     1     -12.274  14.415  67.256  1.00  0.00    -0.213 C  
HETATM    2  O   UNL     1     -12.061  12.992  67.281  1.00  0.00    -0.348 OA 
ENDROOT
BRANCH   2   3
HETATM    3  C   UNL     1     -10.810  12.656  67.883  1.00  0.00    -0.219 C  
HETATM    4  C   UNL     1     -10.979  12.737  69.428  1.00  0.00     0.020 C  
HETATM    5  N   UNL     1     -12.281  12.493  70.082  1.00  0.00    -0.276 NA 
HETATM    6  H   UNL     1     -13.246  12.690  69.815  1.00  0.00     0.000 HD 
HETATM    7  C   UNL     1     -11.414  11.348  69.899  1.00  0.00    -0.273 C  
HETATM    8  C   UNL     1     -11.379  10.469  68.686  1.00  0.00    -0.252 C  
HETATM    9  N   UNL     1     -10.460  11.197  67.814  1.00  0.00    -0.185 NA 
HETATM   10  C   UNL     1      -9.048  11.188  68.013  1.00  0.00    -0.153 C  
HETATM   11  C   UNL     1      -8.509  12.284  67.463  1.00  0.00    -0.172 C  
HETATM   12  C   UNL     1      -7.080  12.562  67.555  1.00  0.00    -0.151 C  
HETATM   13  C   UNL     1      -9.593  13.248  67.082  1.00  0.00    -0.240 C  
HETATM   14  C   UNL     1      -6.274  11.437  68.166  1.00  0.00    -0.045 C  
HETATM   15  O   UNL     1      -6.587  13.641  67.255  1.00  0.00    -0.254 OA 
HETATM   16  O   UNL     1      -8.758   9.878  70.024  1.00  0.00    -0.201 OA 
HETATM   17  H2  UNL     1      -5.389  10.780  66.501  1.00  0.00     0.000 HD 
HETATM   18  N   UNL     1      -5.890  10.395  67.301  1.00  0.00    -0.052 NA 
HETATM   19  C   UNL     1      -6.852  11.143  69.343  1.00  0.00    -0.125 C  
HETATM   20  C   UNL     1      -8.264  10.628  69.194  1.00  0.00    -0.139 C  
HETATM   21  C   UNL     1      -6.025  10.823  70.545  1.00  0.00    -0.122 C  
HETATM   22  H1  UNL     1      -5.346   9.636  67.713  1.00  0.00     0.000 HD 
BRANCH  13  23
HETATM   23  C   UNL     1      -9.871  13.132  65.564  1.00  0.00    -0.138 C  
BRANCH  23  24
HETATM   24  O   UNL     1      -9.192  12.029  64.935  1.00  0.00     0.095 OA 
BRANCH  24  25
HETATM   25  C   UNL     1      -9.918  11.354  64.007  1.00  0.00    -0.297 C  
HETATM   26  O   UNL     1     -11.036  10.883  64.182  1.00  0.00    -0.225 OA 
HETATM   27  N   UNL     1      -9.211  11.238  62.865  1.00  0.00    -0.433 N  
HETATM   28  H1  UNL     1      -9.757  10.732  62.168  1.00  0.00     0.000 HD 
HETATM   29  H2  UNL     1      -8.269  11.603  62.719  1.00  0.00     0.000 HD 
ENDBRANCH  24  25
ENDBRANCH  23  24
ENDBRANCH  13  23
ENDBRANCH   2   3
TORSDOF 4
ENDMDL
MODEL      133
REMARK 921   NORMALIZED FREE ENERGY PREDICTED BY IDOCK:   -3.45 KCAL/MOL
REMARK 922        TOTAL FREE ENERGY PREDICTED BY IDOCK:   -4.43 KCAL/MOL
REMARK 923 INTER-LIGAND FREE ENERGY PREDICTED BY IDOCK:   -4.96 KCAL/MOL
REMARK 924 INTRA-LIGAND FREE ENERGY PREDICTED BY IDOCK:    0.54 KCAL/MOL
REMARK 927      BINDING AFFINITY PREDICTED BY RF-SCORE:    0.00 PKD
ROOT
HETATM    1  C   UNL     1     -10.653  11.971  68.551  1.00  0.00    -0.231 C  
HETATM    2  O   UNL     1      -9.250  12.017  68.233  1.00  0.00    -0.189 OA 
ENDROOT
BRANCH   2   3
HETATM    3  C   UNL     1      -8.721  10.712  67.993  1.00  0.00    -0.126 C  
HETATM    4  C   UNL     1      -7.444  10.539  68.866  1.00  0.00    -0.104 C  
HETATM    5  N   UNL     1      -7.274  11.257  70.146  1.00  0.00    -0.378 NA 
HETATM    6  H   UNL     1      -7.555  12.182  70.472  1.00  0.00     0.000 HD 
HETATM    7  C   UNL     1      -7.899   9.952  70.204  1.00  0.00    -0.171 C  
HETATM    8  C   UNL     1      -9.366   9.684  70.062  1.00  0.00    -0.241 C  
HETATM    9  N   UNL     1      -9.516   9.597  68.611  1.00  0.00    -0.144 NA 
HETATM   10  C   UNL     1      -9.109   8.451  67.867  1.00  0.00    -0.133 C  
HETATM   11  C   UNL     1      -8.861   8.803  66.598  1.00  0.00    -0.153 C  
HETATM   12  C   UNL     1      -8.380   7.837  65.617  1.00  0.00    -0.139 C  
HETATM   13  C   UNL     1      -8.836  10.298  66.480  1.00  0.00    -0.150 C  
HETATM   14  C   UNL     1      -8.356   6.411  66.120  1.00  0.00    -0.128 C  
HETATM   15  O   UNL     1      -7.947   8.158  64.519  1.00  0.00    -0.131 OA 
HETATM   16  O   UNL     1      -8.133   6.998  69.535  1.00  0.00    -0.125 OA 
HETATM   17  H2  UNL     1      -9.920   5.716  65.092  1.00  0.00     0.000 HD 
HETATM   18  N   UNL     1      -9.567   5.696  66.048  1.00  0.00    -0.291 NA 
HETATM   19  C   UNL     1      -7.658   6.418  67.268  1.00  0.00    -0.096 C  
HETATM   20  C   UNL     1      -8.312   7.245  68.350  1.00  0.00    -0.125 C  
HETATM   21  C   UNL     1      -6.705   5.316  67.594  1.00  0.00    -0.055 C  
HETATM   22  H1  UNL     1      -9.550   4.734  66.388  1.00  0.00     0.000 HD 
BRANCH  13  23
HETATM   23  C   UNL     1     -10.188  10.791  65.914  1.00  0.00    -0.259 C  
BRANCH  23  24
HETATM   24  O   UNL     1     -10.052  11.719  64.820  1.00  0.00    -0.250 OA 
BRANCH  24  25
HETATM   25  C   UNL     1     -10.889  12.786  64.858  1.00  0.00    -0.299 C  
HETATM   26  O   UNL     1     -12.054  12.765  65.236  1.00  0.00    -0.405 OA 
HETATM   27  N   UNL     1     -10.263  13.879  64.377  1.00  0.00    -0.644 N  
HETATM   28  H1  UNL     1     -10.891  14.681  64.406  1.00  0.00     0.000 HD 
HETATM   29  H2  UNL     1      -9.302  13.901  64.035  1.00  0.00     0.000 HD 
ENDBRANCH  24  25
ENDBRANCH  23  24
ENDBRANCH  13  23
ENDBRANCH   2   3
TORSDOF 4
ENDMDL
MODEL      134
REMARK 921   NORMALIZED FREE ENERGY PREDICTED BY IDOCK:   -3.44 KCAL/MOL
REMARK 922        TOTAL FREE ENERGY PREDICTED BY IDOCK:   -4.41 KCAL/MOL
REMARK 923 INTER-LIGAND FREE ENERGY PREDICTED BY IDOCK:   -4.34 KCAL/MOL
REMARK 924 INTRA-LIGAND FREE ENERGY PREDICTED BY IDOCK:   -0.07 KCAL/MOL
REMARK 927      BINDING AFFINITY PREDICTED BY RF-SCORE:    0.00 PKD
ROOT
HETATM    1  C   UNL     1     -11.206  12.225  68.458  1.00  0.00    -0.271 C  
HETATM    2  O   UNL     1     -10.029  11.569  68.964  1.00  0.00    -0.142 OA 
ENDROOT
BRANCH   2   3
HETATM    3  C   UNL     1      -9.627  10.486  68.125  1.00  0.00    -0.154 C  
HETATM    4  C   UNL     1      -9.138  11.078  66.771  1.00  0.00    -0.162 C  
HETATM    5  N   UNL     1      -8.551  12.430  66.680  1.00  0.00    -0.373 NA 
HETATM    6  H   UNL     1      -8.733  13.306  67.170  1.00  0.00     0.000 HD 
HETATM    7  C   UNL     1      -7.637  11.332  66.916  1.00  0.00    -0.148 C  
HETATM    8  C   UNL     1      -7.253  10.794  68.260  1.00  0.00    -0.084 C  
HETATM    9  N   UNL     1      -8.330   9.842  68.520  1.00  0.00    -0.109 NA 
HETATM   10  C   UNL     1      -8.390   8.565  67.890  1.00  0.00    -0.126 C  
HETATM   11  C   UNL     1      -9.658   8.131  67.872  1.00  0.00    -0.179 C  
HETATM   12  C   UNL     1     -10.025   6.867  67.243  1.00  0.00    -0.172 C  
HETATM   13  C   UNL     1     -10.582   9.244  68.267  1.00  0.00    -0.237 C  
HETATM   14  C   UNL     1      -8.843   6.044  66.781  1.00  0.00    -0.120 C  
HETATM   15  O   UNL     1     -11.183   6.541  67.022  1.00  0.00    -0.397 OA 
HETATM   16  O   UNL     1      -6.488   8.568  66.397  1.00  0.00    -0.057 OA 
HETATM   17  H2  UNL     1      -8.909   4.629  68.188  1.00  0.00     0.000 HD 
HETATM   18  N   UNL     1      -8.217   5.239  67.751  1.00  0.00    -0.099 NA 
HETATM   19  C   UNL     1      -8.094   6.847  66.004  1.00  0.00    -0.119 C  
HETATM   20  C   UNL     1      -7.529   8.031  66.751  1.00  0.00    -0.090 C  
HETATM   21  C   UNL     1      -7.453   6.328  64.759  1.00  0.00    -0.086 C  
HETATM   22  H1  UNL     1      -7.419   4.684  67.439  1.00  0.00     0.000 HD 
BRANCH  13  23
HETATM   23  C   UNL     1     -10.984   9.073  69.751  1.00  0.00    -0.166 C  
BRANCH  23  24
HETATM   24  O   UNL     1     -10.448   7.884  70.362  1.00  0.00    -0.210 OA 
BRANCH  24  25
HETATM   25  C   UNL     1     -11.053   7.501  71.515  1.00  0.00    -0.236 C  
HETATM   26  O   UNL     1     -10.539   7.515  72.628  1.00  0.00    -0.235 OA 
HETATM   27  N   UNL     1     -12.300   7.059  71.256  1.00  0.00    -0.368 N  
HETATM   28  H1  UNL     1     -12.754   6.772  72.122  1.00  0.00     0.000 HD 
HETATM   29  H2  UNL     1     -12.726   7.018  70.330  1.00  0.00     0.000 HD 
ENDBRANCH  24  25
ENDBRANCH  23  24
ENDBRANCH  13  23
ENDBRANCH   2   3
TORSDOF 4
ENDMDL
MODEL      135
REMARK 921   NORMALIZED FREE ENERGY PREDICTED BY IDOCK:   -3.43 KCAL/MOL
REMARK 922        TOTAL FREE ENERGY PREDICTED BY IDOCK:   -4.40 KCAL/MOL
REMARK 923 INTER-LIGAND FREE ENERGY PREDICTED BY IDOCK:   -4.25 KCAL/MOL
REMARK 924 INTRA-LIGAND FREE ENERGY PREDICTED BY IDOCK:   -0.15 KCAL/MOL
REMARK 927      BINDING AFFINITY PREDICTED BY RF-SCORE:    0.00 PKD
ROOT
HETATM    1  C   UNL     1      -7.195   8.343  68.088  1.00  0.00    -0.091 C  
HETATM    2  O   UNL     1      -6.940   8.194  69.497  1.00  0.00    -0.048 OA 
ENDROOT
BRANCH   2   3
HETATM    3  C   UNL     1      -7.721   7.143  70.065  1.00  0.00    -0.103 C  
HETATM    4  C   UNL     1      -7.268   5.800  69.422  1.00  0.00    -0.066 C  
HETATM    5  N   UNL     1      -5.892   5.603  68.920  1.00  0.00    -0.018 NA 
HETATM    6  H   UNL     1      -5.217   6.221  68.470  1.00  0.00     0.000 HD 
HETATM    7  C   UNL     1      -6.145   5.246  70.301  1.00  0.00    -0.022 C  
HETATM    8  C   UNL     1      -6.039   6.173  71.473  1.00  0.00    -0.040 C  
HETATM    9  N   UNL     1      -7.360   6.797  71.481  1.00  0.00    -0.084 NA 
HETATM   10  C   UNL     1      -8.521   6.124  71.963  1.00  0.00    -0.121 C  
HETATM   11  C   UNL     1      -9.615   6.657  71.403  1.00  0.00    -0.174 C  
HETATM   12  C   UNL     1     -10.948   6.131  71.678  1.00  0.00    -0.267 C  
HETATM   13  C   UNL     1      -9.219   7.572  70.283  1.00  0.00    -0.157 C  
HETATM   14  C   UNL     1     -10.980   5.070  72.755  1.00  0.00    -0.247 C  
HETATM   15  O   UNL     1     -11.938   6.448  71.033  1.00  0.00    -0.333 OA 
HETATM   16  O   UNL     1      -7.710   3.920  72.542  1.00  0.00    -0.075 OA 
HETATM   17  H2  UNL     1     -11.806   6.161  74.209  1.00  0.00     0.000 HD 
HETATM   18  N   UNL     1     -11.018   5.525  74.087  1.00  0.00    -0.408 NA 
HETATM   19  C   UNL     1     -10.084   4.133  72.401  1.00  0.00    -0.243 C  
HETATM   20  C   UNL     1      -8.668   4.658  72.356  1.00  0.00    -0.118 C  
HETATM   21  C   UNL     1     -10.374   2.682  72.597  1.00  0.00    -0.226 C  
HETATM   22  H1  UNL     1     -11.040   4.809  74.814  1.00  0.00     0.000 HD 
BRANCH  13  23
HETATM   23  C   UNL     1      -9.267   9.037  70.776  1.00  0.00    -0.245 C  
BRANCH  23  24
HETATM   24  O   UNL     1      -9.665   9.976  69.759  1.00  0.00    -0.225 OA 
BRANCH  24  25
HETATM   25  C   UNL     1     -10.971  10.344  69.788  1.00  0.00    -0.293 C  
HETATM   26  O   UNL     1     -11.602  10.806  68.845  1.00  0.00    -0.281 OA 
HETATM   27  N   UNL     1     -11.471  10.168  71.028  1.00  0.00    -0.367 N  
HETATM   28  H1  UNL     1     -12.452  10.444  71.049  1.00  0.00     0.000 HD 
HETATM   29  H2  UNL     1     -10.946   9.810  71.826  1.00  0.00     0.000 HD 
ENDBRANCH  24  25
ENDBRANCH  23  24
ENDBRANCH  13  23
ENDBRANCH   2   3
TORSDOF 4
ENDMDL
MODEL      136
REMARK 921   NORMALIZED FREE ENERGY PREDICTED BY IDOCK:   -3.42 KCAL/MOL
REMARK 922        TOTAL FREE ENERGY PREDICTED BY IDOCK:   -4.39 KCAL/MOL
REMARK 923 INTER-LIGAND FREE ENERGY PREDICTED BY IDOCK:   -5.04 KCAL/MOL
REMARK 924 INTRA-LIGAND FREE ENERGY PREDICTED BY IDOCK:    0.64 KCAL/MOL
REMARK 927      BINDING AFFINITY PREDICTED BY RF-SCORE:    0.00 PKD
ROOT
HETATM    1  C   UNL     1      -8.876   8.529  66.652  1.00  0.00    -0.135 C  
HETATM    2  O   UNL     1     -10.188   8.116  67.077  1.00  0.00    -0.250 OA 
ENDROOT
BRANCH   2   3
HETATM    3  C   UNL     1     -10.124   7.037  68.010  1.00  0.00    -0.169 C  
HETATM    4  C   UNL     1     -11.008   5.876  67.469  1.00  0.00    -0.148 C  
HETATM    5  N   UNL     1     -11.235   5.681  66.022  1.00  0.00    -0.677 NA 
HETATM    6  H   UNL     1     -11.334   6.324  65.237  1.00  0.00     0.000 HD 
HETATM    7  C   UNL     1     -10.102   4.995  66.607  1.00  0.00    -0.245 C  
HETATM    8  C   UNL     1      -8.721   5.559  66.746  1.00  0.00    -0.114 C  
HETATM    9  N   UNL     1      -8.821   6.290  68.007  1.00  0.00    -0.114 NA 
HETATM   10  C   UNL     1      -8.814   5.635  69.273  1.00  0.00    -0.111 C  
HETATM   11  C   UNL     1      -9.422   6.408  70.183  1.00  0.00    -0.170 C  
HETATM   12  C   UNL     1      -9.603   5.968  71.562  1.00  0.00    -0.156 C  
HETATM   13  C   UNL     1     -10.123   7.543  69.499  1.00  0.00    -0.189 C  
HETATM   14  C   UNL     1      -8.905   4.666  71.888  1.00  0.00    -0.123 C  
HETATM   15  O   UNL     1     -10.330   6.546  72.359  1.00  0.00    -0.185 OA 
HETATM   16  O   UNL     1      -8.724   3.286  68.707  1.00  0.00    -0.085 OA 
HETATM   17  H2  UNL     1      -7.416   5.408  72.993  1.00  0.00     0.000 HD 
HETATM   18  N   UNL     1      -7.540   4.750  72.223  1.00  0.00    -0.083 NA 
HETATM   19  C   UNL     1      -9.308   3.771  70.970  1.00  0.00    -0.218 C  
HETATM   20  C   UNL     1      -8.895   4.141  69.565  1.00  0.00    -0.089 C  
HETATM   21  C   UNL     1      -9.601   2.358  71.353  1.00  0.00    -0.224 C  
HETATM   22  H1  UNL     1      -7.069   3.872  72.443  1.00  0.00     0.000 HD 
BRANCH  13  23
HETATM   23  C   UNL     1      -9.256   8.820  69.607  1.00  0.00    -0.150 C  
BRANCH  23  24
HETATM   24  O   UNL     1     -10.025  10.029  69.764  1.00  0.00    -0.225 OA 
BRANCH  24  25
HETATM   25  C   UNL     1     -11.084   9.936  70.608  1.00  0.00    -0.340 C  
HETATM   26  O   UNL     1     -11.037   9.556  71.772  1.00  0.00    -0.352 OA 
HETATM   27  N   UNL     1     -12.216  10.286  69.965  1.00  0.00    -0.485 N  
HETATM   28  H1  UNL     1     -13.012  10.217  70.598  1.00  0.00     0.000 HD 
HETATM   29  H2  UNL     1     -12.269  10.578  68.988  1.00  0.00     0.000 HD 
ENDBRANCH  24  25
ENDBRANCH  23  24
ENDBRANCH  13  23
ENDBRANCH   2   3
TORSDOF 4
ENDMDL
MODEL      137
REMARK 921   NORMALIZED FREE ENERGY PREDICTED BY IDOCK:   -3.35 KCAL/MOL
REMARK 922        TOTAL FREE ENERGY PREDICTED BY IDOCK:   -4.31 KCAL/MOL
REMARK 923 INTER-LIGAND FREE ENERGY PREDICTED BY IDOCK:   -4.13 KCAL/MOL
REMARK 924 INTRA-LIGAND FREE ENERGY PREDICTED BY IDOCK:   -0.17 KCAL/MOL
REMARK 927      BINDING AFFINITY PREDICTED BY RF-SCORE:    0.00 PKD
ROOT
HETATM    1  C   UNL     1     -12.406   8.954  71.459  1.00  0.00    -0.324 C  
HETATM    2  O   UNL     1     -11.027   9.291  71.224  1.00  0.00    -0.294 OA 
ENDROOT
BRANCH   2   3
HETATM    3  C   UNL     1     -10.509   8.622  70.074  1.00  0.00    -0.223 C  
HETATM    4  C   UNL     1     -11.153   9.262  68.810  1.00  0.00     0.096 C  
HETATM    5  N   UNL     1     -11.599  10.671  68.792  1.00  0.00    -0.438 NA 
HETATM    6  H   UNL     1     -12.010  11.283  69.498  1.00  0.00     0.000 HD 
HETATM    7  C   UNL     1     -10.237  10.408  68.378  1.00  0.00    -0.165 C  
HETATM    8  C   UNL     1      -9.047  10.352  69.286  1.00  0.00    -0.175 C  
HETATM    9  N   UNL     1      -9.084   8.965  69.745  1.00  0.00    -0.145 NA 
HETATM   10  C   UNL     1      -8.664   7.877  68.925  1.00  0.00    -0.135 C  
HETATM   11  C   UNL     1      -9.262   6.749  69.333  1.00  0.00    -0.143 C  
HETATM   12  C   UNL     1      -9.053   5.481  68.644  1.00  0.00    -0.117 C  
HETATM   13  C   UNL     1     -10.349   7.076  70.313  1.00  0.00    -0.219 C  
HETATM   14  C   UNL     1      -7.995   5.535  67.564  1.00  0.00    -0.101 C  
HETATM   15  O   UNL     1      -9.734   4.486  68.852  1.00  0.00    -0.164 OA 
HETATM   16  O   UNL     1      -8.086   8.927  66.825  1.00  0.00    -0.109 OA 
HETATM   17  H2  UNL     1      -6.561   4.523  68.516  1.00  0.00     0.000 HD 
HETATM   18  N   UNL     1      -6.659   5.387  67.983  1.00  0.00    -0.048 NA 
HETATM   19  C   UNL     1      -8.325   6.553  66.751  1.00  0.00    -0.111 C  
HETATM   20  C   UNL     1      -8.301   7.894  67.444  1.00  0.00    -0.123 C  
HETATM   21  C   UNL     1      -8.166   6.434  65.271  1.00  0.00    -0.137 C  
HETATM   22  H1  UNL     1      -5.945   5.424  67.254  1.00  0.00     0.000 HD 
BRANCH  13  23
HETATM   23  C   UNL     1      -9.834   6.829  71.751  1.00  0.00    -0.163 C  
BRANCH  23  24
HETATM   24  O   UNL     1      -9.687   5.434  72.080  1.00  0.00    -0.157 OA 
BRANCH  24  25
HETATM   25  C   UNL     1     -10.326   5.033  73.208  1.00  0.00    -0.191 C  
HETATM   26  O   UNL     1      -9.990   4.096  73.923  1.00  0.00    -0.118 OA 
HETATM   27  N   UNL     1     -11.420   5.794  73.411  1.00  0.00    -0.430 N  
HETATM   28  H1  UNL     1     -11.900   5.493  74.259  1.00  0.00     0.000 HD 
HETATM   29  H2  UNL     1     -11.724   6.558  72.807  1.00  0.00     0.000 HD 
ENDBRANCH  24  25
ENDBRANCH  23  24
ENDBRANCH  13  23
ENDBRANCH   2   3
TORSDOF 4
ENDMDL
MODEL      138
REMARK 921   NORMALIZED FREE ENERGY PREDICTED BY IDOCK:   -3.32 KCAL/MOL
REMARK 922        TOTAL FREE ENERGY PREDICTED BY IDOCK:   -4.27 KCAL/MOL
REMARK 923 INTER-LIGAND FREE ENERGY PREDICTED BY IDOCK:   -4.51 KCAL/MOL
REMARK 924 INTRA-LIGAND FREE ENERGY PREDICTED BY IDOCK:    0.25 KCAL/MOL
REMARK 927      BINDING AFFINITY PREDICTED BY RF-SCORE:    0.00 PKD
ROOT
HETATM    1  C   UNL     1     -11.951   9.024  70.825  1.00  0.00    -0.170 C  
HETATM    2  O   UNL     1     -10.715   9.751  70.704  1.00  0.00    -0.290 OA 
ENDROOT
BRANCH   2   3
HETATM    3  C   UNL     1     -10.039   9.440  69.485  1.00  0.00    -0.205 C  
HETATM    4  C   UNL     1     -11.017   9.712  68.305  1.00  0.00    -0.121 C  
HETATM    5  N   UNL     1     -12.085  10.728  68.399  1.00  0.00    -0.827 NA 
HETATM    6  H   UNL     1     -12.679  11.050  69.164  1.00  0.00     0.000 HD 
HETATM    7  C   UNL     1     -10.806  11.167  67.882  1.00  0.00    -0.235 C  
HETATM    8  C   UNL     1      -9.664  11.678  68.707  1.00  0.00    -0.095 C  
HETATM    9  N   UNL     1      -8.990  10.438  69.085  1.00  0.00    -0.178 NA 
HETATM   10  C   UNL     1      -8.168   9.707  68.178  1.00  0.00    -0.106 C  
HETATM   11  C   UNL     1      -8.111   8.423  68.557  1.00  0.00    -0.123 C  
HETATM   12  C   UNL     1      -7.376   7.429  67.783  1.00  0.00    -0.092 C  
HETATM   13  C   UNL     1      -9.133   8.161  69.622  1.00  0.00    -0.151 C  
HETATM   14  C   UNL     1      -6.571   8.011  66.642  1.00  0.00    -0.056 C  
HETATM   15  O   UNL     1      -7.473   6.225  67.976  1.00  0.00    -0.086 OA 
HETATM   16  O   UNL     1      -8.349  10.946  66.110  1.00  0.00    -0.162 OA 
HETATM   17  H2  UNL     1      -4.752   7.803  67.438  1.00  0.00     0.000 HD 
HETATM   18  N   UNL     1      -5.299   8.521  66.964  1.00  0.00    -0.036 NA 
HETATM   19  C   UNL     1      -7.419   8.756  65.912  1.00  0.00    -0.089 C  
HETATM   20  C   UNL     1      -7.985   9.927  66.680  1.00  0.00    -0.113 C  
HETATM   21  C   UNL     1      -7.349   8.760  64.421  1.00  0.00    -0.103 C  
HETATM   22  H1  UNL     1      -4.756   8.914  66.194  1.00  0.00     0.000 HD 
BRANCH  13  23
HETATM   23  C   UNL     1      -8.444   8.167  71.007  1.00  0.00    -0.132 C  
BRANCH  23  24
HETATM   24  O   UNL     1      -9.253   7.604  72.058  1.00  0.00    -0.132 OA 
BRANCH  24  25
HETATM   25  C   UNL     1      -8.811   7.839  73.319  1.00  0.00    -0.221 C  
HETATM   26  O   UNL     1      -7.808   8.478  73.615  1.00  0.00    -0.362 OA 
HETATM   27  N   UNL     1      -9.617   7.228  74.211  1.00  0.00    -0.426 N  
HETATM   28  H1  UNL     1      -9.285   7.405  75.158  1.00  0.00     0.000 HD 
HETATM   29  H2  UNL     1     -10.439   6.671  73.972  1.00  0.00     0.000 HD 
ENDBRANCH  24  25
ENDBRANCH  23  24
ENDBRANCH  13  23
ENDBRANCH   2   3
TORSDOF 4
ENDMDL
MODEL      139
REMARK 921   NORMALIZED FREE ENERGY PREDICTED BY IDOCK:   -3.30 KCAL/MOL
REMARK 922        TOTAL FREE ENERGY PREDICTED BY IDOCK:   -4.24 KCAL/MOL
REMARK 923 INTER-LIGAND FREE ENERGY PREDICTED BY IDOCK:   -4.03 KCAL/MOL
REMARK 924 INTRA-LIGAND FREE ENERGY PREDICTED BY IDOCK:   -0.22 KCAL/MOL
REMARK 927      BINDING AFFINITY PREDICTED BY RF-SCORE:    0.00 PKD
ROOT
HETATM    1  C   UNL     1      -8.686   9.498  70.181  1.00  0.00    -0.230 C  
HETATM    2  O   UNL     1      -8.303   8.142  70.477  1.00  0.00    -0.117 OA 
ENDROOT
BRANCH   2   3
HETATM    3  C   UNL     1      -8.263   7.337  69.298  1.00  0.00    -0.131 C  
HETATM    4  C   UNL     1      -7.185   7.930  68.343  1.00  0.00    -0.089 C  
HETATM    5  N   UNL     1      -6.015   8.671  68.856  1.00  0.00    -0.043 NA 
HETATM    6  H   UNL     1      -5.876   9.299  69.648  1.00  0.00     0.000 HD 
HETATM    7  C   UNL     1      -5.864   7.241  68.685  1.00  0.00    -0.023 C  
HETATM    8  C   UNL     1      -6.191   6.203  69.715  1.00  0.00    -0.027 C  
HETATM    9  N   UNL     1      -7.619   5.993  69.486  1.00  0.00    -0.091 NA 
HETATM   10  C   UNL     1      -8.114   5.235  68.385  1.00  0.00    -0.091 C  
HETATM   11  C   UNL     1      -9.366   5.616  68.101  1.00  0.00    -0.119 C  
HETATM   12  C   UNL     1     -10.108   5.039  66.986  1.00  0.00    -0.214 C  
HETATM   13  C   UNL     1      -9.697   6.872  68.852  1.00  0.00    -0.142 C  
HETATM   14  C   UNL     1      -9.403   3.883  66.312  1.00  0.00    -0.179 C  
HETATM   15  O   UNL     1     -11.160   5.504  66.569  1.00  0.00    -0.179 OA 
HETATM   16  O   UNL     1      -6.118   4.624  67.163  1.00  0.00    -0.029 OA 
HETATM   17  H2  UNL     1     -10.548   2.403  67.007  1.00  0.00     0.000 HD 
HETATM   18  N   UNL     1      -9.556   2.617  66.909  1.00  0.00    -0.402 NA 
HETATM   19  C   UNL     1      -8.173   4.317  65.986  1.00  0.00    -0.105 C  
HETATM   20  C   UNL     1      -7.340   4.686  67.191  1.00  0.00    -0.077 C  
HETATM   21  C   UNL     1      -7.544   3.936  64.687  1.00  0.00    -0.077 C  
HETATM   22  H1  UNL     1      -9.080   1.837  66.454  1.00  0.00     0.000 HD 
BRANCH  13  23
HETATM   23  C   UNL     1     -10.534   6.516  70.103  1.00  0.00    -0.214 C  
BRANCH  23  24
HETATM   24  O   UNL     1     -11.631   7.418  70.340  1.00  0.00    -0.264 OA 
BRANCH  24  25
HETATM   25  C   UNL     1     -11.865   7.717  71.643  1.00  0.00    -0.287 C  
HETATM   26  O   UNL     1     -11.594   8.780  72.190  1.00  0.00    -0.362 OA 
HETATM   27  N   UNL     1     -12.407   6.653  72.269  1.00  0.00    -0.536 N  
HETATM   28  H1  UNL     1     -12.583   6.877  73.248  1.00  0.00     0.000 HD 
HETATM   29  H2  UNL     1     -12.611   5.755  71.829  1.00  0.00     0.000 HD 
ENDBRANCH  24  25
ENDBRANCH  23  24
ENDBRANCH  13  23
ENDBRANCH   2   3
TORSDOF 4
ENDMDL
MODEL      140
REMARK 921   NORMALIZED FREE ENERGY PREDICTED BY IDOCK:   -3.30 KCAL/MOL
REMARK 922        TOTAL FREE ENERGY PREDICTED BY IDOCK:   -4.24 KCAL/MOL
REMARK 923 INTER-LIGAND FREE ENERGY PREDICTED BY IDOCK:   -5.01 KCAL/MOL
REMARK 924 INTRA-LIGAND FREE ENERGY PREDICTED BY IDOCK:    0.77 KCAL/MOL
REMARK 927      BINDING AFFINITY PREDICTED BY RF-SCORE:    0.00 PKD
ROOT
HETATM    1  C   UNL     1     -11.504   8.675  71.434  1.00  0.00    -0.289 C  
HETATM    2  O   UNL     1     -10.134   8.262  71.596  1.00  0.00    -0.186 OA 
ENDROOT
BRANCH   2   3
HETATM    3  C   UNL     1      -9.552   7.868  70.353  1.00  0.00    -0.171 C  
HETATM    4  C   UNL     1      -8.894   6.471  70.547  1.00  0.00    -0.151 C  
HETATM    5  N   UNL     1      -9.398   5.505  71.545  1.00  0.00    -0.146 NA 
HETATM    6  H   UNL     1      -9.809   5.608  72.473  1.00  0.00     0.000 HD 
HETATM    7  C   UNL     1      -9.961   5.428  70.213  1.00  0.00    -0.230 C  
HETATM    8  C   UNL     1     -11.153   6.195  69.727  1.00  0.00    -0.416 C  
HETATM    9  N   UNL     1     -10.546   7.455  69.305  1.00  0.00    -0.220 NA 
HETATM   10  C   UNL     1      -9.814   7.582  68.088  1.00  0.00    -0.159 C  
HETATM   11  C   UNL     1      -8.959   8.609  68.183  1.00  0.00    -0.141 C  
HETATM   12  C   UNL     1      -8.043   8.944  67.098  1.00  0.00    -0.103 C  
HETATM   13  C   UNL     1      -8.882   9.078  69.605  1.00  0.00    -0.145 C  
HETATM   14  C   UNL     1      -8.272   8.147  65.833  1.00  0.00    -0.122 C  
HETATM   15  O   UNL     1      -7.114   9.729  67.224  1.00  0.00    -0.084 OA 
HETATM   16  O   UNL     1      -9.813   5.341  67.180  1.00  0.00    -0.139 OA 
HETATM   17  H2  UNL     1      -9.097   9.590  64.728  1.00  0.00     0.000 HD 
HETATM   18  N   UNL     1      -9.277   8.615  64.965  1.00  0.00    -0.417 NA 
HETATM   19  C   UNL     1      -8.253   6.850  66.185  1.00  0.00    -0.121 C  
HETATM   20  C   UNL     1      -9.368   6.480  67.134  1.00  0.00    -0.126 C  
HETATM   21  C   UNL     1      -7.593   5.829  65.318  1.00  0.00    -0.085 C  
HETATM   22  H1  UNL     1      -9.431   8.077  64.112  1.00  0.00     0.000 HD 
BRANCH  13  23
HETATM   23  C   UNL     1      -9.763  10.339  69.777  1.00  0.00    -0.144 C  
BRANCH  23  24
HETATM   24  O   UNL     1     -10.624  10.600  68.652  1.00  0.00    -0.179 OA 
BRANCH  24  25
HETATM   25  C   UNL     1     -11.479  11.642  68.806  1.00  0.00    -0.285 C  
HETATM   26  O   UNL     1     -11.949  12.319  67.898  1.00  0.00    -0.452 OA 
HETATM   27  N   UNL     1     -11.710  11.859  70.117  1.00  0.00    -0.497 N  
HETATM   28  H1  UNL     1     -12.353  12.641  70.232  1.00  0.00     0.000 HD 
HETATM   29  H2  UNL     1     -11.302  11.318  70.880  1.00  0.00     0.000 HD 
ENDBRANCH  24  25
ENDBRANCH  23  24
ENDBRANCH  13  23
ENDBRANCH   2   3
TORSDOF 4
ENDMDL
MODEL      141
REMARK 921   NORMALIZED FREE ENERGY PREDICTED BY IDOCK:   -3.26 KCAL/MOL
REMARK 922        TOTAL FREE ENERGY PREDICTED BY IDOCK:   -4.19 KCAL/MOL
REMARK 923 INTER-LIGAND FREE ENERGY PREDICTED BY IDOCK:   -4.08 KCAL/MOL
REMARK 924 INTRA-LIGAND FREE ENERGY PREDICTED BY IDOCK:   -0.10 KCAL/MOL
REMARK 927      BINDING AFFINITY PREDICTED BY RF-SCORE:    0.00 PKD
ROOT
HETATM    1  C   UNL     1     -10.663  11.747  67.118  1.00  0.00    -0.241 C  
HETATM    2  O   UNL     1      -9.336  11.193  67.166  1.00  0.00    -0.163 OA 
ENDROOT
BRANCH   2   3
HETATM    3  C   UNL     1      -9.273   9.918  66.526  1.00  0.00    -0.155 C  
HETATM    4  C   UNL     1      -9.403  10.139  64.991  1.00  0.00    -0.243 C  
HETATM    5  N   UNL     1      -8.955  11.390  64.345  1.00  0.00    -0.391 NA 
HETATM    6  H   UNL     1      -8.952  12.367  64.638  1.00  0.00     0.000 HD 
HETATM    7  C   UNL     1      -7.984  10.320  64.448  1.00  0.00    -0.135 C  
HETATM    8  C   UNL     1      -7.064  10.090  65.608  1.00  0.00    -0.119 C  
HETATM    9  N   UNL     1      -7.904   9.300  66.505  1.00  0.00    -0.100 NA 
HETATM   10  C   UNL     1      -8.171   7.917  66.284  1.00  0.00    -0.117 C  
HETATM   11  C   UNL     1      -9.318   7.577  66.887  1.00  0.00    -0.197 C  
HETATM   12  C   UNL     1      -9.863   6.228  66.788  1.00  0.00    -0.164 C  
HETATM   13  C   UNL     1     -10.039   8.811  67.340  1.00  0.00    -0.289 C  
HETATM   14  C   UNL     1      -8.944   5.243  66.101  1.00  0.00    -0.139 C  
HETATM   15  O   UNL     1     -10.998   5.937  67.142  1.00  0.00    -0.295 OA 
HETATM   16  O   UNL     1      -7.047   7.441  64.196  1.00  0.00    -0.063 OA 
HETATM   17  H2  UNL     1      -8.377   4.208  67.712  1.00  0.00     0.000 HD 
HETATM   18  N   UNL     1      -7.947   4.649  66.899  1.00  0.00    -0.102 NA 
HETATM   19  C   UNL     1      -8.609   5.787  64.919  1.00  0.00    -0.065 C  
HETATM   20  C   UNL     1      -7.831   7.073  65.060  1.00  0.00    -0.125 C  
HETATM   21  C   UNL     1      -8.515   4.947  63.688  1.00  0.00    -0.132 C  
HETATM   22  H1  UNL     1      -7.327   3.984  66.435  1.00  0.00     0.000 HD 
BRANCH  13  23
HETATM   23  C   UNL     1      -9.793   9.023  68.853  1.00  0.00    -0.175 C  
BRANCH  23  24
HETATM   24  O   UNL     1      -9.314   7.846  69.531  1.00  0.00    -0.156 OA 
BRANCH  24  25
HETATM   25  C   UNL     1      -8.601   8.078  70.662  1.00  0.00    -0.130 C  
HETATM   26  O   UNL     1      -8.500   9.158  71.232  1.00  0.00    -0.286 OA 
HETATM   27  N   UNL     1      -7.977   6.948  71.052  1.00  0.00    -0.101 N  
HETATM   28  H1  UNL     1      -7.442   7.122  71.902  1.00  0.00     0.000 HD 
HETATM   29  H2  UNL     1      -8.033   6.051  70.569  1.00  0.00     0.000 HD 
ENDBRANCH  24  25
ENDBRANCH  23  24
ENDBRANCH  13  23
ENDBRANCH   2   3
TORSDOF 4
ENDMDL
MODEL      142
REMARK 921   NORMALIZED FREE ENERGY PREDICTED BY IDOCK:   -3.15 KCAL/MOL
REMARK 922        TOTAL FREE ENERGY PREDICTED BY IDOCK:   -4.06 KCAL/MOL
REMARK 923 INTER-LIGAND FREE ENERGY PREDICTED BY IDOCK:   -4.56 KCAL/MOL
REMARK 924 INTRA-LIGAND FREE ENERGY PREDICTED BY IDOCK:    0.50 KCAL/MOL
REMARK 927      BINDING AFFINITY PREDICTED BY RF-SCORE:    0.00 PKD
ROOT
HETATM    1  C   UNL     1     -11.518   9.496  71.144  1.00  0.00    -0.360 C  
HETATM    2  O   UNL     1     -10.168   9.299  71.602  1.00  0.00    -0.332 OA 
ENDROOT
BRANCH   2   3
HETATM    3  C   UNL     1      -9.716   7.967  71.353  1.00  0.00    -0.164 C  
HETATM    4  C   UNL     1      -9.085   7.417  72.664  1.00  0.00    -0.143 C  
HETATM    5  N   UNL     1      -9.522   7.885  73.995  1.00  0.00    -0.290 NA 
HETATM    6  H   UNL     1      -9.842   8.787  74.349  1.00  0.00     0.000 HD 
HETATM    7  C   UNL     1     -10.209   6.735  73.445  1.00  0.00    -0.268 C  
HETATM    8  C   UNL     1     -11.418   6.785  72.561  1.00  0.00    -0.231 C  
HETATM    9  N   UNL     1     -10.816   6.950  71.240  1.00  0.00    -0.231 NA 
HETATM   10  C   UNL     1     -10.196   5.872  70.541  1.00  0.00    -0.211 C  
HETATM   11  C   UNL     1      -9.306   6.357  69.665  1.00  0.00    -0.148 C  
HETATM   12  C   UNL     1      -8.485   5.475  68.842  1.00  0.00    -0.101 C  
HETATM   13  C   UNL     1      -9.083   7.817  69.921  1.00  0.00    -0.147 C  
HETATM   14  C   UNL     1      -8.855   4.012  68.953  1.00  0.00    -0.105 C  
HETATM   15  O   UNL     1      -7.525   5.867  68.193  1.00  0.00    -0.079 OA 
HETATM   16  O   UNL     1     -10.347   4.020  72.089  1.00  0.00    -0.166 OA 
HETATM   17  H2  UNL     1      -9.735   3.802  67.173  1.00  0.00     0.000 HD 
HETATM   18  N   UNL     1      -9.922   3.568  68.149  1.00  0.00     0.101 NA 
HETATM   19  C   UNL     1      -8.841   3.709  70.262  1.00  0.00    -0.148 C  
HETATM   20  C   UNL     1      -9.874   4.474  71.055  1.00  0.00    -0.196 C  
HETATM   21  C   UNL     1      -8.296   2.404  70.742  1.00  0.00    -0.077 C  
HETATM   22  H1  UNL     1     -10.171   2.581  68.223  1.00  0.00     0.000 HD 
BRANCH  13  23
HETATM   23  C   UNL     1      -9.906   8.646  68.906  1.00  0.00    -0.179 C  
BRANCH  23  24
HETATM   24  O   UNL     1      -9.136   9.111  67.781  1.00  0.00    -0.127 OA 
BRANCH  24  25
HETATM   25  C   UNL     1      -9.769   9.056  66.582  1.00  0.00    -0.230 C  
HETATM   26  O   UNL     1     -10.042  10.019  65.875  1.00  0.00    -0.264 OA 
HETATM   27  N   UNL     1     -10.098   7.780  66.293  1.00  0.00    -0.468 N  
HETATM   28  H1  UNL     1     -10.574   7.739  65.392  1.00  0.00     0.000 HD 
HETATM   29  H2  UNL     1      -9.900   6.975  66.888  1.00  0.00     0.000 HD 
ENDBRANCH  24  25
ENDBRANCH  23  24
ENDBRANCH  13  23
ENDBRANCH   2   3
TORSDOF 4
ENDMDL
MODEL      143
REMARK 921   NORMALIZED FREE ENERGY PREDICTED BY IDOCK:   -3.15 KCAL/MOL
REMARK 922        TOTAL FREE ENERGY PREDICTED BY IDOCK:   -4.06 KCAL/MOL
REMARK 923 INTER-LIGAND FREE ENERGY PREDICTED BY IDOCK:   -4.10 KCAL/MOL
REMARK 924 INTRA-LIGAND FREE ENERGY PREDICTED BY IDOCK:    0.04 KCAL/MOL
REMARK 927      BINDING AFFINITY PREDICTED BY RF-SCORE:    0.00 PKD
ROOT
HETATM    1  C   UNL     1      -6.020   8.194  71.932  1.00  0.00    -0.040 C  
HETATM    2  O   UNL     1      -6.350   8.251  70.532  1.00  0.00    -0.035 OA 
ENDROOT
BRANCH   2   3
HETATM    3  C   UNL     1      -7.322   9.261  70.261  1.00  0.00    -0.100 C  
HETATM    4  C   UNL     1      -6.604  10.642  70.279  1.00  0.00    -0.125 C  
HETATM    5  N   UNL     1      -5.176  10.781  69.928  1.00  0.00    -0.039 NA 
HETATM    6  H   UNL     1      -4.360  10.185  70.069  1.00  0.00     0.000 HD 
HETATM    7  C   UNL     1      -6.133  10.915  68.850  1.00  0.00    -0.040 C  
HETATM    8  C   UNL     1      -6.666   9.791  68.016  1.00  0.00    -0.061 C  
HETATM    9  N   UNL     1      -7.780   9.314  68.831  1.00  0.00    -0.078 NA 
HETATM   10  C   UNL     1      -9.023  10.009  68.909  1.00  0.00    -0.152 C  
HETATM   11  C   UNL     1      -9.641   9.698  70.056  1.00  0.00    -0.281 C  
HETATM   12  C   UNL     1     -10.917  10.301  70.425  1.00  0.00    -0.296 C  
HETATM   13  C   UNL     1      -8.699   8.958  70.958  1.00  0.00    -0.276 C  
HETATM   14  C   UNL     1     -11.531  11.154  69.337  1.00  0.00    -0.298 C  
HETATM   15  O   UNL     1     -11.404  10.206  71.543  1.00  0.00    -0.233 OA 
HETATM   16  O   UNL     1      -8.666  11.981  67.556  1.00  0.00    -0.153 OA 
HETATM   17  H2  UNL     1     -13.000   9.916  68.795  1.00  0.00     0.000 HD 
HETATM   18  N   UNL     1     -12.275  10.479  68.351  1.00  0.00    -0.652 NA 
HETATM   19  C   UNL     1     -10.591  12.041  68.966  1.00  0.00    -0.136 C  
HETATM   20  C   UNL     1      -9.369  11.390  68.364  1.00  0.00    -0.194 C  
HETATM   21  C   UNL     1     -10.952  13.458  68.663  1.00  0.00    -0.288 C  
HETATM   22  H1  UNL     1     -12.689  11.055  67.617  1.00  0.00     0.000 HD 
BRANCH  13  23
HETATM   23  C   UNL     1      -8.994   7.441  70.874  1.00  0.00    -0.149 C  
BRANCH  23  24
HETATM   24  O   UNL     1      -9.589   7.037  69.626  1.00  0.00    -0.151 OA 
BRANCH  24  25
HETATM   25  C   UNL     1      -8.946   6.035  68.974  1.00  0.00    -0.124 C  
HETATM   26  O   UNL     1      -7.937   5.461  69.368  1.00  0.00    -0.087 OA 
HETATM   27  N   UNL     1      -9.555   5.784  67.798  1.00  0.00    -0.112 N  
HETATM   28  H1  UNL     1      -9.072   5.032  67.309  1.00  0.00     0.000 HD 
HETATM   29  H2  UNL     1     -10.379   6.276  67.449  1.00  0.00     0.000 HD 
ENDBRANCH  24  25
ENDBRANCH  23  24
ENDBRANCH  13  23
ENDBRANCH   2   3
TORSDOF 4
ENDMDL
MODEL      144
REMARK 921   NORMALIZED FREE ENERGY PREDICTED BY IDOCK:   -3.11 KCAL/MOL
REMARK 922        TOTAL FREE ENERGY PREDICTED BY IDOCK:   -4.01 KCAL/MOL
REMARK 923 INTER-LIGAND FREE ENERGY PREDICTED BY IDOCK:   -4.58 KCAL/MOL
REMARK 924 INTRA-LIGAND FREE ENERGY PREDICTED BY IDOCK:    0.57 KCAL/MOL
REMARK 927      BINDING AFFINITY PREDICTED BY RF-SCORE:    0.00 PKD
ROOT
HETATM    1  C   UNL     1      -8.471  13.756  67.243  1.00  0.00    -0.194 C  
HETATM    2  O   UNL     1      -8.053  12.620  66.465  1.00  0.00     0.104 OA 
ENDROOT
BRANCH   2   3
HETATM    3  C   UNL     1      -8.223  11.398  67.184  1.00  0.00    -0.157 C  
HETATM    4  C   UNL     1      -6.816  10.775  67.419  1.00  0.00    -0.078 C  
HETATM    5  N   UNL     1      -5.602  11.610  67.523  1.00  0.00    -0.060 NA 
HETATM    6  H   UNL     1      -5.310  12.477  67.072  1.00  0.00     0.000 HD 
HETATM    7  C   UNL     1      -6.308  11.321  68.754  1.00  0.00    -0.051 C  
HETATM    8  C   UNL     1      -7.430  12.133  69.325  1.00  0.00     0.222 C  
HETATM    9  N   UNL     1      -8.587  11.574  68.630  1.00  0.00    -0.142 NA 
HETATM   10  C   UNL     1      -9.156  10.315  68.982  1.00  0.00    -0.183 C  
HETATM   11  C   UNL     1      -9.811   9.806  67.930  1.00  0.00    -0.176 C  
HETATM   12  C   UNL     1     -10.454   8.498  67.988  1.00  0.00    -0.191 C  
HETATM   13  C   UNL     1      -9.488  10.599  66.698  1.00  0.00    -0.195 C  
HETATM   14  C   UNL     1     -10.452   7.874  69.366  1.00  0.00    -0.220 C  
HETATM   15  O   UNL     1     -10.874   7.914  66.999  1.00  0.00    -0.305 OA 
HETATM   16  O   UNL     1      -7.710   9.502  70.742  1.00  0.00    -0.230 OA 
HETATM   17  H2  UNL     1     -12.382   8.133  69.803  1.00  0.00     0.000 HD 
HETATM   18  N   UNL     1     -11.474   8.279  70.244  1.00  0.00    -0.459 NA 
HETATM   19  C   UNL     1      -9.176   7.876  69.789  1.00  0.00    -0.150 C  
HETATM   20  C   UNL     1      -8.610   9.267  69.946  1.00  0.00    -0.170 C  
HETATM   21  C   UNL     1      -8.614   6.713  70.538  1.00  0.00    -0.143 C  
HETATM   22  H1  UNL     1     -11.472   7.858  71.174  1.00  0.00     0.000 HD 
BRANCH  13  23
HETATM   23  C   UNL     1     -10.640  11.588  66.408  1.00  0.00    -0.259 C  
BRANCH  23  24
HETATM   24  O   UNL     1     -11.695  11.550  67.388  1.00  0.00    -0.567 OA 
BRANCH  24  25
HETATM   25  C   UNL     1     -11.868  12.693  68.100  1.00  0.00    -0.315 C  
HETATM   26  O   UNL     1     -11.739  12.803  69.314  1.00  0.00    -0.289 OA 
HETATM   27  N   UNL     1     -12.246  13.694  67.279  1.00  0.00    -0.371 N  
HETATM   28  H1  UNL     1     -12.375  14.552  67.814  1.00  0.00     0.000 HD 
HETATM   29  H2  UNL     1     -12.383  13.605  66.272  1.00  0.00     0.000 HD 
ENDBRANCH  24  25
ENDBRANCH  23  24
ENDBRANCH  13  23
ENDBRANCH   2   3
TORSDOF 4
ENDMDL
MODEL      145
REMARK 921   NORMALIZED FREE ENERGY PREDICTED BY IDOCK:   -2.99 KCAL/MOL
REMARK 922        TOTAL FREE ENERGY PREDICTED BY IDOCK:   -3.86 KCAL/MOL
REMARK 923 INTER-LIGAND FREE ENERGY PREDICTED BY IDOCK:   -4.18 KCAL/MOL
REMARK 924 INTRA-LIGAND FREE ENERGY PREDICTED BY IDOCK:    0.32 KCAL/MOL
REMARK 927      BINDING AFFINITY PREDICTED BY RF-SCORE:    0.00 PKD
ROOT
HETATM    1  C   UNL     1      -7.019   7.802  67.395  1.00  0.00    -0.078 C  
HETATM    2  O   UNL     1      -6.409   8.623  66.382  1.00  0.00    -0.059 OA 
ENDROOT
BRANCH   2   3
HETATM    3  C   UNL     1      -7.143   9.830  66.170  1.00  0.00    -0.099 C  
HETATM    4  C   UNL     1      -7.495   9.923  64.657  1.00  0.00    -0.140 C  
HETATM    5  N   UNL     1      -7.667   8.717  63.822  1.00  0.00    -0.128 NA 
HETATM    6  H   UNL     1      -7.217   7.801  63.816  1.00  0.00     0.000 HD 
HETATM    7  C   UNL     1      -8.850   9.238  64.475  1.00  0.00    -0.163 C  
HETATM    8  C   UNL     1      -9.317   8.871  65.850  1.00  0.00    -0.236 C  
HETATM    9  N   UNL     1      -8.554   9.797  66.683  1.00  0.00    -0.127 NA 
HETATM   10  C   UNL     1      -8.894  11.177  66.802  1.00  0.00    -0.161 C  
HETATM   11  C   UNL     1      -7.809  11.878  67.156  1.00  0.00    -0.168 C  
HETATM   12  C   UNL     1      -7.851  13.329  67.306  1.00  0.00    -0.108 C  
HETATM   13  C   UNL     1      -6.586  11.019  67.036  1.00  0.00    -0.100 C  
HETATM   14  C   UNL     1      -9.240  13.918  67.191  1.00  0.00    -0.239 C  
HETATM   15  O   UNL     1      -6.848  14.020  67.419  1.00  0.00    -0.198 OA 
HETATM   16  O   UNL     1     -10.773  11.439  65.303  1.00  0.00    -0.287 OA 
HETATM   17  H2  UNL     1      -9.529  14.350  69.119  1.00  0.00     0.000 HD 
HETATM   18  N   UNL     1     -10.032  13.897  68.355  1.00  0.00    -0.230 NA 
HETATM   19  C   UNL     1      -9.754  13.471  66.033  1.00  0.00    -0.233 C  
HETATM   20  C   UNL     1      -9.920  11.970  66.001  1.00  0.00    -0.234 C  
HETATM   21  C   UNL     1     -10.570  14.366  65.159  1.00  0.00    -0.429 C  
HETATM   22  H1  UNL     1     -10.969  14.295  68.278  1.00  0.00     0.000 HD 
BRANCH  13  23
HETATM   23  C   UNL     1      -6.189  10.493  68.436  1.00  0.00    -0.050 C  
BRANCH  23  24
HETATM   24  O   UNL     1      -7.080  10.917  69.486  1.00  0.00    -0.115 OA 
BRANCH  24  25
HETATM   25  C   UNL     1      -7.449   9.946  70.360  1.00  0.00    -0.122 C  
HETATM   26  O   UNL     1      -6.739   9.473  71.240  1.00  0.00    -0.259 OA 
HETATM   27  N   UNL     1      -8.707   9.542  70.094  1.00  0.00    -0.215 N  
HETATM   28  H1  UNL     1      -8.984   8.813  70.751  1.00  0.00     0.000 HD 
HETATM   29  H2  UNL     1      -9.295   9.911  69.346  1.00  0.00     0.000 HD 
ENDBRANCH  24  25
ENDBRANCH  23  24
ENDBRANCH  13  23
ENDBRANCH   2   3
TORSDOF 4
ENDMDL
MODEL      146
REMARK 921   NORMALIZED FREE ENERGY PREDICTED BY IDOCK:   -2.99 KCAL/MOL
REMARK 922        TOTAL FREE ENERGY PREDICTED BY IDOCK:   -3.85 KCAL/MOL
REMARK 923 INTER-LIGAND FREE ENERGY PREDICTED BY IDOCK:   -3.89 KCAL/MOL
REMARK 924 INTRA-LIGAND FREE ENERGY PREDICTED BY IDOCK:    0.03 KCAL/MOL
REMARK 927      BINDING AFFINITY PREDICTED BY RF-SCORE:    0.00 PKD
ROOT
HETATM    1  C   UNL     1      -8.587   3.725  64.977  1.00  0.00    -0.113 C  
HETATM    2  O   UNL     1      -7.886   4.283  66.103  1.00  0.00    -0.093 OA 
ENDROOT
BRANCH   2   3
HETATM    3  C   UNL     1      -8.782   4.890  67.034  1.00  0.00    -0.103 C  
HETATM    4  C   UNL     1      -9.871   3.843  67.411  1.00  0.00    -0.025 C  
HETATM    5  N   UNL     1      -9.597   2.391  67.381  1.00  0.00    -0.406 NA 
HETATM    6  H   UNL     1      -9.021   1.800  66.782  1.00  0.00     0.000 HD 
HETATM    7  C   UNL     1      -9.348   3.081  68.630  1.00  0.00    -0.173 C  
HETATM    8  C   UNL     1      -8.062   3.746  69.015  1.00  0.00    -0.057 C  
HETATM    9  N   UNL     1      -8.217   5.068  68.414  1.00  0.00    -0.086 NA 
HETATM   10  C   UNL     1      -9.050   6.075  68.984  1.00  0.00    -0.122 C  
HETATM   11  C   UNL     1      -9.428   6.939  68.032  1.00  0.00    -0.124 C  
HETATM   12  C   UNL     1     -10.327   8.050  68.321  1.00  0.00    -0.197 C  
HETATM   13  C   UNL     1      -9.071   6.395  66.681  1.00  0.00    -0.155 C  
HETATM   14  C   UNL     1     -10.641   8.220  69.791  1.00  0.00    -0.228 C  
HETATM   15  O   UNL     1     -10.857   8.727  67.450  1.00  0.00    -0.213 OA 
HETATM   16  O   UNL     1     -10.051   4.981  70.894  1.00  0.00    -0.210 OA 
HETATM   17  H2  UNL     1      -9.544   9.854  70.132  1.00  0.00     0.000 HD 
HETATM   18  N   UNL     1      -9.704   8.940  70.557  1.00  0.00    -0.189 NA 
HETATM   19  C   UNL     1     -11.082   7.030  70.232  1.00  0.00    -0.323 C  
HETATM   20  C   UNL     1     -10.038   5.943  70.138  1.00  0.00    -0.202 C  
HETATM   21  C   UNL     1     -12.218   6.942  71.197  1.00  0.00    -0.428 C  
HETATM   22  H1  UNL     1      -9.915   9.055  71.548  1.00  0.00     0.000 HD 
BRANCH  13  23
HETATM   23  C   UNL     1      -7.767   7.065  66.187  1.00  0.00    -0.095 C  
BRANCH  23  24
HETATM   24  O   UNL     1      -7.874   7.633  64.867  1.00  0.00    -0.113 OA 
BRANCH  24  25
HETATM   25  C   UNL     1      -6.957   8.589  64.571  1.00  0.00    -0.073 C  
HETATM   26  O   UNL     1      -6.387   8.720  63.494  1.00  0.00    -0.087 OA 
HETATM   27  N   UNL     1      -6.729   9.359  65.654  1.00  0.00    -0.073 N  
HETATM   28  H1  UNL     1      -6.041  10.077  65.431  1.00  0.00     0.000 HD 
HETATM   29  H2  UNL     1      -7.178   9.240  66.563  1.00  0.00     0.000 HD 
ENDBRANCH  24  25
ENDBRANCH  23  24
ENDBRANCH  13  23
ENDBRANCH   2   3
TORSDOF 4
ENDMDL
MODEL      147
REMARK 921   NORMALIZED FREE ENERGY PREDICTED BY IDOCK:   -2.89 KCAL/MOL
REMARK 922        TOTAL FREE ENERGY PREDICTED BY IDOCK:   -3.73 KCAL/MOL
REMARK 923 INTER-LIGAND FREE ENERGY PREDICTED BY IDOCK:   -3.55 KCAL/MOL
REMARK 924 INTRA-LIGAND FREE ENERGY PREDICTED BY IDOCK:   -0.18 KCAL/MOL
REMARK 927      BINDING AFFINITY PREDICTED BY RF-SCORE:    0.00 PKD
ROOT
HETATM    1  C   UNL     1      -6.442   9.316  70.398  1.00  0.00    -0.064 C  
HETATM    2  O   UNL     1      -7.813   8.894  70.515  1.00  0.00    -0.084 OA 
ENDROOT
BRANCH   2   3
HETATM    3  C   UNL     1      -7.980   7.531  70.123  1.00  0.00    -0.111 C  
HETATM    4  C   UNL     1      -7.689   6.632  71.360  1.00  0.00    -0.094 C  
HETATM    5  N   UNL     1      -7.916   7.109  72.739  1.00  0.00    -0.104 NA 
HETATM    6  H   UNL     1      -7.820   8.020  73.189  1.00  0.00     0.000 HD 
HETATM    7  C   UNL     1      -9.020   6.435  72.087  1.00  0.00    -0.136 C  
HETATM    8  C   UNL     1     -10.060   7.095  71.234  1.00  0.00    -0.189 C  
HETATM    9  N   UNL     1      -9.408   7.112  69.927  1.00  0.00    -0.151 NA 
HETATM   10  C   UNL     1      -9.301   5.947  69.111  1.00  0.00    -0.120 C  
HETATM   11  C   UNL     1      -8.264   6.079  68.273  1.00  0.00    -0.110 C  
HETATM   12  C   UNL     1      -7.887   5.014  67.350  1.00  0.00    -0.095 C  
HETATM   13  C   UNL     1      -7.435   7.263  68.672  1.00  0.00    -0.102 C  
HETATM   14  C   UNL     1      -8.860   3.856  67.317  1.00  0.00    -0.122 C  
HETATM   15  O   UNL     1      -6.834   5.010  66.727  1.00  0.00    -0.059 OA 
HETATM   16  O   UNL     1     -10.288   4.203  70.463  1.00  0.00     0.021 OA 
HETATM   17  H2  UNL     1      -9.693   4.230  65.541  1.00  0.00     0.000 HD 
HETATM   18  N   UNL     1      -9.990   4.005  66.491  1.00  0.00    -0.376 NA 
HETATM   19  C   UNL     1      -9.017   3.449  68.588  1.00  0.00    -0.183 C  
HETATM   20  C   UNL     1      -9.635   4.505  69.474  1.00  0.00    -0.195 C  
HETATM   21  C   UNL     1      -9.109   1.997  68.922  1.00  0.00    -0.186 C  
HETATM   22  H1  UNL     1     -10.646   3.224  66.469  1.00  0.00     0.000 HD 
BRANCH  13  23
HETATM   23  C   UNL     1      -7.784   8.464  67.762  1.00  0.00    -0.103 C  
BRANCH  23  24
HETATM   24  O   UNL     1      -8.877   8.206  66.859  1.00  0.00    -0.124 OA 
BRANCH  24  25
HETATM   25  C   UNL     1      -9.927   9.059  66.962  1.00  0.00    -0.230 C  
HETATM   26  O   UNL     1      -9.889  10.266  66.752  1.00  0.00    -0.182 OA 
HETATM   27  N   UNL     1     -11.024   8.391  67.373  1.00  0.00    -0.447 N  
HETATM   28  H1  UNL     1     -11.813   9.032  67.450  1.00  0.00     0.000 HD 
HETATM   29  H2  UNL     1     -11.059   7.392  67.577  1.00  0.00     0.000 HD 
ENDBRANCH  24  25
ENDBRANCH  23  24
ENDBRANCH  13  23
ENDBRANCH   2   3
TORSDOF 4
ENDMDL
MODEL      148
REMARK 921   NORMALIZED FREE ENERGY PREDICTED BY IDOCK:   -2.82 KCAL/MOL
REMARK 922        TOTAL FREE ENERGY PREDICTED BY IDOCK:   -3.65 KCAL/MOL
REMARK 923 INTER-LIGAND FREE ENERGY PREDICTED BY IDOCK:   -4.30 KCAL/MOL
REMARK 924 INTRA-LIGAND FREE ENERGY PREDICTED BY IDOCK:    0.65 KCAL/MOL
REMARK 927      BINDING AFFINITY PREDICTED BY RF-SCORE:    0.00 PKD
ROOT
HETATM    1  C   UNL     1      -8.608  12.007  66.896  1.00  0.00    -0.189 C  
HETATM    2  O   UNL     1      -7.514  11.180  67.333  1.00  0.00    -0.099 OA 
ENDROOT
BRANCH   2   3
HETATM    3  C   UNL     1      -7.940   9.844  67.605  1.00  0.00    -0.109 C  
HETATM    4  C   UNL     1      -7.612   9.525  69.093  1.00  0.00    -0.075 C  
HETATM    5  N   UNL     1      -7.563  10.582  70.123  1.00  0.00    -0.433 NA 
HETATM    6  H   UNL     1      -7.267  11.558  70.110  1.00  0.00     0.000 HD 
HETATM    7  C   UNL     1      -8.838   9.929  69.913  1.00  0.00    -0.195 C  
HETATM    8  C   UNL     1      -9.879  10.352  68.922  1.00  0.00    -0.200 C  
HETATM    9  N   UNL     1      -9.429   9.676  67.708  1.00  0.00    -0.127 NA 
HETATM   10  C   UNL     1      -9.618   8.279  67.495  1.00  0.00    -0.154 C  
HETATM   11  C   UNL     1      -8.705   7.829  66.624  1.00  0.00    -0.151 C  
HETATM   12  C   UNL     1      -8.630   6.420  66.254  1.00  0.00    -0.140 C  
HETATM   13  C   UNL     1      -7.658   8.878  66.397  1.00  0.00    -0.092 C  
HETATM   14  C   UNL     1      -9.761   5.579  66.805  1.00  0.00    -0.155 C  
HETATM   15  O   UNL     1      -7.692   5.939  65.634  1.00  0.00    -0.090 OA 
HETATM   16  O   UNL     1     -10.650   7.518  69.545  1.00  0.00    -0.233 OA 
HETATM   17  H2  UNL     1     -10.776   5.314  65.106  1.00  0.00     0.000 HD 
HETATM   18  N   UNL     1     -10.964   5.582  66.072  1.00  0.00    -0.736 NA 
HETATM   19  C   UNL     1      -9.793   5.797  68.131  1.00  0.00    -0.162 C  
HETATM   20  C   UNL     1     -10.110   7.230  68.486  1.00  0.00    -0.172 C  
HETATM   21  C   UNL     1     -10.053   4.678  69.085  1.00  0.00    -0.144 C  
HETATM   22  H1  UNL     1     -11.726   5.015  66.444  1.00  0.00     0.000 HD 
BRANCH  13  23
HETATM   23  C   UNL     1      -7.950   9.616  65.069  1.00  0.00    -0.122 C  
BRANCH  23  24
HETATM   24  O   UNL     1      -6.771  10.136  64.426  1.00  0.00    -0.127 OA 
BRANCH  24  25
HETATM   25  C   UNL     1      -6.823  10.184  63.070  1.00  0.00    -0.135 C  
HETATM   26  O   UNL     1      -5.936  10.606  62.338  1.00  0.00    -0.133 OA 
HETATM   27  N   UNL     1      -8.019   9.734  62.640  1.00  0.00    -0.121 N  
HETATM   28  H1  UNL     1      -8.058   9.770  61.622  1.00  0.00     0.000 HD 
HETATM   29  H2  UNL     1      -8.774   9.406  63.243  1.00  0.00     0.000 HD 
ENDBRANCH  24  25
ENDBRANCH  23  24
ENDBRANCH  13  23
ENDBRANCH   2   3
TORSDOF 4
ENDMDL
MODEL      149
REMARK 921   NORMALIZED FREE ENERGY PREDICTED BY IDOCK:   -2.80 KCAL/MOL
REMARK 922        TOTAL FREE ENERGY PREDICTED BY IDOCK:   -3.62 KCAL/MOL
REMARK 923 INTER-LIGAND FREE ENERGY PREDICTED BY IDOCK:   -3.61 KCAL/MOL
REMARK 924 INTRA-LIGAND FREE ENERGY PREDICTED BY IDOCK:   -0.02 KCAL/MOL
REMARK 927      BINDING AFFINITY PREDICTED BY RF-SCORE:    0.00 PKD
ROOT
HETATM    1  C   UNL     1      -9.165  11.051  68.111  1.00  0.00    -0.165 C  
HETATM    2  O   UNL     1     -10.034   9.908  68.224  1.00  0.00    -0.145 OA 
ENDROOT
BRANCH   2   3
HETATM    3  C   UNL     1      -9.311   8.729  68.576  1.00  0.00    -0.141 C  
HETATM    4  C   UNL     1      -8.706   8.936  69.995  1.00  0.00    -0.147 C  
HETATM    5  N   UNL     1      -9.347   9.817  70.992  1.00  0.00    -0.311 NA 
HETATM    6  H   UNL     1      -9.867  10.692  70.921  1.00  0.00     0.000 HD 
HETATM    7  C   UNL     1      -9.743   8.425  70.997  1.00  0.00    -0.174 C  
HETATM    8  C   UNL     1     -10.851   7.833  70.181  1.00  0.00    -0.244 C  
HETATM    9  N   UNL     1     -10.175   7.549  68.917  1.00  0.00    -0.203 NA 
HETATM   10  C   UNL     1      -9.296   6.438  68.753  1.00  0.00    -0.125 C  
HETATM   11  C   UNL     1      -8.440   6.685  67.752  1.00  0.00    -0.122 C  
HETATM   12  C   UNL     1      -7.392   5.737  67.391  1.00  0.00    -0.077 C  
HETATM   13  C   UNL     1      -8.532   8.126  67.349  1.00  0.00    -0.126 C  
HETATM   14  C   UNL     1      -7.478   4.418  68.125  1.00  0.00    -0.065 C  
HETATM   15  O   UNL     1      -6.472   6.014  66.634  1.00  0.00    -0.046 OA 
HETATM   16  O   UNL     1      -9.223   5.432  70.951  1.00  0.00    -0.145 OA 
HETATM   17  H2  UNL     1      -8.134   3.289  66.614  1.00  0.00     0.000 HD 
HETATM   18  N   UNL     1      -8.359   3.457  67.595  1.00  0.00    -0.084 NA 
HETATM   19  C   UNL     1      -7.525   4.708  69.437  1.00  0.00    -0.052 C  
HETATM   20  C   UNL     1      -8.755   5.495  69.822  1.00  0.00    -0.116 C  
HETATM   21  C   UNL     1      -6.782   3.881  70.433  1.00  0.00    -0.033 C  
HETATM   22  H1  UNL     1      -8.417   2.567  68.091  1.00  0.00     0.000 HD 
BRANCH  13  23
HETATM   23  C   UNL     1      -9.404   8.249  66.077  1.00  0.00    -0.149 C  
BRANCH  23  24
HETATM   24  O   UNL     1      -9.092   9.402  65.272  1.00  0.00    -0.207 OA 
BRANCH  24  25
HETATM   25  C   UNL     1      -8.319   9.157  64.183  1.00  0.00    -0.178 C  
HETATM   26  O   UNL     1      -7.103   9.006  64.192  1.00  0.00    -0.093 OA 
HETATM   27  N   UNL     1      -9.081   9.144  63.071  1.00  0.00    -0.458 N  
HETATM   28  H1  UNL     1      -8.500   8.960  62.254  1.00  0.00     0.000 HD 
HETATM   29  H2  UNL     1     -10.090   9.296  63.050  1.00  0.00     0.000 HD 
ENDBRANCH  24  25
ENDBRANCH  23  24
ENDBRANCH  13  23
ENDBRANCH   2   3
TORSDOF 4
ENDMDL
MODEL      150
REMARK 921   NORMALIZED FREE ENERGY PREDICTED BY IDOCK:   -2.80 KCAL/MOL
REMARK 922        TOTAL FREE ENERGY PREDICTED BY IDOCK:   -3.62 KCAL/MOL
REMARK 923 INTER-LIGAND FREE ENERGY PREDICTED BY IDOCK:   -4.06 KCAL/MOL
REMARK 924 INTRA-LIGAND FREE ENERGY PREDICTED BY IDOCK:    0.44 KCAL/MOL
REMARK 927      BINDING AFFINITY PREDICTED BY RF-SCORE:    0.00 PKD
ROOT
HETATM    1  C   UNL     1      -6.892  10.913  69.251  1.00  0.00    -0.105 C  
HETATM    2  O   UNL     1      -8.037  10.422  68.530  1.00  0.00    -0.106 OA 
ENDROOT
BRANCH   2   3
HETATM    3  C   UNL     1      -8.688  11.464  67.803  1.00  0.00    -0.136 C  
HETATM    4  C   UNL     1      -7.595  12.317  67.095  1.00  0.00    -0.118 C  
HETATM    5  N   UNL     1      -6.298  11.738  66.689  1.00  0.00    -0.334 NA 
HETATM    6  H   UNL     1      -5.693  11.025  67.096  1.00  0.00     0.000 HD 
HETATM    7  C   UNL     1      -7.370  11.693  65.717  1.00  0.00     0.788 C  
HETATM    8  C   UNL     1      -8.382  10.595  65.588  1.00  0.00    -0.162 C  
HETATM    9  N   UNL     1      -9.394  11.005  66.558  1.00  0.00    -0.176 NA 
HETATM   10  C   UNL     1     -10.321  12.058  66.299  1.00  0.00    -0.221 C  
HETATM   11  C   UNL     1     -10.753  12.573  67.457  1.00  0.00    -0.250 C  
HETATM   12  C   UNL     1     -11.677  13.701  67.495  1.00  0.00    -0.371 C  
HETATM   13  C   UNL     1      -9.916  12.054  68.588  1.00  0.00    -0.151 C  
HETATM   14  C   UNL     1     -12.213  14.102  66.138  1.00  0.00    -0.442 C  
HETATM   15  O   UNL     1     -11.927  14.328  68.515  1.00  0.00    -0.341 OA 
HETATM   16  O   UNL     1      -9.667  12.875  64.119  1.00  0.00    -0.103 OA 
HETATM   17  H2  UNL     1     -14.069  13.395  66.340  1.00  0.00     0.000 HD 
HETATM   18  N   UNL     1     -13.315  13.372  65.654  1.00  0.00    -0.321 NA 
HETATM   19  C   UNL     1     -11.146  14.294  65.344  1.00  0.00    -0.327 C  
HETATM   20  C   UNL     1     -10.334  13.039  65.132  1.00  0.00    -0.304 C  
HETATM   21  C   UNL     1     -11.111  15.423  64.366  1.00  0.00    -0.149 C  
HETATM   22  H1  UNL     1     -13.676  13.642  64.739  1.00  0.00     0.000 HD 
BRANCH  13  23
HETATM   23  C   UNL     1     -10.671  10.906  69.299  1.00  0.00    -0.231 C  
BRANCH  23  24
HETATM   24  O   UNL     1     -11.393  10.045  68.399  1.00  0.00    -0.183 OA 
BRANCH  24  25
HETATM   25  C   UNL     1     -11.044   8.734  68.445  1.00  0.00     0.307 C  
HETATM   26  O   UNL     1     -10.777   8.103  69.461  1.00  0.00    -0.227 OA 
HETATM   27  N   UNL     1     -10.992   8.227  67.197  1.00  0.00    -0.397 N  
HETATM   28  H1  UNL     1     -10.730   7.243  67.232  1.00  0.00     0.000 HD 
HETATM   29  H2  UNL     1     -11.186   8.751  66.343  1.00  0.00     0.000 HD 
ENDBRANCH  24  25
ENDBRANCH  23  24
ENDBRANCH  13  23
ENDBRANCH   2   3
TORSDOF 4
ENDMDL
MODEL      151
REMARK 921   NORMALIZED FREE ENERGY PREDICTED BY IDOCK:   -2.80 KCAL/MOL
REMARK 922        TOTAL FREE ENERGY PREDICTED BY IDOCK:   -3.62 KCAL/MOL
REMARK 923 INTER-LIGAND FREE ENERGY PREDICTED BY IDOCK:   -4.19 KCAL/MOL
REMARK 924 INTRA-LIGAND FREE ENERGY PREDICTED BY IDOCK:    0.57 KCAL/MOL
REMARK 927      BINDING AFFINITY PREDICTED BY RF-SCORE:    0.00 PKD
ROOT
HETATM    1  C   UNL     1      -7.581   7.976  73.618  1.00  0.00    -0.162 C  
HETATM    2  O   UNL     1      -8.266   8.910  72.764  1.00  0.00    -0.387 OA 
ENDROOT
BRANCH   2   3
HETATM    3  C   UNL     1      -8.568   8.337  71.492  1.00  0.00    -0.155 C  
HETATM    4  C   UNL     1      -8.145   9.352  70.390  1.00  0.00    -0.175 C  
HETATM    5  N   UNL     1      -7.045  10.315  70.601  1.00  0.00    -0.425 NA 
HETATM    6  H   UNL     1      -6.714  10.831  71.417  1.00  0.00     0.000 HD 
HETATM    7  C   UNL     1      -6.694   9.032  70.028  1.00  0.00    -0.044 C  
HETATM    8  C   UNL     1      -6.334   7.802  70.804  1.00  0.00    -0.037 C  
HETATM    9  N   UNL     1      -7.647   7.225  71.077  1.00  0.00    -0.083 NA 
HETATM   10  C   UNL     1      -8.398   6.528  70.085  1.00  0.00    -0.134 C  
HETATM   11  C   UNL     1      -9.701   6.568  70.396  1.00  0.00    -0.186 C  
HETATM   12  C   UNL     1     -10.712   5.974  69.529  1.00  0.00    -0.335 C  
HETATM   13  C   UNL     1      -9.929   7.547  71.509  1.00  0.00    -0.197 C  
HETATM   14  C   UNL     1     -10.142   5.186  68.370  1.00  0.00    -0.138 C  
HETATM   15  O   UNL     1     -11.912   6.171  69.667  1.00  0.00     0.018 OA 
HETATM   16  O   UNL     1      -7.035   6.712  68.097  1.00  0.00    -0.071 OA 
HETATM   17  H2  UNL     1     -10.555   3.351  69.040  1.00  0.00     0.000 HD 
HETATM   18  N   UNL     1      -9.766   3.856  68.637  1.00  0.00    -0.105 NA 
HETATM   19  C   UNL     1      -9.285   6.002  67.733  1.00  0.00    -0.107 C  
HETATM   20  C   UNL     1      -8.112   6.412  68.592  1.00  0.00    -0.113 C  
HETATM   21  C   UNL     1      -9.205   6.017  66.242  1.00  0.00    -0.168 C  
HETATM   22  H1  UNL     1      -9.381   3.324  67.856  1.00  0.00     0.000 HD 
BRANCH  13  23
HETATM   23  C   UNL     1     -10.062   6.781  72.846  1.00  0.00    -0.181 C  
BRANCH  23  24
HETATM   24  O   UNL     1      -9.997   5.350  72.701  1.00  0.00    -0.161 OA 
BRANCH  24  25
HETATM   25  C   UNL     1     -10.947   4.655  73.376  1.00  0.00    -0.318 C  
HETATM   26  O   UNL     1     -10.735   3.786  74.213  1.00  0.00    -0.206 OA 
HETATM   27  N   UNL     1     -12.174   5.030  72.960  1.00  0.00    -0.319 N  
HETATM   28  H1  UNL     1     -12.888   4.508  73.467  1.00  0.00     0.000 HD 
HETATM   29  H2  UNL     1     -12.360   5.732  72.244  1.00  0.00     0.000 HD 
ENDBRANCH  24  25
ENDBRANCH  23  24
ENDBRANCH  13  23
ENDBRANCH   2   3
TORSDOF 4
ENDMDL
MODEL      152
REMARK 921   NORMALIZED FREE ENERGY PREDICTED BY IDOCK:   -2.72 KCAL/MOL
REMARK 922        TOTAL FREE ENERGY PREDICTED BY IDOCK:   -3.53 KCAL/MOL
REMARK 923 INTER-LIGAND FREE ENERGY PREDICTED BY IDOCK:   -3.46 KCAL/MOL
REMARK 924 INTRA-LIGAND FREE ENERGY PREDICTED BY IDOCK:   -0.07 KCAL/MOL
REMARK 927      BINDING AFFINITY PREDICTED BY RF-SCORE:    0.00 PKD
ROOT
HETATM    1  C   UNL     1     -11.356   8.297  71.528  1.00  0.00    -0.268 C  
HETATM    2  O   UNL     1      -9.987   8.572  71.181  1.00  0.00    -0.183 OA 
ENDROOT
BRANCH   2   3
HETATM    3  C   UNL     1      -9.802   8.630  69.766  1.00  0.00    -0.183 C  
HETATM    4  C   UNL     1     -10.644   9.819  69.217  1.00  0.00    -0.221 C  
HETATM    5  N   UNL     1     -10.943  11.007  70.041  1.00  0.00    -0.467 NA 
HETATM    6  H   UNL     1     -11.126  11.140  71.036  1.00  0.00     0.000 HD 
HETATM    7  C   UNL     1      -9.737  11.051  69.240  1.00  0.00    -0.008 C  
HETATM    8  C   UNL     1      -8.388  10.564  69.672  1.00  0.00     0.009 C  
HETATM    9  N   UNL     1      -8.459   9.145  69.336  1.00  0.00    -0.125 NA 
HETATM   10  C   UNL     1      -8.338   8.669  67.997  1.00  0.00    -0.123 C  
HETATM   11  C   UNL     1      -8.938   7.476  67.887  1.00  0.00    -0.131 C  
HETATM   12  C   UNL     1      -9.010   6.771  66.612  1.00  0.00    -0.144 C  
HETATM   13  C   UNL     1      -9.745   7.198  69.119  1.00  0.00    -0.158 C  
HETATM   14  C   UNL     1      -8.215   7.424  65.503  1.00  0.00    -0.135 C  
HETATM   15  O   UNL     1      -9.723   5.794  66.427  1.00  0.00    -0.155 OA 
HETATM   16  O   UNL     1      -8.136  10.689  66.684  1.00  0.00    -0.126 OA 
HETATM   17  H2  UNL     1      -6.713   6.112  65.415  1.00  0.00     0.000 HD 
HETATM   18  N   UNL     1      -6.841   7.124  65.451  1.00  0.00    -0.051 NA 
HETATM   19  C   UNL     1      -8.616   8.706  65.444  1.00  0.00    -0.206 C  
HETATM   20  C   UNL     1      -8.309   9.478  66.705  1.00  0.00    -0.116 C  
HETATM   21  C   UNL     1      -8.799   9.393  64.131  1.00  0.00    -0.216 C  
HETATM   22  H1  UNL     1      -6.305   7.564  64.703  1.00  0.00     0.000 HD 
BRANCH  13  23
HETATM   23  C   UNL     1      -8.954   6.246  70.048  1.00  0.00    -0.149 C  
BRANCH  23  24
HETATM   24  O   UNL     1      -8.409   5.098  69.369  1.00  0.00    -0.089 OA 
BRANCH  24  25
HETATM   25  C   UNL     1      -8.463   3.934  70.064  1.00  0.00    -0.063 C  
HETATM   26  O   UNL     1      -8.372   2.811  69.582  1.00  0.00    -0.047 OA 
HETATM   27  N   UNL     1      -8.676   4.188  71.371  1.00  0.00    -0.104 N  
HETATM   28  H1  UNL     1      -8.716   3.313  71.894  1.00  0.00     0.000 HD 
HETATM   29  H2  UNL     1      -8.780   5.118  71.778  1.00  0.00     0.000 HD 
ENDBRANCH  24  25
ENDBRANCH  23  24
ENDBRANCH  13  23
ENDBRANCH   2   3
TORSDOF 4
ENDMDL
MODEL      153
REMARK 921   NORMALIZED FREE ENERGY PREDICTED BY IDOCK:   -2.69 KCAL/MOL
REMARK 922        TOTAL FREE ENERGY PREDICTED BY IDOCK:   -3.49 KCAL/MOL
REMARK 923 INTER-LIGAND FREE ENERGY PREDICTED BY IDOCK:   -3.35 KCAL/MOL
REMARK 924 INTRA-LIGAND FREE ENERGY PREDICTED BY IDOCK:   -0.14 KCAL/MOL
REMARK 927      BINDING AFFINITY PREDICTED BY RF-SCORE:    0.00 PKD
ROOT
HETATM    1  C   UNL     1      -9.339  11.920  66.559  1.00  0.00    -0.216 C  
HETATM    2  O   UNL     1      -9.365  10.493  66.751  1.00  0.00    -0.154 OA 
ENDROOT
BRANCH   2   3
HETATM    3  C   UNL     1      -9.151  10.142  68.118  1.00  0.00    -0.128 C  
HETATM    4  C   UNL     1     -10.473  10.400  68.898  1.00  0.00    -0.212 C  
HETATM    5  N   UNL     1     -11.793  10.317  68.240  1.00  0.00    -0.715 NA 
HETATM    6  H   UNL     1     -12.123  10.547  67.303  1.00  0.00     0.000 HD 
HETATM    7  C   UNL     1     -11.281   9.103  68.841  1.00  0.00     0.248 C  
HETATM    8  C   UNL     1     -10.404   8.098  68.159  1.00  0.00    -0.201 C  
HETATM    9  N   UNL     1      -9.075   8.664  68.375  1.00  0.00    -0.138 NA 
HETATM   10  C   UNL     1      -8.403   8.582  69.630  1.00  0.00    -0.121 C  
HETATM   11  C   UNL     1      -7.507   9.574  69.727  1.00  0.00    -0.098 C  
HETATM   12  C   UNL     1      -6.704   9.764  70.929  1.00  0.00    -0.024 C  
HETATM   13  C   UNL     1      -7.720  10.561  68.618  1.00  0.00    -0.106 C  
HETATM   14  C   UNL     1      -6.859   8.660  71.952  1.00  0.00    -0.078 C  
HETATM   15  O   UNL     1      -6.037  10.768  71.137  1.00  0.00    -0.351 OA 
HETATM   16  O   UNL     1     -10.003   7.481  71.069  1.00  0.00    -0.186 OA 
HETATM   17  H2  UNL     1      -5.092   7.769  71.684  1.00  0.00     0.000 HD 
HETATM   18  N   UNL     1      -6.075   7.507  71.759  1.00  0.00    -0.036 NA 
HETATM   19  C   UNL     1      -8.176   8.534  72.188  1.00  0.00    -0.175 C  
HETATM   20  C   UNL     1      -8.954   8.102  70.968  1.00  0.00    -0.151 C  
HETATM   21  C   UNL     1      -8.689   8.292  73.569  1.00  0.00    -0.259 C  
HETATM   22  H1  UNL     1      -6.180   6.763  72.450  1.00  0.00     0.000 HD 
BRANCH  13  23
HETATM   23  C   UNL     1      -6.687  10.301  67.495  1.00  0.00    -0.071 C  
BRANCH  23  24
HETATM   24  O   UNL     1      -5.917   9.099  67.686  1.00  0.00    -0.048 OA 
BRANCH  24  25
HETATM   25  C   UNL     1      -5.918   8.236  66.639  1.00  0.00    -0.052 C  
HETATM   26  O   UNL     1      -6.509   7.163  66.600  1.00  0.00    -0.050 OA 
HETATM   27  N   UNL     1      -5.135   8.712  65.650  1.00  0.00    -0.030 N  
HETATM   28  H1  UNL     1      -5.137   8.064  64.863  1.00  0.00     0.000 HD 
HETATM   29  H2  UNL     1      -4.617   9.590  65.684  1.00  0.00     0.000 HD 
ENDBRANCH  24  25
ENDBRANCH  23  24
ENDBRANCH  13  23
ENDBRANCH   2   3
TORSDOF 4
ENDMDL
MODEL      154
REMARK 921   NORMALIZED FREE ENERGY PREDICTED BY IDOCK:   -2.64 KCAL/MOL
REMARK 922        TOTAL FREE ENERGY PREDICTED BY IDOCK:   -3.42 KCAL/MOL
REMARK 923 INTER-LIGAND FREE ENERGY PREDICTED BY IDOCK:   -4.21 KCAL/MOL
REMARK 924 INTRA-LIGAND FREE ENERGY PREDICTED BY IDOCK:    0.78 KCAL/MOL
REMARK 927      BINDING AFFINITY PREDICTED BY RF-SCORE:    0.00 PKD
ROOT
HETATM    1  C   UNL     1      -9.013  12.136  68.147  1.00  0.00    -0.195 C  
HETATM    2  O   UNL     1     -10.192  11.713  67.440  1.00  0.00    -0.199 OA 
ENDROOT
BRANCH   2   3
HETATM    3  C   UNL     1     -10.181  10.306  67.191  1.00  0.00    -0.225 C  
HETATM    4  C   UNL     1     -10.581  10.074  65.705  1.00  0.00     0.119 C  
HETATM    5  N   UNL     1     -10.308  11.081  64.659  1.00  0.00    -0.330 NA 
HETATM    6  H   UNL     1     -10.300  12.101  64.655  1.00  0.00     0.000 HD 
HETATM    7  C   UNL     1      -9.285  10.082  64.892  1.00  0.00    -0.239 C  
HETATM    8  C   UNL     1      -8.171  10.193  65.888  1.00  0.00    -0.138 C  
HETATM    9  N   UNL     1      -8.809   9.702  67.107  1.00  0.00    -0.131 NA 
HETATM   10  C   UNL     1      -9.045   8.315  67.342  1.00  0.00    -0.140 C  
HETATM   11  C   UNL     1     -10.056   8.171  68.209  1.00  0.00    -0.230 C  
HETATM   12  C   UNL     1     -10.547   6.854  68.599  1.00  0.00    -0.223 C  
HETATM   13  C   UNL     1     -10.745   9.487  68.410  1.00  0.00    -0.230 C  
HETATM   14  C   UNL     1      -9.714   5.707  68.072  1.00  0.00    -0.126 C  
HETATM   15  O   UNL     1     -11.590   6.685  69.215  1.00  0.00    -0.240 OA 
HETATM   16  O   UNL     1      -8.273   7.249  65.313  1.00  0.00    -0.130 OA 
HETATM   17  H2  UNL     1      -8.833   5.180  69.784  1.00  0.00     0.000 HD 
HETATM   18  N   UNL     1      -8.569   5.364  68.817  1.00  0.00    -0.099 NA 
HETATM   19  C   UNL     1      -9.611   5.883  66.743  1.00  0.00    -0.165 C  
HETATM   20  C   UNL     1      -8.881   7.151  66.371  1.00  0.00    -0.145 C  
HETATM   21  C   UNL     1      -9.690   4.722  65.808  1.00  0.00    -0.200 C  
HETATM   22  H1  UNL     1      -8.007   4.591  68.461  1.00  0.00     0.000 HD 
BRANCH  13  23
HETATM   23  C   UNL     1     -10.255  10.128  69.730  1.00  0.00    -0.247 C  
BRANCH  23  24
HETATM   24  O   UNL     1      -9.905   9.165  70.743  1.00  0.00    -0.225 OA 
BRANCH  24  25
HETATM   25  C   UNL     1      -8.589   8.838  70.802  1.00  0.00    -0.187 C  
HETATM   26  O   UNL     1      -8.140   7.748  71.140  1.00  0.00    -0.092 OA 
HETATM   27  N   UNL     1      -7.834   9.905  70.472  1.00  0.00    -0.188 N  
HETATM   28  H1  UNL     1      -6.845   9.658  70.516  1.00  0.00     0.000 HD 
HETATM   29  H2  UNL     1      -8.197  10.823  70.216  1.00  0.00     0.000 HD 
ENDBRANCH  24  25
ENDBRANCH  23  24
ENDBRANCH  13  23
ENDBRANCH   2   3
TORSDOF 4
ENDMDL
MODEL      155
REMARK 921   NORMALIZED FREE ENERGY PREDICTED BY IDOCK:   -2.61 KCAL/MOL
REMARK 922        TOTAL FREE ENERGY PREDICTED BY IDOCK:   -3.39 KCAL/MOL
REMARK 923 INTER-LIGAND FREE ENERGY PREDICTED BY IDOCK:   -3.20 KCAL/MOL
REMARK 924 INTRA-LIGAND FREE ENERGY PREDICTED BY IDOCK:   -0.19 KCAL/MOL
REMARK 927      BINDING AFFINITY PREDICTED BY RF-SCORE:    0.00 PKD
ROOT
HETATM    1  C   UNL     1      -9.490   8.529  70.805  1.00  0.00    -0.178 C  
HETATM    2  O   UNL     1      -9.545   8.687  69.375  1.00  0.00    -0.163 OA 
ENDROOT
BRANCH   2   3
HETATM    3  C   UNL     1      -9.087   7.516  68.698  1.00  0.00    -0.134 C  
HETATM    4  C   UNL     1     -10.110   6.373  68.959  1.00  0.00    -0.165 C  
HETATM    5  N   UNL     1     -11.539   6.651  69.214  1.00  0.00    -0.646 NA 
HETATM    6  H   UNL     1     -12.029   7.405  69.695  1.00  0.00     0.000 HD 
HETATM    7  C   UNL     1     -11.146   6.442  67.836  1.00  0.00    -0.270 C  
HETATM    8  C   UNL     1     -10.669   7.507  66.896  1.00  0.00    -0.229 C  
HETATM    9  N   UNL     1      -9.243   7.562  67.205  1.00  0.00    -0.132 NA 
HETATM   10  C   UNL     1      -8.322   6.573  66.748  1.00  0.00    -0.111 C  
HETATM   11  C   UNL     1      -7.253   6.546  67.555  1.00  0.00    -0.086 C  
HETATM   12  C   UNL     1      -6.167   5.594  67.353  1.00  0.00    -0.030 C  
HETATM   13  C   UNL     1      -7.524   7.358  68.786  1.00  0.00    -0.101 C  
HETATM   14  C   UNL     1      -6.288   4.784  66.081  1.00  0.00    -0.036 C  
HETATM   15  O   UNL     1      -5.287   5.397  68.180  1.00  0.00    -0.007 OA 
HETATM   16  O   UNL     1      -9.720   4.977  65.589  1.00  0.00    -0.160 OA 
HETATM   17  H2  UNL     1      -4.844   5.679  65.031  1.00  0.00     0.000 HD 
HETATM   18  N   UNL     1      -5.813   5.388  64.901  1.00  0.00    -0.021 NA 
HETATM   19  C   UNL     1      -7.511   4.226  66.093  1.00  0.00    -0.085 C  
HETATM   20  C   UNL     1      -8.624   5.246  66.062  1.00  0.00    -0.124 C  
HETATM   21  C   UNL     1      -7.719   2.825  65.621  1.00  0.00    -0.077 C  
HETATM   22  H1  UNL     1      -5.895   4.842  64.043  1.00  0.00     0.000 HD 
BRANCH  13  23
HETATM   23  C   UNL     1      -6.858   8.747  68.642  1.00  0.00    -0.063 C  
BRANCH  23  24
HETATM   24  O   UNL     1      -6.591   9.120  67.276  1.00  0.00    -0.063 OA 
BRANCH  24  25
HETATM   25  C   UNL     1      -6.803  10.428  66.981  1.00  0.00    -0.085 C  
HETATM   26  O   UNL     1      -6.242  11.057  66.091  1.00  0.00    -0.130 OA 
HETATM   27  N   UNL     1      -7.696  10.956  67.842  1.00  0.00    -0.102 N  
HETATM   28  H1  UNL     1      -7.855  11.938  67.620  1.00  0.00     0.000 HD 
HETATM   29  H2  UNL     1      -8.147  10.447  68.603  1.00  0.00     0.000 HD 
ENDBRANCH  24  25
ENDBRANCH  23  24
ENDBRANCH  13  23
ENDBRANCH   2   3
TORSDOF 4
ENDMDL
MODEL      156
REMARK 921   NORMALIZED FREE ENERGY PREDICTED BY IDOCK:   -2.59 KCAL/MOL
REMARK 922        TOTAL FREE ENERGY PREDICTED BY IDOCK:   -3.37 KCAL/MOL
REMARK 923 INTER-LIGAND FREE ENERGY PREDICTED BY IDOCK:   -4.01 KCAL/MOL
REMARK 924 INTRA-LIGAND FREE ENERGY PREDICTED BY IDOCK:    0.64 KCAL/MOL
REMARK 927      BINDING AFFINITY PREDICTED BY RF-SCORE:    0.00 PKD
ROOT
HETATM    1  C   UNL     1     -11.932  10.422  69.466  1.00  0.00    -0.103 C  
HETATM    2  O   UNL     1     -11.121  10.333  70.651  1.00  0.00    -0.315 OA 
ENDROOT
BRANCH   2   3
HETATM    3  C   UNL     1     -10.063   9.387  70.496  1.00  0.00    -0.275 C  
HETATM    4  C   UNL     1      -9.923   8.594  71.828  1.00  0.00    -0.301 C  
HETATM    5  N   UNL     1     -11.073   8.379  72.730  1.00  0.00    -0.255 NA 
HETATM    6  H   UNL     1     -11.884   8.947  72.977  1.00  0.00     0.000 HD 
HETATM    7  C   UNL     1     -10.838   7.373  71.715  1.00  0.00    -0.223 C  
HETATM    8  C   UNL     1     -11.391   7.397  70.323  1.00  0.00    -0.221 C  
HETATM    9  N   UNL     1     -10.403   8.214  69.622  1.00  0.00    -0.217 NA 
HETATM   10  C   UNL     1      -9.127   7.708  69.238  1.00  0.00    -0.145 C  
HETATM   11  C   UNL     1      -8.260   8.722  69.110  1.00  0.00    -0.119 C  
HETATM   12  C   UNL     1      -6.860   8.494  68.771  1.00  0.00    -0.062 C  
HETATM   13  C   UNL     1      -8.859   9.976  69.673  1.00  0.00    -0.217 C  
HETATM   14  C   UNL     1      -6.539   7.058  68.420  1.00  0.00    -0.055 C  
HETATM   15  O   UNL     1      -6.002   9.362  68.851  1.00  0.00    -0.042 OA 
HETATM   16  O   UNL     1      -9.113   5.454  70.112  1.00  0.00    -0.130 OA 
HETATM   17  H2  UNL     1      -6.318   7.284  66.449  1.00  0.00     0.000 HD 
HETATM   18  N   UNL     1      -6.799   6.658  67.095  1.00  0.00    -0.067 NA 
HETATM   19  C   UNL     1      -6.986   6.303  69.439  1.00  0.00    -0.067 C  
HETATM   20  C   UNL     1      -8.484   6.378  69.616  1.00  0.00    -0.130 C  
HETATM   21  C   UNL     1      -6.198   5.134  69.931  1.00  0.00    -0.026 C  
HETATM   22  H1  UNL     1      -6.582   5.689  66.860  1.00  0.00     0.000 HD 
BRANCH  13  23
HETATM   23  C   UNL     1      -9.405  10.847  68.517  1.00  0.00    -0.181 C  
BRANCH  23  24
HETATM   24  O   UNL     1      -8.798  12.151  68.439  1.00  0.00    -0.181 OA 
BRANCH  24  25
HETATM   25  C   UNL     1      -8.183  12.436  67.263  1.00  0.00    -0.184 C  
HETATM   26  O   UNL     1      -7.696  11.613  66.497  1.00  0.00    -0.109 OA 
HETATM   27  N   UNL     1      -8.147  13.770  67.074  1.00  0.00    -0.381 N  
HETATM   28  H1  UNL     1      -7.685  13.984  66.190  1.00  0.00     0.000 HD 
HETATM   29  H2  UNL     1      -8.525  14.464  67.719  1.00  0.00     0.000 HD 
ENDBRANCH  24  25
ENDBRANCH  23  24
ENDBRANCH  13  23
ENDBRANCH   2   3
TORSDOF 4
ENDMDL
MODEL      157
REMARK 921   NORMALIZED FREE ENERGY PREDICTED BY IDOCK:   -2.55 KCAL/MOL
REMARK 922        TOTAL FREE ENERGY PREDICTED BY IDOCK:   -3.32 KCAL/MOL
REMARK 923 INTER-LIGAND FREE ENERGY PREDICTED BY IDOCK:   -3.23 KCAL/MOL
REMARK 924 INTRA-LIGAND FREE ENERGY PREDICTED BY IDOCK:   -0.09 KCAL/MOL
REMARK 927      BINDING AFFINITY PREDICTED BY RF-SCORE:    0.00 PKD
ROOT
HETATM    1  C   UNL     1      -8.376   7.075  67.800  1.00  0.00    -0.117 C  
HETATM    2  O   UNL     1      -9.221   8.063  68.418  1.00  0.00    -0.136 OA 
ENDROOT
BRANCH   2   3
HETATM    3  C   UNL     1      -8.803   9.390  68.095  1.00  0.00    -0.124 C  
HETATM    4  C   UNL     1      -8.940   9.580  66.557  1.00  0.00    -0.148 C  
HETATM    5  N   UNL     1      -9.941   8.833  65.767  1.00  0.00    -0.411 NA 
HETATM    6  H   UNL     1     -10.326   7.891  65.837  1.00  0.00     0.000 HD 
HETATM    7  C   UNL     1     -10.349  10.116  66.301  1.00  0.00    -0.175 C  
HETATM    8  C   UNL     1     -10.959  10.341  67.651  1.00  0.00    -0.294 C  
HETATM    9  N   UNL     1      -9.775  10.462  68.498  1.00  0.00    -0.162 NA 
HETATM   10  C   UNL     1      -8.972  11.640  68.527  1.00  0.00    -0.138 C  
HETATM   11  C   UNL     1      -7.733  11.330  68.933  1.00  0.00    -0.125 C  
HETATM   12  C   UNL     1      -6.681  12.337  69.012  1.00  0.00    -0.105 C  
HETATM   13  C   UNL     1      -7.560   9.841  68.947  1.00  0.00    -0.081 C  
HETATM   14  C   UNL     1      -7.162  13.750  68.764  1.00  0.00    -0.106 C  
HETATM   15  O   UNL     1      -5.500  12.060  69.172  1.00  0.00    -0.058 OA 
HETATM   16  O   UNL     1      -9.998  13.078  66.876  1.00  0.00    -0.234 OA 
HETATM   17  H2  UNL     1      -7.065  14.422  70.641  1.00  0.00     0.000 HD 
HETATM   18  N   UNL     1      -7.724  14.427  69.862  1.00  0.00    -0.295 NA 
HETATM   19  C   UNL     1      -7.816  13.733  67.590  1.00  0.00    -0.185 C  
HETATM   20  C   UNL     1      -9.047  12.858  67.613  1.00  0.00    -0.194 C  
HETATM   21  C   UNL     1      -7.674  14.856  66.616  1.00  0.00     0.477 C  
HETATM   22  H1  UNL     1      -8.048  15.380  69.694  1.00  0.00     0.000 HD 
BRANCH  13  23
HETATM   23  C   UNL     1      -7.714   9.321  70.396  1.00  0.00    -0.143 C  
BRANCH  23  24
HETATM   24  O   UNL     1      -6.692   8.383  70.784  1.00  0.00    -0.036 OA 
BRANCH  24  25
HETATM   25  C   UNL     1      -6.568   8.181  72.121  1.00  0.00    -0.073 C  
HETATM   26  O   UNL     1      -7.330   8.609  72.980  1.00  0.00    -0.327 OA 
HETATM   27  N   UNL     1      -5.453   7.468  72.377  1.00  0.00    -0.037 N  
HETATM   28  H1  UNL     1      -5.360   7.316  73.381  1.00  0.00     0.000 HD 
HETATM   29  H2  UNL     1      -4.798   7.130  71.671  1.00  0.00     0.000 HD 
ENDBRANCH  24  25
ENDBRANCH  23  24
ENDBRANCH  13  23
ENDBRANCH   2   3
TORSDOF 4
ENDMDL
MODEL      158
REMARK 921   NORMALIZED FREE ENERGY PREDICTED BY IDOCK:   -2.49 KCAL/MOL
REMARK 922        TOTAL FREE ENERGY PREDICTED BY IDOCK:   -3.24 KCAL/MOL
REMARK 923 INTER-LIGAND FREE ENERGY PREDICTED BY IDOCK:   -3.70 KCAL/MOL
REMARK 924 INTRA-LIGAND FREE ENERGY PREDICTED BY IDOCK:    0.45 KCAL/MOL
REMARK 927      BINDING AFFINITY PREDICTED BY RF-SCORE:    0.00 PKD
ROOT
HETATM    1  C   UNL     1     -11.402  10.613  68.221  1.00  0.00    -0.289 C  
HETATM    2  O   UNL     1     -10.368  10.867  69.189  1.00  0.00    -0.211 OA 
ENDROOT
BRANCH   2   3
HETATM    3  C   UNL     1      -9.350   9.865  69.148  1.00  0.00    -0.193 C  
HETATM    4  C   UNL     1      -9.181   9.288  70.584  1.00  0.00    -0.264 C  
HETATM    5  N   UNL     1     -10.298   9.265  71.550  1.00  0.00    -0.336 NA 
HETATM    6  H   UNL     1     -11.078   9.897  71.733  1.00  0.00     0.000 HD 
HETATM    7  C   UNL     1     -10.141   8.103  70.701  1.00  0.00    -0.194 C  
HETATM    8  C   UNL     1     -10.752   7.929  69.343  1.00  0.00    -0.168 C  
HETATM    9  N   UNL     1      -9.767   8.584  68.486  1.00  0.00    -0.160 NA 
HETATM   10  C   UNL     1      -8.526   7.973  68.141  1.00  0.00    -0.123 C  
HETATM   11  C   UNL     1      -7.632   8.918  67.822  1.00  0.00    -0.093 C  
HETATM   12  C   UNL     1      -6.256   8.582  67.472  1.00  0.00    -0.053 C  
HETATM   13  C   UNL     1      -8.163  10.268  68.199  1.00  0.00    -0.114 C  
HETATM   14  C   UNL     1      -6.000   7.097  67.344  1.00  0.00    -0.029 C  
HETATM   15  O   UNL     1      -5.366   9.417  67.382  1.00  0.00    -0.037 OA 
HETATM   16  O   UNL     1      -8.553   5.886  69.363  1.00  0.00    -0.112 OA 
HETATM   17  H2  UNL     1      -5.855   7.000  65.355  1.00  0.00     0.000 HD 
HETATM   18  N   UNL     1      -6.328   6.504  66.110  1.00  0.00    -0.041 NA 
HETATM   19  C   UNL     1      -6.428   6.532  68.485  1.00  0.00    -0.049 C  
HETATM   20  C   UNL     1      -7.914   6.694  68.703  1.00  0.00    -0.118 C  
HETATM   21  C   UNL     1      -5.660   5.424  69.128  1.00  0.00    -0.011 C  
HETATM   22  H1  UNL     1      -6.156   5.503  66.024  1.00  0.00     0.000 HD 
BRANCH  13  23
HETATM   23  C   UNL     1      -8.728  10.967  66.939  1.00  0.00    -0.148 C  
BRANCH  23  24
HETATM   24  O   UNL     1      -8.007  10.653  65.732  1.00  0.00    -0.159 OA 
BRANCH  24  25
HETATM   25  C   UNL     1      -8.772  10.240  64.690  1.00  0.00    -0.190 C  
HETATM   26  O   UNL     1      -8.535  10.447  63.506  1.00  0.00    -0.169 OA 
HETATM   27  N   UNL     1      -9.864   9.596  65.149  1.00  0.00    -0.435 N  
HETATM   28  H1  UNL     1     -10.438   9.285  64.366  1.00  0.00     0.000 HD 
HETATM   29  H2  UNL     1     -10.084   9.442  66.133  1.00  0.00     0.000 HD 
ENDBRANCH  24  25
ENDBRANCH  23  24
ENDBRANCH  13  23
ENDBRANCH   2   3
TORSDOF 4
ENDMDL
MODEL      159
REMARK 921   NORMALIZED FREE ENERGY PREDICTED BY IDOCK:   -2.47 KCAL/MOL
REMARK 922        TOTAL FREE ENERGY PREDICTED BY IDOCK:   -3.21 KCAL/MOL
REMARK 923 INTER-LIGAND FREE ENERGY PREDICTED BY IDOCK:   -3.83 KCAL/MOL
REMARK 924 INTRA-LIGAND FREE ENERGY PREDICTED BY IDOCK:    0.62 KCAL/MOL
REMARK 927      BINDING AFFINITY PREDICTED BY RF-SCORE:    0.00 PKD
ROOT
HETATM    1  C   UNL     1     -10.169   5.582  68.141  1.00  0.00    -0.177 C  
HETATM    2  O   UNL     1      -8.992   6.339  68.480  1.00  0.00    -0.124 OA 
ENDROOT
BRANCH   2   3
HETATM    3  C   UNL     1      -8.590   7.195  67.410  1.00  0.00    -0.121 C  
HETATM    4  C   UNL     1      -7.167   6.762  66.952  1.00  0.00    -0.081 C  
HETATM    5  N   UNL     1      -6.694   5.370  67.093  1.00  0.00    -0.057 NA 
HETATM    6  H   UNL     1      -6.855   4.644  67.793  1.00  0.00     0.000 HD 
HETATM    7  C   UNL     1      -7.355   5.715  65.852  1.00  0.00    -0.073 C  
HETATM    8  C   UNL     1      -8.831   5.638  65.602  1.00  0.00    -0.146 C  
HETATM    9  N   UNL     1      -9.289   6.929  66.107  1.00  0.00    -0.098 NA 
HETATM   10  C   UNL     1      -9.105   8.143  65.382  1.00  0.00     0.110 C  
HETATM   11  C   UNL     1      -9.116   9.181  66.230  1.00  0.00    -0.222 C  
HETATM   12  C   UNL     1      -8.901  10.548  65.769  1.00  0.00    -0.175 C  
HETATM   13  C   UNL     1      -9.043   8.683  67.643  1.00  0.00    -0.145 C  
HETATM   14  C   UNL     1      -8.840  10.686  64.264  1.00  0.00    -0.164 C  
HETATM   15  O   UNL     1      -8.696  11.485  66.528  1.00  0.00    -0.177 OA 
HETATM   16  O   UNL     1      -7.869   7.460  63.419  1.00  0.00    -0.123 OA 
HETATM   17  H2  UNL     1     -10.619  11.548  63.981  1.00  0.00     0.000 HD 
HETATM   18  N   UNL     1     -10.072  10.782  63.589  1.00  0.00    -0.423 NA 
HETATM   19  C   UNL     1      -7.915   9.811  63.834  1.00  0.00    -0.146 C  
HETATM   20  C   UNL     1      -8.283   8.375  64.119  1.00  0.00    -0.119 C  
HETATM   21  C   UNL     1      -6.969  10.173  62.736  1.00  0.00    -0.130 C  
HETATM   22  H1  UNL     1     -10.030  10.875  62.573  1.00  0.00     0.000 HD 
BRANCH  13  23
HETATM   23  C   UNL     1     -10.460   8.698  68.265  1.00  0.00    -0.184 C  
BRANCH  23  24
HETATM   24  O   UNL     1     -10.480   9.114  69.644  1.00  0.00    -0.210 OA 
BRANCH  24  25
HETATM   25  C   UNL     1      -9.469   9.939  70.016  1.00  0.00    -0.202 C  
HETATM   26  O   UNL     1      -8.608   9.681  70.848  1.00  0.00    -0.233 OA 
HETATM   27  N   UNL     1      -9.572  11.115  69.364  1.00  0.00    -0.408 N  
HETATM   28  H1  UNL     1      -8.812  11.735  69.643  1.00  0.00     0.000 HD 
HETATM   29  H2  UNL     1     -10.302  11.350  68.690  1.00  0.00     0.000 HD 
ENDBRANCH  24  25
ENDBRANCH  23  24
ENDBRANCH  13  23
ENDBRANCH   2   3
TORSDOF 4
ENDMDL
MODEL      160
REMARK 921   NORMALIZED FREE ENERGY PREDICTED BY IDOCK:   -2.45 KCAL/MOL
REMARK 922        TOTAL FREE ENERGY PREDICTED BY IDOCK:   -3.19 KCAL/MOL
REMARK 923 INTER-LIGAND FREE ENERGY PREDICTED BY IDOCK:   -3.05 KCAL/MOL
REMARK 924 INTRA-LIGAND FREE ENERGY PREDICTED BY IDOCK:   -0.14 KCAL/MOL
REMARK 927      BINDING AFFINITY PREDICTED BY RF-SCORE:    0.00 PKD
ROOT
HETATM    1  C   UNL     1     -11.082   6.933  66.998  1.00  0.00    -0.245 C  
HETATM    2  O   UNL     1      -9.940   7.808  67.055  1.00  0.00    -0.196 OA 
ENDROOT
BRANCH   2   3
HETATM    3  C   UNL     1      -9.138   7.552  68.208  1.00  0.00    -0.132 C  
HETATM    4  C   UNL     1      -8.300   6.267  67.940  1.00  0.00    -0.118 C  
HETATM    5  N   UNL     1      -7.901   5.870  66.574  1.00  0.00    -0.100 NA 
HETATM    6  H   UNL     1      -8.354   5.948  65.663  1.00  0.00     0.000 HD 
HETATM    7  C   UNL     1      -6.985   6.722  67.303  1.00  0.00    -0.074 C  
HETATM    8  C   UNL     1      -7.014   8.220  67.316  1.00  0.00    -0.075 C  
HETATM    9  N   UNL     1      -7.979   8.492  68.379  1.00  0.00    -0.116 NA 
HETATM   10  C   UNL     1      -7.651   8.363  69.761  1.00  0.00    -0.087 C  
HETATM   11  C   UNL     1      -8.768   8.150  70.470  1.00  0.00    -0.135 C  
HETATM   12  C   UNL     1      -8.728   7.933  71.912  1.00  0.00    -0.129 C  
HETATM   13  C   UNL     1      -9.910   7.855  69.544  1.00  0.00    -0.176 C  
HETATM   14  C   UNL     1      -7.361   8.138  72.527  1.00  0.00    -0.111 C  
HETATM   15  O   UNL     1      -9.688   7.531  72.555  1.00  0.00    -0.152 OA 
HETATM   16  O   UNL     1      -5.373   7.553  69.740  1.00  0.00    -0.022 OA 
HETATM   17  H2  UNL     1      -7.714   9.878  73.441  1.00  0.00     0.000 HD 
HETATM   18  N   UNL     1      -7.002   9.463  72.840  1.00  0.00     0.208 NA 
HETATM   19  C   UNL     1      -6.507   7.367  71.833  1.00  0.00    -0.043 C  
HETATM   20  C   UNL     1      -6.391   7.772  70.383  1.00  0.00    -0.037 C  
HETATM   21  C   UNL     1      -5.418   6.615  72.524  1.00  0.00    -0.037 C  
HETATM   22  H1  UNL     1      -6.080   9.601  73.254  1.00  0.00     0.000 HD 
BRANCH  13  23
HETATM   23  C   UNL     1     -10.767   9.130  69.364  1.00  0.00    -0.198 C  
BRANCH  23  24
HETATM   24  O   UNL     1     -10.886   9.920  70.563  1.00  0.00    -0.287 OA 
BRANCH  24  25
HETATM   25  C   UNL     1     -12.140  10.017  71.071  1.00  0.00    -0.373 C  
HETATM   26  O   UNL     1     -12.981   9.126  71.069  1.00  0.00    -0.221 OA 
HETATM   27  N   UNL     1     -12.349  11.262  71.547  1.00  0.00    -0.195 N  
HETATM   28  H1  UNL     1     -13.291  11.334  71.929  1.00  0.00     0.000 HD 
HETATM   29  H2  UNL     1     -11.665  12.019  71.528  1.00  0.00     0.000 HD 
ENDBRANCH  24  25
ENDBRANCH  23  24
ENDBRANCH  13  23
ENDBRANCH   2   3
TORSDOF 4
ENDMDL
MODEL      161
REMARK 921   NORMALIZED FREE ENERGY PREDICTED BY IDOCK:   -2.43 KCAL/MOL
REMARK 922        TOTAL FREE ENERGY PREDICTED BY IDOCK:   -3.17 KCAL/MOL
REMARK 923 INTER-LIGAND FREE ENERGY PREDICTED BY IDOCK:   -4.39 KCAL/MOL
REMARK 924 INTRA-LIGAND FREE ENERGY PREDICTED BY IDOCK:    1.21 KCAL/MOL
REMARK 927      BINDING AFFINITY PREDICTED BY RF-SCORE:    0.00 PKD
ROOT
HETATM    1  C   UNL     1     -10.232  10.042  67.282  1.00  0.00    -0.222 C  
HETATM    2  O   UNL     1     -10.325  10.897  66.127  1.00  0.00    -0.241 OA 
ENDROOT
BRANCH   2   3
HETATM    3  C   UNL     1      -9.800  12.198  66.390  1.00  0.00    -0.227 C  
HETATM    4  C   UNL     1     -10.511  13.208  65.444  1.00  0.00    -0.296 C  
HETATM    5  N   UNL     1     -11.884  12.977  64.949  1.00  0.00    -0.342 NA 
HETATM    6  H   UNL     1     -12.401  12.137  64.689  1.00  0.00     0.000 HD 
HETATM    7  C   UNL     1     -11.748  13.715  66.188  1.00  0.00    -0.364 C  
HETATM    8  C   UNL     1     -11.685  13.112  67.557  1.00  0.00    -0.366 C  
HETATM    9  N   UNL     1     -10.263  12.804  67.684  1.00  0.00    -0.216 NA 
HETATM   10  C   UNL     1      -9.284  13.807  67.947  1.00  0.00    -0.200 C  
HETATM   11  C   UNL     1      -8.087  13.394  67.507  1.00  0.00    -0.183 C  
HETATM   12  C   UNL     1      -6.904  14.242  67.602  1.00  0.00    -0.182 C  
HETATM   13  C   UNL     1      -8.251  12.165  66.665  1.00  0.00    -0.017 C  
HETATM   14  C   UNL     1      -7.125  15.521  68.378  1.00  0.00    -0.111 C  
HETATM   15  O   UNL     1      -5.853  13.990  67.029  1.00  0.00     0.056 OA 
HETATM   16  O   UNL     1     -10.558  15.862  67.977  1.00  0.00    -0.269 OA 
HETATM   17  H2  UNL     1      -6.124  15.032  70.034  1.00  0.00     0.000 HD 
HETATM   18  N   UNL     1      -7.025  15.435  69.779  1.00  0.00    -0.177 NA 
HETATM   19  C   UNL     1      -8.190  16.128  67.826  1.00  0.00    -0.162 C  
HETATM   20  C   UNL     1      -9.460  15.321  67.955  1.00  0.00    -0.198 C  
HETATM   21  C   UNL     1      -8.219  17.609  67.642  1.00  0.00    -0.225 C  
HETATM   22  H1  UNL     1      -7.174  16.299  70.302  1.00  0.00     0.000 HD 
BRANCH  13  23
HETATM   23  C   UNL     1      -7.906  10.915  67.509  1.00  0.00    -0.114 C  
BRANCH  23  24
HETATM   24  O   UNL     1      -6.508  10.808  67.837  1.00  0.00    -0.061 OA 
BRANCH  24  25
HETATM   25  C   UNL     1      -6.175  11.202  69.093  1.00  0.00    -0.055 C  
HETATM   26  O   UNL     1      -6.731  10.843  70.124  1.00  0.00    -0.160 OA 
HETATM   27  N   UNL     1      -5.160  12.089  69.043  1.00  0.00    -0.055 N  
HETATM   28  H1  UNL     1      -4.910  12.385  69.985  1.00  0.00     0.000 HD 
HETATM   29  H2  UNL     1      -4.709  12.415  68.187  1.00  0.00     0.000 HD 
ENDBRANCH  24  25
ENDBRANCH  23  24
ENDBRANCH  13  23
ENDBRANCH   2   3
TORSDOF 4
ENDMDL
MODEL      162
REMARK 921   NORMALIZED FREE ENERGY PREDICTED BY IDOCK:   -2.42 KCAL/MOL
REMARK 922        TOTAL FREE ENERGY PREDICTED BY IDOCK:   -3.15 KCAL/MOL
REMARK 923 INTER-LIGAND FREE ENERGY PREDICTED BY IDOCK:   -2.79 KCAL/MOL
REMARK 924 INTRA-LIGAND FREE ENERGY PREDICTED BY IDOCK:   -0.37 KCAL/MOL
REMARK 927      BINDING AFFINITY PREDICTED BY RF-SCORE:    0.00 PKD
ROOT
HETATM    1  C   UNL     1      -7.770   9.935  64.991  1.00  0.00    -0.133 C  
HETATM    2  O   UNL     1      -7.144   8.978  65.865  1.00  0.00    -0.086 OA 
ENDROOT
BRANCH   2   3
HETATM    3  C   UNL     1      -7.566   7.645  65.576  1.00  0.00    -0.092 C  
HETATM    4  C   UNL     1      -7.052   7.272  64.155  1.00  0.00    -0.067 C  
HETATM    5  N   UNL     1      -5.827   7.872  63.589  1.00  0.00    -0.057 NA 
HETATM    6  H   UNL     1      -5.400   8.796  63.665  1.00  0.00     0.000 HD 
HETATM    7  C   UNL     1      -5.670   6.641  64.335  1.00  0.00    -0.031 C  
HETATM    8  C   UNL     1      -5.449   6.544  65.814  1.00  0.00    -0.021 C  
HETATM    9  N   UNL     1      -6.817   6.580  66.325  1.00  0.00    -0.056 NA 
HETATM   10  C   UNL     1      -7.689   5.454  66.257  1.00  0.00    -0.099 C  
HETATM   11  C   UNL     1      -8.963   5.869  66.287  1.00  0.00    -0.153 C  
HETATM   12  C   UNL     1     -10.075   4.931  66.184  1.00  0.00    -0.254 C  
HETATM   13  C   UNL     1      -9.018   7.357  66.108  1.00  0.00    -0.182 C  
HETATM   14  C   UNL     1      -9.658   3.477  66.213  1.00  0.00    -0.092 C  
HETATM   15  O   UNL     1     -11.232   5.283  65.998  1.00  0.00    -0.019 OA 
HETATM   16  O   UNL     1      -6.387   3.787  65.087  1.00  0.00    -0.027 OA 
HETATM   17  H2  UNL     1     -10.287   3.033  68.054  1.00  0.00     0.000 HD 
HETATM   18  N   UNL     1      -9.452   2.905  67.482  1.00  0.00    -0.350 NA 
HETATM   19  C   UNL     1      -8.723   3.326  65.258  1.00  0.00    -0.119 C  
HETATM   20  C   UNL     1      -7.476   4.137  65.520  1.00  0.00    -0.077 C  
HETATM   21  C   UNL     1      -8.697   2.106  64.397  1.00  0.00    -0.097 C  
HETATM   22  H1  UNL     1      -9.170   1.924  67.501  1.00  0.00     0.000 HD 
BRANCH  13  23
HETATM   23  C   UNL     1      -9.203   8.033  67.487  1.00  0.00    -0.137 C  
BRANCH  23  24
HETATM   24  O   UNL     1     -10.002   9.231  67.441  1.00  0.00    -0.173 OA 
BRANCH  24  25
HETATM   25  C   UNL     1      -9.741  10.140  68.414  1.00  0.00    -0.147 C  
HETATM   26  O   UNL     1     -10.577  10.678  69.130  1.00  0.00    -0.200 OA 
HETATM   27  N   UNL     1      -8.419  10.402  68.457  1.00  0.00    -0.122 N  
HETATM   28  H1  UNL     1      -8.223  11.085  69.188  1.00  0.00     0.000 HD 
HETATM   29  H2  UNL     1      -7.718   9.980  67.847  1.00  0.00     0.000 HD 
ENDBRANCH  24  25
ENDBRANCH  23  24
ENDBRANCH  13  23
ENDBRANCH   2   3
TORSDOF 4
ENDMDL
MODEL      163
REMARK 921   NORMALIZED FREE ENERGY PREDICTED BY IDOCK:   -2.40 KCAL/MOL
REMARK 922        TOTAL FREE ENERGY PREDICTED BY IDOCK:   -3.13 KCAL/MOL
REMARK 923 INTER-LIGAND FREE ENERGY PREDICTED BY IDOCK:   -3.73 KCAL/MOL
REMARK 924 INTRA-LIGAND FREE ENERGY PREDICTED BY IDOCK:    0.59 KCAL/MOL
REMARK 927      BINDING AFFINITY PREDICTED BY RF-SCORE:    0.00 PKD
ROOT
HETATM    1  C   UNL     1     -10.390   5.030  69.416  1.00  0.00    -0.144 C  
HETATM    2  O   UNL     1      -8.971   5.165  69.614  1.00  0.00    -0.103 OA 
ENDROOT
BRANCH   2   3
HETATM    3  C   UNL     1      -8.489   6.419  69.131  1.00  0.00    -0.122 C  
HETATM    4  C   UNL     1      -7.528   6.142  67.938  1.00  0.00    -0.085 C  
HETATM    5  N   UNL     1      -7.678   4.949  67.079  1.00  0.00    -0.091 NA 
HETATM    6  H   UNL     1      -7.975   3.990  67.260  1.00  0.00     0.000 HD 
HETATM    7  C   UNL     1      -8.383   6.146  66.670  1.00  0.00    -0.111 C  
HETATM    8  C   UNL     1      -9.765   6.532  67.103  1.00  0.00    -0.143 C  
HETATM    9  N   UNL     1      -9.502   7.220  68.365  1.00  0.00    -0.142 NA 
HETATM   10  C   UNL     1      -8.982   8.547  68.418  1.00  0.00    -0.139 C  
HETATM   11  C   UNL     1      -8.360   8.739  69.590  1.00  0.00    -0.126 C  
HETATM   12  C   UNL     1      -7.689   9.996  69.901  1.00  0.00    -0.175 C  
HETATM   13  C   UNL     1      -8.198   7.429  70.301  1.00  0.00    -0.132 C  
HETATM   14  C   UNL     1      -7.909  11.082  68.871  1.00  0.00    -0.138 C  
HETATM   15  O   UNL     1      -6.940  10.136  70.858  1.00  0.00    -0.341 OA 
HETATM   16  O   UNL     1      -8.624   9.119  66.097  1.00  0.00    -0.127 OA 
HETATM   17  H2  UNL     1      -9.161  12.228  69.922  1.00  0.00     0.000 HD 
HETATM   18  N   UNL     1      -9.096  11.829  68.985  1.00  0.00    -0.376 NA 
HETATM   19  C   UNL     1      -7.567  10.559  67.681  1.00  0.00    -0.093 C  
HETATM   20  C   UNL     1      -8.442   9.397  67.274  1.00  0.00    -0.125 C  
HETATM   21  C   UNL     1      -6.826  11.371  66.671  1.00  0.00    -0.108 C  
HETATM   22  H1  UNL     1      -9.244  12.562  68.290  1.00  0.00     0.000 HD 
BRANCH  13  23
HETATM   23  C   UNL     1      -9.295   7.293  71.382  1.00  0.00    -0.149 C  
BRANCH  23  24
HETATM   24  O   UNL     1      -8.883   6.528  72.531  1.00  0.00    -0.133 OA 
BRANCH  24  25
HETATM   25  C   UNL     1      -8.370   7.253  73.557  1.00  0.00    -0.129 C  
HETATM   26  O   UNL     1      -8.285   8.474  73.594  1.00  0.00    -0.383 OA 
HETATM   27  N   UNL     1      -7.924   6.427  74.526  1.00  0.00    -0.112 N  
HETATM   28  H1  UNL     1      -7.539   6.972  75.297  1.00  0.00     0.000 HD 
HETATM   29  H2  UNL     1      -7.966   5.408  74.492  1.00  0.00     0.000 HD 
ENDBRANCH  24  25
ENDBRANCH  23  24
ENDBRANCH  13  23
ENDBRANCH   2   3
TORSDOF 4
ENDMDL
MODEL      164
REMARK 921   NORMALIZED FREE ENERGY PREDICTED BY IDOCK:   -2.35 KCAL/MOL
REMARK 922        TOTAL FREE ENERGY PREDICTED BY IDOCK:   -3.07 KCAL/MOL
REMARK 923 INTER-LIGAND FREE ENERGY PREDICTED BY IDOCK:   -3.61 KCAL/MOL
REMARK 924 INTRA-LIGAND FREE ENERGY PREDICTED BY IDOCK:    0.54 KCAL/MOL
REMARK 927      BINDING AFFINITY PREDICTED BY RF-SCORE:    0.00 PKD
ROOT
HETATM    1  C   UNL     1      -8.647   5.382  66.503  1.00  0.00    -0.116 C  
HETATM    2  O   UNL     1      -7.645   6.060  67.282  1.00  0.00    -0.090 OA 
ENDROOT
BRANCH   2   3
HETATM    3  C   UNL     1      -7.896   7.464  67.358  1.00  0.00    -0.111 C  
HETATM    4  C   UNL     1      -6.672   8.208  66.750  1.00  0.00    -0.064 C  
HETATM    5  N   UNL     1      -5.829   7.594  65.704  1.00  0.00    -0.037 NA 
HETATM    6  H   UNL     1      -5.529   6.636  65.521  1.00  0.00     0.000 HD 
HETATM    7  C   UNL     1      -6.957   8.384  65.257  1.00  0.00    -0.074 C  
HETATM    8  C   UNL     1      -8.346   7.868  65.037  1.00  0.00    -0.103 C  
HETATM    9  N   UNL     1      -8.918   7.965  66.378  1.00  0.00    -0.158 NA 
HETATM   10  C   UNL     1      -9.336   9.205  66.943  1.00  0.00    -0.156 C  
HETATM   11  C   UNL     1      -9.317   9.120  68.280  1.00  0.00    -0.141 C  
HETATM   12  C   UNL     1      -9.653  10.261  69.124  1.00  0.00    -0.218 C  
HETATM   13  C   UNL     1      -8.613   7.864  68.699  1.00  0.00    -0.128 C  
HETATM   14  C   UNL     1     -10.175  11.457  68.361  1.00  0.00    -0.198 C  
HETATM   15  O   UNL     1      -9.446  10.286  70.330  1.00  0.00     0.025 OA 
HETATM   16  O   UNL     1      -8.753  10.834  65.254  1.00  0.00    -0.189 OA 
HETATM   17  H2  UNL     1     -12.097  11.317  68.883  1.00  0.00     0.000 HD 
HETATM   18  N   UNL     1     -11.545  11.450  68.035  1.00  0.00    -0.473 NA 
HETATM   19  C   UNL     1      -9.269  11.731  67.406  1.00  0.00    -0.174 C  
HETATM   20  C   UNL     1      -9.115  10.613  66.402  1.00  0.00    -0.164 C  
HETATM   21  C   UNL     1      -8.912  13.141  67.068  1.00  0.00    -0.228 C  
HETATM   22  H1  UNL     1     -11.896  12.258  67.520  1.00  0.00     0.000 HD 
BRANCH  13  23
HETATM   23  C   UNL     1      -9.661   6.786  69.063  1.00  0.00    -0.145 C  
BRANCH  23  24
HETATM   24  O   UNL     1      -9.741   6.510  70.475  1.00  0.00    -0.171 OA 
BRANCH  24  25
HETATM   25  C   UNL     1      -9.373   5.257  70.842  1.00  0.00    -0.153 C  
HETATM   26  O   UNL     1      -8.597   4.979  71.749  1.00  0.00    -0.125 OA 
HETATM   27  N   UNL     1      -9.956   4.349  70.033  1.00  0.00    -0.221 N  
HETATM   28  H1  UNL     1      -9.680   3.408  70.310  1.00  0.00     0.000 HD 
HETATM   29  H2  UNL     1     -10.582   4.572  69.258  1.00  0.00     0.000 HD 
ENDBRANCH  24  25
ENDBRANCH  23  24
ENDBRANCH  13  23
ENDBRANCH   2   3
TORSDOF 4
ENDMDL
MODEL      165
REMARK 921   NORMALIZED FREE ENERGY PREDICTED BY IDOCK:   -2.27 KCAL/MOL
REMARK 922        TOTAL FREE ENERGY PREDICTED BY IDOCK:   -2.97 KCAL/MOL
REMARK 923 INTER-LIGAND FREE ENERGY PREDICTED BY IDOCK:   -3.73 KCAL/MOL
REMARK 924 INTRA-LIGAND FREE ENERGY PREDICTED BY IDOCK:    0.76 KCAL/MOL
REMARK 927      BINDING AFFINITY PREDICTED BY RF-SCORE:    0.00 PKD
ROOT
HETATM    1  C   UNL     1      -6.385   7.769  71.276  1.00  0.00    -0.034 C  
HETATM    2  O   UNL     1      -7.347   8.840  71.265  1.00  0.00    -0.084 OA 
ENDROOT
BRANCH   2   3
HETATM    3  C   UNL     1      -7.710   9.208  69.934  1.00  0.00    -0.087 C  
HETATM    4  C   UNL     1      -7.483  10.739  69.776  1.00  0.00    -0.018 C  
HETATM    5  N   UNL     1      -6.461  11.460  70.562  1.00  0.00    -0.515 NA 
HETATM    6  H   UNL     1      -6.105  11.352  71.512  1.00  0.00     0.000 HD 
HETATM    7  C   UNL     1      -6.048  10.925  69.281  1.00  0.00    -0.047 C  
HETATM    8  C   UNL     1      -5.508   9.547  69.047  1.00  0.00    -0.036 C  
HETATM    9  N   UNL     1      -6.734   8.770  68.880  1.00  0.00    -0.053 NA 
HETATM   10  C   UNL     1      -7.505   8.805  67.681  1.00  0.00    -0.093 C  
HETATM   11  C   UNL     1      -8.772   8.464  67.951  1.00  0.00    -0.138 C  
HETATM   12  C   UNL     1      -9.800   8.460  66.916  1.00  0.00    -0.245 C  
HETATM   13  C   UNL     1      -8.986   8.435  69.435  1.00  0.00    -0.153 C  
HETATM   14  C   UNL     1      -9.268   8.706  65.521  1.00  0.00    -0.091 C  
HETATM   15  O   UNL     1     -10.995   8.362  67.160  1.00  0.00    -0.123 OA 
HETATM   16  O   UNL     1      -6.350  10.420  66.301  1.00  0.00    -0.081 OA 
HETATM   17  H2  UNL     1      -9.450   6.848  64.813  1.00  0.00     0.000 HD 
HETATM   18  N   UNL     1      -8.750   7.589  64.839  1.00  0.00    -0.361 NA 
HETATM   19  C   UNL     1      -8.550   9.841  65.576  1.00  0.00    -0.158 C  
HETATM   20  C   UNL     1      -7.347   9.734  66.483  1.00  0.00    -0.095 C  
HETATM   21  C   UNL     1      -8.608  10.839  64.468  1.00  0.00    -0.050 C  
HETATM   22  H1  UNL     1      -8.391   7.755  63.898  1.00  0.00     0.000 HD 
BRANCH  13  23
HETATM   23  C   UNL     1      -8.927   6.971  69.932  1.00  0.00    -0.142 C  
BRANCH  23  24
HETATM   24  O   UNL     1      -9.618   6.756  71.178  1.00  0.00    -0.173 OA 
BRANCH  24  25
HETATM   25  C   UNL     1     -10.970   6.690  71.087  1.00  0.00    -0.257 C  
HETATM   26  O   UNL     1     -11.760   7.009  71.968  1.00  0.00    -0.276 OA 
HETATM   27  N   UNL     1     -11.327   6.179  69.891  1.00  0.00    -0.421 N  
HETATM   28  H1  UNL     1     -12.343   6.130  69.823  1.00  0.00     0.000 HD 
HETATM   29  H2  UNL     1     -10.676   5.885  69.162  1.00  0.00     0.000 HD 
ENDBRANCH  24  25
ENDBRANCH  23  24
ENDBRANCH  13  23
ENDBRANCH   2   3
TORSDOF 4
ENDMDL
MODEL      166
REMARK 921   NORMALIZED FREE ENERGY PREDICTED BY IDOCK:   -2.19 KCAL/MOL
REMARK 922        TOTAL FREE ENERGY PREDICTED BY IDOCK:   -2.87 KCAL/MOL
REMARK 923 INTER-LIGAND FREE ENERGY PREDICTED BY IDOCK:   -3.36 KCAL/MOL
REMARK 924 INTRA-LIGAND FREE ENERGY PREDICTED BY IDOCK:    0.49 KCAL/MOL
REMARK 927      BINDING AFFINITY PREDICTED BY RF-SCORE:    0.00 PKD
ROOT
HETATM    1  C   UNL     1      -5.905  10.280  70.915  1.00  0.00    -0.074 C  
HETATM    2  O   UNL     1      -7.329  10.082  70.989  1.00  0.00    -0.260 OA 
ENDROOT
BRANCH   2   3
HETATM    3  C   UNL     1      -7.718   8.836  70.409  1.00  0.00    -0.091 C  
HETATM    4  C   UNL     1      -7.202   7.691  71.329  1.00  0.00    -0.062 C  
HETATM    5  N   UNL     1      -7.020   7.883  72.782  1.00  0.00    -0.077 NA 
HETATM    6  H   UNL     1      -6.727   8.677  73.351  1.00  0.00     0.000 HD 
HETATM    7  C   UNL     1      -8.313   7.402  72.340  1.00  0.00    -0.105 C  
HETATM    8  C   UNL     1      -9.472   8.264  71.941  1.00  0.00    -0.220 C  
HETATM    9  N   UNL     1      -9.181   8.524  70.533  1.00  0.00    -0.149 NA 
HETATM   10  C   UNL     1      -9.398   7.549  69.515  1.00  0.00    -0.153 C  
HETATM   11  C   UNL     1      -8.604   7.809  68.467  1.00  0.00    -0.128 C  
HETATM   12  C   UNL     1      -8.580   6.943  67.294  1.00  0.00    -0.120 C  
HETATM   13  C   UNL     1      -7.593   8.851  68.841  1.00  0.00    -0.087 C  
HETATM   14  C   UNL     1      -9.632   5.856  67.310  1.00  0.00    -0.116 C  
HETATM   15  O   UNL     1      -7.729   7.025  66.419  1.00  0.00    -0.099 OA 
HETATM   16  O   UNL     1     -10.160   5.604  70.733  1.00  0.00    -0.188 OA 
HETATM   17  H2  UNL     1     -10.856   6.620  65.931  1.00  0.00     0.000 HD 
HETATM   18  N   UNL     1     -10.918   6.216  66.865  1.00  0.00    -0.582 NA 
HETATM   19  C   UNL     1      -9.493   5.202  68.476  1.00  0.00    -0.175 C  
HETATM   20  C   UNL     1      -9.760   6.077  69.678  1.00  0.00    -0.152 C  
HETATM   21  C   UNL     1      -9.631   3.717  68.544  1.00  0.00    -0.163 C  
HETATM   22  H1  UNL     1     -11.628   5.483  66.877  1.00  0.00     0.000 HD 
BRANCH  13  23
HETATM   23  C   UNL     1      -8.052  10.227  68.302  1.00  0.00    -0.107 C  
BRANCH  23  24
HETATM   24  O   UNL     1      -7.040  11.248  68.390  1.00  0.00    -0.072 OA 
BRANCH  24  25
HETATM   25  C   UNL     1      -6.859  11.983  67.263  1.00  0.00    -0.150 C  
HETATM   26  O   UNL     1      -7.183  11.643  66.131  1.00  0.00     0.126 OA 
HETATM   27  N   UNL     1      -6.228  13.136  67.563  1.00  0.00    -0.153 N  
HETATM   28  H1  UNL     1      -6.093  13.689  66.716  1.00  0.00     0.000 HD 
HETATM   29  H2  UNL     1      -5.930  13.416  68.498  1.00  0.00     0.000 HD 
ENDBRANCH  24  25
ENDBRANCH  23  24
ENDBRANCH  13  23
ENDBRANCH   2   3
TORSDOF 4
ENDMDL
MODEL      167
REMARK 921   NORMALIZED FREE ENERGY PREDICTED BY IDOCK:   -2.15 KCAL/MOL
REMARK 922        TOTAL FREE ENERGY PREDICTED BY IDOCK:   -2.83 KCAL/MOL
REMARK 923 INTER-LIGAND FREE ENERGY PREDICTED BY IDOCK:   -2.65 KCAL/MOL
REMARK 924 INTRA-LIGAND FREE ENERGY PREDICTED BY IDOCK:   -0.18 KCAL/MOL
REMARK 927      BINDING AFFINITY PREDICTED BY RF-SCORE:    0.00 PKD
ROOT
HETATM    1  C   UNL     1      -8.886  10.010  70.072  1.00  0.00    -0.080 C  
HETATM    2  O   UNL     1      -7.844   9.224  70.679  1.00  0.00    -0.134 OA 
ENDROOT
BRANCH   2   3
HETATM    3  C   UNL     1      -7.734   7.936  70.071  1.00  0.00    -0.089 C  
HETATM    4  C   UNL     1      -7.208   8.130  68.619  1.00  0.00    -0.084 C  
HETATM    5  N   UNL     1      -6.352   9.275  68.248  1.00  0.00    -0.054 NA 
HETATM    6  H   UNL     1      -6.314  10.248  68.553  1.00  0.00     0.000 HD 
HETATM    7  C   UNL     1      -5.682   8.070  68.688  1.00  0.00    -0.035 C  
HETATM    8  C   UNL     1      -5.344   7.732  70.109  1.00  0.00    -0.023 C  
HETATM    9  N   UNL     1      -6.583   7.111  70.571  1.00  0.00    -0.047 NA 
HETATM   10  C   UNL     1      -6.952   5.781  70.213  1.00  0.00    -0.058 C  
HETATM   11  C   UNL     1      -8.282   5.643  70.301  1.00  0.00    -0.104 C  
HETATM   12  C   UNL     1      -8.947   4.395  69.946  1.00  0.00    -0.093 C  
HETATM   13  C   UNL     1      -8.921   6.988  70.476  1.00  0.00    -0.155 C  
HETATM   14  C   UNL     1      -7.996   3.257  69.644  1.00  0.00    -0.049 C  
HETATM   15  O   UNL     1     -10.159   4.296  69.812  1.00  0.00    -0.182 OA 
HETATM   16  O   UNL     1      -5.183   5.073  68.724  1.00  0.00     0.000 OA 
HETATM   17  H2  UNL     1      -8.282   2.193  71.309  1.00  0.00     0.000 HD 
HETATM   18  N   UNL     1      -7.503   2.537  70.748  1.00  0.00    -0.033 NA 
HETATM   19  C   UNL     1      -7.141   3.707  68.710  1.00  0.00    -0.050 C  
HETATM   20  C   UNL     1      -6.292   4.859  69.194  1.00  0.00    -0.031 C  
HETATM   21  C   UNL     1      -6.698   2.827  67.588  1.00  0.00    -0.040 C  
HETATM   22  H1  UNL     1      -6.862   1.770  70.544  1.00  0.00     0.000 HD 
BRANCH  13  23
HETATM   23  C   UNL     1      -9.264   7.203  71.969  1.00  0.00    -0.134 C  
BRANCH  23  24
HETATM   24  O   UNL     1      -9.911   6.071  72.582  1.00  0.00    -0.166 OA 
BRANCH  24  25
HETATM   25  C   UNL     1     -11.240   6.216  72.810  1.00  0.00    -0.243 C  
HETATM   26  O   UNL     1     -12.046   5.300  72.935  1.00  0.00    -0.177 OA 
HETATM   27  N   UNL     1     -11.563   7.525  72.840  1.00  0.00    -0.590 N  
HETATM   28  H1  UNL     1     -12.561   7.633  73.012  1.00  0.00     0.000 HD 
HETATM   29  H2  UNL     1     -10.904   8.293  72.710  1.00  0.00     0.000 HD 
ENDBRANCH  24  25
ENDBRANCH  23  24
ENDBRANCH  13  23
ENDBRANCH   2   3
TORSDOF 4
ENDMDL
MODEL      168
REMARK 921   NORMALIZED FREE ENERGY PREDICTED BY IDOCK:   -1.26 KCAL/MOL
REMARK 922        TOTAL FREE ENERGY PREDICTED BY IDOCK:   -1.73 KCAL/MOL
REMARK 923 INTER-LIGAND FREE ENERGY PREDICTED BY IDOCK:   -3.48 KCAL/MOL
REMARK 924 INTRA-LIGAND FREE ENERGY PREDICTED BY IDOCK:    1.75 KCAL/MOL
REMARK 927      BINDING AFFINITY PREDICTED BY RF-SCORE:    0.00 PKD
ROOT
HETATM    1  C   UNL     1      -5.369  15.926  68.909  1.00  0.00    -0.104 C  
HETATM    2  O   UNL     1      -6.560  16.242  69.653  1.00  0.00    -0.201 OA 
ENDROOT
BRANCH   2   3
HETATM    3  C   UNL     1      -7.412  17.132  68.931  1.00  0.00    -0.241 C  
HETATM    4  C   UNL     1      -7.034  18.590  69.326  1.00  0.00    -0.185 C  
HETATM    5  N   UNL     1      -5.668  18.950  69.755  1.00  0.00    -0.227 NA 
HETATM    6  H   UNL     1      -4.950  18.459  70.289  1.00  0.00     0.000 HD 
HETATM    7  C   UNL     1      -5.959  19.050  68.340  1.00  0.00    -0.215 C  
HETATM    8  C   UNL     1      -5.810  17.943  67.341  1.00  0.00    -0.147 C  
HETATM    9  N   UNL     1      -7.090  17.251  67.469  1.00  0.00    -0.158 NA 
HETATM   10  C   UNL     1      -8.296  17.762  66.907  1.00  0.00    -0.238 C  
HETATM   11  C   UNL     1      -9.348  17.269  67.574  1.00  0.00    -0.236 C  
HETATM   12  C   UNL     1     -10.714  17.660  67.244  1.00  0.00    -0.231 C  
HETATM   13  C   UNL     1      -8.883  16.585  68.824  1.00  0.00    -0.255 C  
HETATM   14  C   UNL     1     -10.825  18.517  66.002  1.00  0.00    -0.034 C  
HETATM   15  O   UNL     1     -11.675  17.401  67.956  1.00  0.00     0.549 OA 
HETATM   16  O   UNL     1      -7.630  19.877  65.942  1.00  0.00    -0.320 OA 
HETATM   17  H2  UNL     1     -11.600  17.146  64.775  1.00  0.00     0.000 HD 
HETATM   18  N   UNL     1     -10.852  17.839  64.769  1.00  0.00    -0.434 NA 
HETATM   19  C   UNL     1      -9.984  19.552  66.171  1.00  0.00    -0.526 C  
HETATM   20  C   UNL     1      -8.539  19.127  66.272  1.00  0.00    -0.296 C  
HETATM   21  C   UNL     1     -10.366  20.929  65.738  1.00  0.00     1.161 C  
HETATM   22  H1  UNL     1     -10.927  18.417  63.931  1.00  0.00     0.000 HD 
BRANCH  13  23
HETATM   23  C   UNL     1      -8.846  15.056  68.589  1.00  0.00    -0.185 C  
BRANCH  23  24
HETATM   24  O   UNL     1      -9.993  14.363  69.117  1.00  0.00    -0.180 OA 
BRANCH  24  25
HETATM   25  C   UNL     1     -10.794  15.101  69.927  1.00  0.00    -0.270 C  
HETATM   26  O   UNL     1     -10.450  15.636  70.974  1.00  0.00    -0.019 OA 
HETATM   27  N   UNL     1     -12.048  15.128  69.432  1.00  0.00    -0.485 N  
HETATM   28  H1  UNL     1     -12.650  15.682  70.040  1.00  0.00     0.000 HD 
HETATM   29  H2  UNL     1     -12.350  14.663  68.575  1.00  0.00     0.000 HD 
ENDBRANCH  24  25
ENDBRANCH  23  24
ENDBRANCH  13  23
ENDBRANCH   2   3
TORSDOF 4
ENDMDL
MODEL      169
REMARK 921   NORMALIZED FREE ENERGY PREDICTED BY IDOCK:   -1.06 KCAL/MOL
REMARK 922        TOTAL FREE ENERGY PREDICTED BY IDOCK:   -1.48 KCAL/MOL
REMARK 923 INTER-LIGAND FREE ENERGY PREDICTED BY IDOCK:   -3.33 KCAL/MOL
REMARK 924 INTRA-LIGAND FREE ENERGY PREDICTED BY IDOCK:    1.85 KCAL/MOL
REMARK 927      BINDING AFFINITY PREDICTED BY RF-SCORE:    0.00 PKD
ROOT
HETATM    1  C   UNL     1     -10.217   9.874  70.123  1.00  0.00    -0.273 C  
HETATM    2  O   UNL     1      -9.485   8.769  70.683  1.00  0.00    -0.170 OA 
ENDROOT
BRANCH   2   3
HETATM    3  C   UNL     1      -8.795   8.029  69.675  1.00  0.00    -0.141 C  
HETATM    4  C   UNL     1      -7.871   6.994  70.381  1.00  0.00    -0.108 C  
HETATM    5  N   UNL     1      -8.198   6.437  71.710  1.00  0.00    -0.112 NA 
HETATM    6  H   UNL     1      -8.651   6.825  72.538  1.00  0.00     0.000 HD 
HETATM    7  C   UNL     1      -8.691   5.715  70.556  1.00  0.00    -0.137 C  
HETATM    8  C   UNL     1      -9.998   5.963  69.867  1.00  0.00    -0.182 C  
HETATM    9  N   UNL     1      -9.649   7.036  68.940  1.00  0.00    -0.141 NA 
HETATM   10  C   UNL     1      -8.920   6.802  67.737  1.00  0.00    -0.116 C  
HETATM   11  C   UNL     1      -8.296   7.927  67.362  1.00  0.00    -0.123 C  
HETATM   12  C   UNL     1      -7.434   7.967  66.186  1.00  0.00    -0.079 C  
HETATM   13  C   UNL     1      -8.363   8.938  68.467  1.00  0.00    -0.125 C  
HETATM   14  C   UNL     1      -7.455   6.696  65.365  1.00  0.00    -0.080 C  
HETATM   15  O   UNL     1      -6.690   8.905  65.933  1.00  0.00    -0.066 OA 
HETATM   16  O   UNL     1      -8.431   4.435  67.813  1.00  0.00    -0.098 OA 
HETATM   17  H2  UNL     1      -8.522   7.370  63.818  1.00  0.00     0.000 HD 
HETATM   18  N   UNL     1      -8.506   6.560  64.439  1.00  0.00    -0.343 NA 
HETATM   19  C   UNL     1      -7.181   5.687  66.210  1.00  0.00    -0.077 C  
HETATM   20  C   UNL     1      -8.227   5.520  67.287  1.00  0.00    -0.101 C  
HETATM   21  C   UNL     1      -6.299   4.557  65.795  1.00  0.00    -0.036 C  
HETATM   22  H1  UNL     1      -8.519   5.703  63.885  1.00  0.00     0.000 HD 
BRANCH  13  23
HETATM   23  C   UNL     1      -9.488   9.956  68.162  1.00  0.00    -0.138 C  
BRANCH  23  24
HETATM   24  O   UNL     1      -9.463  10.458  66.813  1.00  0.00    -0.161 OA 
BRANCH  24  25
HETATM   25  C   UNL     1      -8.904  11.686  66.661  1.00  0.00    -0.187 C  
HETATM   26  O   UNL     1      -7.703  11.917  66.586  1.00  0.00    -0.099 OA 
HETATM   27  N   UNL     1      -9.865  12.631  66.646  1.00  0.00    -0.238 N  
HETATM   28  H1  UNL     1      -9.445  13.553  66.532  1.00  0.00     0.000 HD 
HETATM   29  H2  UNL     1     -10.866  12.450  66.736  1.00  0.00     0.000 HD 
ENDBRANCH  24  25
ENDBRANCH  23  24
ENDBRANCH  13  23
ENDBRANCH   2   3
TORSDOF 4
ENDMDL
MODEL      170
REMARK 921   NORMALIZED FREE ENERGY PREDICTED BY IDOCK:   -1.01 KCAL/MOL
REMARK 922        TOTAL FREE ENERGY PREDICTED BY IDOCK:   -1.42 KCAL/MOL
REMARK 923 INTER-LIGAND FREE ENERGY PREDICTED BY IDOCK:   -1.85 KCAL/MOL
REMARK 924 INTRA-LIGAND FREE ENERGY PREDICTED BY IDOCK:    0.43 KCAL/MOL
REMARK 927      BINDING AFFINITY PREDICTED BY RF-SCORE:    0.00 PKD
ROOT
HETATM    1  C   UNL     1      -5.534  10.130  69.060  1.00  0.00    -0.034 C  
HETATM    2  O   UNL     1      -6.358   8.962  69.232  1.00  0.00    -0.041 OA 
ENDROOT
BRANCH   2   3
HETATM    3  C   UNL     1      -6.314   8.112  68.086  1.00  0.00    -0.055 C  
HETATM    4  C   UNL     1      -5.360   6.923  68.401  1.00  0.00    -0.016 C  
HETATM    5  N   UNL     1      -5.159   6.431  69.779  1.00  0.00    -0.012 NA 
HETATM    6  H   UNL     1      -5.131   6.892  70.689  1.00  0.00     0.000 HD 
HETATM    7  C   UNL     1      -6.220   5.815  69.011  1.00  0.00    -0.029 C  
HETATM    8  C   UNL     1      -7.636   6.301  68.937  1.00  0.00    -0.092 C  
HETATM    9  N   UNL     1      -7.556   7.296  67.871  1.00  0.00    -0.108 NA 
HETATM   10  C   UNL     1      -7.479   6.936  66.493  1.00  0.00    -0.074 C  
HETATM   11  C   UNL     1      -6.906   7.929  65.800  1.00  0.00    -0.056 C  
HETATM   12  C   UNL     1      -6.654   7.815  64.367  1.00  0.00    -0.056 C  
HETATM   13  C   UNL     1      -6.312   8.932  66.743  1.00  0.00    -0.059 C  
HETATM   14  C   UNL     1      -7.243   6.573  63.737  1.00  0.00    -0.064 C  
HETATM   15  O   UNL     1      -5.952   8.602  63.747  1.00  0.00    -0.071 OA 
HETATM   16  O   UNL     1      -7.407   4.519  66.532  1.00  0.00    -0.078 OA 
HETATM   17  H2  UNL     1      -8.753   7.436  62.755  1.00  0.00     0.000 HD 
HETATM   18  N   UNL     1      -8.601   6.635  63.369  1.00  0.00    -0.258 NA 
HETATM   19  C   UNL     1      -6.799   5.528  64.456  1.00  0.00    -0.048 C  
HETATM   20  C   UNL     1      -7.278   5.551  65.888  1.00  0.00    -0.072 C  
HETATM   21  C   UNL     1      -6.390   4.256  63.789  1.00  0.00    -0.030 C  
HETATM   22  H1  UNL     1      -8.998   5.797  62.943  1.00  0.00     0.000 HD 
BRANCH  13  23
HETATM   23  C   UNL     1      -7.270  10.139  66.877  1.00  0.00    -0.092 C  
BRANCH  23  24
HETATM   24  O   UNL     1      -8.383  10.098  65.964  1.00  0.00    -0.123 OA 
BRANCH  24  25
HETATM   25  C   UNL     1      -8.756  11.297  65.450  1.00  0.00     0.010 C  
HETATM   26  O   UNL     1      -9.111  11.497  64.294  1.00  0.00     0.010 OA 
HETATM   27  N   UNL     1      -8.641  12.257  66.390  1.00  0.00    -0.403 N  
HETATM   28  H1  UNL     1      -8.922  13.158  66.003  1.00  0.00     0.000 HD 
HETATM   29  H2  UNL     1      -8.321  12.105  67.347  1.00  0.00     0.000 HD 
ENDBRANCH  24  25
ENDBRANCH  23  24
ENDBRANCH  13  23
ENDBRANCH   2   3
TORSDOF 4
ENDMDL
MODEL      171
REMARK 921   NORMALIZED FREE ENERGY PREDICTED BY IDOCK:   -0.83 KCAL/MOL
REMARK 922        TOTAL FREE ENERGY PREDICTED BY IDOCK:   -1.19 KCAL/MOL
REMARK 923 INTER-LIGAND FREE ENERGY PREDICTED BY IDOCK:   -3.64 KCAL/MOL
REMARK 924 INTRA-LIGAND FREE ENERGY PREDICTED BY IDOCK:    2.44 KCAL/MOL
REMARK 927      BINDING AFFINITY PREDICTED BY RF-SCORE:    0.00 PKD
ROOT
HETATM    1  C   UNL     1      -7.435  18.264  67.223  1.00  0.00    -0.213 C  
HETATM    2  O   UNL     1      -8.294  17.298  66.590  1.00  0.00    -0.222 OA 
ENDROOT
BRANCH   2   3
HETATM    3  C   UNL     1      -9.059  16.566  67.548  1.00  0.00    -0.197 C  
HETATM    4  C   UNL     1      -8.985  17.322  68.907  1.00  0.00    -0.173 C  
HETATM    5  N   UNL     1      -8.796  18.785  68.974  1.00  0.00    -0.176 NA 
HETATM    6  H   UNL     1      -8.272  19.449  68.403  1.00  0.00     0.000 HD 
HETATM    7  C   UNL     1     -10.160  18.301  68.932  1.00  0.00    -0.335 C  
HETATM    8  C   UNL     1     -10.950  18.034  67.688  1.00  0.00    -0.096 C  
HETATM    9  N   UNL     1     -10.546  16.668  67.364  1.00  0.00    -0.316 NA 
HETATM   10  C   UNL     1     -11.044  15.534  68.072  1.00  0.00    -0.322 C  
HETATM   11  C   UNL     1     -10.177  14.519  67.962  1.00  0.00    -0.233 C  
HETATM   12  C   UNL     1     -10.406  13.242  68.630  1.00  0.00    -0.196 C  
HETATM   13  C   UNL     1      -8.887  15.012  67.377  1.00  0.00    -0.202 C  
HETATM   14  C   UNL     1     -11.761  13.130  69.292  1.00  0.00    -0.321 C  
HETATM   15  O   UNL     1      -9.549  12.374  68.727  1.00  0.00    -0.080 OA 
HETATM   16  O   UNL     1     -12.451  16.498  69.786  1.00  0.00     0.420 OA 
HETATM   17  H2  UNL     1     -12.616  11.879  67.993  1.00  0.00     0.000 HD 
HETATM   18  N   UNL     1     -12.838  12.753  68.468  1.00  0.00     1.055 NA 
HETATM   19  C   UNL     1     -11.886  14.200  70.098  1.00  0.00    -0.382 C  
HETATM   20  C   UNL     1     -11.883  15.509  69.344  1.00  0.00    -0.374 C  
HETATM   21  C   UNL     1     -12.515  14.075  71.446  1.00  0.00    -0.438 C  
HETATM   22  H1  UNL     1     -13.752  12.678  68.915  1.00  0.00     0.000 HD 
BRANCH  13  23
HETATM   23  C   UNL     1      -8.842  14.663  65.870  1.00  0.00     0.537 C  
BRANCH  23  24
HETATM   24  O   UNL     1      -9.562  15.595  65.040  1.00  0.00    -0.191 OA 
BRANCH  24  25
HETATM   25  C   UNL     1     -10.687  15.105  64.460  1.00  0.00    -0.037 C  
HETATM   26  O   UNL     1     -10.945  13.918  64.295  1.00  0.00    -0.347 OA 
HETATM   27  N   UNL     1     -11.472  16.120  64.047  1.00  0.00    -0.798 N  
HETATM   28  H1  UNL     1     -12.317  15.752  63.612  1.00  0.00     0.000 HD 
HETATM   29  H2  UNL     1     -11.253  17.111  64.155  1.00  0.00     0.000 HD 
ENDBRANCH  24  25
ENDBRANCH  23  24
ENDBRANCH  13  23
ENDBRANCH   2   3
TORSDOF 4
ENDMDL
MODEL      172
REMARK 921   NORMALIZED FREE ENERGY PREDICTED BY IDOCK:    0.09 KCAL/MOL
REMARK 922        TOTAL FREE ENERGY PREDICTED BY IDOCK:   -0.06 KCAL/MOL
REMARK 923 INTER-LIGAND FREE ENERGY PREDICTED BY IDOCK:   -0.91 KCAL/MOL
REMARK 924 INTRA-LIGAND FREE ENERGY PREDICTED BY IDOCK:    0.85 KCAL/MOL
REMARK 927      BINDING AFFINITY PREDICTED BY RF-SCORE:    0.00 PKD
ROOT
HETATM    1  C   UNL     1      -8.248  14.004  66.926  1.00  0.00     0.057 C  
HETATM    2  O   UNL     1      -7.410  12.980  66.358  1.00  0.00     0.835 OA 
ENDROOT
BRANCH   2   3
HETATM    3  C   UNL     1      -7.419  11.793  67.152  1.00  0.00    -0.149 C  
HETATM    4  C   UNL     1      -6.069  11.715  67.922  1.00  0.00    -0.050 C  
HETATM    5  N   UNL     1      -5.314  12.929  68.294  1.00  0.00    -0.065 NA 
HETATM    6  H   UNL     1      -5.178  13.834  67.843  1.00  0.00     0.000 HD 
HETATM    7  C   UNL     1      -6.278  12.435  69.255  1.00  0.00    -0.101 C  
HETATM    8  C   UNL     1      -7.728  12.806  69.303  1.00  0.00     0.469 C  
HETATM    9  N   UNL     1      -8.312  11.858  68.357  1.00  0.00    -0.164 NA 
HETATM   10  C   UNL     1      -8.527  10.487  68.683  1.00  0.00    -0.138 C  
HETATM   11  C   UNL     1      -8.559   9.757  67.560  1.00  0.00    -0.125 C  
HETATM   12  C   UNL     1      -8.718   8.308  67.594  1.00  0.00    -0.133 C  
HETATM   13  C   UNL     1      -8.094  10.587  66.401  1.00  0.00    -0.135 C  
HETATM   14  C   UNL     1      -9.006   7.753  68.972  1.00  0.00    -0.145 C  
HETATM   15  O   UNL     1      -8.544   7.592  66.617  1.00  0.00    -0.120 OA 
HETATM   16  O   UNL     1      -7.625  10.278  70.917  1.00  0.00     0.034 OA 
HETATM   17  H2  UNL     1     -10.937   7.320  68.711  1.00  0.00     0.000 HD 
HETATM   18  N   UNL     1     -10.347   7.788  69.399  1.00  0.00    -0.215 NA 
HETATM   19  C   UNL     1      -8.040   8.218  69.784  1.00  0.00    -0.118 C  
HETATM   20  C   UNL     1      -8.052   9.722  69.914  1.00  0.00    -0.182 C  
HETATM   21  C   UNL     1      -7.438   7.347  70.836  1.00  0.00    -0.074 C  
HETATM   22  H1  UNL     1     -10.540   7.414  70.328  1.00  0.00     0.000 HD 
BRANCH  13  23
HETATM   23  C   UNL     1      -9.321  11.096  65.609  1.00  0.00    -0.219 C  
BRANCH  23  24
HETATM   24  O   UNL     1      -9.068  11.274  64.202  1.00  0.00    -0.104 OA 
BRANCH  24  25
HETATM   25  C   UNL     1      -9.523  10.277  63.401  1.00  0.00    -0.295 C  
HETATM   26  O   UNL     1      -8.823   9.477  62.791  1.00  0.00    -0.223 OA 
HETATM   27  N   UNL     1     -10.869  10.318  63.336  1.00  0.00     0.452 N  
HETATM   28  H1  UNL     1     -11.211   9.569  62.734  1.00  0.00     0.000 HD 
HETATM   29  H2  UNL     1     -11.459  10.997  63.818  1.00  0.00     0.000 HD 
ENDBRANCH  24  25
ENDBRANCH  23  24
ENDBRANCH  13  23
ENDBRANCH   2   3
TORSDOF 4
ENDMDL
MODEL      173
REMARK 921   NORMALIZED FREE ENERGY PREDICTED BY IDOCK:    0.73 KCAL/MOL
REMARK 922        TOTAL FREE ENERGY PREDICTED BY IDOCK:    0.73 KCAL/MOL
REMARK 923 INTER-LIGAND FREE ENERGY PREDICTED BY IDOCK:   -0.45 KCAL/MOL
REMARK 924 INTRA-LIGAND FREE ENERGY PREDICTED BY IDOCK:    1.18 KCAL/MOL
REMARK 927      BINDING AFFINITY PREDICTED BY RF-SCORE:    0.00 PKD
ROOT
HETATM    1  C   UNL     1     -10.063  18.261  70.618  1.00  0.00     2.415 C  
HETATM    2  O   UNL     1      -9.222  18.245  69.449  1.00  0.00     0.124 OA 
ENDROOT
BRANCH   2   3
HETATM    3  C   UNL     1      -9.608  17.217  68.537  1.00  0.00    -0.288 C  
HETATM    4  C   UNL     1     -10.844  17.720  67.735  1.00  0.00    -0.228 C  
HETATM    5  N   UNL     1     -11.071  19.156  67.475  1.00  0.00    -0.303 NA 
HETATM    6  H   UNL     1     -10.888  20.002  68.016  1.00  0.00     0.000 HD 
HETATM    7  C   UNL     1     -10.305  18.424  66.488  1.00  0.00    -0.400 C  
HETATM    8  C   UNL     1      -8.820  18.228  66.510  1.00  0.00    -0.271 C  
HETATM    9  N   UNL     1      -8.686  17.050  67.363  1.00  0.00    -0.200 NA 
HETATM   10  C   UNL     1      -8.977  15.733  66.901  1.00  0.00    -0.240 C  
HETATM   11  C   UNL     1      -9.283  14.947  67.942  1.00  0.00    -0.183 C  
HETATM   12  C   UNL     1      -9.671  13.553  67.760  1.00  0.00    -0.226 C  
HETATM   13  C   UNL     1      -9.474  15.784  69.171  1.00  0.00    -0.255 C  
HETATM   14  C   UNL     1      -9.530  13.057  66.338  1.00  0.00    -0.224 C  
HETATM   15  O   UNL     1     -10.155  12.871  68.652  1.00  0.00    -0.212 OA 
HETATM   16  O   UNL     1      -9.759  16.077  64.639  1.00  0.00     0.382 OA 
HETATM   17  H2  UNL     1      -7.916  11.909  66.591  1.00  0.00     0.000 HD 
HETATM   18  N   UNL     1      -8.249  12.624  65.944  1.00  0.00     0.449 NA 
HETATM   19  C   UNL     1     -10.205  13.919  65.559  1.00  0.00    -0.348 C  
HETATM   20  C   UNL     1      -9.628  15.315  65.587  1.00  0.00    -0.278 C  
HETATM   21  C   UNL     1     -11.025  13.435  64.409  1.00  0.00    -0.413 C  
HETATM   22  H1  UNL     1      -8.154  12.289  64.985  1.00  0.00     0.000 HD 
BRANCH  13  23
HETATM   23  C   UNL     1      -8.194  15.723  70.037  1.00  0.00     0.569 C  
BRANCH  23  24
HETATM   24  O   UNL     1      -7.294  16.826  69.815  1.00  0.00     0.103 OA 
BRANCH  24  25
HETATM   25  C   UNL     1      -6.148  16.515  69.156  1.00  0.00    -0.162 C  
HETATM   26  O   UNL     1      -5.869  15.416  68.692  1.00  0.00    -0.091 OA 
HETATM   27  N   UNL     1      -5.333  17.589  69.120  1.00  0.00    -0.169 N  
HETATM   28  H1  UNL     1      -4.473  17.355  68.625  1.00  0.00     0.000 HD 
HETATM   29  H2  UNL     1      -5.545  18.500  69.528  1.00  0.00     0.000 HD 
ENDBRANCH  24  25
ENDBRANCH  23  24
ENDBRANCH  13  23
ENDBRANCH   2   3
TORSDOF 4
ENDMDL
MODEL      174
REMARK 921   NORMALIZED FREE ENERGY PREDICTED BY IDOCK:    0.78 KCAL/MOL
REMARK 922        TOTAL FREE ENERGY PREDICTED BY IDOCK:    0.79 KCAL/MOL
REMARK 923 INTER-LIGAND FREE ENERGY PREDICTED BY IDOCK:   -0.60 KCAL/MOL
REMARK 924 INTRA-LIGAND FREE ENERGY PREDICTED BY IDOCK:    1.39 KCAL/MOL
REMARK 927      BINDING AFFINITY PREDICTED BY RF-SCORE:    0.00 PKD
ROOT
HETATM    1  C   UNL     1      -5.629   3.660  66.291  1.00  0.00    -0.018 C  
HETATM    2  O   UNL     1      -5.697   4.983  65.727  1.00  0.00    -0.017 OA 
ENDROOT
BRANCH   2   3
HETATM    3  C   UNL     1      -6.803   5.721  66.248  1.00  0.00    -0.058 C  
HETATM    4  C   UNL     1      -6.297   7.138  66.643  1.00  0.00    -0.047 C  
HETATM    5  N   UNL     1      -5.152   7.774  65.959  1.00  0.00    -0.024 NA 
HETATM    6  H   UNL     1      -4.286   7.411  65.560  1.00  0.00     0.000 HD 
HETATM    7  C   UNL     1      -6.468   8.029  65.411  1.00  0.00    -0.048 C  
HETATM    8  C   UNL     1      -7.160   7.186  64.383  1.00  0.00    -0.058 C  
HETATM    9  N   UNL     1      -7.795   6.165  65.211  1.00  0.00    -0.099 NA 
HETATM   10  C   UNL     1      -8.974   6.421  65.972  1.00  0.00    -0.130 C  
HETATM   11  C   UNL     1      -9.045   5.560  66.996  1.00  0.00    -0.112 C  
HETATM   12  C   UNL     1     -10.127   5.621  67.972  1.00  0.00    -0.171 C  
HETATM   13  C   UNL     1      -7.745   4.826  67.134  1.00  0.00    -0.091 C  
HETATM   14  C   UNL     1     -11.215   6.612  67.623  1.00  0.00    -0.170 C  
HETATM   15  O   UNL     1     -10.114   4.998  69.025  1.00  0.00    -0.192 OA 
HETATM   16  O   UNL     1      -9.409   8.768  65.586  1.00  0.00    -0.214 OA 
HETATM   17  H2  UNL     1     -12.630   5.310  67.086  1.00  0.00     0.000 HD 
HETATM   18  N   UNL     1     -12.210   6.169  66.731  1.00  0.00     1.778 NA 
HETATM   19  C   UNL     1     -10.607   7.791  67.405  1.00  0.00    -0.345 C  
HETATM   20  C   UNL     1      -9.661   7.758  66.228  1.00  0.00    -0.079 C  
HETATM   21  C   UNL     1     -11.215   9.068  67.884  1.00  0.00     0.405 C  
HETATM   22  H1  UNL     1     -12.943   6.838  66.496  1.00  0.00     0.000 HD 
BRANCH  13  23
HETATM   23  C   UNL     1      -7.877   3.425  66.491  1.00  0.00    -0.081 C  
BRANCH  23  24
HETATM   24  O   UNL     1      -9.215   3.111  66.059  1.00  0.00    -0.153 OA 
BRANCH  24  25
HETATM   25  C   UNL     1      -9.371   2.962  64.719  1.00  0.00    -0.147 C  
HETATM   26  O   UNL     1      -8.478   2.704  63.921  1.00  0.00    -0.085 OA 
HETATM   27  N   UNL     1     -10.657   3.183  64.379  1.00  0.00    -0.442 N  
HETATM   28  H1  UNL     1     -10.775   3.071  63.372  1.00  0.00     0.000 HD 
HETATM   29  H2  UNL     1     -11.403   3.426  65.032  1.00  0.00     0.000 HD 
ENDBRANCH  24  25
ENDBRANCH  23  24
ENDBRANCH  13  23
ENDBRANCH   2   3
TORSDOF 4
ENDMDL
MODEL      175
REMARK 921   NORMALIZED FREE ENERGY PREDICTED BY IDOCK:    2.32 KCAL/MOL
REMARK 922        TOTAL FREE ENERGY PREDICTED BY IDOCK:    2.69 KCAL/MOL
REMARK 923 INTER-LIGAND FREE ENERGY PREDICTED BY IDOCK:    1.96 KCAL/MOL
REMARK 924 INTRA-LIGAND FREE ENERGY PREDICTED BY IDOCK:    0.73 KCAL/MOL
REMARK 927      BINDING AFFINITY PREDICTED BY RF-SCORE:    0.00 PKD
ROOT
HETATM    1  C   UNL     1      -5.495   3.650  66.287  1.00  0.00    -0.017 C  
HETATM    2  O   UNL     1      -5.711   4.962  65.734  1.00  0.00    -0.017 OA 
ENDROOT
BRANCH   2   3
HETATM    3  C   UNL     1      -6.960   5.511  66.155  1.00  0.00    -0.063 C  
HETATM    4  C   UNL     1      -7.942   5.461  64.948  1.00  0.00    -0.108 C  
HETATM    5  N   UNL     1      -7.826   4.434  63.892  1.00  0.00    -0.085 NA 
HETATM    6  H   UNL     1      -7.031   3.963  63.460  1.00  0.00     0.000 HD 
HETATM    7  C   UNL     1      -8.671   4.118  65.025  1.00  0.00    -0.124 C  
HETATM    8  C   UNL     1      -8.214   3.471  66.297  1.00  0.00    -0.100 C  
HETATM    9  N   UNL     1      -7.753   4.622  67.070  1.00  0.00    -0.090 NA 
HETATM   10  C   UNL     1      -8.653   5.525  67.708  1.00  0.00    -0.108 C  
HETATM   11  C   UNL     1      -8.054   6.712  67.879  1.00  0.00    -0.113 C  
HETATM   12  C   UNL     1      -8.758   7.846  68.467  1.00  0.00    -0.131 C  
HETATM   13  C   UNL     1      -6.770   6.750  67.105  1.00  0.00    -0.059 C  
HETATM   14  C   UNL     1     -10.131   7.505  69.004  1.00  0.00    -0.192 C  
HETATM   15  O   UNL     1      -8.322   8.988  68.447  1.00  0.00    -0.122 OA 
HETATM   16  O   UNL     1     -10.837   4.707  67.072  1.00  0.00     0.187 OA 
HETATM   17  H2  UNL     1      -9.704   7.577  70.953  1.00  0.00     0.000 HD 
HETATM   18  N   UNL     1     -10.183   6.957  70.300  1.00  0.00    -0.190 NA 
HETATM   19  C   UNL     1     -10.798   6.905  68.004  1.00  0.00    -0.266 C  
HETATM   20  C   UNL     1     -10.169   5.601  67.574  1.00  0.00    -0.202 C  
HETATM   21  C   UNL     1     -12.244   7.192  67.766  1.00  0.00     3.847 C  
HETATM   22  H1  UNL     1     -11.109   6.727  70.662  1.00  0.00     0.000 HD 
BRANCH  13  23
HETATM   23  C   UNL     1      -5.586   6.485  68.064  1.00  0.00    -0.008 C  
BRANCH  23  24
HETATM   24  O   UNL     1      -5.935   6.593  69.457  1.00  0.00    -0.020 OA 
BRANCH  24  25
HETATM   25  C   UNL     1      -5.773   5.459  70.185  1.00  0.00    -0.016 C  
HETATM   26  O   UNL     1      -5.134   4.473  69.836  1.00  0.00     0.000 OA 
HETATM   27  N   UNL     1      -6.457   5.554  71.343  1.00  0.00    -0.038 N  
HETATM   28  H1  UNL     1      -6.335   4.702  71.890  1.00  0.00     0.000 HD 
HETATM   29  H2  UNL     1      -7.014   6.359  71.630  1.00  0.00     0.000 HD 
ENDBRANCH  24  25
ENDBRANCH  23  24
ENDBRANCH  13  23
ENDBRANCH   2   3
TORSDOF 4
ENDMDL
MODEL      176
REMARK 921   NORMALIZED FREE ENERGY PREDICTED BY IDOCK:    7.25 KCAL/MOL
REMARK 922        TOTAL FREE ENERGY PREDICTED BY IDOCK:    8.77 KCAL/MOL
REMARK 923 INTER-LIGAND FREE ENERGY PREDICTED BY IDOCK:    4.81 KCAL/MOL
REMARK 924 INTRA-LIGAND FREE ENERGY PREDICTED BY IDOCK:    3.96 KCAL/MOL
REMARK 927      BINDING AFFINITY PREDICTED BY RF-SCORE:    0.00 PKD
ROOT
HETATM    1  C   UNL     1      -6.143  17.647  68.077  1.00  0.00    -0.158 C  
HETATM    2  O   UNL     1      -6.832  17.153  69.240  1.00  0.00    -0.234 OA 
ENDROOT
BRANCH   2   3
HETATM    3  C   UNL     1      -7.613  15.997  68.938  1.00  0.00    -0.192 C  
HETATM    4  C   UNL     1      -7.085  15.390  67.605  1.00  0.00    -0.180 C  
HETATM    5  N   UNL     1      -5.678  15.547  67.183  1.00  0.00    -0.272 NA 
HETATM    6  H   UNL     1      -4.997  16.299  67.287  1.00  0.00     0.000 HD 
HETATM    7  C   UNL     1      -5.998  14.380  67.979  1.00  0.00    -0.148 C  
HETATM    8  C   UNL     1      -5.986  14.319  69.476  1.00  0.00    -0.106 C  
HETATM    9  N   UNL     1      -7.323  14.806  69.807  1.00  0.00    -0.121 NA 
HETATM   10  C   UNL     1      -8.489  14.000  69.661  1.00  0.00     0.929 C  
HETATM   11  C   UNL     1      -9.565  14.785  69.516  1.00  0.00     0.055 C  
HETATM   12  C   UNL     1     -10.895  14.228  69.300  1.00  0.00    -0.215 C  
HETATM   13  C   UNL     1      -9.133  16.203  69.289  1.00  0.00    -0.213 C  
HETATM   14  C   UNL     1     -10.958  12.721  69.423  1.00  0.00     0.020 C  
HETATM   15  O   UNL     1     -11.856  14.903  68.957  1.00  0.00    -0.302 OA 
HETATM   16  O   UNL     1      -7.649  11.939  68.715  1.00  0.00    -0.125 OA 
HETATM   17  H2  UNL     1     -11.897  12.615  71.181  1.00  0.00     0.000 HD 
HETATM   18  N   UNL     1     -11.085  12.199  70.724  1.00  0.00     1.073 NA 
HETATM   19  C   UNL     1     -10.016  12.228  68.600  1.00  0.00    -0.127 C  
HETATM   20  C   UNL     1      -8.616  12.634  68.995  1.00  0.00     0.495 C  
HETATM   21  C   UNL     1     -10.275  11.004  67.785  1.00  0.00    -0.210 C  
HETATM   22  H1  UNL     1     -11.127  11.183  70.807  1.00  0.00     0.000 HD 
BRANCH  13  23
HETATM   23  C   UNL     1      -9.251  16.994  70.613  1.00  0.00     3.833 C  
BRANCH  23  24
HETATM   24  O   UNL     1      -9.535  18.394  70.426  1.00  0.00     1.876 OA 
BRANCH  24  25
HETATM   25  C   UNL     1      -9.753  18.775  69.142  1.00  0.00    -0.195 C  
HETATM   26  O   UNL     1      -9.630  19.913  68.706  1.00  0.00    -0.310 OA 
HETATM   27  N   UNL     1     -10.169  17.720  68.413  1.00  0.00    -0.365 N  
HETATM   28  H1  UNL     1     -10.333  18.006  67.448  1.00  0.00     0.000 HD 
HETATM   29  H2  UNL     1     -10.301  16.774  68.774  1.00  0.00     0.000 HD 
ENDBRANCH  24  25
ENDBRANCH  23  24
ENDBRANCH  13  23
ENDBRANCH   2   3
TORSDOF 4
ENDMDL
MODEL      177
REMARK 921   NORMALIZED FREE ENERGY PREDICTED BY IDOCK:    9.74 KCAL/MOL
REMARK 922        TOTAL FREE ENERGY PREDICTED BY IDOCK:   11.84 KCAL/MOL
REMARK 923 INTER-LIGAND FREE ENERGY PREDICTED BY IDOCK:    8.21 KCAL/MOL
REMARK 924 INTRA-LIGAND FREE ENERGY PREDICTED BY IDOCK:    3.63 KCAL/MOL
REMARK 927      BINDING AFFINITY PREDICTED BY RF-SCORE:    0.00 PKD
ROOT
HETATM    1  C   UNL     1     -11.992  15.907  69.778  1.00  0.00    -0.264 C  
HETATM    2  O   UNL     1     -11.374  15.580  68.520  1.00  0.00    -0.313 OA 
ENDROOT
BRANCH   2   3
HETATM    3  C   UNL     1     -11.241  14.168  68.350  1.00  0.00    -0.265 C  
HETATM    4  C   UNL     1     -12.669  13.553  68.272  1.00  0.00     1.061 C  
HETATM    5  N   UNL     1     -13.821  14.323  67.760  1.00  0.00     5.905 NA 
HETATM    6  H   UNL     1     -14.084  15.308  67.814  1.00  0.00     0.000 HD 
HETATM    7  C   UNL     1     -13.069  13.548  66.796  1.00  0.00     1.663 C  
HETATM    8  C   UNL     1     -11.869  14.030  66.039  1.00  0.00    -0.388 C  
HETATM    9  N   UNL     1     -10.788  13.748  66.981  1.00  0.00    -0.283 NA 
HETATM   10  C   UNL     1     -10.280  12.432  67.192  1.00  0.00    -0.216 C  
HETATM   11  C   UNL     1      -9.717  12.356  68.405  1.00  0.00    -0.189 C  
HETATM   12  C   UNL     1      -9.154  11.109  68.909  1.00  0.00    -0.089 C  
HETATM   13  C   UNL     1     -10.057  13.580  69.202  1.00  0.00     0.194 C  
HETATM   14  C   UNL     1      -9.119   9.993  67.889  1.00  0.00    -0.131 C  
HETATM   15  O   UNL     1      -8.825  10.947  70.077  1.00  0.00     0.613 OA 
HETATM   16  O   UNL     1     -11.675  11.045  65.786  1.00  0.00     0.195 OA 
HETATM   17  H2  UNL     1      -7.155   9.991  67.530  1.00  0.00     0.000 HD 
HETATM   18  N   UNL     1      -8.027   9.984  67.001  1.00  0.00    -0.106 NA 
HETATM   19  C   UNL     1     -10.368   9.874  67.405  1.00  0.00    -0.301 C  
HETATM   20  C   UNL     1     -10.837  11.111  66.675  1.00  0.00    -0.253 C  
HETATM   21  C   UNL     1     -10.959   8.532  67.129  1.00  0.00     0.153 C  
HETATM   22  H1  UNL     1      -8.005   9.231  66.312  1.00  0.00     0.000 HD 
BRANCH  13  23
HETATM   23  C   UNL     1      -8.863  14.563  69.168  1.00  0.00     0.038 C  
BRANCH  23  24
HETATM   24  O   UNL     1      -7.971  14.350  68.056  1.00  0.00    -0.119 OA 
BRANCH  24  25
HETATM   25  C   UNL     1      -8.304  15.003  66.914  1.00  0.00    -0.212 C  
HETATM   26  O   UNL     1      -7.674  14.966  65.863  1.00  0.00     1.725 OA 
HETATM   27  N   UNL     1      -9.415  15.741  67.112  1.00  0.00    -0.211 N  
HETATM   28  H1  UNL     1      -9.664  16.231  66.253  1.00  0.00     0.000 HD 
HETATM   29  H2  UNL     1      -9.930  15.800  67.991  1.00  0.00     0.000 HD 
ENDBRANCH  24  25
ENDBRANCH  23  24
ENDBRANCH  13  23
ENDBRANCH   2   3
TORSDOF 4
ENDMDL
MODEL      178
REMARK 921   NORMALIZED FREE ENERGY PREDICTED BY IDOCK:   18.62 KCAL/MOL
REMARK 922        TOTAL FREE ENERGY PREDICTED BY IDOCK:   22.81 KCAL/MOL
REMARK 923 INTER-LIGAND FREE ENERGY PREDICTED BY IDOCK:   21.06 KCAL/MOL
REMARK 924 INTRA-LIGAND FREE ENERGY PREDICTED BY IDOCK:    1.75 KCAL/MOL
REMARK 927      BINDING AFFINITY PREDICTED BY RF-SCORE:    0.00 PKD
ROOT
HETATM    1  C   UNL     1     -10.350  12.467  63.150  1.00  0.00     0.311 C  
HETATM    2  O   UNL     1     -10.668  13.317  64.268  1.00  0.00    -0.396 OA 
ENDROOT
BRANCH   2   3
HETATM    3  C   UNL     1     -10.455  12.652  65.513  1.00  0.00    -0.281 C  
HETATM    4  C   UNL     1      -9.632  13.599  66.434  1.00  0.00    -0.268 C  
HETATM    5  N   UNL     1      -9.709  15.069  66.307  1.00  0.00    -0.273 NA 
HETATM    6  H   UNL     1      -9.827  15.697  65.511  1.00  0.00     0.000 HD 
HETATM    7  C   UNL     1     -10.640  14.439  67.220  1.00  0.00    -0.279 C  
HETATM    8  C   UNL     1     -11.994  13.910  66.855  1.00  0.00    -0.433 C  
HETATM    9  N   UNL     1     -11.673  12.564  66.387  1.00  0.00    -0.422 NA 
HETATM   10  C   UNL     1     -11.362  11.497  67.280  1.00  0.00    -0.290 C  
HETATM   11  C   UNL     1     -10.626  10.577  66.643  1.00  0.00    -0.263 C  
HETATM   12  C   UNL     1     -10.121   9.392  67.329  1.00  0.00    -0.226 C  
HETATM   13  C   UNL     1     -10.168  11.117  65.321  1.00  0.00    -0.337 C  
HETATM   14  C   UNL     1     -10.643   9.231  68.740  1.00  0.00    -0.193 C  
HETATM   15  O   UNL     1      -9.281   8.646  66.845  1.00  0.00    -0.146 OA 
HETATM   16  O   UNL     1     -11.412  12.539  69.461  1.00  0.00    -0.267 OA 
HETATM   17  H2  UNL     1     -11.905   7.719  68.409  1.00  0.00     0.000 HD 
HETATM   18  N   UNL     1     -11.905   8.624  68.880  1.00  0.00     0.891 NA 
HETATM   19  C   UNL     1     -10.387  10.385  69.380  1.00  0.00    -0.259 C  
HETATM   20  C   UNL     1     -11.119  11.564  68.784  1.00  0.00    -0.233 C  
HETATM   21  C   UNL     1      -9.923  10.388  70.799  1.00  0.00     0.994 C  
HETATM   22  H1  UNL     1     -12.257   8.516  69.832  1.00  0.00     0.000 HD 
BRANCH  13  23
HETATM   23  C   UNL     1     -11.077  10.562  64.198  1.00  0.00     1.232 C  
BRANCH  23  24
HETATM   24  O   UNL     1     -10.421   9.603  63.347  1.00  0.00     1.907 OA 
BRANCH  24  25
HETATM   25  C   UNL     1     -10.308   8.352  63.862  1.00  0.00     6.975 C  
HETATM   26  O   UNL     1     -11.240   7.591  64.095  1.00  0.00    13.250 OA 
HETATM   27  N   UNL     1      -9.014   8.077  64.124  1.00  0.00     0.063 N  
HETATM   28  H1  UNL     1      -8.930   7.138  64.510  1.00  0.00     0.000 HD 
HETATM   29  H2  UNL     1      -8.235   8.715  63.959  1.00  0.00     0.000 HD 
ENDBRANCH  24  25
ENDBRANCH  23  24
ENDBRANCH  13  23
ENDBRANCH   2   3
TORSDOF 4
ENDMDL
MODEL      179
REMARK 921   NORMALIZED FREE ENERGY PREDICTED BY IDOCK:   26.96 KCAL/MOL
REMARK 922        TOTAL FREE ENERGY PREDICTED BY IDOCK:   33.09 KCAL/MOL
REMARK 923 INTER-LIGAND FREE ENERGY PREDICTED BY IDOCK:   18.59 KCAL/MOL
REMARK 924 INTRA-LIGAND FREE ENERGY PREDICTED BY IDOCK:   14.51 KCAL/MOL
REMARK 927      BINDING AFFINITY PREDICTED BY RF-SCORE:    0.00 PKD
ROOT
HETATM    1  C   UNL     1     -12.246  11.988  69.155  1.00  0.00    -0.049 C  
HETATM    2  O   UNL     1     -11.699  12.771  68.079  1.00  0.00    -0.324 OA 
ENDROOT
BRANCH   2   3
HETATM    3  C   UNL     1     -10.415  13.301  68.412  1.00  0.00    -0.253 C  
HETATM    4  C   UNL     1      -9.624  13.520  67.089  1.00  0.00    -0.241 C  
HETATM    5  N   UNL     1     -10.308  13.805  65.811  1.00  0.00    -0.299 NA 
HETATM    6  H   UNL     1     -11.193  13.496  65.408  1.00  0.00     0.000 HD 
HETATM    7  C   UNL     1      -9.930  14.944  66.621  1.00  0.00    -0.258 C  
HETATM    8  C   UNL     1     -10.769  15.563  67.697  1.00  0.00    -0.302 C  
HETATM    9  N   UNL     1     -10.431  14.736  68.854  1.00  0.00    -0.243 NA 
HETATM   10  C   UNL     1      -9.201  14.876  69.561  1.00  0.00     0.032 C  
HETATM   11  C   UNL     1      -8.910  13.730  70.190  1.00  0.00     2.753 C  
HETATM   12  C   UNL     1      -7.679  13.569  70.956  1.00  0.00     4.951 C  
HETATM   13  C   UNL     1      -9.823  12.641  69.711  1.00  0.00     1.893 C  
HETATM   14  C   UNL     1      -6.878  14.843  71.105  1.00  0.00     0.964 C  
HETATM   15  O   UNL     1      -7.281  12.486  71.363  1.00  0.00     4.174 OA 
HETATM   16  O   UNL     1      -8.014  16.578  68.320  1.00  0.00    -0.165 OA 
HETATM   17  H2  UNL     1      -7.274  15.210  73.027  1.00  0.00     0.000 HD 
HETATM   18  N   UNL     1      -7.264  15.714  72.141  1.00  0.00     4.561 NA 
HETATM   19  C   UNL     1      -6.691  15.329  69.866  1.00  0.00    -0.149 C  
HETATM   20  C   UNL     1      -7.983  15.711  69.182  1.00  0.00    -0.227 C  
HETATM   21  C   UNL     1      -5.386  15.935  69.468  1.00  0.00    -0.112 C  
HETATM   22  H1  UNL     1      -6.723  16.574  72.241  1.00  0.00     0.000 HD 
BRANCH  13  23
HETATM   23  C   UNL     1     -10.957  12.433  70.743  1.00  0.00     2.652 C  
BRANCH  23  24
HETATM   24  O   UNL     1     -12.278  12.602  70.193  1.00  0.00    -0.305 OA 
BRANCH  24  25
HETATM   25  C   UNL     1     -12.882  13.781  70.489  1.00  0.00    -0.142 C  
HETATM   26  O   UNL     1     -14.008  13.906  70.957  1.00  0.00    -0.020 OA 
HETATM   27  N   UNL     1     -12.077  14.809  70.152  1.00  0.00    -0.307 N  
HETATM   28  H1  UNL     1     -12.531  15.694  70.374  1.00  0.00     0.000 HD 
HETATM   29  H2  UNL     1     -11.150  14.714  69.736  1.00  0.00     0.000 HD 
ENDBRANCH  24  25
ENDBRANCH  23  24
ENDBRANCH  13  23
ENDBRANCH   2   3
TORSDOF 4
ENDMDL
