MODEL        1
REMARK 921   NORMALIZED FREE ENERGY PREDICTED BY IDOCK:   -6.92 KCAL/MOL
REMARK 922        TOTAL FREE ENERGY PREDICTED BY IDOCK:  -14.03 KCAL/MOL
REMARK 923 INTER-LIGAND FREE ENERGY PREDICTED BY IDOCK:  -11.77 KCAL/MOL
REMARK 924 INTRA-LIGAND FREE ENERGY PREDICTED BY IDOCK:   -2.26 KCAL/MOL
REMARK 927      BINDING AFFINITY PREDICTED BY RF-SCORE:    0.00 PKD
ROOT
HETATM    1  O   UNL     1     -11.545   6.868  67.322  1.00  0.00    -0.668 OA 
HETATM    2  H   UNL     1     -11.290   6.872  66.408  1.00  0.00     0.000 HD 
HETATM    3  C   UNL     1     -10.681   6.017  68.071  1.00  0.00    -0.282 C  
ENDROOT
BRANCH   3   4
HETATM    4  C   UNL     1     -11.092   6.011  69.546  1.00  0.00    -0.398 C  
BRANCH   4   5
HETATM    5  N   UNL     1     -11.669   7.286  69.997  1.00  0.00    -0.528 NA 
HETATM    6  H   UNL     1     -12.688   7.242  70.025  1.00  0.00     0.000 HD 
BRANCH   5   7
HETATM    7  C   UNL     1     -11.118   7.711  71.291  1.00  0.00    -0.246 C  
BRANCH   7   8
HETATM    8  C   UNL     1     -11.258   9.228  71.464  1.00  0.00    -0.386 C  
BRANCH   8   9
HETATM    9  N   UNL     1     -12.082   9.796  70.412  1.00  0.00    -0.454 NA 
HETATM   10  H   UNL     1     -12.686   9.174  69.875  1.00  0.00     0.000 HD 
BRANCH   9  11
HETATM   11  C   UNL     1     -12.083  11.149  70.108  1.00  0.00    -0.362 A  
HETATM   12  C   UNL     1     -12.538  12.061  71.060  1.00  0.00    -0.370 A  
HETATM   13  C   UNL     1     -12.589  13.417  70.788  1.00  0.00    -0.369 A  
HETATM   14  C   UNL     1     -12.268  13.919  69.525  1.00  0.00    -0.306 A  
HETATM   15  H   UNL     1     -10.585  14.649  63.614  1.00  0.00     0.000 HD 
HETATM   16  C   UNL     1     -11.831  13.005  68.531  1.00  0.00    -0.360 A  
HETATM   17  C   UNL     1     -11.685  11.639  68.836  1.00  0.00    -0.397 A  
HETATM   18  C   UNL     1      -9.971  10.823  64.172  1.00  0.00    -0.405 A  
HETATM   19  O   UNL     1     -11.730  14.641  66.811  1.00  0.00    -0.373 OA 
HETATM   20  C   UNL     1     -10.297  10.336  65.440  1.00  0.00    -0.163 A  
HETATM   21  C   UNL     1     -11.057  10.722  67.837  1.00  0.00    -0.308 C  
HETATM   22  O   UNL     1     -10.683   9.608  68.189  1.00  0.00    -0.229 OA 
HETATM   23  C   UNL     1     -10.149  12.169  63.886  1.00  0.00    -0.387 A  
HETATM   24  C   UNL     1     -10.785  11.195  66.456  1.00  0.00    -0.314 A  
HETATM   25  O   UNL     1     -10.805  14.326  64.480  1.00  0.00    -0.381 OA 
HETATM   26  H   UNL     1      -9.786   8.428  64.999  1.00  0.00     0.000 HD 
HETATM   27  C   UNL     1     -10.984  12.542  66.148  1.00  0.00    -0.318 A  
HETATM   28  O   UNL     1     -10.114   9.005  65.679  1.00  0.00    -0.082 OA 
HETATM   29  C   UNL     1     -10.657  13.020  64.863  1.00  0.00    -0.337 A  
HETATM   30  C   UNL     1     -11.513  13.478  67.157  1.00  0.00    -0.338 C  
BRANCH  14  31
HETATM   31  N   UNL     1     -12.294  15.289  69.332  1.00  0.00    -0.586 NA 
HETATM   32  H   UNL     1     -12.973  15.674  68.675  1.00  0.00     0.000 HD 
BRANCH  31  33
HETATM   33  C   UNL     1     -11.398  16.204  70.024  1.00  0.00    -0.328 C  
BRANCH  33  34
HETATM   34  C   UNL     1     -10.331  16.753  69.062  1.00  0.00    -0.326 C  
BRANCH  34  35
HETATM   35  N   UNL     1     -10.411  18.217  68.954  1.00  0.00    -0.447 NA 
HETATM   36  H   UNL     1      -9.679  18.679  69.494  1.00  0.00     0.000 HD 
BRANCH  35  37
HETATM   37  C   UNL     1     -10.391  18.628  67.544  1.00  0.00    -0.411 C  
BRANCH  37  38
HETATM   38  C   UNL     1      -9.713  17.560  66.682  1.00  0.00    -0.299 C  
HETATM   39  O   UNL     1     -10.519  17.251  65.547  1.00  0.00    -0.609 OA 
HETATM   40  H   UNL     1     -10.099  16.588  65.013  1.00  0.00     0.000 HD 
ENDBRANCH  37  38
ENDBRANCH  35  37
ENDBRANCH  34  35
ENDBRANCH  33  34
ENDBRANCH  31  33
ENDBRANCH  14  31
ENDBRANCH   9  11
ENDBRANCH   8   9
ENDBRANCH   7   8
ENDBRANCH   5   7
ENDBRANCH   4   5
ENDBRANCH   3   4
TORSDOF 12
ENDMDL
MODEL        2
REMARK 921   NORMALIZED FREE ENERGY PREDICTED BY IDOCK:   -6.87 KCAL/MOL
REMARK 922        TOTAL FREE ENERGY PREDICTED BY IDOCK:  -13.94 KCAL/MOL
REMARK 923 INTER-LIGAND FREE ENERGY PREDICTED BY IDOCK:  -11.89 KCAL/MOL
REMARK 924 INTRA-LIGAND FREE ENERGY PREDICTED BY IDOCK:   -2.05 KCAL/MOL
REMARK 927      BINDING AFFINITY PREDICTED BY RF-SCORE:    0.00 PKD
ROOT
HETATM    1  O   UNL     1     -11.155  17.014  64.361  1.00  0.00    -1.149 OA 
HETATM    2  H   UNL     1     -11.912  17.479  64.024  1.00  0.00     0.000 HD 
HETATM    3  C   UNL     1     -10.764  17.557  65.620  1.00  0.00    -0.089 C  
ENDROOT
BRANCH   3   4
HETATM    4  C   UNL     1      -9.545  16.808  66.164  1.00  0.00    -0.274 C  
BRANCH   4   5
HETATM    5  N   UNL     1      -9.726  16.316  67.538  1.00  0.00    -0.232 NA 
HETATM    6  H   UNL     1      -8.882  16.452  68.095  1.00  0.00     0.000 HD 
BRANCH   5   7
HETATM    7  C   UNL     1     -10.897  16.921  68.188  1.00  0.00    -0.351 C  
BRANCH   7   8
HETATM    8  C   UNL     1     -11.279  16.138  69.450  1.00  0.00    -0.335 C  
BRANCH   8   9
HETATM    9  N   UNL     1     -12.357  15.205  69.173  1.00  0.00    -0.592 NA 
HETATM   10  H   UNL     1     -13.217  15.561  68.758  1.00  0.00     0.000 HD 
BRANCH   9  11
HETATM   11  C   UNL     1     -12.265  13.849  69.450  1.00  0.00    -0.292 A  
HETATM   12  C   UNL     1     -12.598  13.390  70.724  1.00  0.00    -0.369 A  
HETATM   13  C   UNL     1     -12.489  12.050  71.055  1.00  0.00    -0.376 A  
HETATM   14  C   UNL     1     -11.964  11.119  70.158  1.00  0.00    -0.365 A  
HETATM   15  H   UNL     1      -9.520   8.231  65.259  1.00  0.00     0.000 HD 
HETATM   16  C   UNL     1     -11.591  11.569  68.864  1.00  0.00    -0.384 A  
HETATM   17  C   UNL     1     -11.792  12.912  68.494  1.00  0.00    -0.350 A  
HETATM   18  C   UNL     1     -10.052  11.858  63.888  1.00  0.00    -0.396 A  
HETATM   19  O   UNL     1     -10.692   9.475  68.193  1.00  0.00    -0.227 OA 
HETATM   20  C   UNL     1     -10.577  12.779  64.797  1.00  0.00    -0.327 A  
HETATM   21  C   UNL     1     -11.562  13.329  67.078  1.00  0.00    -0.359 C  
HETATM   22  O   UNL     1     -11.987  14.413  66.689  1.00  0.00    -0.407 OA 
HETATM   23  C   UNL     1      -9.836  10.546  64.284  1.00  0.00    -0.402 A  
HETATM   24  C   UNL     1     -10.921  12.395  66.118  1.00  0.00    -0.321 A  
HETATM   25  O   UNL     1      -9.882   8.850  65.883  1.00  0.00    -0.255 OA 
HETATM   26  H   UNL     1     -10.538  14.319  63.485  1.00  0.00     0.000 HD 
HETATM   27  C   UNL     1     -10.676  11.079  66.512  1.00  0.00    -0.298 A  
HETATM   28  O   UNL     1     -10.768  14.061  64.370  1.00  0.00    -0.377 OA 
HETATM   29  C   UNL     1     -10.139  10.161  65.586  1.00  0.00    -0.254 A  
HETATM   30  C   UNL     1     -10.990  10.629  67.880  1.00  0.00    -0.295 C  
BRANCH  14  31
HETATM   31  N   UNL     1     -11.926   9.787  70.533  1.00  0.00    -0.397 NA 
HETATM   32  H   UNL     1     -12.613   9.149  70.132  1.00  0.00     0.000 HD 
BRANCH  31  33
HETATM   33  C   UNL     1     -10.950   9.257  71.475  1.00  0.00    -0.375 C  
BRANCH  33  34
HETATM   34  C   UNL     1     -10.848   7.727  71.349  1.00  0.00    -0.228 C  
BRANCH  34  35
HETATM   35  N   UNL     1     -11.687   7.223  70.252  1.00  0.00    -0.516 NA 
HETATM   36  H   UNL     1     -11.848   7.934  69.539  1.00  0.00     0.000 HD 
BRANCH  35  37
HETATM   37  C   UNL     1     -11.107   5.999  69.685  1.00  0.00    -0.404 C  
BRANCH  37  38
HETATM   38  C   UNL     1     -10.397   6.303  68.364  1.00  0.00    -0.200 C  
HETATM   39  O   UNL     1     -11.343   6.679  67.366  1.00  0.00    -0.694 OA 
HETATM   40  H   UNL     1     -10.903   6.867  66.545  1.00  0.00     0.000 HD 
ENDBRANCH  37  38
ENDBRANCH  35  37
ENDBRANCH  34  35
ENDBRANCH  33  34
ENDBRANCH  31  33
ENDBRANCH  14  31
ENDBRANCH   9  11
ENDBRANCH   8   9
ENDBRANCH   7   8
ENDBRANCH   5   7
ENDBRANCH   4   5
ENDBRANCH   3   4
TORSDOF 12
ENDMDL
MODEL        3
REMARK 921   NORMALIZED FREE ENERGY PREDICTED BY IDOCK:   -6.76 KCAL/MOL
REMARK 922        TOTAL FREE ENERGY PREDICTED BY IDOCK:  -13.77 KCAL/MOL
REMARK 923 INTER-LIGAND FREE ENERGY PREDICTED BY IDOCK:  -11.78 KCAL/MOL
REMARK 924 INTRA-LIGAND FREE ENERGY PREDICTED BY IDOCK:   -1.99 KCAL/MOL
REMARK 927      BINDING AFFINITY PREDICTED BY RF-SCORE:    0.00 PKD
ROOT
HETATM    1  O   UNL     1     -11.249  16.694  64.041  1.00  0.00    -1.449 OA 
HETATM    2  H   UNL     1     -11.264  15.855  63.597  1.00  0.00     0.000 HD 
HETATM    3  C   UNL     1     -10.518  16.593  65.261  1.00  0.00    -0.173 C  
ENDROOT
BRANCH   3   4
HETATM    4  C   UNL     1     -10.493  17.946  65.977  1.00  0.00    -0.293 C  
BRANCH   4   5
HETATM    5  N   UNL     1     -10.362  17.832  67.437  1.00  0.00    -0.356 NA 
HETATM    6  H   UNL     1     -11.057  18.404  67.917  1.00  0.00     0.000 HD 
BRANCH   5   7
HETATM    7  C   UNL     1     -10.420  16.434  67.886  1.00  0.00    -0.307 C  
BRANCH   7   8
HETATM    8  C   UNL     1     -11.512  16.253  68.947  1.00  0.00    -0.282 C  
BRANCH   8   9
HETATM    9  N   UNL     1     -12.380  15.138  68.613  1.00  0.00    -0.579 NA 
HETATM   10  H   UNL     1     -13.076  15.263  67.879  1.00  0.00     0.000 HD 
BRANCH   9  11
HETATM   11  C   UNL     1     -12.301  13.908  69.251  1.00  0.00    -0.161 A  
HETATM   12  C   UNL     1     -12.693  13.807  70.585  1.00  0.00    -0.330 A  
HETATM   13  C   UNL     1     -12.600  12.609  71.272  1.00  0.00    -0.339 A  
HETATM   14  C   UNL     1     -12.033  11.476  70.685  1.00  0.00    -0.292 A  
HETATM   15  H   UNL     1      -9.360   7.401  66.869  1.00  0.00     0.000 HD 
HETATM   16  C   UNL     1     -11.600  11.564  69.336  1.00  0.00    -0.388 A  
HETATM   17  C   UNL     1     -11.783  12.754  68.607  1.00  0.00    -0.360 A  
HETATM   18  C   UNL     1      -9.828  10.515  64.543  1.00  0.00    -0.401 A  
HETATM   19  O   UNL     1     -10.670   9.378  69.299  1.00  0.00    -0.227 OA 
HETATM   20  C   UNL     1     -10.395  11.641  65.144  1.00  0.00    -0.279 A  
HETATM   21  C   UNL     1     -11.487  12.775  67.143  1.00  0.00    -0.337 C  
HETATM   22  O   UNL     1     -11.893  13.708  66.456  1.00  0.00    -0.360 OA 
HETATM   23  C   UNL     1      -9.631   9.362  65.289  1.00  0.00    -0.251 A  
HETATM   24  C   UNL     1     -10.801  11.624  66.502  1.00  0.00    -0.328 A  
HETATM   25  O   UNL     1      -9.751   8.161  67.284  1.00  0.00    -0.154 OA 
HETATM   26  H   UNL     1     -10.295  12.768  63.467  1.00  0.00     0.000 HD 
HETATM   27  C   UNL     1     -10.575  10.468  67.249  1.00  0.00    -0.317 A  
HETATM   28  O   UNL     1     -10.566  12.757  64.377  1.00  0.00    -0.333 OA 
HETATM   29  C   UNL     1      -9.995   9.340  66.632  1.00  0.00    -0.264 A  
HETATM   30  C   UNL     1     -10.953  10.400  68.672  1.00  0.00    -0.243 C  
BRANCH  14  31
HETATM   31  N   UNL     1     -12.012  10.297  71.409  1.00  0.00    -0.359 NA 
HETATM   32  H   UNL     1     -11.163   9.732  71.395  1.00  0.00     0.000 HD 
BRANCH  31  33
HETATM   33  C   UNL     1     -13.148   9.825  72.189  1.00  0.00    -0.422 C  
BRANCH  33  34
HETATM   34  C   UNL     1     -13.492   8.371  71.826  1.00  0.00    -0.364 C  
BRANCH  34  35
HETATM   35  N   UNL     1     -12.600   7.856  70.777  1.00  0.00    -0.507 NA 
HETATM   36  H   UNL     1     -11.925   8.558  70.472  1.00  0.00     0.000 HD 
BRANCH  35  37
HETATM   37  C   UNL     1     -11.941   6.622  71.225  1.00  0.00    -0.355 C  
BRANCH  37  38
HETATM   38  C   UNL     1     -11.116   6.010  70.090  1.00  0.00    -0.361 C  
HETATM   39  O   UNL     1     -11.541   6.527  68.832  1.00  0.00    -0.606 OA 
HETATM   40  H   UNL     1     -11.030   6.147  68.127  1.00  0.00     0.000 HD 
ENDBRANCH  37  38
ENDBRANCH  35  37
ENDBRANCH  34  35
ENDBRANCH  33  34
ENDBRANCH  31  33
ENDBRANCH  14  31
ENDBRANCH   9  11
ENDBRANCH   8   9
ENDBRANCH   7   8
ENDBRANCH   5   7
ENDBRANCH   4   5
ENDBRANCH   3   4
TORSDOF 12
ENDMDL
MODEL        4
REMARK 921   NORMALIZED FREE ENERGY PREDICTED BY IDOCK:   -6.76 KCAL/MOL
REMARK 922        TOTAL FREE ENERGY PREDICTED BY IDOCK:  -13.77 KCAL/MOL
REMARK 923 INTER-LIGAND FREE ENERGY PREDICTED BY IDOCK:  -11.80 KCAL/MOL
REMARK 924 INTRA-LIGAND FREE ENERGY PREDICTED BY IDOCK:   -1.97 KCAL/MOL
REMARK 927      BINDING AFFINITY PREDICTED BY RF-SCORE:    0.00 PKD
ROOT
HETATM    1  O   UNL     1     -10.433  15.990  64.968  1.00  0.00    -0.558 OA 
HETATM    2  H   UNL     1      -9.973  16.803  64.802  1.00  0.00     0.000 HD 
HETATM    3  C   UNL     1     -11.656  15.956  64.236  1.00  0.00    -0.178 C  
ENDROOT
BRANCH   3   4
HETATM    4  C   UNL     1     -12.398  14.644  64.505  1.00  0.00    -0.398 C  
BRANCH   4   5
HETATM    5  N   UNL     1     -12.377  13.717  63.363  1.00  0.00    -1.100 NA 
HETATM    6  H   UNL     1     -11.860  14.110  62.576  1.00  0.00     0.000 HD 
BRANCH   5   7
HETATM    7  C   UNL     1     -11.856  12.396  63.738  1.00  0.00    -0.502 C  
BRANCH   7   8
HETATM    8  C   UNL     1     -10.325  12.423  63.819  1.00  0.00    -0.425 C  
BRANCH   8   9
HETATM    9  N   UNL     1      -9.880  12.572  65.193  1.00  0.00    -0.448 NA 
HETATM   10  H   UNL     1      -9.331  13.393  65.443  1.00  0.00     0.000 HD 
BRANCH   9  11
HETATM   11  C   UNL     1     -10.173  11.643  66.181  1.00  0.00    -0.226 A  
HETATM   12  C   UNL     1      -9.945  10.290  65.932  1.00  0.00    -0.321 A  
HETATM   13  C   UNL     1     -10.253   9.325  66.875  1.00  0.00    -0.327 A  
HETATM   14  C   UNL     1     -10.881   9.656  68.077  1.00  0.00    -0.196 A  
HETATM   15  H   UNL     1     -13.580  12.562  72.830  1.00  0.00     0.000 HD 
HETATM   16  C   UNL     1     -11.150  11.025  68.339  1.00  0.00    -0.308 A  
HETATM   17  C   UNL     1     -10.749  12.016  67.424  1.00  0.00    -0.266 A  
HETATM   18  C   UNL     1     -12.496  15.554  70.552  1.00  0.00    -0.472 A  
HETATM   19  O   UNL     1     -12.321  10.598  70.362  1.00  0.00    -0.302 OA 
HETATM   20  C   UNL     1     -11.869  15.207  69.353  1.00  0.00    -0.330 A  
HETATM   21  C   UNL     1     -10.878  13.458  67.793  1.00  0.00    -0.252 C  
HETATM   22  O   UNL     1     -10.292  14.308  67.130  1.00  0.00    -0.259 OA 
HETATM   23  C   UNL     1     -12.908  14.559  71.425  1.00  0.00    -0.406 A  
HETATM   24  C   UNL     1     -11.620  13.853  69.018  1.00  0.00    -0.351 A  
HETATM   25  O   UNL     1     -13.150  12.317  72.019  1.00  0.00    -0.435 OA 
HETATM   26  H   UNL     1     -11.651  17.124  68.742  1.00  0.00     0.000 HD 
HETATM   27  C   UNL     1     -12.061  12.860  69.893  1.00  0.00    -0.335 A  
HETATM   28  O   UNL     1     -11.485  16.216  68.517  1.00  0.00    -0.376 OA 
HETATM   29  C   UNL     1     -12.699  13.223  71.097  1.00  0.00    -0.320 A  
HETATM   30  C   UNL     1     -11.853  11.433  69.585  1.00  0.00    -0.362 C  
BRANCH  14  31
HETATM   31  N   UNL     1     -11.120   8.651  68.998  1.00  0.00    -0.421 NA 
HETATM   32  H   UNL     1     -11.771   8.835  69.761  1.00  0.00     0.000 HD 
BRANCH  31  33
HETATM   33  C   UNL     1     -10.485   7.343  68.926  1.00  0.00    -0.203 C  
BRANCH  33  34
HETATM   34  C   UNL     1     -11.351   6.278  69.619  1.00  0.00    -0.422 C  
BRANCH  34  35
HETATM   35  N   UNL     1     -10.850   5.976  70.968  1.00  0.00    -0.270 NA 
HETATM   36  H   UNL     1      -9.860   6.204  71.066  1.00  0.00     0.000 HD 
BRANCH  35  37
HETATM   37  C   UNL     1     -11.670   6.652  71.982  1.00  0.00    -0.313 C  
BRANCH  37  38
HETATM   38  C   UNL     1     -10.825   7.651  72.777  1.00  0.00    -0.360 C  
HETATM   39  O   UNL     1     -10.809   8.919  72.125  1.00  0.00    -0.355 OA 
HETATM   40  H   UNL     1     -10.284   9.539  72.618  1.00  0.00     0.000 HD 
ENDBRANCH  37  38
ENDBRANCH  35  37
ENDBRANCH  34  35
ENDBRANCH  33  34
ENDBRANCH  31  33
ENDBRANCH  14  31
ENDBRANCH   9  11
ENDBRANCH   8   9
ENDBRANCH   7   8
ENDBRANCH   5   7
ENDBRANCH   4   5
ENDBRANCH   3   4
TORSDOF 12
ENDMDL
MODEL        5
REMARK 921   NORMALIZED FREE ENERGY PREDICTED BY IDOCK:   -6.69 KCAL/MOL
REMARK 922        TOTAL FREE ENERGY PREDICTED BY IDOCK:  -13.64 KCAL/MOL
REMARK 923 INTER-LIGAND FREE ENERGY PREDICTED BY IDOCK:  -11.65 KCAL/MOL
REMARK 924 INTRA-LIGAND FREE ENERGY PREDICTED BY IDOCK:   -1.99 KCAL/MOL
REMARK 927      BINDING AFFINITY PREDICTED BY RF-SCORE:    0.00 PKD
ROOT
HETATM    1  O   UNL     1     -10.805  11.230  62.837  1.00  0.00    -0.781 OA 
HETATM    2  H   UNL     1     -10.682  10.293  62.932  1.00  0.00     0.000 HD 
HETATM    3  C   UNL     1     -11.950  11.654  63.571  1.00  0.00    -0.254 C  
ENDROOT
BRANCH   3   4
HETATM    4  C   UNL     1     -12.147  13.165  63.418  1.00  0.00    -0.486 C  
BRANCH   4   5
HETATM    5  N   UNL     1     -12.723  13.803  64.612  1.00  0.00    -0.670 NA 
HETATM    6  H   UNL     1     -12.977  13.110  65.316  1.00  0.00     0.000 HD 
BRANCH   5   7
HETATM    7  C   UNL     1     -11.833  14.829  65.169  1.00  0.00    -0.313 C  
BRANCH   7   8
HETATM    8  C   UNL     1     -10.367  14.392  65.055  1.00  0.00    -0.421 C  
BRANCH   8   9
HETATM    9  N   UNL     1      -9.846  13.984  66.348  1.00  0.00    -0.287 NA 
HETATM   10  H   UNL     1      -9.266  14.640  66.870  1.00  0.00     0.000 HD 
BRANCH   9  11
HETATM   11  C   UNL     1     -10.106  12.740  66.903  1.00  0.00    -0.232 A  
HETATM   12  C   UNL     1      -9.733  11.592  66.205  1.00  0.00    -0.249 A  
HETATM   13  C   UNL     1     -10.002  10.329  66.704  1.00  0.00    -0.270 A  
HETATM   14  C   UNL     1     -10.729  10.152  67.883  1.00  0.00    -0.269 A  
HETATM   15  H   UNL     1     -13.973  10.916  73.099  1.00  0.00     0.000 HD 
HETATM   16  C   UNL     1     -11.144  11.307  68.595  1.00  0.00    -0.286 A  
HETATM   17  C   UNL     1     -10.787  12.590  68.140  1.00  0.00    -0.248 A  
HETATM   18  C   UNL     1     -13.050  14.603  72.162  1.00  0.00    -0.430 A  
HETATM   19  O   UNL     1     -12.386  10.088  70.213  1.00  0.00    -0.190 OA 
HETATM   20  C   UNL     1     -12.323  14.764  70.980  1.00  0.00    -0.330 A  
HETATM   21  C   UNL     1     -11.077  13.783  68.991  1.00  0.00    -0.259 C  
HETATM   22  O   UNL     1     -10.538  14.855  68.735  1.00  0.00    -0.232 OA 
HETATM   23  C   UNL     1     -13.416  13.331  72.576  1.00  0.00    -0.620 A  
HETATM   24  C   UNL     1     -11.925  13.648  70.203  1.00  0.00    -0.407 A  
HETATM   25  O   UNL     1     -13.474  11.017  72.296  1.00  0.00    -0.328 OA 
HETATM   26  H   UNL     1     -12.257  16.782  71.124  1.00  0.00     0.000 HD 
HETATM   27  C   UNL     1     -12.319  12.376  70.617  1.00  0.00    -0.367 A  
HETATM   28  O   UNL     1     -11.990  16.033  70.604  1.00  0.00    -0.366 OA 
HETATM   29  C   UNL     1     -13.059  12.227  71.808  1.00  0.00    -0.344 A  
HETATM   30  C   UNL     1     -11.956  11.179  69.836  1.00  0.00    -0.363 C  
BRANCH  14  31
HETATM   31  N   UNL     1     -10.924   8.865  68.353  1.00  0.00    -0.457 NA 
HETATM   32  H   UNL     1     -11.879   8.522  68.450  1.00  0.00     0.000 HD 
BRANCH  31  33
HETATM   33  C   UNL     1      -9.826   7.979  68.713  1.00  0.00    -0.172 C  
BRANCH  33  34
HETATM   34  C   UNL     1     -10.205   7.107  69.923  1.00  0.00    -0.207 C  
BRANCH  34  35
HETATM   35  N   UNL     1     -11.630   7.246  70.257  1.00  0.00    -0.482 NA 
HETATM   36  H   UNL     1     -12.231   6.853  69.533  1.00  0.00     0.000 HD 
BRANCH  35  37
HETATM   37  C   UNL     1     -11.906   6.660  71.575  1.00  0.00    -0.337 C  
BRANCH  37  38
HETATM   38  C   UNL     1     -11.534   7.641  72.689  1.00  0.00    -0.349 C  
HETATM   39  O   UNL     1     -12.623   8.521  72.961  1.00  0.00    -0.647 OA 
HETATM   40  H   UNL     1     -12.392   9.131  73.652  1.00  0.00     0.000 HD 
ENDBRANCH  37  38
ENDBRANCH  35  37
ENDBRANCH  34  35
ENDBRANCH  33  34
ENDBRANCH  31  33
ENDBRANCH  14  31
ENDBRANCH   9  11
ENDBRANCH   8   9
ENDBRANCH   7   8
ENDBRANCH   5   7
ENDBRANCH   4   5
ENDBRANCH   3   4
TORSDOF 12
ENDMDL
MODEL        6
REMARK 921   NORMALIZED FREE ENERGY PREDICTED BY IDOCK:   -6.64 KCAL/MOL
REMARK 922        TOTAL FREE ENERGY PREDICTED BY IDOCK:  -13.55 KCAL/MOL
REMARK 923 INTER-LIGAND FREE ENERGY PREDICTED BY IDOCK:  -11.66 KCAL/MOL
REMARK 924 INTRA-LIGAND FREE ENERGY PREDICTED BY IDOCK:   -1.89 KCAL/MOL
REMARK 927      BINDING AFFINITY PREDICTED BY RF-SCORE:    0.00 PKD
ROOT
HETATM    1  O   UNL     1     -14.017   9.017  73.311  1.00  0.00    -1.205 OA 
HETATM    2  H   UNL     1     -14.308   9.892  73.537  1.00  0.00     0.000 HD 
HETATM    3  C   UNL     1     -14.390   8.706  71.970  1.00  0.00    -0.422 C  
ENDROOT
BRANCH   3   4
HETATM    4  C   UNL     1     -13.921   7.295  71.604  1.00  0.00    -0.363 C  
BRANCH   4   5
HETATM    5  N   UNL     1     -12.766   7.281  70.695  1.00  0.00    -0.600 NA 
HETATM    6  H   UNL     1     -12.797   8.067  70.044  1.00  0.00     0.000 HD 
BRANCH   5   7
HETATM    7  C   UNL     1     -11.492   7.243  71.426  1.00  0.00    -0.266 C  
BRANCH   7   8
HETATM    8  C   UNL     1     -10.649   8.483  71.105  1.00  0.00    -0.220 C  
BRANCH   8   9
HETATM    9  N   UNL     1     -11.032   9.054  69.826  1.00  0.00    -0.351 NA 
HETATM   10  H   UNL     1     -11.047   8.448  69.006  1.00  0.00     0.000 HD 
BRANCH   9  11
HETATM   11  C   UNL     1     -11.378  10.388  69.673  1.00  0.00    -0.272 A  
HETATM   12  C   UNL     1     -11.923  11.078  70.755  1.00  0.00    -0.436 A  
HETATM   13  C   UNL     1     -12.315  12.401  70.638  1.00  0.00    -0.367 A  
HETATM   14  C   UNL     1     -12.260  13.071  69.415  1.00  0.00    -0.113 A  
HETATM   15  H   UNL     1     -11.450  14.690  63.496  1.00  0.00     0.000 HD 
HETATM   16  C   UNL     1     -11.735  12.379  68.293  1.00  0.00    -0.398 A  
HETATM   17  C   UNL     1     -11.246  11.066  68.433  1.00  0.00    -0.337 A  
HETATM   18  C   UNL     1      -9.913  11.091  63.577  1.00  0.00    -0.421 A  
HETATM   19  O   UNL     1     -12.204  14.132  66.760  1.00  0.00    -0.447 OA 
HETATM   20  C   UNL     1      -9.977  10.432  64.807  1.00  0.00    -0.339 A  
HETATM   21  C   UNL     1     -10.537  10.417  67.289  1.00  0.00    -0.267 C  
HETATM   22  O   UNL     1      -9.880   9.399  67.483  1.00  0.00    -0.157 OA 
HETATM   23  C   UNL     1     -10.427  12.374  63.456  1.00  0.00    -0.430 A  
HETATM   24  C   UNL     1     -10.535  11.059  65.949  1.00  0.00    -0.300 A  
HETATM   25  O   UNL     1     -11.493  14.251  64.337  1.00  0.00    -0.366 OA 
HETATM   26  H   UNL     1      -9.091   8.749  64.117  1.00  0.00     0.000 HD 
HETATM   27  C   UNL     1     -11.071  12.339  65.809  1.00  0.00    -0.362 A  
HETATM   28  O   UNL     1      -9.466   9.169  64.882  1.00  0.00    -0.113 OA 
HETATM   29  C   UNL     1     -11.007  12.990  64.561  1.00  0.00    -0.358 A  
HETATM   30  C   UNL     1     -11.688  13.030  66.956  1.00  0.00    -0.383 C  
BRANCH  14  31
HETATM   31  N   UNL     1     -12.622  14.406  69.376  1.00  0.00    -0.532 NA 
HETATM   32  H   UNL     1     -13.195  14.732  68.598  1.00  0.00     0.000 HD 
BRANCH  31  33
HETATM   33  C   UNL     1     -12.223  15.367  70.395  1.00  0.00    -0.391 C  
BRANCH  33  34
HETATM   34  C   UNL     1     -11.092  16.272  69.877  1.00  0.00    -0.347 C  
BRANCH  34  35
HETATM   35  N   UNL     1     -11.333  16.687  68.488  1.00  0.00    -0.252 NA 
HETATM   36  H   UNL     1     -11.996  17.460  68.432  1.00  0.00     0.000 HD 
BRANCH  35  37
HETATM   37  C   UNL     1     -10.063  17.006  67.822  1.00  0.00    -0.302 C  
BRANCH  37  38
HETATM   38  C   UNL     1      -9.413  15.736  67.267  1.00  0.00    -0.212 C  
HETATM   39  O   UNL     1      -9.440  15.746  65.842  1.00  0.00    -0.331 OA 
HETATM   40  H   UNL     1      -9.037  14.958  65.497  1.00  0.00     0.000 HD 
ENDBRANCH  37  38
ENDBRANCH  35  37
ENDBRANCH  34  35
ENDBRANCH  33  34
ENDBRANCH  31  33
ENDBRANCH  14  31
ENDBRANCH   9  11
ENDBRANCH   8   9
ENDBRANCH   7   8
ENDBRANCH   5   7
ENDBRANCH   4   5
ENDBRANCH   3   4
TORSDOF 12
ENDMDL
MODEL        7
REMARK 921   NORMALIZED FREE ENERGY PREDICTED BY IDOCK:   -6.54 KCAL/MOL
REMARK 922        TOTAL FREE ENERGY PREDICTED BY IDOCK:  -13.39 KCAL/MOL
REMARK 923 INTER-LIGAND FREE ENERGY PREDICTED BY IDOCK:  -10.93 KCAL/MOL
REMARK 924 INTRA-LIGAND FREE ENERGY PREDICTED BY IDOCK:   -2.45 KCAL/MOL
REMARK 927      BINDING AFFINITY PREDICTED BY RF-SCORE:    0.00 PKD
ROOT
HETATM    1  O   UNL     1     -12.784   8.569  72.769  1.00  0.00    -0.598 OA 
HETATM    2  H   UNL     1     -12.401   9.062  73.484  1.00  0.00     0.000 HD 
HETATM    3  C   UNL     1     -11.832   7.651  72.237  1.00  0.00    -0.308 C  
ENDROOT
BRANCH   3   4
HETATM    4  C   UNL     1     -12.451   6.856  71.084  1.00  0.00    -0.349 C  
BRANCH   4   5
HETATM    5  N   UNL     1     -11.727   7.010  69.813  1.00  0.00    -0.580 NA 
HETATM    6  H   UNL     1     -12.130   7.756  69.245  1.00  0.00     0.000 HD 
BRANCH   5   7
HETATM    7  C   UNL     1     -10.287   7.217  70.023  1.00  0.00    -0.208 C  
BRANCH   7   8
HETATM    8  C   UNL     1      -9.746   8.269  69.047  1.00  0.00    -0.167 C  
BRANCH   8   9
HETATM    9  N   UNL     1     -10.830   9.023  68.444  1.00  0.00    -0.443 NA 
HETATM   10  H   UNL     1     -11.764   8.613  68.434  1.00  0.00     0.000 HD 
BRANCH   9  11
HETATM   11  C   UNL     1     -10.649  10.278  67.881  1.00  0.00    -0.239 A  
HETATM   12  C   UNL     1      -9.959  10.390  66.675  1.00  0.00    -0.262 A  
HETATM   13  C   UNL     1      -9.726  11.625  66.094  1.00  0.00    -0.253 A  
HETATM   14  C   UNL     1     -10.097  12.811  66.730  1.00  0.00    -0.236 A  
HETATM   15  H   UNL     1     -12.262  17.094  70.638  1.00  0.00     0.000 HD 
HETATM   16  C   UNL     1     -10.775  12.721  67.974  1.00  0.00    -0.246 A  
HETATM   17  C   UNL     1     -11.099  11.465  68.518  1.00  0.00    -0.287 A  
HETATM   18  C   UNL     1     -13.405  13.768  72.357  1.00  0.00    -0.635 A  
HETATM   19  O   UNL     1     -10.800  15.069  68.338  1.00  0.00    -0.243 OA 
HETATM   20  C   UNL     1     -13.026  12.590  71.708  1.00  0.00    -0.313 A  
HETATM   21  C   UNL     1     -11.965  11.387  69.733  1.00  0.00    -0.353 C  
HETATM   22  O   UNL     1     -12.469  10.314  70.051  1.00  0.00    -0.183 OA 
HETATM   23  C   UNL     1     -13.049  14.995  71.816  1.00  0.00    -0.442 A  
HETATM   24  C   UNL     1     -12.304  12.620  70.489  1.00  0.00    -0.350 A  
HETATM   25  O   UNL     1     -12.005  16.298  70.189  1.00  0.00    -0.148 OA 
HETATM   26  H   UNL     1     -13.873  11.383  73.094  1.00  0.00     0.000 HD 
HETATM   27  C   UNL     1     -11.932  13.859  69.968  1.00  0.00    -0.404 A  
HETATM   28  O   UNL     1     -13.389  11.403  72.277  1.00  0.00    -0.410 OA 
HETATM   29  C   UNL     1     -12.314  15.041  70.636  1.00  0.00    -0.348 A  
HETATM   30  C   UNL     1     -11.159  13.952  68.716  1.00  0.00    -0.265 C  
BRANCH  14  31
HETATM   31  N   UNL     1      -9.877  14.009  66.075  1.00  0.00    -0.359 NA 
HETATM   32  H   UNL     1      -9.195  14.660  66.465  1.00  0.00     0.000 HD 
BRANCH  31  33
HETATM   33  C   UNL     1     -10.576  14.385  64.854  1.00  0.00    -0.434 C  
BRANCH  33  34
HETATM   34  C   UNL     1     -10.868  15.895  64.835  1.00  0.00    -0.400 C  
BRANCH  34  35
HETATM   35  N   UNL     1     -10.005  16.618  65.781  1.00  0.00    -0.527 NA 
HETATM   36  H   UNL     1      -9.020  16.557  65.521  1.00  0.00     0.000 HD 
BRANCH  35  37
HETATM   37  C   UNL     1     -10.450  18.011  65.917  1.00  0.00    -0.264 C  
BRANCH  37  38
HETATM   38  C   UNL     1      -9.979  18.598  67.250  1.00  0.00    -0.329 C  
HETATM   39  O   UNL     1     -10.615  17.933  68.339  1.00  0.00    -0.349 OA 
HETATM   40  H   UNL     1     -10.324  18.298  69.166  1.00  0.00     0.000 HD 
ENDBRANCH  37  38
ENDBRANCH  35  37
ENDBRANCH  34  35
ENDBRANCH  33  34
ENDBRANCH  31  33
ENDBRANCH  14  31
ENDBRANCH   9  11
ENDBRANCH   8   9
ENDBRANCH   7   8
ENDBRANCH   5   7
ENDBRANCH   4   5
ENDBRANCH   3   4
TORSDOF 12
ENDMDL
MODEL        8
REMARK 921   NORMALIZED FREE ENERGY PREDICTED BY IDOCK:   -6.40 KCAL/MOL
REMARK 922        TOTAL FREE ENERGY PREDICTED BY IDOCK:  -13.15 KCAL/MOL
REMARK 923 INTER-LIGAND FREE ENERGY PREDICTED BY IDOCK:  -11.86 KCAL/MOL
REMARK 924 INTRA-LIGAND FREE ENERGY PREDICTED BY IDOCK:   -1.28 KCAL/MOL
REMARK 927      BINDING AFFINITY PREDICTED BY RF-SCORE:    0.00 PKD
ROOT
HETATM    1  O   UNL     1      -6.788  20.950  65.264  1.00  0.00    -0.510 OA 
HETATM    2  H   UNL     1      -6.150  20.802  64.576  1.00  0.00     0.000 HD 
HETATM    3  C   UNL     1      -7.330  19.709  65.709  1.00  0.00    -0.304 C  
ENDROOT
BRANCH   3   4
HETATM    4  C   UNL     1      -8.358  19.948  66.819  1.00  0.00    -0.322 C  
BRANCH   4   5
HETATM    5  N   UNL     1      -9.705  20.250  66.313  1.00  0.00    -0.630 NA 
HETATM    6  H   UNL     1      -9.753  20.141  65.299  1.00  0.00     0.000 HD 
BRANCH   5   7
HETATM    7  C   UNL     1     -10.736  19.448  66.985  1.00  0.00    -0.474 C  
BRANCH   7   8
HETATM    8  C   UNL     1     -10.108  18.232  67.677  1.00  0.00    -0.356 C  
BRANCH   8   9
HETATM    9  N   UNL     1     -11.025  17.106  67.679  1.00  0.00    -0.229 NA 
HETATM   10  H   UNL     1     -12.014  17.282  67.853  1.00  0.00     0.000 HD 
BRANCH   9  11
HETATM   11  C   UNL     1     -10.611  15.802  67.455  1.00  0.00    -0.313 A  
HETATM   12  C   UNL     1      -9.821  15.520  66.341  1.00  0.00    -0.298 A  
HETATM   13  C   UNL     1      -9.414  14.228  66.058  1.00  0.00    -0.213 A  
HETATM   14  C   UNL     1      -9.844  13.144  66.826  1.00  0.00    -0.251 A  
HETATM   15  H   UNL     1     -12.492   9.447  71.025  1.00  0.00     0.000 HD 
HETATM   16  C   UNL     1     -10.672  13.405  67.949  1.00  0.00    -0.259 A  
HETATM   17  C   UNL     1     -11.008  14.727  68.294  1.00  0.00    -0.264 A  
HETATM   18  C   UNL     1     -13.507  13.003  72.310  1.00  0.00    -0.645 A  
HETATM   19  O   UNL     1     -11.020  11.109  68.456  1.00  0.00    -0.187 OA 
HETATM   20  C   UNL     1     -13.070  14.076  71.531  1.00  0.00    -0.363 A  
HETATM   21  C   UNL     1     -11.729  14.996  69.574  1.00  0.00    -0.322 C  
HETATM   22  O   UNL     1     -11.785  16.142  70.009  1.00  0.00    -0.307 OA 
HETATM   23  C   UNL     1     -13.188  11.706  71.935  1.00  0.00    -0.475 A  
HETATM   24  C   UNL     1     -12.281  13.871  70.372  1.00  0.00    -0.438 A  
HETATM   25  O   UNL     1     -12.187  10.172  70.492  1.00  0.00    -0.280 OA 
HETATM   26  H   UNL     1     -13.940  15.474  72.708  1.00  0.00     0.000 HD 
HETATM   27  C   UNL     1     -11.988  12.561  69.991  1.00  0.00    -0.372 A  
HETATM   28  O   UNL     1     -13.411  15.336  71.931  1.00  0.00    -0.378 OA 
HETATM   29  C   UNL     1     -12.441  11.486  70.782  1.00  0.00    -0.349 A  
HETATM   30  C   UNL     1     -11.193  12.286  68.780  1.00  0.00    -0.265 C  
BRANCH  14  31
HETATM   31  N   UNL     1      -9.362  11.884  66.520  1.00  0.00    -0.211 NA 
HETATM   32  H   UNL     1      -9.079  11.271  67.285  1.00  0.00     0.000 HD 
BRANCH  31  33
HETATM   33  C   UNL     1      -9.241  11.391  65.155  1.00  0.00    -0.103 C  
BRANCH  33  34
HETATM   34  C   UNL     1     -10.628  11.110  64.553  1.00  0.00    -0.328 C  
BRANCH  34  35
HETATM   35  N   UNL     1     -10.824  11.845  63.294  1.00  0.00    -0.657 NA 
HETATM   36  H   UNL     1     -10.912  11.215  62.496  1.00  0.00     0.000 HD 
BRANCH  35  37
HETATM   37  C   UNL     1     -11.974  12.751  63.405  1.00  0.00    -0.535 C  
BRANCH  37  38
HETATM   38  C   UNL     1     -12.620  12.633  64.788  1.00  0.00    -0.454 C  
HETATM   39  O   UNL     1     -13.243  13.863  65.153  1.00  0.00    -0.768 OA 
HETATM   40  H   UNL     1     -13.643  13.790  66.011  1.00  0.00     0.000 HD 
ENDBRANCH  37  38
ENDBRANCH  35  37
ENDBRANCH  34  35
ENDBRANCH  33  34
ENDBRANCH  31  33
ENDBRANCH  14  31
ENDBRANCH   9  11
ENDBRANCH   8   9
ENDBRANCH   7   8
ENDBRANCH   5   7
ENDBRANCH   4   5
ENDBRANCH   3   4
TORSDOF 12
ENDMDL
MODEL        9
REMARK 921   NORMALIZED FREE ENERGY PREDICTED BY IDOCK:   -6.38 KCAL/MOL
REMARK 922        TOTAL FREE ENERGY PREDICTED BY IDOCK:  -13.11 KCAL/MOL
REMARK 923 INTER-LIGAND FREE ENERGY PREDICTED BY IDOCK:  -11.15 KCAL/MOL
REMARK 924 INTRA-LIGAND FREE ENERGY PREDICTED BY IDOCK:   -1.96 KCAL/MOL
REMARK 927      BINDING AFFINITY PREDICTED BY RF-SCORE:    0.00 PKD
ROOT
HETATM    1  O   UNL     1     -13.859  13.444  72.707  1.00  0.00    -0.720 OA 
HETATM    2  H   UNL     1     -14.790  13.274  72.628  1.00  0.00     0.000 HD 
HETATM    3  C   UNL     1     -13.618  14.848  72.745  1.00  0.00    -0.435 C  
ENDROOT
BRANCH   3   4
HETATM    4  C   UNL     1     -12.117  15.124  72.874  1.00  0.00    -0.372 C  
BRANCH   4   5
HETATM    5  N   UNL     1     -11.482  15.510  71.605  1.00  0.00    -0.406 NA 
HETATM    6  H   UNL     1     -10.886  14.764  71.246  1.00  0.00     0.000 HD 
BRANCH   5   7
HETATM    7  C   UNL     1     -12.471  15.932  70.603  1.00  0.00    -0.234 C  
BRANCH   7   8
HETATM    8  C   UNL     1     -11.910  15.761  69.186  1.00  0.00    -0.354 C  
BRANCH   8   9
HETATM    9  N   UNL     1     -12.250  14.455  68.649  1.00  0.00    -0.575 NA 
HETATM   10  H   UNL     1     -13.218  14.141  68.705  1.00  0.00     0.000 HD 
BRANCH   9  11
HETATM   11  C   UNL     1     -11.312  13.618  68.062  1.00  0.00    -0.285 A  
HETATM   12  C   UNL     1     -10.592  14.071  66.958  1.00  0.00    -0.279 A  
HETATM   13  C   UNL     1      -9.671  13.259  66.319  1.00  0.00    -0.274 A  
HETATM   14  C   UNL     1      -9.486  11.929  66.700  1.00  0.00    -0.209 A  
HETATM   15  H   UNL     1      -9.751   6.384  69.438  1.00  0.00     0.000 HD 
HETATM   16  C   UNL     1     -10.231  11.437  67.804  1.00  0.00    -0.202 A  
HETATM   17  C   UNL     1     -11.095  12.290  68.514  1.00  0.00    -0.290 A  
HETATM   18  C   UNL     1     -12.142   8.521  71.684  1.00  0.00    -0.373 A  
HETATM   19  O   UNL     1      -9.448   9.205  67.573  1.00  0.00    -0.136 OA 
HETATM   20  C   UNL     1     -12.317   9.849  71.290  1.00  0.00    -0.381 A  
HETATM   21  C   UNL     1     -11.734  11.809  69.776  1.00  0.00    -0.335 C  
HETATM   22  O   UNL     1     -12.262  12.617  70.534  1.00  0.00    -0.365 OA 
HETATM   23  C   UNL     1     -11.307   7.690  70.951  1.00  0.00    -0.291 A  
HETATM   24  C   UNL     1     -11.636  10.379  70.166  1.00  0.00    -0.392 A  
HETATM   25  O   UNL     1      -9.861   7.288  69.166  1.00  0.00    -0.162 OA 
HETATM   26  H   UNL     1     -13.609  10.276  72.788  1.00  0.00     0.000 HD 
HETATM   27  C   UNL     1     -10.818   9.528  69.423  1.00  0.00    -0.226 A  
HETATM   28  O   UNL     1     -13.153  10.631  72.034  1.00  0.00    -0.481 OA 
HETATM   29  C   UNL     1     -10.655   8.187  69.827  1.00  0.00    -0.231 A  
HETATM   30  C   UNL     1     -10.104  10.017  68.229  1.00  0.00    -0.158 C  
BRANCH  14  31
HETATM   31  N   UNL     1      -8.517  11.184  66.052  1.00  0.00    -0.244 NA 
HETATM   32  H   UNL     1      -7.708  10.866  66.587  1.00  0.00     0.000 HD 
BRANCH  31  33
HETATM   33  C   UNL     1      -8.598  10.832  64.641  1.00  0.00    -0.060 C  
BRANCH  33  34
HETATM   34  C   UNL     1      -9.999  10.304  64.291  1.00  0.00    -0.223 C  
BRANCH  34  35
HETATM   35  N   UNL     1     -10.500  10.900  63.044  1.00  0.00    -0.769 NA 
HETATM   36  H   UNL     1     -11.107  10.259  62.532  1.00  0.00     0.000 HD 
BRANCH  35  37
HETATM   37  C   UNL     1     -11.164  12.180  63.319  1.00  0.00    -0.328 C  
BRANCH  37  38
HETATM   38  C   UNL     1     -12.660  11.968  63.566  1.00  0.00    -0.507 C  
HETATM   39  O   UNL     1     -13.062  12.614  64.771  1.00  0.00    -0.852 OA 
HETATM   40  H   UNL     1     -13.990  12.482  64.925  1.00  0.00     0.000 HD 
ENDBRANCH  37  38
ENDBRANCH  35  37
ENDBRANCH  34  35
ENDBRANCH  33  34
ENDBRANCH  31  33
ENDBRANCH  14  31
ENDBRANCH   9  11
ENDBRANCH   8   9
ENDBRANCH   7   8
ENDBRANCH   5   7
ENDBRANCH   4   5
ENDBRANCH   3   4
TORSDOF 12
ENDMDL
MODEL       10
REMARK 921   NORMALIZED FREE ENERGY PREDICTED BY IDOCK:   -6.31 KCAL/MOL
REMARK 922        TOTAL FREE ENERGY PREDICTED BY IDOCK:  -13.00 KCAL/MOL
REMARK 923 INTER-LIGAND FREE ENERGY PREDICTED BY IDOCK:  -11.45 KCAL/MOL
REMARK 924 INTRA-LIGAND FREE ENERGY PREDICTED BY IDOCK:   -1.55 KCAL/MOL
REMARK 927      BINDING AFFINITY PREDICTED BY RF-SCORE:    0.00 PKD
ROOT
HETATM    1  O   UNL     1     -14.230   8.001  70.959  1.00  0.00    -0.649 OA 
HETATM    2  H   UNL     1     -15.041   8.221  71.402  1.00  0.00     0.000 HD 
HETATM    3  C   UNL     1     -13.435   7.152  71.783  1.00  0.00    -0.273 C  
ENDROOT
BRANCH   3   4
HETATM    4  C   UNL     1     -12.127   6.796  71.070  1.00  0.00    -0.372 C  
BRANCH   4   5
HETATM    5  N   UNL     1     -11.837   7.661  69.917  1.00  0.00    -0.305 NA 
HETATM    6  H   UNL     1     -11.908   8.648  70.166  1.00  0.00     0.000 HD 
BRANCH   5   7
HETATM    7  C   UNL     1     -10.532   7.354  69.316  1.00  0.00    -0.220 C  
BRANCH   7   8
HETATM    8  C   UNL     1     -10.122   8.453  68.327  1.00  0.00    -0.199 C  
BRANCH   8   9
HETATM    9  N   UNL     1     -11.196   9.412  68.143  1.00  0.00    -0.497 NA 
HETATM   10  H   UNL     1     -12.156   9.107  68.305  1.00  0.00     0.000 HD 
BRANCH   9  11
HETATM   11  C   UNL     1     -10.973  10.725  67.756  1.00  0.00    -0.297 A  
HETATM   12  C   UNL     1     -10.333  10.978  66.544  1.00  0.00    -0.295 A  
HETATM   13  C   UNL     1     -10.059  12.271  66.133  1.00  0.00    -0.265 A  
HETATM   14  C   UNL     1     -10.335  13.369  66.951  1.00  0.00    -0.257 A  
HETATM   15  H   UNL     1     -12.085  17.138  71.538  1.00  0.00     0.000 HD 
HETATM   16  C   UNL     1     -10.960  13.132  68.203  1.00  0.00    -0.275 A  
HETATM   17  C   UNL     1     -11.327  11.827  68.579  1.00  0.00    -0.328 A  
HETATM   18  C   UNL     1     -13.329  13.656  72.822  1.00  0.00    -0.465 A  
HETATM   19  O   UNL     1     -10.841  15.401  68.899  1.00  0.00    -0.231 OA 
HETATM   20  C   UNL     1     -13.045  12.568  71.993  1.00  0.00    -0.366 A  
HETATM   21  C   UNL     1     -12.141  11.615  69.814  1.00  0.00    -0.289 C  
HETATM   22  O   UNL     1     -12.689  10.533  70.001  1.00  0.00    -0.256 OA 
HETATM   23  C   UNL     1     -12.932  14.930  72.444  1.00  0.00    -0.439 A  
HETATM   24  C   UNL     1     -12.378  12.740  70.755  1.00  0.00    -0.375 A  
HETATM   25  O   UNL     1     -11.892  16.404  70.966  1.00  0.00    -0.298 OA 
HETATM   26  H   UNL     1     -13.893  11.214  73.235  1.00  0.00     0.000 HD 
HETATM   27  C   UNL     1     -11.962  14.023  70.397  1.00  0.00    -0.398 A  
HETATM   28  O   UNL     1     -13.447  11.330  72.405  1.00  0.00    -0.223 OA 
HETATM   29  C   UNL     1     -12.249  15.112  71.245  1.00  0.00    -0.333 A  
HETATM   30  C   UNL     1     -11.242  14.259  69.132  1.00  0.00    -0.270 C  
BRANCH  14  31
HETATM   31  N   UNL     1     -10.080  14.638  66.463  1.00  0.00    -0.270 NA 
HETATM   32  H   UNL     1      -9.822  15.371  67.124  1.00  0.00     0.000 HD 
BRANCH  31  33
HETATM   33  C   UNL     1     -10.162  14.975  65.049  1.00  0.00    -0.314 C  
BRANCH  33  34
HETATM   34  C   UNL     1     -11.407  15.832  64.765  1.00  0.00    -0.314 C  
BRANCH  34  35
HETATM   35  N   UNL     1     -12.376  15.108  63.929  1.00  0.00    -1.038 NA 
HETATM   36  H   UNL     1     -12.704  15.676  63.147  1.00  0.00     0.000 HD 
BRANCH  35  37
HETATM   37  C   UNL     1     -11.809  13.831  63.478  1.00  0.00    -0.058 C  
BRANCH  37  38
HETATM   38  C   UNL     1     -12.660  12.659  63.973  1.00  0.00    -0.338 C  
HETATM   39  O   UNL     1     -12.420  11.499  63.179  1.00  0.00    -0.936 OA 
HETATM   40  H   UNL     1     -12.949  10.772  63.485  1.00  0.00     0.000 HD 
ENDBRANCH  37  38
ENDBRANCH  35  37
ENDBRANCH  34  35
ENDBRANCH  33  34
ENDBRANCH  31  33
ENDBRANCH  14  31
ENDBRANCH   9  11
ENDBRANCH   8   9
ENDBRANCH   7   8
ENDBRANCH   5   7
ENDBRANCH   4   5
ENDBRANCH   3   4
TORSDOF 12
ENDMDL
MODEL       11
REMARK 921   NORMALIZED FREE ENERGY PREDICTED BY IDOCK:   -6.30 KCAL/MOL
REMARK 922        TOTAL FREE ENERGY PREDICTED BY IDOCK:  -12.98 KCAL/MOL
REMARK 923 INTER-LIGAND FREE ENERGY PREDICTED BY IDOCK:  -10.48 KCAL/MOL
REMARK 924 INTRA-LIGAND FREE ENERGY PREDICTED BY IDOCK:   -2.50 KCAL/MOL
REMARK 927      BINDING AFFINITY PREDICTED BY RF-SCORE:    0.00 PKD
ROOT
HETATM    1  O   UNL     1      -8.421   7.563  63.954  1.00  0.00    -0.367 OA 
HETATM    2  H   UNL     1      -8.216   7.786  63.054  1.00  0.00     0.000 HD 
HETATM    3  C   UNL     1      -8.179   6.178  64.186  1.00  0.00    -0.031 C  
ENDROOT
BRANCH   3   4
HETATM    4  C   UNL     1      -8.509   5.818  65.638  1.00  0.00    -0.149 C  
BRANCH   4   5
HETATM    5  N   UNL     1      -9.795   6.365  66.097  1.00  0.00    -0.395 NA 
HETATM    6  H   UNL     1     -10.433   6.517  65.316  1.00  0.00     0.000 HD 
BRANCH   5   7
HETATM    7  C   UNL     1     -10.410   5.524  67.133  1.00  0.00    -0.248 C  
BRANCH   7   8
HETATM    8  C   UNL     1     -10.987   6.392  68.259  1.00  0.00    -0.312 C  
BRANCH   8   9
HETATM    9  N   UNL     1     -10.145   7.549  68.505  1.00  0.00    -0.179 NA 
HETATM   10  H   UNL     1      -9.155   7.493  68.266  1.00  0.00     0.000 HD 
BRANCH   9  11
HETATM   11  C   UNL     1     -10.630   8.728  69.050  1.00  0.00    -0.171 A  
HETATM   12  C   UNL     1     -10.982   8.760  70.399  1.00  0.00    -0.262 A  
HETATM   13  C   UNL     1     -11.502   9.904  70.978  1.00  0.00    -0.466 A  
HETATM   14  C   UNL     1     -11.775  11.045  70.220  1.00  0.00    -0.355 A  
HETATM   15  H   UNL     1     -12.428  15.227  65.704  1.00  0.00     0.000 HD 
HETATM   16  C   UNL     1     -11.452  11.024  68.838  1.00  0.00    -0.364 A  
HETATM   17  C   UNL     1     -10.833   9.896  68.269  1.00  0.00    -0.275 A  
HETATM   18  C   UNL     1     -10.606  12.300  63.850  1.00  0.00    -0.462 A  
HETATM   19  O   UNL     1     -12.396  13.160  68.398  1.00  0.00    -0.122 OA 
HETATM   20  C   UNL     1     -10.341  11.166  64.621  1.00  0.00    -0.330 A  
HETATM   21  C   UNL     1     -10.339   9.957  66.860  1.00  0.00    -0.235 C  
HETATM   22  O   UNL     1      -9.570   9.092  66.450  1.00  0.00    -0.202 OA 
HETATM   23  C   UNL     1     -11.243  13.390  64.426  1.00  0.00    -0.408 A  
HETATM   24  C   UNL     1     -10.687  11.113  65.995  1.00  0.00    -0.272 A  
HETATM   25  O   UNL     1     -12.248  14.461  66.237  1.00  0.00    -0.412 OA 
HETATM   26  H   UNL     1      -9.487  10.148  63.095  1.00  0.00     0.000 HD 
HETATM   27  C   UNL     1     -11.349  12.205  66.556  1.00  0.00    -0.405 A  
HETATM   28  O   UNL     1      -9.719  10.113  64.016  1.00  0.00    -0.306 OA 
HETATM   29  C   UNL     1     -11.617  13.341  65.765  1.00  0.00    -0.337 A  
HETATM   30  C   UNL     1     -11.756  12.197  67.973  1.00  0.00    -0.344 C  
BRANCH  14  31
HETATM   31  N   UNL     1     -12.251  12.171  70.867  1.00  0.00    -0.407 NA 
HETATM   32  H   UNL     1     -11.919  13.086  70.560  1.00  0.00     0.000 HD 
BRANCH  31  33
HETATM   33  C   UNL     1     -13.203  12.111  71.967  1.00  0.00    -0.391 C  
BRANCH  33  34
HETATM   34  C   UNL     1     -13.828  13.493  72.222  1.00  0.00    -0.581 C  
BRANCH  34  35
HETATM   35  N   UNL     1     -13.557  14.416  71.111  1.00  0.00    -0.345 NA 
HETATM   36  H   UNL     1     -14.378  14.551  70.520  1.00  0.00     0.000 HD 
BRANCH  35  37
HETATM   37  C   UNL     1     -13.035  15.691  71.621  1.00  0.00    -0.476 C  
BRANCH  37  38
HETATM   38  C   UNL     1     -11.513  15.746  71.473  1.00  0.00    -0.429 C  
HETATM   39  O   UNL     1     -11.068  14.764  70.540  1.00  0.00    -0.440 OA 
HETATM   40  H   UNL     1     -10.123  14.797  70.448  1.00  0.00     0.000 HD 
ENDBRANCH  37  38
ENDBRANCH  35  37
ENDBRANCH  34  35
ENDBRANCH  33  34
ENDBRANCH  31  33
ENDBRANCH  14  31
ENDBRANCH   9  11
ENDBRANCH   8   9
ENDBRANCH   7   8
ENDBRANCH   5   7
ENDBRANCH   4   5
ENDBRANCH   3   4
TORSDOF 12
ENDMDL
MODEL       12
REMARK 921   NORMALIZED FREE ENERGY PREDICTED BY IDOCK:   -6.21 KCAL/MOL
REMARK 922        TOTAL FREE ENERGY PREDICTED BY IDOCK:  -12.84 KCAL/MOL
REMARK 923 INTER-LIGAND FREE ENERGY PREDICTED BY IDOCK:  -11.15 KCAL/MOL
REMARK 924 INTRA-LIGAND FREE ENERGY PREDICTED BY IDOCK:   -1.68 KCAL/MOL
REMARK 927      BINDING AFFINITY PREDICTED BY RF-SCORE:    0.00 PKD
ROOT
HETATM    1  O   UNL     1      -7.214  20.729  65.246  1.00  0.00    -0.520 OA 
HETATM    2  H   UNL     1      -6.415  20.618  64.745  1.00  0.00     0.000 HD 
HETATM    3  C   UNL     1      -7.147  19.975  66.454  1.00  0.00    -0.244 C  
ENDROOT
BRANCH   3   4
HETATM    4  C   UNL     1      -8.436  20.154  67.262  1.00  0.00    -0.342 C  
BRANCH   4   5
HETATM    5  N   UNL     1      -9.583  20.578  66.446  1.00  0.00    -0.654 NA 
HETATM    6  H   UNL     1      -9.321  20.684  65.465  1.00  0.00     0.000 HD 
BRANCH   5   7
HETATM    7  C   UNL     1     -10.730  19.673  66.598  1.00  0.00    -0.440 C  
BRANCH   7   8
HETATM    8  C   UNL     1     -10.359  18.253  66.150  1.00  0.00    -0.398 C  
BRANCH   8   9
HETATM    9  N   UNL     1     -10.703  17.281  67.172  1.00  0.00    -0.242 NA 
HETATM   10  H   UNL     1     -10.946  17.617  68.104  1.00  0.00     0.000 HD 
BRANCH   9  11
HETATM   11  C   UNL     1     -10.715  15.915  66.934  1.00  0.00    -0.289 A  
HETATM   12  C   UNL     1     -10.321  15.438  65.684  1.00  0.00    -0.395 A  
HETATM   13  C   UNL     1     -10.350  14.085  65.391  1.00  0.00    -0.377 A  
HETATM   14  C   UNL     1     -10.851  13.153  66.301  1.00  0.00    -0.279 A  
HETATM   15  H   UNL     1     -13.283  10.281  71.216  1.00  0.00     0.000 HD 
HETATM   16  C   UNL     1     -11.285  13.620  67.570  1.00  0.00    -0.316 A  
HETATM   17  C   UNL     1     -11.166  14.982  67.905  1.00  0.00    -0.330 A  
HETATM   18  C   UNL     1     -12.983  13.970  72.490  1.00  0.00    -0.480 A  
HETATM   19  O   UNL     1     -12.092  11.501  68.279  1.00  0.00    -0.580 OA 
HETATM   20  C   UNL     1     -12.481  14.891  71.568  1.00  0.00    -0.331 A  
HETATM   21  C   UNL     1     -11.459  15.427  69.300  1.00  0.00    -0.333 C  
HETATM   22  O   UNL     1     -11.104  16.543  69.668  1.00  0.00    -0.316 OA 
HETATM   23  C   UNL     1     -13.118  12.638  72.128  1.00  0.00    -0.438 A  
HETATM   24  C   UNL     1     -12.078  14.488  70.270  1.00  0.00    -0.386 A  
HETATM   25  O   UNL     1     -12.936  10.900  70.584  1.00  0.00    -0.292 OA 
HETATM   26  H   UNL     1     -12.640  16.464  72.831  1.00  0.00     0.000 HD 
HETATM   27  C   UNL     1     -12.242  13.150  69.910  1.00  0.00    -0.293 A  
HETATM   28  O   UNL     1     -12.370  16.193  71.962  1.00  0.00    -0.469 OA 
HETATM   29  C   UNL     1     -12.757  12.232  70.847  1.00  0.00    -0.187 A  
HETATM   30  C   UNL     1     -11.865  12.678  68.565  1.00  0.00    -0.300 C  
BRANCH  14  31
HETATM   31  N   UNL     1     -10.808  11.812  65.966  1.00  0.00    -0.287 NA 
HETATM   32  H   UNL     1     -11.670  11.268  66.022  1.00  0.00     0.000 HD 
BRANCH  31  33
HETATM   33  C   UNL     1      -9.590  11.140  65.536  1.00  0.00    -0.226 C  
BRANCH  33  34
HETATM   34  C   UNL     1      -9.692   9.623  65.768  1.00  0.00    -0.280 C  
BRANCH  34  35
HETATM   35  N   UNL     1     -10.515   9.317  66.947  1.00  0.00    -0.238 NA 
HETATM   36  H   UNL     1     -11.512   9.408  66.749  1.00  0.00     0.000 HD 
BRANCH  35  37
HETATM   37  C   UNL     1     -10.181   7.987  67.472  1.00  0.00    -0.245 C  
BRANCH  37  38
HETATM   38  C   UNL     1     -10.273   7.974  69.000  1.00  0.00    -0.210 C  
HETATM   39  O   UNL     1     -11.195   8.963  69.451  1.00  0.00    -0.437 OA 
HETATM   40  H   UNL     1     -11.252   8.956  70.400  1.00  0.00     0.000 HD 
ENDBRANCH  37  38
ENDBRANCH  35  37
ENDBRANCH  34  35
ENDBRANCH  33  34
ENDBRANCH  31  33
ENDBRANCH  14  31
ENDBRANCH   9  11
ENDBRANCH   8   9
ENDBRANCH   7   8
ENDBRANCH   5   7
ENDBRANCH   4   5
ENDBRANCH   3   4
TORSDOF 12
ENDMDL
MODEL       13
REMARK 921   NORMALIZED FREE ENERGY PREDICTED BY IDOCK:   -6.21 KCAL/MOL
REMARK 922        TOTAL FREE ENERGY PREDICTED BY IDOCK:  -12.82 KCAL/MOL
REMARK 923 INTER-LIGAND FREE ENERGY PREDICTED BY IDOCK:  -11.47 KCAL/MOL
REMARK 924 INTRA-LIGAND FREE ENERGY PREDICTED BY IDOCK:   -1.35 KCAL/MOL
REMARK 927      BINDING AFFINITY PREDICTED BY RF-SCORE:    0.00 PKD
ROOT
HETATM    1  O   UNL     1      -8.701   6.890  72.120  1.00  0.00    -0.127 OA 
HETATM    2  H   UNL     1      -8.076   6.370  71.629  1.00  0.00     0.000 HD 
HETATM    3  C   UNL     1      -9.496   6.048  72.951  1.00  0.00    -0.150 C  
ENDROOT
BRANCH   3   4
HETATM    4  C   UNL     1     -10.503   6.886  73.745  1.00  0.00    -0.357 C  
BRANCH   4   5
HETATM    5  N   UNL     1     -11.550   7.489  72.906  1.00  0.00    -0.590 NA 
HETATM    6  H   UNL     1     -11.239   8.374  72.505  1.00  0.00     0.000 HD 
BRANCH   5   7
HETATM    7  C   UNL     1     -12.019   6.565  71.865  1.00  0.00    -0.341 C  
BRANCH   7   8
HETATM    8  C   UNL     1     -11.893   7.207  70.478  1.00  0.00    -0.243 C  
BRANCH   8   9
HETATM    9  N   UNL     1     -11.353   8.552  70.577  1.00  0.00    -0.342 NA 
HETATM   10  H   UNL     1     -11.244   8.968  71.501  1.00  0.00     0.000 HD 
BRANCH   9  11
HETATM   11  C   UNL     1     -10.979   9.294  69.466  1.00  0.00    -0.151 A  
HETATM   12  C   UNL     1     -10.276   8.671  68.436  1.00  0.00    -0.232 A  
HETATM   13  C   UNL     1      -9.853   9.379  67.325  1.00  0.00    -0.232 A  
HETATM   14  C   UNL     1     -10.038  10.759  67.227  1.00  0.00    -0.196 A  
HETATM   15  H   UNL     1     -11.532  16.690  68.180  1.00  0.00     0.000 HD 
HETATM   16  C   UNL     1     -10.727  11.420  68.279  1.00  0.00    -0.240 A  
HETATM   17  C   UNL     1     -11.242  10.685  69.362  1.00  0.00    -0.329 A  
HETATM   18  C   UNL     1     -13.180  14.927  71.262  1.00  0.00    -0.476 A  
HETATM   19  O   UNL     1     -10.391  13.594  67.379  1.00  0.00    -0.242 OA 
HETATM   20  C   UNL     1     -12.985  13.546  71.346  1.00  0.00    -0.339 A  
HETATM   21  C   UNL     1     -12.115  11.365  70.367  1.00  0.00    -0.384 C  
HETATM   22  O   UNL     1     -12.779  10.691  71.147  1.00  0.00    -0.355 OA 
HETATM   23  C   UNL     1     -12.638  15.635  70.199  1.00  0.00    -0.243 A  
HETATM   24  C   UNL     1     -12.263  12.843  70.350  1.00  0.00    -0.381 A  
HETATM   25  O   UNL     1     -11.399  15.751  68.227  1.00  0.00    -0.344 OA 
HETATM   26  H   UNL     1     -14.012  13.359  73.079  1.00  0.00     0.000 HD 
HETATM   27  C   UNL     1     -11.702  13.569  69.299  1.00  0.00    -0.382 A  
HETATM   28  O   UNL     1     -13.528  12.888  72.411  1.00  0.00    -0.566 OA 
HETATM   29  C   UNL     1     -11.900  14.963  69.229  1.00  0.00    -0.318 A  
HETATM   30  C   UNL     1     -10.919  12.895  68.247  1.00  0.00    -0.256 C  
BRANCH  14  31
HETATM   31  N   UNL     1      -9.634  11.401  66.070  1.00  0.00    -0.214 NA 
HETATM   32  H   UNL     1      -9.026  12.216  66.152  1.00  0.00     0.000 HD 
BRANCH  31  33
HETATM   33  C   UNL     1     -10.038  10.966  64.740  1.00  0.00    -0.321 C  
BRANCH  33  34
HETATM   34  C   UNL     1     -10.859  12.059  64.035  1.00  0.00    -0.378 C  
BRANCH  34  35
HETATM   35  N   UNL     1     -10.428  13.403  64.449  1.00  0.00    -0.512 NA 
HETATM   36  H   UNL     1      -9.652  13.745  63.881  1.00  0.00     0.000 HD 
BRANCH  35  37
HETATM   37  C   UNL     1     -11.566  14.331  64.438  1.00  0.00    -0.344 C  
BRANCH  37  38
HETATM   38  C   UNL     1     -11.105  15.749  64.783  1.00  0.00    -0.400 C  
HETATM   39  O   UNL     1     -11.697  16.694  63.895  1.00  0.00    -1.487 OA 
HETATM   40  H   UNL     1     -11.411  17.575  64.109  1.00  0.00     0.000 HD 
ENDBRANCH  37  38
ENDBRANCH  35  37
ENDBRANCH  34  35
ENDBRANCH  33  34
ENDBRANCH  31  33
ENDBRANCH  14  31
ENDBRANCH   9  11
ENDBRANCH   8   9
ENDBRANCH   7   8
ENDBRANCH   5   7
ENDBRANCH   4   5
ENDBRANCH   3   4
TORSDOF 12
ENDMDL
MODEL       14
REMARK 921   NORMALIZED FREE ENERGY PREDICTED BY IDOCK:   -6.19 KCAL/MOL
REMARK 922        TOTAL FREE ENERGY PREDICTED BY IDOCK:  -12.79 KCAL/MOL
REMARK 923 INTER-LIGAND FREE ENERGY PREDICTED BY IDOCK:  -10.73 KCAL/MOL
REMARK 924 INTRA-LIGAND FREE ENERGY PREDICTED BY IDOCK:   -2.06 KCAL/MOL
REMARK 927      BINDING AFFINITY PREDICTED BY RF-SCORE:    0.00 PKD
ROOT
HETATM    1  O   UNL     1     -13.737  12.524  72.166  1.00  0.00    -0.435 OA 
HETATM    2  H   UNL     1     -13.140  11.890  72.544  1.00  0.00     0.000 HD 
HETATM    3  C   UNL     1     -13.436  13.831  72.648  1.00  0.00    -0.530 C  
ENDROOT
BRANCH   3   4
HETATM    4  C   UNL     1     -14.400  14.854  72.039  1.00  0.00    -0.561 C  
BRANCH   4   5
HETATM    5  N   UNL     1     -13.949  15.382  70.742  1.00  0.00    -0.859 NA 
HETATM    6  H   UNL     1     -14.529  16.164  70.439  1.00  0.00     0.000 HD 
BRANCH   5   7
HETATM    7  C   UNL     1     -12.527  15.747  70.763  1.00  0.00    -0.374 C  
BRANCH   7   8
HETATM    8  C   UNL     1     -11.938  15.703  69.347  1.00  0.00    -0.331 C  
BRANCH   8   9
HETATM    9  N   UNL     1     -12.459  14.569  68.604  1.00  0.00    -0.566 NA 
HETATM   10  H   UNL     1     -13.415  14.263  68.787  1.00  0.00     0.000 HD 
BRANCH   9  11
HETATM   11  C   UNL     1     -11.713  13.886  67.656  1.00  0.00    -0.368 A  
HETATM   12  C   UNL     1     -11.388  14.521  66.458  1.00  0.00    -0.354 A  
HETATM   13  C   UNL     1     -10.674  13.867  65.469  1.00  0.00    -0.306 A  
HETATM   14  C   UNL     1     -10.323  12.521  65.594  1.00  0.00    -0.271 A  
HETATM   15  H   UNL     1      -9.486   6.697  67.514  1.00  0.00     0.000 HD 
HETATM   16  C   UNL     1     -10.668  11.846  66.794  1.00  0.00    -0.282 A  
HETATM   17  C   UNL     1     -11.308  12.537  67.839  1.00  0.00    -0.343 A  
HETATM   18  C   UNL     1     -11.159   8.355  70.640  1.00  0.00    -0.278 A  
HETATM   19  O   UNL     1      -9.897   9.729  66.041  1.00  0.00    -0.236 OA 
HETATM   20  C   UNL     1     -11.506   9.701  70.499  1.00  0.00    -0.285 A  
HETATM   21  C   UNL     1     -11.505  11.863  69.158  1.00  0.00    -0.296 C  
HETATM   22  O   UNL     1     -11.809  12.532  70.141  1.00  0.00    -0.324 OA 
HETATM   23  C   UNL     1     -10.555   7.687  69.585  1.00  0.00    -0.243 A  
HETATM   24  C   UNL     1     -11.229  10.411  69.304  1.00  0.00    -0.304 A  
HETATM   25  O   UNL     1      -9.714   7.613  67.412  1.00  0.00    -0.145 OA 
HETATM   26  H   UNL     1     -12.291   9.844  72.358  1.00  0.00     0.000 HD 
HETATM   27  C   UNL     1     -10.643   9.722  68.243  1.00  0.00    -0.271 A  
HETATM   28  O   UNL     1     -12.105  10.320  71.558  1.00  0.00    -0.370 OA 
HETATM   29  C   UNL     1     -10.304   8.362  68.395  1.00  0.00    -0.200 A  
HETATM   30  C   UNL     1     -10.354  10.402  66.967  1.00  0.00    -0.240 C  
BRANCH  14  31
HETATM   31  N   UNL     1      -9.568  11.939  64.591  1.00  0.00    -0.432 NA 
HETATM   32  H   UNL     1      -8.590  11.720  64.782  1.00  0.00     0.000 HD 
BRANCH  31  33
HETATM   33  C   UNL     1     -10.107  11.624  63.276  1.00  0.00    -0.423 C  
BRANCH  33  34
HETATM   34  C   UNL     1      -9.294  10.501  62.609  1.00  0.00    -0.312 C  
BRANCH  34  35
HETATM   35  N   UNL     1      -8.549   9.716  63.604  1.00  0.00    -0.193 NA 
HETATM   36  H   UNL     1      -8.734   8.716  63.516  1.00  0.00     0.000 HD 
BRANCH  35  37
HETATM   37  C   UNL     1      -7.114  10.016  63.523  1.00  0.00    -0.130 C  
BRANCH  37  38
HETATM   38  C   UNL     1      -6.478   9.981  64.915  1.00  0.00    -0.125 C  
HETATM   39  O   UNL     1      -6.984  11.044  65.720  1.00  0.00    -0.344 OA 
HETATM   40  H   UNL     1      -6.589  11.023  66.584  1.00  0.00     0.000 HD 
ENDBRANCH  37  38
ENDBRANCH  35  37
ENDBRANCH  34  35
ENDBRANCH  33  34
ENDBRANCH  31  33
ENDBRANCH  14  31
ENDBRANCH   9  11
ENDBRANCH   8   9
ENDBRANCH   7   8
ENDBRANCH   5   7
ENDBRANCH   4   5
ENDBRANCH   3   4
TORSDOF 12
ENDMDL
MODEL       15
REMARK 921   NORMALIZED FREE ENERGY PREDICTED BY IDOCK:   -6.13 KCAL/MOL
REMARK 922        TOTAL FREE ENERGY PREDICTED BY IDOCK:  -12.70 KCAL/MOL
REMARK 923 INTER-LIGAND FREE ENERGY PREDICTED BY IDOCK:  -11.94 KCAL/MOL
REMARK 924 INTRA-LIGAND FREE ENERGY PREDICTED BY IDOCK:   -0.76 KCAL/MOL
REMARK 927      BINDING AFFINITY PREDICTED BY RF-SCORE:    0.00 PKD
ROOT
HETATM    1  O   UNL     1     -11.611   4.638  65.234  1.00  0.00    -1.093 OA 
HETATM    2  H   UNL     1     -11.401   3.924  64.644  1.00  0.00     0.000 HD 
HETATM    3  C   UNL     1     -10.505   4.909  66.091  1.00  0.00    -0.302 C  
ENDROOT
BRANCH   3   4
HETATM    4  C   UNL     1     -10.843   6.061  67.043  1.00  0.00    -0.331 C  
BRANCH   4   5
HETATM    5  N   UNL     1     -10.312   7.359  66.600  1.00  0.00    -0.488 NA 
HETATM    6  H   UNL     1     -10.885   8.130  66.944  1.00  0.00     0.000 HD 
BRANCH   5   7
HETATM    7  C   UNL     1      -8.902   7.532  66.975  1.00  0.00    -0.128 C  
BRANCH   7   8
HETATM    8  C   UNL     1      -8.747   8.684  67.975  1.00  0.00    -0.141 C  
BRANCH   8   9
HETATM    9  N   UNL     1      -9.986   9.431  68.101  1.00  0.00    -0.168 NA 
HETATM   10  H   UNL     1     -10.799   8.965  68.503  1.00  0.00     0.000 HD 
BRANCH   9  11
HETATM   11  C   UNL     1     -10.110  10.752  67.697  1.00  0.00    -0.176 A  
HETATM   12  C   UNL     1      -9.442  11.179  66.550  1.00  0.00    -0.215 A  
HETATM   13  C   UNL     1      -9.509  12.496  66.128  1.00  0.00    -0.184 A  
HETATM   14  C   UNL     1     -10.177  13.467  66.876  1.00  0.00    -0.252 A  
HETATM   15  H   UNL     1     -13.428  16.571  71.131  1.00  0.00     0.000 HD 
HETATM   16  C   UNL     1     -10.840  13.060  68.064  1.00  0.00    -0.261 A  
HETATM   17  C   UNL     1     -10.854  11.705  68.442  1.00  0.00    -0.257 A  
HETATM   18  C   UNL     1     -13.748  12.879  72.391  1.00  0.00    -0.530 A  
HETATM   19  O   UNL     1     -11.456  15.267  68.693  1.00  0.00    -0.301 OA 
HETATM   20  C   UNL     1     -13.074  11.920  71.633  1.00  0.00    -0.328 A  
HETATM   21  C   UNL     1     -11.702  11.268  69.591  1.00  0.00    -0.350 C  
HETATM   22  O   UNL     1     -11.931  10.073  69.756  1.00  0.00    -0.108 OA 
HETATM   23  C   UNL     1     -13.696  14.214  72.015  1.00  0.00    -0.554 A  
HETATM   24  C   UNL     1     -12.354  12.277  70.465  1.00  0.00    -0.349 A  
HETATM   25  O   UNL     1     -12.971  15.924  70.607  1.00  0.00    -0.467 OA 
HETATM   26  H   UNL     1     -13.626  10.379  72.823  1.00  0.00     0.000 HD 
HETATM   27  C   UNL     1     -12.289  13.624  70.111  1.00  0.00    -0.372 A  
HETATM   28  O   UNL     1     -13.144  10.619  72.041  1.00  0.00    -0.481 OA 
HETATM   29  C   UNL     1     -12.968  14.584  70.889  1.00  0.00    -0.361 A  
HETATM   30  C   UNL     1     -11.535  14.058  68.921  1.00  0.00    -0.294 C  
BRANCH  14  31
HETATM   31  N   UNL     1     -10.247  14.755  66.376  1.00  0.00    -0.282 NA 
HETATM   32  H   UNL     1      -9.918  15.523  66.961  1.00  0.00     0.000 HD 
BRANCH  31  33
HETATM   33  C   UNL     1     -10.769  15.064  65.052  1.00  0.00    -0.427 C  
BRANCH  33  34
HETATM   34  C   UNL     1     -12.112  14.353  64.816  1.00  0.00    -0.452 C  
BRANCH  34  35
HETATM   35  N   UNL     1     -12.222  13.863  63.435  1.00  0.00    -1.102 NA 
HETATM   36  H   UNL     1     -11.379  14.055  62.894  1.00  0.00     0.000 HD 
BRANCH  35  37
HETATM   37  C   UNL     1     -12.565  12.435  63.425  1.00  0.00    -0.366 C  
BRANCH  37  38
HETATM   38  C   UNL     1     -11.310  11.579  63.610  1.00  0.00    -0.318 C  
HETATM   39  O   UNL     1     -10.191  12.194  62.977  1.00  0.00    -0.501 OA 
HETATM   40  H   UNL     1      -9.411  11.663  63.091  1.00  0.00     0.000 HD 
ENDBRANCH  37  38
ENDBRANCH  35  37
ENDBRANCH  34  35
ENDBRANCH  33  34
ENDBRANCH  31  33
ENDBRANCH  14  31
ENDBRANCH   9  11
ENDBRANCH   8   9
ENDBRANCH   7   8
ENDBRANCH   5   7
ENDBRANCH   4   5
ENDBRANCH   3   4
TORSDOF 12
ENDMDL
MODEL       16
REMARK 921   NORMALIZED FREE ENERGY PREDICTED BY IDOCK:   -6.11 KCAL/MOL
REMARK 922        TOTAL FREE ENERGY PREDICTED BY IDOCK:  -12.67 KCAL/MOL
REMARK 923 INTER-LIGAND FREE ENERGY PREDICTED BY IDOCK:  -11.41 KCAL/MOL
REMARK 924 INTRA-LIGAND FREE ENERGY PREDICTED BY IDOCK:   -1.25 KCAL/MOL
REMARK 927      BINDING AFFINITY PREDICTED BY RF-SCORE:    0.00 PKD
ROOT
HETATM    1  O   UNL     1     -11.601  16.382  63.730  1.00  0.00    -1.605 OA 
HETATM    2  H   UNL     1     -10.971  17.092  63.758  1.00  0.00     0.000 HD 
HETATM    3  C   UNL     1     -11.282  15.401  64.715  1.00  0.00    -0.395 C  
ENDROOT
BRANCH   3   4
HETATM    4  C   UNL     1     -12.298  14.257  64.670  1.00  0.00    -0.415 C  
BRANCH   4   5
HETATM    5  N   UNL     1     -11.822  13.027  65.320  1.00  0.00    -0.354 NA 
HETATM    6  H   UNL     1     -12.597  12.403  65.545  1.00  0.00     0.000 HD 
BRANCH   5   7
HETATM    7  C   UNL     1     -10.800  12.342  64.518  1.00  0.00    -0.315 C  
BRANCH   7   8
HETATM    8  C   UNL     1     -10.304  11.082  65.238  1.00  0.00    -0.275 C  
BRANCH   8   9
HETATM    9  N   UNL     1      -9.811  11.403  66.565  1.00  0.00    -0.203 NA 
HETATM   10  H   UNL     1      -9.109  12.137  66.661  1.00  0.00     0.000 HD 
BRANCH   9  11
HETATM   11  C   UNL     1     -10.256  10.755  67.708  1.00  0.00    -0.182 A  
HETATM   12  C   UNL     1     -10.063   9.380  67.829  1.00  0.00    -0.246 A  
HETATM   13  C   UNL     1     -10.520   8.686  68.936  1.00  0.00    -0.211 A  
HETATM   14  C   UNL     1     -11.264   9.317  69.935  1.00  0.00    -0.126 A  
HETATM   15  H   UNL     1     -14.346  13.360  73.466  1.00  0.00     0.000 HD 
HETATM   16  C   UNL     1     -11.497  10.712  69.817  1.00  0.00    -0.375 A  
HETATM   17  C   UNL     1     -10.951  11.436  68.742  1.00  0.00    -0.272 A  
HETATM   18  C   UNL     1     -12.875  15.671  70.669  1.00  0.00    -0.400 A  
HETATM   19  O   UNL     1     -12.908  10.822  71.726  1.00  0.00    -0.435 OA 
HETATM   20  C   UNL     1     -12.134  15.025  69.677  1.00  0.00    -0.300 A  
HETATM   21  C   UNL     1     -11.054  12.927  68.727  1.00  0.00    -0.263 C  
HETATM   22  O   UNL     1     -10.359  13.575  67.951  1.00  0.00    -0.238 OA 
HETATM   23  C   UNL     1     -13.429  14.932  71.705  1.00  0.00    -0.484 A  
HETATM   24  C   UNL     1     -11.911  13.626  69.718  1.00  0.00    -0.404 A  
HETATM   25  O   UNL     1     -13.839  12.914  72.797  1.00  0.00    -0.522 OA 
HETATM   26  H   UNL     1     -11.761  16.725  68.645  1.00  0.00     0.000 HD 
HETATM   27  C   UNL     1     -12.493  12.891  70.751  1.00  0.00    -0.370 A  
HETATM   28  O   UNL     1     -11.612  15.788  68.672  1.00  0.00    -0.368 OA 
HETATM   29  C   UNL     1     -13.245  13.554  71.742  1.00  0.00    -0.404 A  
HETATM   30  C   UNL     1     -12.317  11.429  70.831  1.00  0.00    -0.381 C  
BRANCH  14  31
HETATM   31  N   UNL     1     -11.651   8.577  71.038  1.00  0.00    -0.278 NA 
HETATM   32  H   UNL     1     -12.645   8.399  71.180  1.00  0.00     0.000 HD 
BRANCH  31  33
HETATM   33  C   UNL     1     -10.703   8.042  72.006  1.00  0.00    -0.258 C  
BRANCH  33  34
HETATM   34  C   UNL     1     -10.689   6.505  71.962  1.00  0.00    -0.223 C  
BRANCH  34  35
HETATM   35  N   UNL     1     -11.662   5.933  72.904  1.00  0.00    -0.520 NA 
HETATM   36  H   UNL     1     -12.609   5.939  72.523  1.00  0.00     0.000 HD 
BRANCH  35  37
HETATM   37  C   UNL     1     -11.246   4.586  73.315  1.00  0.00    -0.298 C  
BRANCH  37  38
HETATM   38  C   UNL     1     -10.106   4.081  72.427  1.00  0.00    -0.175 C  
HETATM   39  O   UNL     1      -9.904   2.684  72.624  1.00  0.00    -0.117 OA 
HETATM   40  H   UNL     1      -9.197   2.370  72.073  1.00  0.00     0.000 HD 
ENDBRANCH  37  38
ENDBRANCH  35  37
ENDBRANCH  34  35
ENDBRANCH  33  34
ENDBRANCH  31  33
ENDBRANCH  14  31
ENDBRANCH   9  11
ENDBRANCH   8   9
ENDBRANCH   7   8
ENDBRANCH   5   7
ENDBRANCH   4   5
ENDBRANCH   3   4
TORSDOF 12
ENDMDL
MODEL       17
REMARK 921   NORMALIZED FREE ENERGY PREDICTED BY IDOCK:   -6.10 KCAL/MOL
REMARK 922        TOTAL FREE ENERGY PREDICTED BY IDOCK:  -12.64 KCAL/MOL
REMARK 923 INTER-LIGAND FREE ENERGY PREDICTED BY IDOCK:  -11.10 KCAL/MOL
REMARK 924 INTRA-LIGAND FREE ENERGY PREDICTED BY IDOCK:   -1.55 KCAL/MOL
REMARK 927      BINDING AFFINITY PREDICTED BY RF-SCORE:    0.00 PKD
ROOT
HETATM    1  O   UNL     1     -10.847   5.454  74.014  1.00  0.00    -0.332 OA 
HETATM    2  H   UNL     1     -10.183   5.273  74.668  1.00  0.00     0.000 HD 
HETATM    3  C   UNL     1     -10.265   6.099  72.885  1.00  0.00    -0.189 C  
ENDROOT
BRANCH   3   4
HETATM    4  C   UNL     1     -11.337   6.390  71.831  1.00  0.00    -0.293 C  
BRANCH   4   5
HETATM    5  N   UNL     1     -12.634   6.776  72.407  1.00  0.00    -0.515 NA 
HETATM    6  H   UNL     1     -12.554   6.961  73.407  1.00  0.00     0.000 HD 
BRANCH   5   7
HETATM    7  C   UNL     1     -13.233   7.914  71.698  1.00  0.00    -0.334 C  
BRANCH   7   8
HETATM    8  C   UNL     1     -12.353   9.162  71.841  1.00  0.00    -0.385 C  
BRANCH   8   9
HETATM    9  N   UNL     1     -11.989   9.692  70.539  1.00  0.00    -0.421 NA 
HETATM   10  H   UNL     1     -11.699   9.041  69.810  1.00  0.00     0.000 HD 
BRANCH   9  11
HETATM   11  C   UNL     1     -12.019  11.047  70.245  1.00  0.00    -0.365 A  
HETATM   12  C   UNL     1     -12.504  11.940  71.200  1.00  0.00    -0.365 A  
HETATM   13  C   UNL     1     -12.585  13.297  70.938  1.00  0.00    -0.386 A  
HETATM   14  C   UNL     1     -12.263  13.816  69.682  1.00  0.00    -0.305 A  
HETATM   15  H   UNL     1     -10.539  14.633  63.794  1.00  0.00     0.000 HD 
HETATM   16  C   UNL     1     -11.794  12.921  68.686  1.00  0.00    -0.347 A  
HETATM   17  C   UNL     1     -11.620  11.556  68.981  1.00  0.00    -0.383 A  
HETATM   18  C   UNL     1      -9.841  10.818  64.329  1.00  0.00    -0.384 A  
HETATM   19  O   UNL     1     -11.715  14.572  66.979  1.00  0.00    -0.377 OA 
HETATM   20  C   UNL     1     -10.168  10.313  65.589  1.00  0.00    -0.231 A  
HETATM   21  C   UNL     1     -10.960  10.663  67.982  1.00  0.00    -0.282 C  
HETATM   22  O   UNL     1     -10.564   9.554  68.329  1.00  0.00    -0.214 OA 
HETATM   23  C   UNL     1     -10.048  12.162  64.051  1.00  0.00    -0.357 A  
HETATM   24  C   UNL     1     -10.686  11.153  66.607  1.00  0.00    -0.322 A  
HETATM   25  O   UNL     1     -10.760  14.298  64.655  1.00  0.00    -0.412 OA 
HETATM   26  H   UNL     1      -9.608   8.422  65.138  1.00  0.00     0.000 HD 
HETATM   27  C   UNL     1     -10.913  12.497  66.308  1.00  0.00    -0.311 A  
HETATM   28  O   UNL     1      -9.955   8.985  65.820  1.00  0.00    -0.241 OA 
HETATM   29  C   UNL     1     -10.585  12.992  65.029  1.00  0.00    -0.319 A  
HETATM   30  C   UNL     1     -11.474  13.412  67.318  1.00  0.00    -0.340 C  
BRANCH  14  31
HETATM   31  N   UNL     1     -12.319  15.187  69.499  1.00  0.00    -0.566 NA 
HETATM   32  H   UNL     1     -13.057  15.569  68.907  1.00  0.00     0.000 HD 
BRANCH  31  33
HETATM   33  C   UNL     1     -11.374  16.108  70.114  1.00  0.00    -0.340 C  
BRANCH  33  34
HETATM   34  C   UNL     1     -10.730  17.016  69.052  1.00  0.00    -0.271 C  
BRANCH  34  35
HETATM   35  N   UNL     1      -9.805  16.261  68.193  1.00  0.00    -0.226 NA 
HETATM   36  H   UNL     1     -10.243  15.426  67.805  1.00  0.00     0.000 HD 
BRANCH  35  37
HETATM   37  C   UNL     1      -9.257  17.130  67.144  1.00  0.00    -0.236 C  
BRANCH  37  38
HETATM   38  C   UNL     1     -10.386  17.793  66.351  1.00  0.00    -0.351 C  
HETATM   39  O   UNL     1     -10.610  17.096  65.128  1.00  0.00    -0.695 OA 
HETATM   40  H   UNL     1     -11.311  17.507  64.635  1.00  0.00     0.000 HD 
ENDBRANCH  37  38
ENDBRANCH  35  37
ENDBRANCH  34  35
ENDBRANCH  33  34
ENDBRANCH  31  33
ENDBRANCH  14  31
ENDBRANCH   9  11
ENDBRANCH   8   9
ENDBRANCH   7   8
ENDBRANCH   5   7
ENDBRANCH   4   5
ENDBRANCH   3   4
TORSDOF 12
ENDMDL
MODEL       18
REMARK 921   NORMALIZED FREE ENERGY PREDICTED BY IDOCK:   -6.09 KCAL/MOL
REMARK 922        TOTAL FREE ENERGY PREDICTED BY IDOCK:  -12.63 KCAL/MOL
REMARK 923 INTER-LIGAND FREE ENERGY PREDICTED BY IDOCK:  -10.15 KCAL/MOL
REMARK 924 INTRA-LIGAND FREE ENERGY PREDICTED BY IDOCK:   -2.48 KCAL/MOL
REMARK 927      BINDING AFFINITY PREDICTED BY RF-SCORE:    0.00 PKD
ROOT
HETATM    1  O   UNL     1     -11.297  10.083  68.598  1.00  0.00    -0.460 OA 
HETATM    2  H   UNL     1     -12.234  10.032  68.743  1.00  0.00     0.000 HD 
HETATM    3  C   UNL     1     -10.625   9.083  69.360  1.00  0.00    -0.221 C  
ENDROOT
BRANCH   3   4
HETATM    4  C   UNL     1      -9.114   9.164  69.125  1.00  0.00    -0.144 C  
BRANCH   4   5
HETATM    5  N   UNL     1      -8.464  10.252  69.872  1.00  0.00    -0.373 NA 
HETATM    6  H   UNL     1      -8.717  10.225  70.860  1.00  0.00     0.000 HD 
BRANCH   5   7
HETATM    7  C   UNL     1      -7.006  10.246  69.693  1.00  0.00    -0.114 C  
BRANCH   7   8
HETATM    8  C   UNL     1      -6.476  11.677  69.537  1.00  0.00    -0.122 C  
BRANCH   8   9
HETATM    9  N   UNL     1      -7.562  12.606  69.279  1.00  0.00    -0.305 NA 
HETATM   10  H   UNL     1      -8.488  12.390  69.646  1.00  0.00     0.000 HD 
BRANCH   9  11
HETATM   11  C   UNL     1      -7.392  13.776  68.554  1.00  0.00    -0.117 A  
HETATM   12  C   UNL     1      -6.302  14.600  68.836  1.00  0.00    -0.088 A  
HETATM   13  C   UNL     1      -6.112  15.793  68.161  1.00  0.00    -0.133 A  
HETATM   14  C   UNL     1      -7.043  16.262  67.233  1.00  0.00    -0.190 A  
HETATM   15  H   UNL     1     -11.908  17.026  63.483  1.00  0.00     0.000 HD 
HETATM   16  C   UNL     1      -8.175  15.454  66.951  1.00  0.00    -0.281 A  
HETATM   17  C   UNL     1      -8.320  14.195  67.565  1.00  0.00    -0.194 A  
HETATM   18  C   UNL     1     -12.544  13.444  64.928  1.00  0.00    -0.416 A  
HETATM   19  O   UNL     1      -9.195  17.057  65.525  1.00  0.00    -0.416 OA 
HETATM   20  C   UNL     1     -11.604  12.989  65.856  1.00  0.00    -0.363 A  
HETATM   21  C   UNL     1      -9.419  13.283  67.127  1.00  0.00    -0.240 C  
HETATM   22  O   UNL     1      -9.391  12.100  67.454  1.00  0.00    -0.174 OA 
HETATM   23  C   UNL     1     -12.395  14.700  64.358  1.00  0.00    -0.420 A  
HETATM   24  C   UNL     1     -10.480  13.776  66.211  1.00  0.00    -0.291 A  
HETATM   25  O   UNL     1     -11.261  16.722  64.109  1.00  0.00    -1.155 OA 
HETATM   26  H   UNL     1     -12.543  11.223  66.161  1.00  0.00     0.000 HD 
HETATM   27  C   UNL     1     -10.355  15.047  65.649  1.00  0.00    -0.374 A  
HETATM   28  O   UNL     1     -11.790  11.751  66.399  1.00  0.00    -0.534 OA 
HETATM   29  C   UNL     1     -11.314  15.497  64.720  1.00  0.00    -0.357 A  
HETATM   30  C   UNL     1      -9.220  15.920  66.001  1.00  0.00    -0.337 C  
BRANCH  14  31
HETATM   31  N   UNL     1      -6.770  17.439  66.559  1.00  0.00    -0.224 NA 
HETATM   32  H   UNL     1      -6.627  17.400  65.549  1.00  0.00     0.000 HD 
BRANCH  31  33
HETATM   33  C   UNL     1      -6.679  18.731  67.224  1.00  0.00    -0.202 C  
BRANCH  33  34
HETATM   34  C   UNL     1      -7.049  19.869  66.258  1.00  0.00    -0.255 C  
BRANCH  34  35
HETATM   35  N   UNL     1      -8.502  20.085  66.218  1.00  0.00    -0.485 NA 
HETATM   36  H   UNL     1      -8.973  19.400  65.626  1.00  0.00     0.000 HD 
BRANCH  35  37
HETATM   37  C   UNL     1      -9.054  20.104  67.579  1.00  0.00    -0.356 C  
BRANCH  37  38
HETATM   38  C   UNL     1     -10.470  19.521  67.592  1.00  0.00    -0.467 C  
HETATM   39  O   UNL     1     -10.820  19.035  66.299  1.00  0.00    -0.343 OA 
HETATM   40  H   UNL     1     -11.699  18.674  66.307  1.00  0.00     0.000 HD 
ENDBRANCH  37  38
ENDBRANCH  35  37
ENDBRANCH  34  35
ENDBRANCH  33  34
ENDBRANCH  31  33
ENDBRANCH  14  31
ENDBRANCH   9  11
ENDBRANCH   8   9
ENDBRANCH   7   8
ENDBRANCH   5   7
ENDBRANCH   4   5
ENDBRANCH   3   4
TORSDOF 12
ENDMDL
MODEL       19
REMARK 921   NORMALIZED FREE ENERGY PREDICTED BY IDOCK:   -6.09 KCAL/MOL
REMARK 922        TOTAL FREE ENERGY PREDICTED BY IDOCK:  -12.62 KCAL/MOL
REMARK 923 INTER-LIGAND FREE ENERGY PREDICTED BY IDOCK:  -11.31 KCAL/MOL
REMARK 924 INTRA-LIGAND FREE ENERGY PREDICTED BY IDOCK:   -1.30 KCAL/MOL
REMARK 927      BINDING AFFINITY PREDICTED BY RF-SCORE:    0.00 PKD
ROOT
HETATM    1  O   UNL     1     -11.371   4.780  65.427  1.00  0.00    -0.950 OA 
HETATM    2  H   UNL     1     -11.036   4.106  64.847  1.00  0.00     0.000 HD 
HETATM    3  C   UNL     1     -10.348   5.215  66.319  1.00  0.00    -0.268 C  
ENDROOT
BRANCH   3   4
HETATM    4  C   UNL     1     -10.887   6.301  67.253  1.00  0.00    -0.375 C  
BRANCH   4   5
HETATM    5  N   UNL     1     -10.710   7.664  66.729  1.00  0.00    -0.472 NA 
HETATM    6  H   UNL     1     -11.245   8.342  67.272  1.00  0.00     0.000 HD 
BRANCH   5   7
HETATM    7  C   UNL     1      -9.292   8.041  66.650  1.00  0.00    -0.197 C  
BRANCH   7   8
HETATM    8  C   UNL     1      -9.149   9.535  66.334  1.00  0.00    -0.159 C  
BRANCH   8   9
HETATM    9  N   UNL     1     -10.449  10.147  66.124  1.00  0.00    -0.154 NA 
HETATM   10  H   UNL     1     -11.255   9.542  65.969  1.00  0.00     0.000 HD 
BRANCH   9  11
HETATM   11  C   UNL     1     -10.640  11.521  66.126  1.00  0.00    -0.266 A  
HETATM   12  C   UNL     1     -10.250  12.265  65.013  1.00  0.00    -0.312 A  
HETATM   13  C   UNL     1     -10.391  13.641  64.985  1.00  0.00    -0.393 A  
HETATM   14  C   UNL     1     -10.850  14.350  66.097  1.00  0.00    -0.309 A  
HETATM   15  H   UNL     1     -12.969  16.073  71.651  1.00  0.00     0.000 HD 
HETATM   16  C   UNL     1     -11.226  13.615  67.252  1.00  0.00    -0.329 A  
HETATM   17  C   UNL     1     -11.175  12.209  67.248  1.00  0.00    -0.366 A  
HETATM   18  C   UNL     1     -13.050  12.169  71.921  1.00  0.00    -0.475 A  
HETATM   19  O   UNL     1     -11.641  15.548  68.570  1.00  0.00    -0.348 OA 
HETATM   20  C   UNL     1     -12.587  11.475  70.801  1.00  0.00    -0.298 A  
HETATM   21  C   UNL     1     -11.740  11.446  68.402  1.00  0.00    -0.303 C  
HETATM   22  O   UNL     1     -11.944  10.242  68.290  1.00  0.00    -0.159 OA 
HETATM   23  C   UNL     1     -13.064  13.556  71.912  1.00  0.00    -0.475 A  
HETATM   24  C   UNL     1     -12.153  12.159  69.638  1.00  0.00    -0.283 A  
HETATM   25  O   UNL     1     -12.657  15.608  70.883  1.00  0.00    -0.432 OA 
HETATM   26  H   UNL     1     -12.874   9.652  71.631  1.00  0.00     0.000 HD 
HETATM   27  C   UNL     1     -12.149  13.554  69.651  1.00  0.00    -0.365 A  
HETATM   28  O   UNL     1     -12.583  10.110  70.852  1.00  0.00    -0.326 OA 
HETATM   29  C   UNL     1     -12.612  14.243  70.790  1.00  0.00    -0.356 A  
HETATM   30  C   UNL     1     -11.685  14.320  68.479  1.00  0.00    -0.341 C  
BRANCH  14  31
HETATM   31  N   UNL     1     -11.012  15.719  65.988  1.00  0.00    -0.237 NA 
HETATM   32  H   UNL     1     -11.960  16.098  65.985  1.00  0.00     0.000 HD 
BRANCH  31  33
HETATM   33  C   UNL     1      -9.893  16.644  65.877  1.00  0.00    -0.273 C  
BRANCH  33  34
HETATM   34  C   UNL     1     -10.356  18.091  66.120  1.00  0.00    -0.366 C  
BRANCH  34  35
HETATM   35  N   UNL     1     -10.649  18.328  67.541  1.00  0.00    -0.419 NA 
HETATM   36  H   UNL     1     -10.328  17.558  68.129  1.00  0.00     0.000 HD 
BRANCH  35  37
HETATM   37  C   UNL     1     -10.087  19.615  67.971  1.00  0.00    -0.437 C  
BRANCH  37  38
HETATM   38  C   UNL     1      -8.611  19.715  67.581  1.00  0.00    -0.320 C  
HETATM   39  O   UNL     1      -8.384  20.876  66.785  1.00  0.00    -0.553 OA 
HETATM   40  H   UNL     1      -7.468  20.938  66.542  1.00  0.00     0.000 HD 
ENDBRANCH  37  38
ENDBRANCH  35  37
ENDBRANCH  34  35
ENDBRANCH  33  34
ENDBRANCH  31  33
ENDBRANCH  14  31
ENDBRANCH   9  11
ENDBRANCH   8   9
ENDBRANCH   7   8
ENDBRANCH   5   7
ENDBRANCH   4   5
ENDBRANCH   3   4
TORSDOF 12
ENDMDL
MODEL       20
REMARK 921   NORMALIZED FREE ENERGY PREDICTED BY IDOCK:   -6.09 KCAL/MOL
REMARK 922        TOTAL FREE ENERGY PREDICTED BY IDOCK:  -12.62 KCAL/MOL
REMARK 923 INTER-LIGAND FREE ENERGY PREDICTED BY IDOCK:  -11.38 KCAL/MOL
REMARK 924 INTRA-LIGAND FREE ENERGY PREDICTED BY IDOCK:   -1.24 KCAL/MOL
REMARK 927      BINDING AFFINITY PREDICTED BY RF-SCORE:    0.00 PKD
ROOT
HETATM    1  O   UNL     1      -9.417  19.407  66.177  1.00  0.00    -0.355 OA 
HETATM    2  H   UNL     1      -9.461  20.355  66.212  1.00  0.00     0.000 HD 
HETATM    3  C   UNL     1     -10.627  18.878  65.641  1.00  0.00    -0.177 C  
ENDROOT
BRANCH   3   4
HETATM    4  C   UNL     1     -10.557  17.349  65.585  1.00  0.00    -0.153 C  
BRANCH   4   5
HETATM    5  N   UNL     1     -11.127  16.783  64.353  1.00  0.00    -1.260 NA 
HETATM    6  H   UNL     1     -10.408  16.638  63.644  1.00  0.00     0.000 HD 
BRANCH   5   7
HETATM    7  C   UNL     1     -11.877  15.546  64.614  1.00  0.00    -0.171 C  
BRANCH   7   8
HETATM    8  C   UNL     1     -10.946  14.329  64.558  1.00  0.00    -0.298 C  
BRANCH   8   9
HETATM    9  N   UNL     1     -10.416  14.021  65.874  1.00  0.00    -0.300 NA 
HETATM   10  H   UNL     1      -9.915  14.750  66.382  1.00  0.00     0.000 HD 
BRANCH   9  11
HETATM   11  C   UNL     1     -10.563  12.778  66.471  1.00  0.00    -0.254 A  
HETATM   12  C   UNL     1     -10.207  11.634  65.757  1.00  0.00    -0.281 A  
HETATM   13  C   UNL     1     -10.368  10.371  66.300  1.00  0.00    -0.270 A  
HETATM   14  C   UNL     1     -10.970  10.185  67.545  1.00  0.00    -0.255 A  
HETATM   15  H   UNL     1     -13.732  10.907  73.038  1.00  0.00     0.000 HD 
HETATM   16  C   UNL     1     -11.368  11.334  68.277  1.00  0.00    -0.359 A  
HETATM   17  C   UNL     1     -11.116  12.622  67.769  1.00  0.00    -0.287 A  
HETATM   18  C   UNL     1     -13.074  14.612  71.960  1.00  0.00    -0.418 A  
HETATM   19  O   UNL     1     -12.392  10.093  70.025  1.00  0.00    -0.150 OA 
HETATM   20  C   UNL     1     -12.472  14.782  70.711  1.00  0.00    -0.337 A  
HETATM   21  C   UNL     1     -11.378  13.818  68.626  1.00  0.00    -0.287 C  
HETATM   22  O   UNL     1     -10.915  14.908  68.303  1.00  0.00    -0.248 OA 
HETATM   23  C   UNL     1     -13.339  13.333  72.427  1.00  0.00    -0.616 A  
HETATM   24  C   UNL     1     -12.099  13.669  69.916  1.00  0.00    -0.406 A  
HETATM   25  O   UNL     1     -13.317  11.014  72.189  1.00  0.00    -0.451 OA 
HETATM   26  H   UNL     1     -12.485  16.803  70.817  1.00  0.00     0.000 HD 
HETATM   27  C   UNL     1     -12.392  12.389  70.386  1.00  0.00    -0.307 A  
HETATM   28  O   UNL     1     -12.235  16.057  70.285  1.00  0.00    -0.296 OA 
HETATM   29  C   UNL     1     -13.007  12.231  71.645  1.00  0.00    -0.311 A  
HETATM   30  C   UNL     1     -12.050  11.195  69.592  1.00  0.00    -0.336 C  
BRANCH  14  31
HETATM   31  N   UNL     1     -11.060   8.900  68.052  1.00  0.00    -0.468 NA 
HETATM   32  H   UNL     1     -11.954   8.587  68.429  1.00  0.00     0.000 HD 
BRANCH  31  33
HETATM   33  C   UNL     1      -9.935   7.975  68.070  1.00  0.00    -0.179 C  
BRANCH  33  34
HETATM   34  C   UNL     1     -10.360   6.612  68.641  1.00  0.00    -0.188 C  
BRANCH  34  35
HETATM   35  N   UNL     1     -11.632   6.711  69.372  1.00  0.00    -0.652 NA 
HETATM   36  H   UNL     1     -12.365   6.151  68.937  1.00  0.00     0.000 HD 
BRANCH  35  37
HETATM   37  C   UNL     1     -11.439   6.358  70.784  1.00  0.00    -0.353 C  
BRANCH  37  38
HETATM   38  C   UNL     1     -12.503   7.031  71.656  1.00  0.00    -0.374 C  
HETATM   39  O   UNL     1     -13.489   7.660  70.841  1.00  0.00    -0.584 OA 
HETATM   40  H   UNL     1     -14.149   8.078  71.382  1.00  0.00     0.000 HD 
ENDBRANCH  37  38
ENDBRANCH  35  37
ENDBRANCH  34  35
ENDBRANCH  33  34
ENDBRANCH  31  33
ENDBRANCH  14  31
ENDBRANCH   9  11
ENDBRANCH   8   9
ENDBRANCH   7   8
ENDBRANCH   5   7
ENDBRANCH   4   5
ENDBRANCH   3   4
TORSDOF 12
ENDMDL
MODEL       21
REMARK 921   NORMALIZED FREE ENERGY PREDICTED BY IDOCK:   -6.08 KCAL/MOL
REMARK 922        TOTAL FREE ENERGY PREDICTED BY IDOCK:  -12.62 KCAL/MOL
REMARK 923 INTER-LIGAND FREE ENERGY PREDICTED BY IDOCK:  -10.11 KCAL/MOL
REMARK 924 INTRA-LIGAND FREE ENERGY PREDICTED BY IDOCK:   -2.50 KCAL/MOL
REMARK 927      BINDING AFFINITY PREDICTED BY RF-SCORE:    0.00 PKD
ROOT
HETATM    1  O   UNL     1     -13.830   9.338  70.858  1.00  0.00    -0.579 OA 
HETATM    2  H   UNL     1     -14.484  10.015  70.731  1.00  0.00     0.000 HD 
HETATM    3  C   UNL     1     -14.378   8.260  71.613  1.00  0.00    -0.467 C  
ENDROOT
BRANCH   3   4
HETATM    4  C   UNL     1     -13.324   7.168  71.818  1.00  0.00    -0.283 C  
BRANCH   4   5
HETATM    5  N   UNL     1     -12.029   7.686  72.285  1.00  0.00    -0.405 NA 
HETATM    6  H   UNL     1     -11.899   7.514  73.282  1.00  0.00     0.000 HD 
BRANCH   5   7
HETATM    7  C   UNL     1     -10.908   7.150  71.500  1.00  0.00    -0.225 C  
BRANCH   7   8
HETATM    8  C   UNL     1     -10.052   8.291  70.935  1.00  0.00    -0.190 C  
BRANCH   8   9
HETATM    9  N   UNL     1     -10.870   9.235  70.195  1.00  0.00    -0.233 NA 
HETATM   10  H   UNL     1     -11.782   9.492  70.572  1.00  0.00     0.000 HD 
BRANCH   9  11
HETATM   11  C   UNL     1     -10.462   9.804  68.997  1.00  0.00    -0.213 A  
HETATM   12  C   UNL     1      -9.801   9.013  68.059  1.00  0.00    -0.197 A  
HETATM   13  C   UNL     1      -9.346   9.545  66.864  1.00  0.00    -0.185 A  
HETATM   14  C   UNL     1      -9.455  10.909  66.587  1.00  0.00    -0.179 A  
HETATM   15  H   UNL     1     -10.611  16.987  66.753  1.00  0.00     0.000 HD 
HETATM   16  C   UNL     1     -10.099  11.739  67.542  1.00  0.00    -0.207 A  
HETATM   17  C   UNL     1     -10.648  11.182  68.712  1.00  0.00    -0.233 A  
HETATM   18  C   UNL     1     -12.334  15.738  70.038  1.00  0.00    -0.248 A  
HETATM   19  O   UNL     1      -9.649  13.754  66.366  1.00  0.00    -0.278 OA 
HETATM   20  C   UNL     1     -12.216  14.371  70.302  1.00  0.00    -0.334 A  
HETATM   21  C   UNL     1     -11.475  12.035  69.618  1.00  0.00    -0.252 C  
HETATM   22  O   UNL     1     -12.171  11.507  70.479  1.00  0.00    -0.358 OA 
HETATM   23  C   UNL     1     -11.761  16.269  68.892  1.00  0.00    -0.160 A  
HETATM   24  C   UNL     1     -11.541  13.504  69.407  1.00  0.00    -0.369 A  
HETATM   25  O   UNL     1     -10.530  16.056  66.923  1.00  0.00    -0.300 OA 
HETATM   26  H   UNL     1     -13.242  14.470  72.043  1.00  0.00     0.000 HD 
HETATM   27  C   UNL     1     -10.947  14.054  68.271  1.00  0.00    -0.272 A  
HETATM   28  O   UNL     1     -12.789  13.890  71.444  1.00  0.00    -0.330 OA 
HETATM   29  C   UNL     1     -11.067  15.436  68.019  1.00  0.00    -0.312 A  
HETATM   30  C   UNL     1     -10.209  13.205  67.317  1.00  0.00    -0.243 C  
BRANCH  14  31
HETATM   31  N   UNL     1      -9.024  11.370  65.356  1.00  0.00    -0.380 NA 
HETATM   32  H   UNL     1      -8.442  12.207  65.326  1.00  0.00     0.000 HD 
BRANCH  31  33
HETATM   33  C   UNL     1      -9.362  10.714  64.100  1.00  0.00    -0.258 C  
BRANCH  33  34
HETATM   34  C   UNL     1     -10.676  11.275  63.530  1.00  0.00    -0.335 C  
BRANCH  34  35
HETATM   35  N   UNL     1     -10.717  12.741  63.625  1.00  0.00    -0.509 NA 
HETATM   36  H   UNL     1     -10.129  13.185  62.920  1.00  0.00     0.000 HD 
BRANCH  35  37
HETATM   37  C   UNL     1     -12.105  13.219  63.559  1.00  0.00    -0.482 C  
BRANCH  37  38
HETATM   38  C   UNL     1     -12.289  14.458  64.439  1.00  0.00    -0.403 C  
HETATM   39  O   UNL     1     -11.219  15.377  64.235  1.00  0.00    -0.694 OA 
HETATM   40  H   UNL     1     -11.333  16.145  64.782  1.00  0.00     0.000 HD 
ENDBRANCH  37  38
ENDBRANCH  35  37
ENDBRANCH  34  35
ENDBRANCH  33  34
ENDBRANCH  31  33
ENDBRANCH  14  31
ENDBRANCH   9  11
ENDBRANCH   8   9
ENDBRANCH   7   8
ENDBRANCH   5   7
ENDBRANCH   4   5
ENDBRANCH   3   4
TORSDOF 12
ENDMDL
MODEL       22
REMARK 921   NORMALIZED FREE ENERGY PREDICTED BY IDOCK:   -6.07 KCAL/MOL
REMARK 922        TOTAL FREE ENERGY PREDICTED BY IDOCK:  -12.59 KCAL/MOL
REMARK 923 INTER-LIGAND FREE ENERGY PREDICTED BY IDOCK:  -10.97 KCAL/MOL
REMARK 924 INTRA-LIGAND FREE ENERGY PREDICTED BY IDOCK:   -1.62 KCAL/MOL
REMARK 927      BINDING AFFINITY PREDICTED BY RF-SCORE:    0.00 PKD
ROOT
HETATM    1  O   UNL     1     -11.669   4.484  65.177  1.00  0.00    -1.036 OA 
HETATM    2  H   UNL     1     -11.552   3.890  64.446  1.00  0.00     0.000 HD 
HETATM    3  C   UNL     1     -10.403   4.858  65.716  1.00  0.00    -0.185 C  
ENDROOT
BRANCH   3   4
HETATM    4  C   UNL     1     -10.591   5.817  66.894  1.00  0.00    -0.308 C  
BRANCH   4   5
HETATM    5  N   UNL     1     -10.166   7.194  66.601  1.00  0.00    -0.434 NA 
HETATM    6  H   UNL     1     -10.968   7.798  66.419  1.00  0.00     0.000 HD 
BRANCH   5   7
HETATM    7  C   UNL     1      -9.313   7.743  67.663  1.00  0.00    -0.142 C  
BRANCH   7   8
HETATM    8  C   UNL     1     -10.137   8.610  68.622  1.00  0.00    -0.190 C  
BRANCH   8   9
HETATM    9  N   UNL     1     -11.136   9.377  67.900  1.00  0.00    -0.503 NA 
HETATM   10  H   UNL     1     -12.026   8.933  67.676  1.00  0.00     0.000 HD 
BRANCH   9  11
HETATM   11  C   UNL     1     -10.930  10.690  67.501  1.00  0.00    -0.310 A  
HETATM   12  C   UNL     1     -10.286  10.940  66.290  1.00  0.00    -0.300 A  
HETATM   13  C   UNL     1     -10.029  12.233  65.867  1.00  0.00    -0.272 A  
HETATM   14  C   UNL     1     -10.327  13.334  66.671  1.00  0.00    -0.274 A  
HETATM   15  H   UNL     1     -12.165  17.124  71.207  1.00  0.00     0.000 HD 
HETATM   16  C   UNL     1     -10.957  13.101  67.922  1.00  0.00    -0.271 A  
HETATM   17  C   UNL     1     -11.307  11.795  68.309  1.00  0.00    -0.343 A  
HETATM   18  C   UNL     1     -13.364  13.637  72.519  1.00  0.00    -0.638 A  
HETATM   19  O   UNL     1     -10.877  15.379  68.594  1.00  0.00    -0.241 OA 
HETATM   20  C   UNL     1     -13.058  12.545  71.704  1.00  0.00    -0.315 A  
HETATM   21  C   UNL     1     -12.125  11.583  69.541  1.00  0.00    -0.284 C  
HETATM   22  O   UNL     1     -12.657  10.495  69.736  1.00  0.00    -0.202 OA 
HETATM   23  C   UNL     1     -12.984  14.913  72.131  1.00  0.00    -0.415 A  
HETATM   24  C   UNL     1     -12.386  12.714  70.468  1.00  0.00    -0.350 A  
HETATM   25  O   UNL     1     -11.957  16.387  70.644  1.00  0.00    -0.105 OA 
HETATM   26  H   UNL     1     -13.893  11.191  72.955  1.00  0.00     0.000 HD 
HETATM   27  C   UNL     1     -11.987  14.000  70.100  1.00  0.00    -0.399 A  
HETATM   28  O   UNL     1     -13.443  11.305  72.127  1.00  0.00    -0.390 OA 
HETATM   29  C   UNL     1     -12.296  15.093  70.935  1.00  0.00    -0.354 A  
HETATM   30  C   UNL     1     -11.263  14.234  68.837  1.00  0.00    -0.264 C  
BRANCH  14  31
HETATM   31  N   UNL     1     -10.088  14.602  66.171  1.00  0.00    -0.286 NA 
HETATM   32  H   UNL     1      -9.353  15.164  66.601  1.00  0.00     0.000 HD 
BRANCH  31  33
HETATM   33  C   UNL     1     -10.839  15.171  65.061  1.00  0.00    -0.440 C  
BRANCH  33  34
HETATM   34  C   UNL     1     -10.766  16.707  65.084  1.00  0.00    -0.189 C  
BRANCH  34  35
HETATM   35  N   UNL     1     -10.306  17.202  66.390  1.00  0.00    -0.323 NA 
HETATM   36  H   UNL     1      -9.363  16.879  66.608  1.00  0.00     0.000 HD 
BRANCH  35  37
HETATM   37  C   UNL     1     -10.411  18.665  66.448  1.00  0.00    -0.432 C  
BRANCH  37  38
HETATM   38  C   UNL     1     -10.096  19.171  67.858  1.00  0.00    -0.386 C  
HETATM   39  O   UNL     1     -10.606  18.267  68.836  1.00  0.00    -0.386 OA 
HETATM   40  H   UNL     1     -10.411  18.581  69.711  1.00  0.00     0.000 HD 
ENDBRANCH  37  38
ENDBRANCH  35  37
ENDBRANCH  34  35
ENDBRANCH  33  34
ENDBRANCH  31  33
ENDBRANCH  14  31
ENDBRANCH   9  11
ENDBRANCH   8   9
ENDBRANCH   7   8
ENDBRANCH   5   7
ENDBRANCH   4   5
ENDBRANCH   3   4
TORSDOF 12
ENDMDL
MODEL       23
REMARK 921   NORMALIZED FREE ENERGY PREDICTED BY IDOCK:   -6.05 KCAL/MOL
REMARK 922        TOTAL FREE ENERGY PREDICTED BY IDOCK:  -12.56 KCAL/MOL
REMARK 923 INTER-LIGAND FREE ENERGY PREDICTED BY IDOCK:  -10.85 KCAL/MOL
REMARK 924 INTRA-LIGAND FREE ENERGY PREDICTED BY IDOCK:   -1.70 KCAL/MOL
REMARK 927      BINDING AFFINITY PREDICTED BY RF-SCORE:    0.00 PKD
ROOT
HETATM    1  O   UNL     1     -12.464   7.603  70.644  1.00  0.00    -0.524 OA 
HETATM    2  H   UNL     1     -12.660   7.778  71.556  1.00  0.00     0.000 HD 
HETATM    3  C   UNL     1     -11.428   6.628  70.541  1.00  0.00    -0.376 C  
ENDROOT
BRANCH   3   4
HETATM    4  C   UNL     1     -11.112   6.345  69.070  1.00  0.00    -0.358 C  
BRANCH   4   5
HETATM    5  N   UNL     1     -11.146   7.547  68.223  1.00  0.00    -0.435 NA 
HETATM    6  H   UNL     1     -10.936   8.387  68.763  1.00  0.00     0.000 HD 
BRANCH   5   7
HETATM    7  C   UNL     1     -10.258   7.424  67.060  1.00  0.00    -0.287 C  
BRANCH   7   8
HETATM    8  C   UNL     1      -9.987   8.801  66.440  1.00  0.00    -0.275 C  
BRANCH   8   9
HETATM    9  N   UNL     1     -10.028   9.841  67.451  1.00  0.00    -0.180 NA 
HETATM   10  H   UNL     1      -9.852   9.586  68.423  1.00  0.00     0.000 HD 
BRANCH   9  11
HETATM   11  C   UNL     1     -10.295  11.169  67.152  1.00  0.00    -0.212 A  
HETATM   12  C   UNL     1      -9.806  11.711  65.963  1.00  0.00    -0.258 A  
HETATM   13  C   UNL     1     -10.019  13.039  65.639  1.00  0.00    -0.239 A  
HETATM   14  C   UNL     1     -10.656  13.911  66.523  1.00  0.00    -0.279 A  
HETATM   15  H   UNL     1     -13.568  16.508  71.329  1.00  0.00     0.000 HD 
HETATM   16  C   UNL     1     -11.137  13.388  67.753  1.00  0.00    -0.292 A  
HETATM   17  C   UNL     1     -11.007  12.017  68.040  1.00  0.00    -0.267 A  
HETATM   18  C   UNL     1     -13.465  12.737  72.376  1.00  0.00    -0.512 A  
HETATM   19  O   UNL     1     -11.826  15.501  68.593  1.00  0.00    -0.362 OA 
HETATM   20  C   UNL     1     -12.823  11.878  71.481  1.00  0.00    -0.316 A  
HETATM   21  C   UNL     1     -11.672  11.451  69.252  1.00  0.00    -0.337 C  
HETATM   22  O   UNL     1     -11.793  10.235  69.365  1.00  0.00    -0.160 OA 
HETATM   23  C   UNL     1     -13.556  14.090  72.084  1.00  0.00    -0.582 A  
HETATM   24  C   UNL     1     -12.282  12.355  70.262  1.00  0.00    -0.345 A  
HETATM   25  O   UNL     1     -13.134  15.929  70.713  1.00  0.00    -0.490 OA 
HETATM   26  H   UNL     1     -13.112  10.234  72.626  1.00  0.00     0.000 HD 
HETATM   27  C   UNL     1     -12.357  13.721  69.991  1.00  0.00    -0.364 A  
HETATM   28  O   UNL     1     -12.749  10.554  71.809  1.00  0.00    -0.420 OA 
HETATM   29  C   UNL     1     -13.002  14.580  70.905  1.00  0.00    -0.361 A  
HETATM   30  C   UNL     1     -11.789  14.279  68.750  1.00  0.00    -0.341 C  
BRANCH  14  31
HETATM   31  N   UNL     1     -10.880  15.216  66.120  1.00  0.00    -0.326 NA 
HETATM   32  H   UNL     1     -11.844  15.539  66.030  1.00  0.00     0.000 HD 
BRANCH  31  33
HETATM   33  C   UNL     1      -9.803  16.148  65.818  1.00  0.00    -0.320 C  
BRANCH  33  34
HETATM   34  C   UNL     1     -10.339  17.587  65.721  1.00  0.00    -0.209 C  
BRANCH  34  35
HETATM   35  N   UNL     1      -9.540  18.511  66.539  1.00  0.00    -0.319 NA 
HETATM   36  H   UNL     1      -9.782  19.486  66.357  1.00  0.00     0.000 HD 
BRANCH  35  37
HETATM   37  C   UNL     1      -9.665  18.173  67.962  1.00  0.00    -0.311 C  
BRANCH  37  38
HETATM   38  C   UNL     1      -9.991  19.422  68.785  1.00  0.00    -0.444 C  
HETATM   39  O   UNL     1     -10.040  20.573  67.945  1.00  0.00    -0.350 OA 
HETATM   40  H   UNL     1     -10.241  21.348  68.455  1.00  0.00     0.000 HD 
ENDBRANCH  37  38
ENDBRANCH  35  37
ENDBRANCH  34  35
ENDBRANCH  33  34
ENDBRANCH  31  33
ENDBRANCH  14  31
ENDBRANCH   9  11
ENDBRANCH   8   9
ENDBRANCH   7   8
ENDBRANCH   5   7
ENDBRANCH   4   5
ENDBRANCH   3   4
TORSDOF 12
ENDMDL
MODEL       24
REMARK 921   NORMALIZED FREE ENERGY PREDICTED BY IDOCK:   -6.00 KCAL/MOL
REMARK 922        TOTAL FREE ENERGY PREDICTED BY IDOCK:  -12.47 KCAL/MOL
REMARK 923 INTER-LIGAND FREE ENERGY PREDICTED BY IDOCK:  -11.39 KCAL/MOL
REMARK 924 INTRA-LIGAND FREE ENERGY PREDICTED BY IDOCK:   -1.08 KCAL/MOL
REMARK 927      BINDING AFFINITY PREDICTED BY RF-SCORE:    0.00 PKD
ROOT
HETATM    1  O   UNL     1     -13.928   9.521  72.742  1.00  0.00    -0.752 OA 
HETATM    2  H   UNL     1     -14.679  10.101  72.761  1.00  0.00     0.000 HD 
HETATM    3  C   UNL     1     -14.221   8.361  71.966  1.00  0.00    -0.444 C  
ENDROOT
BRANCH   3   4
HETATM    4  C   UNL     1     -13.010   7.425  71.936  1.00  0.00    -0.258 C  
BRANCH   4   5
HETATM    5  N   UNL     1     -12.793   6.792  70.627  1.00  0.00    -0.369 NA 
HETATM    6  H   UNL     1     -13.259   7.311  69.883  1.00  0.00     0.000 HD 
BRANCH   5   7
HETATM    7  C   UNL     1     -11.365   6.607  70.336  1.00  0.00    -0.365 C  
BRANCH   7   8
HETATM    8  C   UNL     1     -10.564   7.845  70.759  1.00  0.00    -0.214 C  
BRANCH   8   9
HETATM    9  N   UNL     1     -10.180   8.634  69.602  1.00  0.00    -0.203 NA 
HETATM   10  H   UNL     1      -9.490   8.251  68.957  1.00  0.00     0.000 HD 
BRANCH   9  11
HETATM   11  C   UNL     1     -10.712   9.888  69.339  1.00  0.00    -0.232 A  
HETATM   12  C   UNL     1     -11.343  10.589  70.365  1.00  0.00    -0.411 A  
HETATM   13  C   UNL     1     -11.919  11.828  70.140  1.00  0.00    -0.421 A  
HETATM   14  C   UNL     1     -11.965  12.387  68.862  1.00  0.00    -0.241 A  
HETATM   15  H   UNL     1     -11.424  13.565  62.809  1.00  0.00     0.000 HD 
HETATM   16  C   UNL     1     -11.354  11.677  67.795  1.00  0.00    -0.356 A  
HETATM   17  C   UNL     1     -10.684  10.464  68.041  1.00  0.00    -0.292 A  
HETATM   18  C   UNL     1      -9.394  10.239  63.179  1.00  0.00    -0.343 A  
HETATM   19  O   UNL     1     -12.074  13.203  66.122  1.00  0.00    -0.407 OA 
HETATM   20  C   UNL     1      -9.358   9.691  64.463  1.00  0.00    -0.182 A  
HETATM   21  C   UNL     1      -9.897   9.820  66.947  1.00  0.00    -0.201 C  
HETATM   22  O   UNL     1      -9.102   8.926  67.218  1.00  0.00    -0.132 OA 
HETATM   23  C   UNL     1     -10.085  11.421  62.955  1.00  0.00    -0.333 A  
HETATM   24  C   UNL     1      -9.993  10.333  65.556  1.00  0.00    -0.364 A  
HETATM   25  O   UNL     1     -11.401  13.201  63.687  1.00  0.00    -0.383 OA 
HETATM   26  H   UNL     1      -8.248   8.093  63.908  1.00  0.00     0.000 HD 
HETATM   27  C   UNL     1     -10.705  11.508  65.313  1.00  0.00    -0.337 A  
HETATM   28  O   UNL     1      -8.674   8.523  64.640  1.00  0.00    -0.118 OA 
HETATM   29  C   UNL     1     -10.740  12.047  64.011  1.00  0.00    -0.375 A  
HETATM   30  C   UNL     1     -11.406  12.206  66.406  1.00  0.00    -0.356 C  
BRANCH  14  31
HETATM   31  N   UNL     1     -12.512  13.649  68.711  1.00  0.00    -0.218 NA 
HETATM   32  H   UNL     1     -13.429  13.733  68.271  1.00  0.00     0.000 HD 
BRANCH  31  33
HETATM   33  C   UNL     1     -11.840  14.863  69.153  1.00  0.00    -0.307 C  
BRANCH  33  34
HETATM   34  C   UNL     1     -12.569  15.483  70.357  1.00  0.00    -0.378 C  
BRANCH  34  35
HETATM   35  N   UNL     1     -11.675  16.354  71.134  1.00  0.00    -0.620 NA 
HETATM   36  H   UNL     1     -11.752  17.330  70.848  1.00  0.00     0.000 HD 
BRANCH  35  37
HETATM   37  C   UNL     1     -11.919  16.185  72.572  1.00  0.00    -0.561 C  
BRANCH  37  38
HETATM   38  C   UNL     1     -13.199  15.379  72.809  1.00  0.00    -0.490 C  
HETATM   39  O   UNL     1     -14.154  16.162  73.522  1.00  0.00    -0.728 OA 
HETATM   40  H   UNL     1     -14.949  15.662  73.670  1.00  0.00     0.000 HD 
ENDBRANCH  37  38
ENDBRANCH  35  37
ENDBRANCH  34  35
ENDBRANCH  33  34
ENDBRANCH  31  33
ENDBRANCH  14  31
ENDBRANCH   9  11
ENDBRANCH   8   9
ENDBRANCH   7   8
ENDBRANCH   5   7
ENDBRANCH   4   5
ENDBRANCH   3   4
TORSDOF 12
ENDMDL
MODEL       25
REMARK 921   NORMALIZED FREE ENERGY PREDICTED BY IDOCK:   -6.00 KCAL/MOL
REMARK 922        TOTAL FREE ENERGY PREDICTED BY IDOCK:  -12.47 KCAL/MOL
REMARK 923 INTER-LIGAND FREE ENERGY PREDICTED BY IDOCK:  -10.79 KCAL/MOL
REMARK 924 INTRA-LIGAND FREE ENERGY PREDICTED BY IDOCK:   -1.68 KCAL/MOL
REMARK 927      BINDING AFFINITY PREDICTED BY RF-SCORE:    0.00 PKD
ROOT
HETATM    1  O   UNL     1     -11.673   6.876  69.201  1.00  0.00    -0.539 OA 
HETATM    2  H   UNL     1     -11.724   6.573  68.303  1.00  0.00     0.000 HD 
HETATM    3  C   UNL     1     -11.108   5.864  70.031  1.00  0.00    -0.341 C  
ENDROOT
BRANCH   3   4
HETATM    4  C   UNL     1     -11.025   6.354  71.480  1.00  0.00    -0.263 C  
BRANCH   4   5
HETATM    5  N   UNL     1     -12.311   6.829  72.011  1.00  0.00    -0.475 NA 
HETATM    6  H   UNL     1     -12.676   6.193  72.720  1.00  0.00     0.000 HD 
BRANCH   5   7
HETATM    7  C   UNL     1     -12.220   8.203  72.520  1.00  0.00    -0.278 C  
BRANCH   7   8
HETATM    8  C   UNL     1     -13.074   9.152  71.669  1.00  0.00    -0.369 C  
BRANCH   8   9
HETATM    9  N   UNL     1     -12.301   9.693  70.565  1.00  0.00    -0.481 NA 
HETATM   10  H   UNL     1     -11.773   9.050  69.975  1.00  0.00     0.000 HD 
BRANCH   9  11
HETATM   11  C   UNL     1     -12.251  11.050  70.278  1.00  0.00    -0.363 A  
HETATM   12  C   UNL     1     -12.728  11.962  71.219  1.00  0.00    -0.401 A  
HETATM   13  C   UNL     1     -12.729  13.322  70.962  1.00  0.00    -0.374 A  
HETATM   14  C   UNL     1     -12.333  13.830  69.723  1.00  0.00    -0.255 A  
HETATM   15  H   UNL     1     -10.340  14.582  63.912  1.00  0.00     0.000 HD 
HETATM   16  C   UNL     1     -11.871  12.916  68.740  1.00  0.00    -0.353 A  
HETATM   17  C   UNL     1     -11.778  11.543  69.034  1.00  0.00    -0.400 A  
HETATM   18  C   UNL     1      -9.856  10.735  64.451  1.00  0.00    -0.374 A  
HETATM   19  O   UNL     1     -11.642  14.568  67.048  1.00  0.00    -0.359 OA 
HETATM   20  C   UNL     1     -10.258  10.243  65.694  1.00  0.00    -0.231 A  
HETATM   21  C   UNL     1     -11.125  10.621  68.056  1.00  0.00    -0.301 C  
HETATM   22  O   UNL     1     -10.799   9.493  68.411  1.00  0.00    -0.207 OA 
HETATM   23  C   UNL     1      -9.984  12.089  64.173  1.00  0.00    -0.289 A  
HETATM   24  C   UNL     1     -10.773  11.103  66.695  1.00  0.00    -0.322 A  
HETATM   25  O   UNL     1     -10.611  14.256  64.762  1.00  0.00    -0.418 OA 
HETATM   26  H   UNL     1      -9.777   8.327  65.254  1.00  0.00     0.000 HD 
HETATM   27  C   UNL     1     -10.919  12.458  66.396  1.00  0.00    -0.315 A  
HETATM   28  O   UNL     1     -10.122   8.904  65.925  1.00  0.00    -0.194 OA 
HETATM   29  C   UNL     1     -10.517  12.942  65.135  1.00  0.00    -0.309 A  
HETATM   30  C   UNL     1     -11.473  13.396  67.389  1.00  0.00    -0.333 C  
BRANCH  14  31
HETATM   31  N   UNL     1     -12.313  15.202  69.547  1.00  0.00    -0.566 NA 
HETATM   32  H   UNL     1     -12.961  15.616  68.876  1.00  0.00     0.000 HD 
BRANCH  31  33
HETATM   33  C   UNL     1     -11.409  16.082  70.275  1.00  0.00    -0.382 C  
BRANCH  33  34
HETATM   34  C   UNL     1     -10.153  16.384  69.440  1.00  0.00    -0.243 C  
BRANCH  34  35
HETATM   35  N   UNL     1      -9.148  15.320  69.583  1.00  0.00    -0.429 NA 
HETATM   36  H   UNL     1      -9.518  14.408  69.313  1.00  0.00     0.000 HD 
BRANCH  35  37
HETATM   37  C   UNL     1      -7.932  15.661  68.834  1.00  0.00    -0.193 C  
BRANCH  37  38
HETATM   38  C   UNL     1      -7.850  17.171  68.601  1.00  0.00    -0.265 C  
HETATM   39  O   UNL     1      -6.703  17.492  67.818  1.00  0.00    -0.167 OA 
HETATM   40  H   UNL     1      -6.651  18.430  67.674  1.00  0.00     0.000 HD 
ENDBRANCH  37  38
ENDBRANCH  35  37
ENDBRANCH  34  35
ENDBRANCH  33  34
ENDBRANCH  31  33
ENDBRANCH  14  31
ENDBRANCH   9  11
ENDBRANCH   8   9
ENDBRANCH   7   8
ENDBRANCH   5   7
ENDBRANCH   4   5
ENDBRANCH   3   4
TORSDOF 12
ENDMDL
MODEL       26
REMARK 921   NORMALIZED FREE ENERGY PREDICTED BY IDOCK:   -5.99 KCAL/MOL
REMARK 922        TOTAL FREE ENERGY PREDICTED BY IDOCK:  -12.46 KCAL/MOL
REMARK 923 INTER-LIGAND FREE ENERGY PREDICTED BY IDOCK:  -10.85 KCAL/MOL
REMARK 924 INTRA-LIGAND FREE ENERGY PREDICTED BY IDOCK:   -1.60 KCAL/MOL
REMARK 927      BINDING AFFINITY PREDICTED BY RF-SCORE:    0.00 PKD
ROOT
HETATM    1  O   UNL     1     -11.036  15.292  70.847  1.00  0.00    -0.372 OA 
HETATM    2  H   UNL     1     -10.921  15.778  70.039  1.00  0.00     0.000 HD 
HETATM    3  C   UNL     1     -11.780  16.065  71.785  1.00  0.00    -0.509 C  
ENDROOT
BRANCH   3   4
HETATM    4  C   UNL     1     -11.967  15.281  73.088  1.00  0.00    -0.418 C  
BRANCH   4   5
HETATM    5  N   UNL     1     -13.360  14.878  73.333  1.00  0.00    -0.581 NA 
HETATM    6  H   UNL     1     -13.950  15.687  73.528  1.00  0.00     0.000 HD 
BRANCH   5   7
HETATM    7  C   UNL     1     -13.902  14.074  72.229  1.00  0.00    -0.557 C  
BRANCH   7   8
HETATM    8  C   UNL     1     -13.213  12.705  72.170  1.00  0.00    -0.421 C  
BRANCH   8   9
HETATM    9  N   UNL     1     -12.277  12.644  71.062  1.00  0.00    -0.398 NA 
HETATM   10  H   UNL     1     -11.851  13.510  70.733  1.00  0.00     0.000 HD 
BRANCH   9  11
HETATM   11  C   UNL     1     -11.938  11.456  70.431  1.00  0.00    -0.374 A  
HETATM   12  C   UNL     1     -11.896  10.278  71.175  1.00  0.00    -0.455 A  
HETATM   13  C   UNL     1     -11.530   9.075  70.595  1.00  0.00    -0.291 A  
HETATM   14  C   UNL     1     -11.108   9.007  69.266  1.00  0.00     0.060 A  
HETATM   15  H   UNL     1      -9.512  10.227  63.412  1.00  0.00     0.000 HD 
HETATM   16  C   UNL     1     -11.115  10.200  68.497  1.00  0.00    -0.266 A  
HETATM   17  C   UNL     1     -11.580  11.404  69.058  1.00  0.00    -0.383 A  
HETATM   18  C   UNL     1     -10.844  13.698  64.636  1.00  0.00    -0.416 A  
HETATM   19  O   UNL     1     -10.121   9.193  66.588  1.00  0.00    -0.244 OA 
HETATM   20  C   UNL     1     -11.261  13.751  65.968  1.00  0.00    -0.304 A  
HETATM   21  C   UNL     1     -11.748  12.607  68.188  1.00  0.00    -0.347 C  
HETATM   22  O   UNL     1     -12.397  13.565  68.597  1.00  0.00    -0.232 OA 
HETATM   23  C   UNL     1     -10.363  12.506  64.113  1.00  0.00    -0.416 A  
HETATM   24  C   UNL     1     -11.229  12.601  66.796  1.00  0.00    -0.347 A  
HETATM   25  O   UNL     1      -9.799  10.253  64.317  1.00  0.00    -0.329 OA 
HETATM   26  H   UNL     1     -11.743  15.715  65.891  1.00  0.00     0.000 HD 
HETATM   27  C   UNL     1     -10.721  11.415  66.266  1.00  0.00    -0.322 A  
HETATM   28  O   UNL     1     -11.721  14.944  66.446  1.00  0.00    -0.307 OA 
HETATM   29  C   UNL     1     -10.296  11.376  64.922  1.00  0.00    -0.292 A  
HETATM   30  C   UNL     1     -10.639  10.193  67.087  1.00  0.00    -0.246 C  
BRANCH  14  31
HETATM   31  N   UNL     1     -10.801   7.767  68.733  1.00  0.00    -0.416 NA 
HETATM   32  H   UNL     1     -11.287   7.467  67.888  1.00  0.00     0.000 HD 
BRANCH  31  33
HETATM   33  C   UNL     1      -9.815   6.872  69.324  1.00  0.00    -0.157 C  
BRANCH  33  34
HETATM   34  C   UNL     1      -9.480   5.720  68.361  1.00  0.00    -0.122 C  
BRANCH  34  35
HETATM   35  N   UNL     1      -8.873   6.220  67.119  1.00  0.00    -0.109 NA 
HETATM   36  H   UNL     1      -7.860   6.099  67.115  1.00  0.00     0.000 HD 
BRANCH  35  37
HETATM   37  C   UNL     1      -9.505   5.591  65.952  1.00  0.00    -0.096 C  
BRANCH  37  38
HETATM   38  C   UNL     1     -10.899   5.071  66.310  1.00  0.00    -0.083 C  
HETATM   39  O   UNL     1     -11.520   4.485  65.169  1.00  0.00    -1.105 OA 
HETATM   40  H   UNL     1     -12.385   4.162  65.391  1.00  0.00     0.000 HD 
ENDBRANCH  37  38
ENDBRANCH  35  37
ENDBRANCH  34  35
ENDBRANCH  33  34
ENDBRANCH  31  33
ENDBRANCH  14  31
ENDBRANCH   9  11
ENDBRANCH   8   9
ENDBRANCH   7   8
ENDBRANCH   5   7
ENDBRANCH   4   5
ENDBRANCH   3   4
TORSDOF 12
ENDMDL
MODEL       27
REMARK 921   NORMALIZED FREE ENERGY PREDICTED BY IDOCK:   -5.97 KCAL/MOL
REMARK 922        TOTAL FREE ENERGY PREDICTED BY IDOCK:  -12.42 KCAL/MOL
REMARK 923 INTER-LIGAND FREE ENERGY PREDICTED BY IDOCK:  -10.48 KCAL/MOL
REMARK 924 INTRA-LIGAND FREE ENERGY PREDICTED BY IDOCK:   -1.94 KCAL/MOL
REMARK 927      BINDING AFFINITY PREDICTED BY RF-SCORE:    0.00 PKD
ROOT
HETATM    1  O   UNL     1      -7.565   8.189  65.806  1.00  0.00    -0.078 OA 
HETATM    2  H   UNL     1      -6.938   7.917  66.466  1.00  0.00     0.000 HD 
HETATM    3  C   UNL     1      -7.083   7.862  64.505  1.00  0.00    -0.073 C  
ENDROOT
BRANCH   3   4
HETATM    4  C   UNL     1      -8.093   8.299  63.441  1.00  0.00    -0.133 C  
BRANCH   4   5
HETATM    5  N   UNL     1      -8.164   9.757  63.266  1.00  0.00    -0.143 NA 
HETATM    6  H   UNL     1      -7.290  10.128  62.893  1.00  0.00     0.000 HD 
BRANCH   5   7
HETATM    7  C   UNL     1      -9.310  10.156  62.438  1.00  0.00    -0.268 C  
BRANCH   7   8
HETATM    8  C   UNL     1     -10.100  11.282  63.117  1.00  0.00    -0.345 C  
BRANCH   8   9
HETATM    9  N   UNL     1      -9.559  11.573  64.433  1.00  0.00    -0.373 NA 
HETATM   10  H   UNL     1      -8.609  11.273  64.649  1.00  0.00     0.000 HD 
BRANCH   9  11
HETATM   11  C   UNL     1     -10.281  12.244  65.409  1.00  0.00    -0.270 A  
HETATM   12  C   UNL     1     -10.637  13.576  65.198  1.00  0.00    -0.364 A  
HETATM   13  C   UNL     1     -11.327  14.295  66.159  1.00  0.00    -0.342 A  
HETATM   14  C   UNL     1     -11.623  13.745  67.407  1.00  0.00    -0.362 A  
HETATM   15  H   UNL     1     -12.212  10.068  72.352  1.00  0.00     0.000 HD 
HETATM   16  C   UNL     1     -11.244  12.399  67.654  1.00  0.00    -0.340 A  
HETATM   17  C   UNL     1     -10.629  11.637  66.644  1.00  0.00    -0.281 A  
HETATM   18  C   UNL     1     -10.595   7.656  69.727  1.00  0.00    -0.245 A  
HETATM   19  O   UNL     1     -11.931  12.431  69.929  1.00  0.00    -0.322 OA 
HETATM   20  C   UNL     1     -10.304   8.221  68.483  1.00  0.00    -0.199 A  
HETATM   21  C   UNL     1     -10.399  10.176  66.858  1.00  0.00    -0.236 C  
HETATM   22  O   UNL     1     -10.119   9.460  65.901  1.00  0.00    -0.296 OA 
HETATM   23  C   UNL     1     -11.176   8.435  70.717  1.00  0.00    -0.290 A  
HETATM   24  C   UNL     1     -10.615   9.574  68.199  1.00  0.00    -0.265 A  
HETATM   25  O   UNL     1     -12.022  10.459  71.507  1.00  0.00    -0.333 OA 
HETATM   26  H   UNL     1      -9.518   6.516  67.729  1.00  0.00     0.000 HD 
HETATM   27  C   UNL     1     -11.177  10.353  69.210  1.00  0.00    -0.304 A  
HETATM   28  O   UNL     1      -9.726   7.423  67.539  1.00  0.00    -0.138 OA 
HETATM   29  C   UNL     1     -11.459   9.773  70.464  1.00  0.00    -0.300 A  
HETATM   30  C   UNL     1     -11.499  11.774  68.980  1.00  0.00    -0.297 C  
BRANCH  14  31
HETATM   31  N   UNL     1     -12.357  14.499  68.305  1.00  0.00    -0.595 NA 
HETATM   32  H   UNL     1     -13.303  14.195  68.538  1.00  0.00     0.000 HD 
BRANCH  31  33
HETATM   33  C   UNL     1     -11.841  15.707  68.934  1.00  0.00    -0.352 C  
BRANCH  33  34
HETATM   34  C   UNL     1     -12.344  15.825  70.383  1.00  0.00    -0.333 C  
BRANCH  34  35
HETATM   35  N   UNL     1     -13.473  14.917  70.632  1.00  0.00    -0.640 NA 
HETATM   36  H   UNL     1     -13.208  13.939  70.513  1.00  0.00     0.000 HD 
BRANCH  35  37
HETATM   37  C   UNL     1     -14.049  15.170  71.960  1.00  0.00    -0.559 C  
BRANCH  37  38
HETATM   38  C   UNL     1     -12.945  15.253  73.017  1.00  0.00    -0.493 C  
HETATM   39  O   UNL     1     -13.199  16.329  73.917  1.00  0.00    -0.905 OA 
HETATM   40  H   UNL     1     -12.514  16.381  74.573  1.00  0.00     0.000 HD 
ENDBRANCH  37  38
ENDBRANCH  35  37
ENDBRANCH  34  35
ENDBRANCH  33  34
ENDBRANCH  31  33
ENDBRANCH  14  31
ENDBRANCH   9  11
ENDBRANCH   8   9
ENDBRANCH   7   8
ENDBRANCH   5   7
ENDBRANCH   4   5
ENDBRANCH   3   4
TORSDOF 12
ENDMDL
MODEL       28
REMARK 921   NORMALIZED FREE ENERGY PREDICTED BY IDOCK:   -5.94 KCAL/MOL
REMARK 922        TOTAL FREE ENERGY PREDICTED BY IDOCK:  -12.38 KCAL/MOL
REMARK 923 INTER-LIGAND FREE ENERGY PREDICTED BY IDOCK:  -10.35 KCAL/MOL
REMARK 924 INTRA-LIGAND FREE ENERGY PREDICTED BY IDOCK:   -2.02 KCAL/MOL
REMARK 927      BINDING AFFINITY PREDICTED BY RF-SCORE:    0.00 PKD
ROOT
HETATM    1  O   UNL     1     -14.126  13.237  72.582  1.00  0.00    -0.744 OA 
HETATM    2  H   UNL     1     -13.896  12.532  73.175  1.00  0.00     0.000 HD 
HETATM    3  C   UNL     1     -13.310  14.378  72.832  1.00  0.00    -0.478 C  
ENDROOT
BRANCH   3   4
HETATM    4  C   UNL     1     -13.681  15.514  71.875  1.00  0.00    -0.492 C  
BRANCH   4   5
HETATM    5  N   UNL     1     -13.344  15.230  70.472  1.00  0.00    -0.708 NA 
HETATM    6  H   UNL     1     -14.081  15.548  69.843  1.00  0.00     0.000 HD 
BRANCH   5   7
HETATM    7  C   UNL     1     -12.040  15.793  70.096  1.00  0.00    -0.333 C  
BRANCH   7   8
HETATM    8  C   UNL     1     -11.709  15.458  68.637  1.00  0.00    -0.354 C  
BRANCH   8   9
HETATM    9  N   UNL     1     -12.191  14.134  68.287  1.00  0.00    -0.573 NA 
HETATM   10  H   UNL     1     -13.166  13.902  68.478  1.00  0.00     0.000 HD 
BRANCH   9  11
HETATM   11  C   UNL     1     -11.381  13.170  67.704  1.00  0.00    -0.298 A  
HETATM   12  C   UNL     1     -10.770  13.444  66.481  1.00  0.00    -0.287 A  
HETATM   13  C   UNL     1      -9.981  12.500  65.846  1.00  0.00    -0.269 A  
HETATM   14  C   UNL     1      -9.833  11.210  66.360  1.00  0.00    -0.211 A  
HETATM   15  H   UNL     1     -10.105   6.039  69.752  1.00  0.00     0.000 HD 
HETATM   16  C   UNL     1     -10.471  10.900  67.590  1.00  0.00    -0.244 A  
HETATM   17  C   UNL     1     -11.192  11.888  68.285  1.00  0.00    -0.317 A  
HETATM   18  C   UNL     1     -12.082   8.582  71.977  1.00  0.00    -0.428 A  
HETATM   19  O   UNL     1      -9.855   8.606  67.542  1.00  0.00    -0.160 OA 
HETATM   20  C   UNL     1     -12.222   9.867  71.449  1.00  0.00    -0.408 A  
HETATM   21  C   UNL     1     -11.706  11.599  69.658  1.00  0.00    -0.350 C  
HETATM   22  O   UNL     1     -12.091  12.523  70.368  1.00  0.00    -0.362 OA 
HETATM   23  C   UNL     1     -11.390   7.616  71.261  1.00  0.00    -0.286 A  
HETATM   24  C   UNL     1     -11.648  10.218  70.202  1.00  0.00    -0.376 A  
HETATM   25  O   UNL     1     -10.192   6.913  69.388  1.00  0.00    -0.172 OA 
HETATM   26  H   UNL     1     -13.301  10.552  73.019  1.00  0.00     0.000 HD 
HETATM   27  C   UNL     1     -10.976   9.232  69.480  1.00  0.00    -0.169 A  
HETATM   28  O   UNL     1     -12.916  10.786  72.183  1.00  0.00    -0.424 OA 
HETATM   29  C   UNL     1     -10.847   7.936  70.020  1.00  0.00    -0.238 A  
HETATM   30  C   UNL     1     -10.380   9.531  68.165  1.00  0.00    -0.208 C  
BRANCH  14  31
HETATM   31  N   UNL     1      -8.993  10.329  65.703  1.00  0.00    -0.164 NA 
HETATM   32  H   UNL     1      -9.388   9.462  65.336  1.00  0.00     0.000 HD 
BRANCH  31  33
HETATM   33  C   UNL     1      -7.572  10.581  65.510  1.00  0.00    -0.120 C  
BRANCH  33  34
HETATM   34  C   UNL     1      -6.905  10.980  66.838  1.00  0.00    -0.121 C  
BRANCH  34  35
HETATM   35  N   UNL     1      -6.098  12.200  66.686  1.00  0.00    -0.496 NA 
HETATM   36  H   UNL     1      -6.264  12.656  65.788  1.00  0.00     0.000 HD 
BRANCH  35  37
HETATM   37  C   UNL     1      -6.331  13.111  67.814  1.00  0.00    -0.156 C  
BRANCH  37  38
HETATM   38  C   UNL     1      -7.252  12.460  68.849  1.00  0.00    -0.061 C  
HETATM   39  O   UNL     1      -6.705  12.599  70.158  1.00  0.00    -0.346 OA 
HETATM   40  H   UNL     1      -7.275  12.195  70.801  1.00  0.00     0.000 HD 
ENDBRANCH  37  38
ENDBRANCH  35  37
ENDBRANCH  34  35
ENDBRANCH  33  34
ENDBRANCH  31  33
ENDBRANCH  14  31
ENDBRANCH   9  11
ENDBRANCH   8   9
ENDBRANCH   7   8
ENDBRANCH   5   7
ENDBRANCH   4   5
ENDBRANCH   3   4
TORSDOF 12
ENDMDL
MODEL       29
REMARK 921   NORMALIZED FREE ENERGY PREDICTED BY IDOCK:   -5.93 KCAL/MOL
REMARK 922        TOTAL FREE ENERGY PREDICTED BY IDOCK:  -12.36 KCAL/MOL
REMARK 923 INTER-LIGAND FREE ENERGY PREDICTED BY IDOCK:  -11.01 KCAL/MOL
REMARK 924 INTRA-LIGAND FREE ENERGY PREDICTED BY IDOCK:   -1.35 KCAL/MOL
REMARK 927      BINDING AFFINITY PREDICTED BY RF-SCORE:    0.00 PKD
ROOT
HETATM    1  O   UNL     1     -11.613   1.992  63.663  1.00  0.00    -0.568 OA 
HETATM    2  H   UNL     1     -11.978   1.628  62.865  1.00  0.00     0.000 HD 
HETATM    3  C   UNL     1     -10.704   3.045  63.353  1.00  0.00    -0.246 C  
ENDROOT
BRANCH   3   4
HETATM    4  C   UNL     1     -10.115   3.632  64.639  1.00  0.00    -0.162 C  
BRANCH   4   5
HETATM    5  N   UNL     1     -11.014   4.580  65.313  1.00  0.00    -0.875 NA 
HETATM    6  H   UNL     1     -11.935   4.170  65.469  1.00  0.00     0.000 HD 
BRANCH   5   7
HETATM    7  C   UNL     1     -10.437   5.088  66.565  1.00  0.00    -0.276 C  
BRANCH   7   8
HETATM    8  C   UNL     1      -9.011   5.603  66.332  1.00  0.00    -0.134 C  
BRANCH   8   9
HETATM    9  N   UNL     1      -8.782   6.839  67.059  1.00  0.00    -0.113 NA 
HETATM   10  H   UNL     1      -8.388   6.787  67.998  1.00  0.00     0.000 HD 
BRANCH   9  11
HETATM   11  C   UNL     1      -9.075   8.086  66.529  1.00  0.00    -0.173 A  
HETATM   12  C   UNL     1      -8.583   8.423  65.268  1.00  0.00    -0.177 A  
HETATM   13  C   UNL     1      -8.821   9.669  64.714  1.00  0.00    -0.242 A  
HETATM   14  C   UNL     1      -9.490  10.666  65.426  1.00  0.00    -0.215 A  
HETATM   15  H   UNL     1     -12.524  13.991  69.676  1.00  0.00     0.000 HD 
HETATM   16  C   UNL     1      -9.975  10.355  66.724  1.00  0.00    -0.256 A  
HETATM   17  C   UNL     1      -9.818   9.059  67.249  1.00  0.00    -0.252 A  
HETATM   18  C   UNL     1     -12.348  10.466  71.368  1.00  0.00    -0.500 A  
HETATM   19  O   UNL     1     -10.723  12.564  67.175  1.00  0.00    -0.232 OA 
HETATM   20  C   UNL     1     -11.676   9.479  70.644  1.00  0.00    -0.262 A  
HETATM   21  C   UNL     1     -10.486   8.697  68.535  1.00  0.00    -0.172 C  
HETATM   22  O   UNL     1     -10.581   7.517  68.858  1.00  0.00    -0.211 OA 
HETATM   23  C   UNL     1     -12.466  11.744  70.843  1.00  0.00    -0.416 A  
HETATM   24  C   UNL     1     -11.129   9.749  69.365  1.00  0.00    -0.205 A  
HETATM   25  O   UNL     1     -12.068  13.324  69.175  1.00  0.00    -0.306 OA 
HETATM   26  H   UNL     1     -11.942   8.055  72.057  1.00  0.00     0.000 HD 
HETATM   27  C   UNL     1     -11.232  11.044  68.858  1.00  0.00    -0.326 A  
HETATM   28  O   UNL     1     -11.576   8.236  71.200  1.00  0.00    -0.272 OA 
HETATM   29  C   UNL     1     -11.908  12.033  69.602  1.00  0.00    -0.333 A  
HETATM   30  C   UNL     1     -10.660  11.390  67.544  1.00  0.00    -0.213 C  
BRANCH  14  31
HETATM   31  N   UNL     1      -9.738  11.874  64.799  1.00  0.00    -0.403 NA 
HETATM   32  H   UNL     1      -9.500  12.736  65.290  1.00  0.00     0.000 HD 
BRANCH  31  33
HETATM   33  C   UNL     1     -10.323  11.971  63.469  1.00  0.00    -0.461 C  
BRANCH  33  34
HETATM   34  C   UNL     1     -11.835  12.242  63.557  1.00  0.00    -0.514 C  
BRANCH  34  35
HETATM   35  N   UNL     1     -12.149  13.167  64.656  1.00  0.00    -0.386 NA 
HETATM   36  H   UNL     1     -11.407  13.193  65.355  1.00  0.00     0.000 HD 
BRANCH  35  37
HETATM   37  C   UNL     1     -12.452  14.503  64.129  1.00  0.00    -0.180 C  
BRANCH  37  38
HETATM   38  C   UNL     1     -11.435  15.526  64.641  1.00  0.00    -0.324 C  
HETATM   39  O   UNL     1     -11.472  16.707  63.843  1.00  0.00    -1.604 OA 
HETATM   40  H   UNL     1     -10.841  17.342  64.160  1.00  0.00     0.000 HD 
ENDBRANCH  37  38
ENDBRANCH  35  37
ENDBRANCH  34  35
ENDBRANCH  33  34
ENDBRANCH  31  33
ENDBRANCH  14  31
ENDBRANCH   9  11
ENDBRANCH   8   9
ENDBRANCH   7   8
ENDBRANCH   5   7
ENDBRANCH   4   5
ENDBRANCH   3   4
TORSDOF 12
ENDMDL
MODEL       30
REMARK 921   NORMALIZED FREE ENERGY PREDICTED BY IDOCK:   -5.92 KCAL/MOL
REMARK 922        TOTAL FREE ENERGY PREDICTED BY IDOCK:  -12.34 KCAL/MOL
REMARK 923 INTER-LIGAND FREE ENERGY PREDICTED BY IDOCK:  -11.11 KCAL/MOL
REMARK 924 INTRA-LIGAND FREE ENERGY PREDICTED BY IDOCK:   -1.23 KCAL/MOL
REMARK 927      BINDING AFFINITY PREDICTED BY RF-SCORE:    0.00 PKD
ROOT
HETATM    1  O   UNL     1     -11.205  11.100  63.193  1.00  0.00    -0.807 OA 
HETATM    2  H   UNL     1     -11.427  10.221  63.473  1.00  0.00     0.000 HD 
HETATM    3  C   UNL     1     -12.236  12.011  63.566  1.00  0.00    -0.547 C  
ENDROOT
BRANCH   3   4
HETATM    4  C   UNL     1     -11.877  13.430  63.114  1.00  0.00     0.068 C  
BRANCH   4   5
HETATM    5  N   UNL     1     -12.509  14.479  63.928  1.00  0.00    -1.031 NA 
HETATM    6  H   UNL     1     -13.505  14.299  64.056  1.00  0.00     0.000 HD 
BRANCH   5   7
HETATM    7  C   UNL     1     -11.829  14.659  65.218  1.00  0.00    -0.324 C  
BRANCH   7   8
HETATM    8  C   UNL     1     -10.309  14.552  65.045  1.00  0.00    -0.413 C  
BRANCH   8   9
HETATM    9  N   UNL     1      -9.685  14.041  66.252  1.00  0.00    -0.308 NA 
HETATM   10  H   UNL     1      -8.961  14.600  66.703  1.00  0.00     0.000 HD 
BRANCH   9  11
HETATM   11  C   UNL     1     -10.032  12.822  66.817  1.00  0.00    -0.237 A  
HETATM   12  C   UNL     1      -9.713  11.644  66.143  1.00  0.00    -0.253 A  
HETATM   13  C   UNL     1     -10.069  10.407  66.653  1.00  0.00    -0.279 A  
HETATM   14  C   UNL     1     -10.833  10.292  67.816  1.00  0.00    -0.292 A  
HETATM   15  H   UNL     1     -14.143  11.327  72.943  1.00  0.00     0.000 HD 
HETATM   16  C   UNL     1     -11.194  11.480  68.503  1.00  0.00    -0.315 A  
HETATM   17  C   UNL     1     -10.749  12.732  68.039  1.00  0.00    -0.246 A  
HETATM   18  C   UNL     1     -12.978  14.937  71.979  1.00  0.00    -0.414 A  
HETATM   19  O   UNL     1     -12.544  10.362  70.107  1.00  0.00    -0.253 OA 
HETATM   20  C   UNL     1     -12.216  15.037  70.813  1.00  0.00    -0.329 A  
HETATM   21  C   UNL     1     -10.986  13.953  68.867  1.00  0.00    -0.263 C  
HETATM   22  O   UNL     1     -10.377  14.987  68.610  1.00  0.00    -0.224 OA 
HETATM   23  C   UNL     1     -13.429  13.696  72.402  1.00  0.00    -0.685 A  
HETATM   24  C   UNL     1     -11.868  13.888  70.060  1.00  0.00    -0.384 A  
HETATM   25  O   UNL     1     -13.621  11.385  72.151  1.00  0.00    -0.297 OA 
HETATM   26  H   UNL     1     -12.030  17.049  70.931  1.00  0.00     0.000 HD 
HETATM   27  C   UNL     1     -12.348  12.647  70.482  1.00  0.00    -0.350 A  
HETATM   28  O   UNL     1     -11.797  16.278  70.427  1.00  0.00    -0.226 OA 
HETATM   29  C   UNL     1     -13.122  12.561  71.657  1.00  0.00    -0.315 A  
HETATM   30  C   UNL     1     -12.039  11.420  69.726  1.00  0.00    -0.320 C  
BRANCH  14  31
HETATM   31  N   UNL     1     -11.116   9.026  68.298  1.00  0.00    -0.467 NA 
HETATM   32  H   UNL     1     -12.032   8.857  68.713  1.00  0.00     0.000 HD 
BRANCH  31  33
HETATM   33  C   UNL     1     -10.165   7.925  68.241  1.00  0.00    -0.203 C  
BRANCH  33  34
HETATM   34  C   UNL     1     -10.694   6.794  67.343  1.00  0.00    -0.335 C  
BRANCH  34  35
HETATM   35  N   UNL     1      -9.870   6.642  66.134  1.00  0.00    -0.405 NA 
HETATM   36  H   UNL     1     -10.185   7.253  65.380  1.00  0.00     0.000 HD 
BRANCH  35  37
HETATM   37  C   UNL     1      -8.452   6.851  66.452  1.00  0.00    -0.130 C  
BRANCH  37  38
HETATM   38  C   UNL     1      -7.803   7.783  65.426  1.00  0.00    -0.114 C  
HETATM   39  O   UNL     1      -8.799   8.395  64.609  1.00  0.00    -0.408 OA 
HETATM   40  H   UNL     1      -8.396   8.973  63.972  1.00  0.00     0.000 HD 
ENDBRANCH  37  38
ENDBRANCH  35  37
ENDBRANCH  34  35
ENDBRANCH  33  34
ENDBRANCH  31  33
ENDBRANCH  14  31
ENDBRANCH   9  11
ENDBRANCH   8   9
ENDBRANCH   7   8
ENDBRANCH   5   7
ENDBRANCH   4   5
ENDBRANCH   3   4
TORSDOF 12
ENDMDL
MODEL       31
REMARK 921   NORMALIZED FREE ENERGY PREDICTED BY IDOCK:   -5.92 KCAL/MOL
REMARK 922        TOTAL FREE ENERGY PREDICTED BY IDOCK:  -12.34 KCAL/MOL
REMARK 923 INTER-LIGAND FREE ENERGY PREDICTED BY IDOCK:  -10.18 KCAL/MOL
REMARK 924 INTRA-LIGAND FREE ENERGY PREDICTED BY IDOCK:   -2.16 KCAL/MOL
REMARK 927      BINDING AFFINITY PREDICTED BY RF-SCORE:    0.00 PKD
ROOT
HETATM    1  O   UNL     1     -11.455   8.722  69.916  1.00  0.00    -0.452 OA 
HETATM    2  H   UNL     1     -12.099   8.316  70.483  1.00  0.00     0.000 HD 
HETATM    3  C   UNL     1     -10.220   8.886  70.610  1.00  0.00    -0.217 C  
ENDROOT
BRANCH   3   4
HETATM    4  C   UNL     1      -9.181   9.540  69.695  1.00  0.00    -0.200 C  
BRANCH   4   5
HETATM    5  N   UNL     1      -9.706   9.878  68.363  1.00  0.00    -0.147 NA 
HETATM    6  H   UNL     1     -10.526  10.481  68.430  1.00  0.00     0.000 HD 
BRANCH   5   7
HETATM    7  C   UNL     1      -8.674  10.473  67.502  1.00  0.00    -0.125 C  
BRANCH   7   8
HETATM    8  C   UNL     1      -9.286  10.950  66.179  1.00  0.00    -0.186 C  
BRANCH   8   9
HETATM    9  N   UNL     1     -10.515  11.687  66.413  1.00  0.00    -0.236 NA 
HETATM   10  H   UNL     1     -11.403  11.190  66.347  1.00  0.00     0.000 HD 
BRANCH   9  11
HETATM   11  C   UNL     1     -10.532  13.039  66.723  1.00  0.00    -0.259 A  
HETATM   12  C   UNL     1      -9.942  13.946  65.844  1.00  0.00    -0.317 A  
HETATM   13  C   UNL     1      -9.905  15.300  66.129  1.00  0.00    -0.333 A  
HETATM   14  C   UNL     1     -10.380  15.803  67.341  1.00  0.00    -0.282 A  
HETATM   15  H   UNL     1     -12.810  16.538  72.986  1.00  0.00     0.000 HD 
HETATM   16  C   UNL     1     -10.959  14.893  68.264  1.00  0.00    -0.268 A  
HETATM   17  C   UNL     1     -11.085  13.531  67.935  1.00  0.00    -0.288 A  
HETATM   18  C   UNL     1     -13.408  12.726  72.329  1.00  0.00    -0.563 A  
HETATM   19  O   UNL     1     -11.257  16.523  69.966  1.00  0.00    -0.314 OA 
HETATM   20  C   UNL     1     -12.927  12.238  71.112  1.00  0.00    -0.138 A  
HETATM   21  C   UNL     1     -11.854  12.621  68.837  1.00  0.00    -0.302 C  
HETATM   22  O   UNL     1     -12.196  11.514  68.433  1.00  0.00    -0.540 OA 
HETATM   23  C   UNL     1     -13.247  14.067  72.644  1.00  0.00    -0.606 A  
HETATM   24  C   UNL     1     -12.296  13.093  70.174  1.00  0.00    -0.284 A  
HETATM   25  O   UNL     1     -12.484  16.216  72.154  1.00  0.00    -0.465 OA 
HETATM   26  H   UNL     1     -13.522  10.338  71.471  1.00  0.00     0.000 HD 
HETATM   27  C   UNL     1     -12.118  14.435  70.513  1.00  0.00    -0.404 A  
HETATM   28  O   UNL     1     -13.099  10.911  70.843  1.00  0.00    -0.298 OA 
HETATM   29  C   UNL     1     -12.602  14.913  71.748  1.00  0.00    -0.331 A  
HETATM   30  C   UNL     1     -11.446  15.366  69.588  1.00  0.00    -0.320 C  
BRANCH  14  31
HETATM   31  N   UNL     1     -10.357  17.171  67.545  1.00  0.00    -0.331 NA 
HETATM   32  H   UNL     1     -10.235  17.520  68.496  1.00  0.00     0.000 HD 
BRANCH  31  33
HETATM   33  C   UNL     1     -10.499  18.136  66.463  1.00  0.00    -0.341 C  
BRANCH  33  34
HETATM   34  C   UNL     1     -10.214  19.562  66.965  1.00  0.00    -0.426 C  
BRANCH  34  35
HETATM   35  N   UNL     1      -8.924  20.058  66.461  1.00  0.00    -0.445 NA 
HETATM   36  H   UNL     1      -9.024  20.946  65.969  1.00  0.00     0.000 HD 
BRANCH  35  37
HETATM   37  C   UNL     1      -7.948  20.146  67.555  1.00  0.00    -0.317 C  
BRANCH  37  38
HETATM   38  C   UNL     1      -6.982  18.959  67.509  1.00  0.00    -0.202 C  
HETATM   39  O   UNL     1      -7.403  17.941  68.414  1.00  0.00    -0.239 OA 
HETATM   40  H   UNL     1      -6.803  17.204  68.386  1.00  0.00     0.000 HD 
ENDBRANCH  37  38
ENDBRANCH  35  37
ENDBRANCH  34  35
ENDBRANCH  33  34
ENDBRANCH  31  33
ENDBRANCH  14  31
ENDBRANCH   9  11
ENDBRANCH   8   9
ENDBRANCH   7   8
ENDBRANCH   5   7
ENDBRANCH   4   5
ENDBRANCH   3   4
TORSDOF 12
ENDMDL
MODEL       32
REMARK 921   NORMALIZED FREE ENERGY PREDICTED BY IDOCK:   -5.88 KCAL/MOL
REMARK 922        TOTAL FREE ENERGY PREDICTED BY IDOCK:  -12.26 KCAL/MOL
REMARK 923 INTER-LIGAND FREE ENERGY PREDICTED BY IDOCK:  -10.16 KCAL/MOL
REMARK 924 INTRA-LIGAND FREE ENERGY PREDICTED BY IDOCK:   -2.10 KCAL/MOL
REMARK 927      BINDING AFFINITY PREDICTED BY RF-SCORE:    0.00 PKD
ROOT
HETATM    1  O   UNL     1     -10.091  18.368  68.172  1.00  0.00    -0.344 OA 
HETATM    2  H   UNL     1     -10.704  17.727  68.512  1.00  0.00     0.000 HD 
HETATM    3  C   UNL     1     -10.773  19.316  67.354  1.00  0.00    -0.486 C  
ENDROOT
BRANCH   3   4
HETATM    4  C   UNL     1      -9.785  20.349  66.806  1.00  0.00    -0.388 C  
BRANCH   4   5
HETATM    5  N   UNL     1      -8.920  19.822  65.740  1.00  0.00    -0.420 NA 
HETATM    6  H   UNL     1      -9.212  20.162  64.823  1.00  0.00     0.000 HD 
BRANCH   5   7
HETATM    7  C   UNL     1      -7.501  20.112  65.990  1.00  0.00    -0.275 C  
BRANCH   7   8
HETATM    8  C   UNL     1      -6.861  18.995  66.823  1.00  0.00    -0.196 C  
BRANCH   8   9
HETATM    9  N   UNL     1      -7.165  17.691  66.262  1.00  0.00    -0.280 NA 
HETATM   10  H   UNL     1      -7.275  17.607  65.251  1.00  0.00     0.000 HD 
BRANCH   9  11
HETATM   11  C   UNL     1      -7.311  16.553  67.042  1.00  0.00    -0.210 A  
HETATM   12  C   UNL     1      -6.349  16.263  68.008  1.00  0.00    -0.144 A  
HETATM   13  C   UNL     1      -6.436  15.121  68.787  1.00  0.00    -0.086 A  
HETATM   14  C   UNL     1      -7.440  14.174  68.580  1.00  0.00    -0.125 A  
HETATM   15  H   UNL     1     -12.332  10.966  66.558  1.00  0.00     0.000 HD 
HETATM   16  C   UNL     1      -8.414  14.436  67.581  1.00  0.00    -0.191 A  
HETATM   17  C   UNL     1      -8.383  15.641  66.856  1.00  0.00    -0.287 A  
HETATM   18  C   UNL     1     -12.588  14.259  64.456  1.00  0.00    -0.242 A  
HETATM   19  O   UNL     1      -9.489  12.330  67.818  1.00  0.00    -0.185 OA 
HETATM   20  C   UNL     1     -11.576  15.196  64.673  1.00  0.00    -0.357 A  
HETATM   21  C   UNL     1      -9.512  15.980  65.938  1.00  0.00    -0.316 C  
HETATM   22  O   UNL     1      -9.627  17.127  65.518  1.00  0.00    -0.508 OA 
HETATM   23  C   UNL     1     -12.583  13.065  65.162  1.00  0.00    -0.530 A  
HETATM   24  C   UNL     1     -10.550  14.965  65.623  1.00  0.00    -0.358 A  
HETATM   25  O   UNL     1     -11.643  11.601  66.714  1.00  0.00    -0.503 OA 
HETATM   26  H   UNL     1     -12.301  16.511  63.316  1.00  0.00     0.000 HD 
HETATM   27  C   UNL     1     -10.541  13.751  66.309  1.00  0.00    -0.289 A  
HETATM   28  O   UNL     1     -11.614  16.356  63.953  1.00  0.00    -1.100 OA 
HETATM   29  C   UNL     1     -11.565  12.810  66.076  1.00  0.00    -0.383 A  
HETATM   30  C   UNL     1      -9.485  13.444  67.291  1.00  0.00    -0.234 C  
BRANCH  14  31
HETATM   31  N   UNL     1      -7.499  13.078  69.423  1.00  0.00    -0.272 NA 
HETATM   32  H   UNL     1      -8.226  13.053  70.139  1.00  0.00     0.000 HD 
BRANCH  31  33
HETATM   33  C   UNL     1      -6.572  11.959  69.334  1.00  0.00    -0.108 C  
BRANCH  33  34
HETATM   34  C   UNL     1      -7.152  10.715  70.028  1.00  0.00    -0.087 C  
BRANCH  34  35
HETATM   35  N   UNL     1      -8.462  10.351  69.469  1.00  0.00    -0.315 NA 
HETATM   36  H   UNL     1      -8.373   9.886  68.565  1.00  0.00     0.000 HD 
BRANCH  35  37
HETATM   37  C   UNL     1      -9.221   9.541  70.430  1.00  0.00    -0.253 C  
BRANCH  37  38
HETATM   38  C   UNL     1     -10.723   9.797  70.279  1.00  0.00    -0.302 C  
HETATM   39  O   UNL     1     -10.958  11.129  69.828  1.00  0.00    -0.388 OA 
HETATM   40  H   UNL     1     -11.890  11.288  69.735  1.00  0.00     0.000 HD 
ENDBRANCH  37  38
ENDBRANCH  35  37
ENDBRANCH  34  35
ENDBRANCH  33  34
ENDBRANCH  31  33
ENDBRANCH  14  31
ENDBRANCH   9  11
ENDBRANCH   8   9
ENDBRANCH   7   8
ENDBRANCH   5   7
ENDBRANCH   4   5
ENDBRANCH   3   4
TORSDOF 12
ENDMDL
MODEL       33
REMARK 921   NORMALIZED FREE ENERGY PREDICTED BY IDOCK:   -5.82 KCAL/MOL
REMARK 922        TOTAL FREE ENERGY PREDICTED BY IDOCK:  -12.16 KCAL/MOL
REMARK 923 INTER-LIGAND FREE ENERGY PREDICTED BY IDOCK:  -10.84 KCAL/MOL
REMARK 924 INTRA-LIGAND FREE ENERGY PREDICTED BY IDOCK:   -1.32 KCAL/MOL
REMARK 927      BINDING AFFINITY PREDICTED BY RF-SCORE:    0.00 PKD
ROOT
HETATM    1  O   UNL     1      -9.320  16.647  65.456  1.00  0.00    -0.461 OA 
HETATM    2  H   UNL     1      -8.699  16.081  65.014  1.00  0.00     0.000 HD 
HETATM    3  C   UNL     1      -9.161  16.546  66.869  1.00  0.00    -0.220 C  
ENDROOT
BRANCH   3   4
HETATM    4  C   UNL     1     -10.162  17.460  67.581  1.00  0.00    -0.342 C  
BRANCH   4   5
HETATM    5  N   UNL     1     -10.022  17.451  69.045  1.00  0.00    -0.292 NA 
HETATM    6  H   UNL     1     -10.673  18.102  69.483  1.00  0.00     0.000 HD 
BRANCH   5   7
HETATM    7  C   UNL     1     -10.163  16.099  69.602  1.00  0.00    -0.243 C  
BRANCH   7   8
HETATM    8  C   UNL     1     -11.526  15.936  70.285  1.00  0.00    -0.366 C  
BRANCH   8   9
HETATM    9  N   UNL     1     -12.376  15.027  69.538  1.00  0.00    -0.550 NA 
HETATM   10  H   UNL     1     -13.079  15.418  68.912  1.00  0.00     0.000 HD 
BRANCH   9  11
HETATM   11  C   UNL     1     -12.271  13.647  69.639  1.00  0.00    -0.270 A  
HETATM   12  C   UNL     1     -12.570  13.029  70.853  1.00  0.00    -0.364 A  
HETATM   13  C   UNL     1     -12.446  11.660  71.010  1.00  0.00    -0.436 A  
HETATM   14  C   UNL     1     -11.939  10.853  69.990  1.00  0.00    -0.350 A  
HETATM   15  H   UNL     1      -9.602   8.623  64.710  1.00  0.00     0.000 HD 
HETATM   16  C   UNL     1     -11.600  11.465  68.755  1.00  0.00    -0.378 A  
HETATM   17  C   UNL     1     -11.817  12.842  68.562  1.00  0.00    -0.345 A  
HETATM   18  C   UNL     1     -10.186  12.390  63.819  1.00  0.00    -0.404 A  
HETATM   19  O   UNL     1     -10.708   9.479  67.804  1.00  0.00    -0.261 OA 
HETATM   20  C   UNL     1     -10.693  13.185  64.850  1.00  0.00    -0.346 A  
HETATM   21  C   UNL     1     -11.624  13.436  67.205  1.00  0.00    -0.358 C  
HETATM   22  O   UNL     1     -12.064  14.557  66.966  1.00  0.00    -0.398 OA 
HETATM   23  C   UNL     1      -9.954  11.041  64.042  1.00  0.00    -0.390 A  
HETATM   24  C   UNL     1     -11.002  12.635  66.119  1.00  0.00    -0.313 A  
HETATM   25  O   UNL     1      -9.951   9.156  65.415  1.00  0.00    -0.083 OA 
HETATM   26  H   UNL     1     -10.694  14.878  63.742  1.00  0.00     0.000 HD 
HETATM   27  C   UNL     1     -10.742  11.282  66.339  1.00  0.00    -0.320 A  
HETATM   28  O   UNL     1     -10.901  14.509  64.592  1.00  0.00    -0.391 OA 
HETATM   29  C   UNL     1     -10.223  10.492  65.292  1.00  0.00    -0.282 A  
HETATM   30  C   UNL     1     -11.019  10.661  67.647  1.00  0.00    -0.310 C  
BRANCH  14  31
HETATM   31  N   UNL     1     -11.885   9.485  70.194  1.00  0.00    -0.466 NA 
HETATM   32  H   UNL     1     -11.536   8.894  69.439  1.00  0.00     0.000 HD 
BRANCH  31  33
HETATM   33  C   UNL     1     -12.302   8.851  71.437  1.00  0.00    -0.313 C  
BRANCH  33  34
HETATM   34  C   UNL     1     -11.081   8.435  72.273  1.00  0.00    -0.368 C  
BRANCH  34  35
HETATM   35  N   UNL     1     -11.470   7.564  73.392  1.00  0.00    -0.597 NA 
HETATM   36  H   UNL     1     -12.484   7.501  73.490  1.00  0.00     0.000 HD 
BRANCH  35  37
HETATM   37  C   UNL     1     -10.851   6.240  73.249  1.00  0.00    -0.244 C  
BRANCH  37  38
HETATM   38  C   UNL     1     -11.025   5.716  71.822  1.00  0.00    -0.226 C  
HETATM   39  O   UNL     1      -9.782   5.242  71.311  1.00  0.00    -0.154 OA 
HETATM   40  H   UNL     1      -9.890   4.917  70.424  1.00  0.00     0.000 HD 
ENDBRANCH  37  38
ENDBRANCH  35  37
ENDBRANCH  34  35
ENDBRANCH  33  34
ENDBRANCH  31  33
ENDBRANCH  14  31
ENDBRANCH   9  11
ENDBRANCH   8   9
ENDBRANCH   7   8
ENDBRANCH   5   7
ENDBRANCH   4   5
ENDBRANCH   3   4
TORSDOF 12
ENDMDL
MODEL       34
REMARK 921   NORMALIZED FREE ENERGY PREDICTED BY IDOCK:   -5.81 KCAL/MOL
REMARK 922        TOTAL FREE ENERGY PREDICTED BY IDOCK:  -12.15 KCAL/MOL
REMARK 923 INTER-LIGAND FREE ENERGY PREDICTED BY IDOCK:  -11.14 KCAL/MOL
REMARK 924 INTRA-LIGAND FREE ENERGY PREDICTED BY IDOCK:   -1.01 KCAL/MOL
REMARK 927      BINDING AFFINITY PREDICTED BY RF-SCORE:    0.00 PKD
ROOT
HETATM    1  O   UNL     1      -6.948  10.634  63.242  1.00  0.00    -0.337 OA 
HETATM    2  H   UNL     1      -6.243  10.123  63.621  1.00  0.00     0.000 HD 
HETATM    3  C   UNL     1      -8.147   9.864  63.199  1.00  0.00    -0.151 C  
ENDROOT
BRANCH   3   4
HETATM    4  C   UNL     1      -9.284  10.689  62.590  1.00  0.00    -0.309 C  
BRANCH   4   5
HETATM    5  N   UNL     1      -9.344  12.067  63.098  1.00  0.00    -0.651 NA 
HETATM    6  H   UNL     1      -9.007  12.734  62.403  1.00  0.00     0.000 HD 
BRANCH   5   7
HETATM    7  C   UNL     1     -10.690  12.421  63.570  1.00  0.00    -0.430 C  
BRANCH   7   8
HETATM    8  C   UNL     1     -10.611  13.459  64.696  1.00  0.00    -0.415 C  
BRANCH   8   9
HETATM    9  N   UNL     1      -9.732  13.004  65.759  1.00  0.00    -0.444 NA 
HETATM   10  H   UNL     1      -8.818  13.446  65.860  1.00  0.00     0.000 HD 
BRANCH   9  11
HETATM   11  C   UNL     1     -10.082  11.994  66.643  1.00  0.00    -0.198 A  
HETATM   12  C   UNL     1      -9.829  10.668  66.296  1.00  0.00    -0.263 A  
HETATM   13  C   UNL     1     -10.193   9.626  67.131  1.00  0.00    -0.305 A  
HETATM   14  C   UNL     1     -10.900   9.853  68.313  1.00  0.00    -0.230 A  
HETATM   15  H   UNL     1     -13.922  12.341  73.108  1.00  0.00     0.000 HD 
HETATM   16  C   UNL     1     -11.195  11.195  68.672  1.00  0.00    -0.314 A  
HETATM   17  C   UNL     1     -10.741  12.260  67.872  1.00  0.00    -0.243 A  
HETATM   18  C   UNL     1     -12.711  15.517  71.168  1.00  0.00    -0.525 A  
HETATM   19  O   UNL     1     -12.493  10.596  70.570  1.00  0.00    -0.316 OA 
HETATM   20  C   UNL     1     -12.005  15.274  69.988  1.00  0.00    -0.343 A  
HETATM   21  C   UNL     1     -10.903  13.665  68.353  1.00  0.00    -0.256 C  
HETATM   22  O   UNL     1     -10.280  14.569  67.805  1.00  0.00    -0.224 OA 
HETATM   23  C   UNL     1     -13.173  14.451  71.925  1.00  0.00    -0.444 A  
HETATM   24  C   UNL     1     -11.726  13.953  69.556  1.00  0.00    -0.369 A  
HETATM   25  O   UNL     1     -13.439  12.166  72.309  1.00  0.00    -0.491 OA 
HETATM   26  H   UNL     1     -11.761  17.236  69.557  1.00  0.00     0.000 HD 
HETATM   27  C   UNL     1     -12.217  12.889  70.313  1.00  0.00    -0.362 A  
HETATM   28  O   UNL     1     -11.574  16.351  69.268  1.00  0.00    -0.237 OA 
HETATM   29  C   UNL     1     -12.934  13.148  71.499  1.00  0.00    -0.321 A  
HETATM   30  C   UNL     1     -11.980  11.494  69.900  1.00  0.00    -0.351 C  
BRANCH  14  31
HETATM   31  N   UNL     1     -11.192   8.773  69.127  1.00  0.00    -0.413 NA 
HETATM   32  H   UNL     1     -12.161   8.626  69.412  1.00  0.00     0.000 HD 
BRANCH  31  33
HETATM   33  C   UNL     1     -10.180   7.836  69.595  1.00  0.00    -0.206 C  
BRANCH  33  34
HETATM   34  C   UNL     1     -10.836   6.571  70.174  1.00  0.00    -0.282 C  
BRANCH  34  35
HETATM   35  N   UNL     1     -12.217   6.833  70.605  1.00  0.00    -0.530 NA 
HETATM   36  H   UNL     1     -12.871   6.153  70.217  1.00  0.00     0.000 HD 
BRANCH  35  37
HETATM   37  C   UNL     1     -12.293   6.892  72.070  1.00  0.00    -0.269 C  
BRANCH  37  38
HETATM   38  C   UNL     1     -11.909   8.285  72.572  1.00  0.00    -0.373 C  
HETATM   39  O   UNL     1     -13.074   9.083  72.766  1.00  0.00    -0.535 OA 
HETATM   40  H   UNL     1     -12.836   9.949  73.077  1.00  0.00     0.000 HD 
ENDBRANCH  37  38
ENDBRANCH  35  37
ENDBRANCH  34  35
ENDBRANCH  33  34
ENDBRANCH  31  33
ENDBRANCH  14  31
ENDBRANCH   9  11
ENDBRANCH   8   9
ENDBRANCH   7   8
ENDBRANCH   5   7
ENDBRANCH   4   5
ENDBRANCH   3   4
TORSDOF 12
ENDMDL
MODEL       35
REMARK 921   NORMALIZED FREE ENERGY PREDICTED BY IDOCK:   -5.79 KCAL/MOL
REMARK 922        TOTAL FREE ENERGY PREDICTED BY IDOCK:  -12.11 KCAL/MOL
REMARK 923 INTER-LIGAND FREE ENERGY PREDICTED BY IDOCK:  -10.07 KCAL/MOL
REMARK 924 INTRA-LIGAND FREE ENERGY PREDICTED BY IDOCK:   -2.04 KCAL/MOL
REMARK 927      BINDING AFFINITY PREDICTED BY RF-SCORE:    0.00 PKD
ROOT
HETATM    1  O   UNL     1     -11.415   6.371  68.548  1.00  0.00    -0.547 OA 
HETATM    2  H   UNL     1     -12.351   6.271  68.675  1.00  0.00     0.000 HD 
HETATM    3  C   UNL     1     -11.073   6.124  67.186  1.00  0.00    -0.242 C  
ENDROOT
BRANCH   3   4
HETATM    4  C   UNL     1      -9.564   6.286  66.982  1.00  0.00    -0.140 C  
BRANCH   4   5
HETATM    5  N   UNL     1      -9.215   6.975  65.730  1.00  0.00    -0.381 NA 
HETATM    6  H   UNL     1     -10.005   7.509  65.369  1.00  0.00     0.000 HD 
BRANCH   5   7
HETATM    7  C   UNL     1      -8.023   7.820  65.884  1.00  0.00    -0.107 C  
BRANCH   7   8
HETATM    8  C   UNL     1      -8.275   9.217  65.303  1.00  0.00    -0.134 C  
BRANCH   8   9
HETATM    9  N   UNL     1      -9.696   9.457  65.126  1.00  0.00    -0.449 NA 
HETATM   10  H   UNL     1     -10.311   8.657  64.978  1.00  0.00     0.000 HD 
BRANCH   9  11
HETATM   11  C   UNL     1     -10.252  10.727  65.151  1.00  0.00    -0.298 A  
HETATM   12  C   UNL     1     -10.212  11.510  63.998  1.00  0.00    -0.394 A  
HETATM   13  C   UNL     1     -10.724  12.796  63.986  1.00  0.00    -0.457 A  
HETATM   14  C   UNL     1     -11.223  13.392  65.146  1.00  0.00    -0.305 A  
HETATM   15  H   UNL     1     -13.059  14.668  70.918  1.00  0.00     0.000 HD 
HETATM   16  C   UNL     1     -11.247  12.623  66.339  1.00  0.00    -0.350 A  
HETATM   17  C   UNL     1     -10.816  11.283  66.329  1.00  0.00    -0.296 A  
HETATM   18  C   UNL     1     -12.044  10.897  71.197  1.00  0.00    -0.386 A  
HETATM   19  O   UNL     1     -12.012  14.416  67.697  1.00  0.00    -0.377 OA 
HETATM   20  C   UNL     1     -11.546  10.316  70.029  1.00  0.00    -0.276 A  
HETATM   21  C   UNL     1     -11.012  10.436  67.544  1.00  0.00    -0.295 C  
HETATM   22  O   UNL     1     -10.894   9.217  67.459  1.00  0.00    -0.259 OA 
HETATM   23  C   UNL     1     -12.436  12.228  71.190  1.00  0.00    -0.328 A  
HETATM   24  C   UNL     1     -11.455  11.052  68.822  1.00  0.00    -0.372 A  
HETATM   25  O   UNL     1     -12.726  14.278  70.118  1.00  0.00    -0.331 OA 
HETATM   26  H   UNL     1     -11.227   8.512  70.889  1.00  0.00     0.000 HD 
HETATM   27  C   UNL     1     -11.828  12.396  68.833  1.00  0.00    -0.350 A  
HETATM   28  O   UNL     1     -11.165   9.006  70.080  1.00  0.00    -0.239 OA 
HETATM   29  C   UNL     1     -12.323  12.973  70.020  1.00  0.00    -0.152 A  
HETATM   30  C   UNL     1     -11.731  13.219  67.613  1.00  0.00    -0.366 C  
BRANCH  14  31
HETATM   31  N   UNL     1     -11.764  14.663  65.057  1.00  0.00    -0.376 NA 
HETATM   32  H   UNL     1     -12.755  14.785  65.263  1.00  0.00     0.000 HD 
BRANCH  31  33
HETATM   33  C   UNL     1     -10.981  15.832  64.683  1.00  0.00    -0.314 C  
BRANCH  33  34
HETATM   34  C   UNL     1      -9.926  16.148  65.756  1.00  0.00    -0.340 C  
BRANCH  34  35
HETATM   35  N   UNL     1     -10.502  16.927  66.861  1.00  0.00    -0.300 NA 
HETATM   36  H   UNL     1     -11.296  16.450  67.289  1.00  0.00     0.000 HD 
BRANCH  35  37
HETATM   37  C   UNL     1      -9.466  17.260  67.847  1.00  0.00    -0.266 C  
BRANCH  37  38
HETATM   38  C   UNL     1      -9.689  16.480  69.145  1.00  0.00    -0.241 C  
HETATM   39  O   UNL     1     -10.933  16.847  69.739  1.00  0.00    -0.400 OA 
HETATM   40  H   UNL     1     -11.071  16.363  70.545  1.00  0.00     0.000 HD 
ENDBRANCH  37  38
ENDBRANCH  35  37
ENDBRANCH  34  35
ENDBRANCH  33  34
ENDBRANCH  31  33
ENDBRANCH  14  31
ENDBRANCH   9  11
ENDBRANCH   8   9
ENDBRANCH   7   8
ENDBRANCH   5   7
ENDBRANCH   4   5
ENDBRANCH   3   4
TORSDOF 12
ENDMDL
MODEL       36
REMARK 921   NORMALIZED FREE ENERGY PREDICTED BY IDOCK:   -5.78 KCAL/MOL
REMARK 922        TOTAL FREE ENERGY PREDICTED BY IDOCK:  -12.10 KCAL/MOL
REMARK 923 INTER-LIGAND FREE ENERGY PREDICTED BY IDOCK:   -9.67 KCAL/MOL
REMARK 924 INTRA-LIGAND FREE ENERGY PREDICTED BY IDOCK:   -2.42 KCAL/MOL
REMARK 927      BINDING AFFINITY PREDICTED BY RF-SCORE:    0.00 PKD
ROOT
HETATM    1  O   UNL     1     -13.696  13.832  72.824  1.00  0.00    -0.699 OA 
HETATM    2  H   UNL     1     -14.638  13.758  72.918  1.00  0.00     0.000 HD 
HETATM    3  C   UNL     1     -13.312  15.203  72.771  1.00  0.00    -0.496 C  
ENDROOT
BRANCH   3   4
HETATM    4  C   UNL     1     -11.793  15.323  72.621  1.00  0.00    -0.429 C  
BRANCH   4   5
HETATM    5  N   UNL     1     -11.331  15.185  71.231  1.00  0.00    -0.467 NA 
HETATM    6  H   UNL     1     -11.239  14.203  70.967  1.00  0.00     0.000 HD 
BRANCH   5   7
HETATM    7  C   UNL     1     -12.194  15.912  70.291  1.00  0.00    -0.237 C  
BRANCH   7   8
HETATM    8  C   UNL     1     -11.811  15.583  68.843  1.00  0.00    -0.338 C  
BRANCH   8   9
HETATM    9  N   UNL     1     -12.285  14.262  68.469  1.00  0.00    -0.577 NA 
HETATM   10  H   UNL     1     -13.265  14.030  68.632  1.00  0.00     0.000 HD 
BRANCH   9  11
HETATM   11  C   UNL     1     -11.461  13.302  67.900  1.00  0.00    -0.306 A  
HETATM   12  C   UNL     1     -10.807  13.590  66.703  1.00  0.00    -0.283 A  
HETATM   13  C   UNL     1     -10.002  12.651  66.082  1.00  0.00    -0.269 A  
HETATM   14  C   UNL     1      -9.878  11.353  66.582  1.00  0.00    -0.205 A  
HETATM   15  H   UNL     1     -10.295   6.135  69.885  1.00  0.00     0.000 HD 
HETATM   16  C   UNL     1     -10.560  11.029  67.784  1.00  0.00    -0.250 A  
HETATM   17  C   UNL     1     -11.299  12.011  68.468  1.00  0.00    -0.323 A  
HETATM   18  C   UNL     1     -12.333   8.657  72.079  1.00  0.00    -0.435 A  
HETATM   19  O   UNL     1      -9.956   8.732  67.723  1.00  0.00    -0.172 OA 
HETATM   20  C   UNL     1     -12.448   9.951  71.566  1.00  0.00    -0.411 A  
HETATM   21  C   UNL     1     -11.861  11.705  69.819  1.00  0.00    -0.357 C  
HETATM   22  O   UNL     1     -12.266  12.621  70.528  1.00  0.00    -0.365 OA 
HETATM   23  C   UNL     1     -11.622   7.698  71.372  1.00  0.00    -0.300 A  
HETATM   24  C   UNL     1     -11.830  10.316  70.344  1.00  0.00    -0.396 A  
HETATM   25  O   UNL     1     -10.365   7.014  69.532  1.00  0.00    -0.199 OA 
HETATM   26  H   UNL     1     -13.577  10.619  73.107  1.00  0.00     0.000 HD 
HETATM   27  C   UNL     1     -11.138   9.336  69.631  1.00  0.00    -0.134 A  
HETATM   28  O   UNL     1     -13.162  10.863  72.288  1.00  0.00    -0.406 OA 
HETATM   29  C   UNL     1     -11.035   8.032  70.156  1.00  0.00    -0.226 A  
HETATM   30  C   UNL     1     -10.496   9.651  68.342  1.00  0.00    -0.223 C  
BRANCH  14  31
HETATM   31  N   UNL     1      -9.021  10.476  65.940  1.00  0.00    -0.160 NA 
HETATM   32  H   UNL     1      -8.237  10.090  66.467  1.00  0.00     0.000 HD 
BRANCH  31  33
HETATM   33  C   UNL     1      -9.187  10.080  64.549  1.00  0.00    -0.262 C  
BRANCH  33  34
HETATM   34  C   UNL     1      -8.288   8.878  64.214  1.00  0.00    -0.169 C  
BRANCH  34  35
HETATM   35  N   UNL     1      -8.697   7.679  64.959  1.00  0.00    -0.371 NA 
HETATM   36  H   UNL     1      -9.330   7.091  64.417  1.00  0.00     0.000 HD 
BRANCH  35  37
HETATM   37  C   UNL     1      -7.517   6.934  65.418  1.00  0.00    -0.088 C  
BRANCH  37  38
HETATM   38  C   UNL     1      -6.507   7.879  66.073  1.00  0.00    -0.046 C  
HETATM   39  O   UNL     1      -7.102   8.557  67.176  1.00  0.00    -0.074 OA 
HETATM   40  H   UNL     1      -6.475   9.144  67.582  1.00  0.00     0.000 HD 
ENDBRANCH  37  38
ENDBRANCH  35  37
ENDBRANCH  34  35
ENDBRANCH  33  34
ENDBRANCH  31  33
ENDBRANCH  14  31
ENDBRANCH   9  11
ENDBRANCH   8   9
ENDBRANCH   7   8
ENDBRANCH   5   7
ENDBRANCH   4   5
ENDBRANCH   3   4
TORSDOF 12
ENDMDL
MODEL       37
REMARK 921   NORMALIZED FREE ENERGY PREDICTED BY IDOCK:   -5.76 KCAL/MOL
REMARK 922        TOTAL FREE ENERGY PREDICTED BY IDOCK:  -12.06 KCAL/MOL
REMARK 923 INTER-LIGAND FREE ENERGY PREDICTED BY IDOCK:  -10.77 KCAL/MOL
REMARK 924 INTRA-LIGAND FREE ENERGY PREDICTED BY IDOCK:   -1.29 KCAL/MOL
REMARK 927      BINDING AFFINITY PREDICTED BY RF-SCORE:    0.00 PKD
ROOT
HETATM    1  O   UNL     1      -6.596  21.322  65.205  1.00  0.00    -0.487 OA 
HETATM    2  H   UNL     1      -5.895  21.367  64.566  1.00  0.00     0.000 HD 
HETATM    3  C   UNL     1      -6.933  19.962  65.471  1.00  0.00    -0.309 C  
ENDROOT
BRANCH   3   4
HETATM    4  C   UNL     1      -8.062  19.889  66.503  1.00  0.00    -0.328 C  
BRANCH   4   5
HETATM    5  N   UNL     1      -9.367  20.314  65.973  1.00  0.00    -0.622 NA 
HETATM    6  H   UNL     1      -9.319  20.492  64.969  1.00  0.00     0.000 HD 
BRANCH   5   7
HETATM    7  C   UNL     1     -10.429  19.352  66.294  1.00  0.00    -0.493 C  
BRANCH   7   8
HETATM    8  C   UNL     1      -9.844  17.948  66.491  1.00  0.00    -0.343 C  
BRANCH   8   9
HETATM    9  N   UNL     1     -10.836  17.047  67.050  1.00  0.00    -0.131 NA 
HETATM   10  H   UNL     1     -11.566  17.434  67.649  1.00  0.00     0.000 HD 
BRANCH   9  11
HETATM   11  C   UNL     1     -10.834  15.682  66.803  1.00  0.00    -0.277 A  
HETATM   12  C   UNL     1     -10.455  15.218  65.544  1.00  0.00    -0.396 A  
HETATM   13  C   UNL     1     -10.470  13.868  65.242  1.00  0.00    -0.386 A  
HETATM   14  C   UNL     1     -10.943  12.923  66.155  1.00  0.00    -0.281 A  
HETATM   15  H   UNL     1     -13.250   9.986  71.091  1.00  0.00     0.000 HD 
HETATM   16  C   UNL     1     -11.361  13.376  67.433  1.00  0.00    -0.338 A  
HETATM   17  C   UNL     1     -11.255  14.737  67.775  1.00  0.00    -0.323 A  
HETATM   18  C   UNL     1     -12.978  13.670  72.385  1.00  0.00    -0.416 A  
HETATM   19  O   UNL     1     -12.127  11.241  68.142  1.00  0.00    -0.635 OA 
HETATM   20  C   UNL     1     -12.504  14.604  71.460  1.00  0.00    -0.346 A  
HETATM   21  C   UNL     1     -11.530  15.169  69.179  1.00  0.00    -0.306 C  
HETATM   22  O   UNL     1     -11.183  16.287  69.547  1.00  0.00    -0.323 OA 
HETATM   23  C   UNL     1     -13.101  12.339  72.016  1.00  0.00    -0.461 A  
HETATM   24  C   UNL     1     -12.119  14.215  70.153  1.00  0.00    -0.411 A  
HETATM   25  O   UNL     1     -12.922  10.614  70.457  1.00  0.00    -0.323 OA 
HETATM   26  H   UNL     1     -12.662  16.166  72.736  1.00  0.00     0.000 HD 
HETATM   27  C   UNL     1     -12.270  12.877  69.786  1.00  0.00    -0.227 A  
HETATM   28  O   UNL     1     -12.405  15.905  71.860  1.00  0.00    -0.413 OA 
HETATM   29  C   UNL     1     -12.756  11.946  70.727  1.00  0.00    -0.153 A  
HETATM   30  C   UNL     1     -11.910  12.419  68.432  1.00  0.00    -0.309 C  
BRANCH  14  31
HETATM   31  N   UNL     1     -10.888  11.584  65.809  1.00  0.00    -0.279 NA 
HETATM   32  H   UNL     1     -11.467  10.924  66.327  1.00  0.00     0.000 HD 
BRANCH  31  33
HETATM   33  C   UNL     1     -10.040  11.076  64.740  1.00  0.00    -0.308 C  
BRANCH  33  34
HETATM   34  C   UNL     1      -8.778  10.410  65.315  1.00  0.00    -0.179 C  
BRANCH  34  35
HETATM   35  N   UNL     1      -7.862  11.407  65.887  1.00  0.00    -0.368 NA 
HETATM   36  H   UNL     1      -8.141  12.360  65.652  1.00  0.00     0.000 HD 
BRANCH  35  37
HETATM   37  C   UNL     1      -7.739  11.215  67.338  1.00  0.00    -0.120 C  
BRANCH  37  38
HETATM   38  C   UNL     1      -7.631  12.565  68.052  1.00  0.00    -0.127 C  
HETATM   39  O   UNL     1      -7.540  13.624  67.102  1.00  0.00    -0.350 OA 
HETATM   40  H   UNL     1      -7.472  14.462  67.545  1.00  0.00     0.000 HD 
ENDBRANCH  37  38
ENDBRANCH  35  37
ENDBRANCH  34  35
ENDBRANCH  33  34
ENDBRANCH  31  33
ENDBRANCH  14  31
ENDBRANCH   9  11
ENDBRANCH   8   9
ENDBRANCH   7   8
ENDBRANCH   5   7
ENDBRANCH   4   5
ENDBRANCH   3   4
TORSDOF 12
ENDMDL
MODEL       38
REMARK 921   NORMALIZED FREE ENERGY PREDICTED BY IDOCK:   -5.75 KCAL/MOL
REMARK 922        TOTAL FREE ENERGY PREDICTED BY IDOCK:  -12.05 KCAL/MOL
REMARK 923 INTER-LIGAND FREE ENERGY PREDICTED BY IDOCK:   -9.38 KCAL/MOL
REMARK 924 INTRA-LIGAND FREE ENERGY PREDICTED BY IDOCK:   -2.67 KCAL/MOL
REMARK 927      BINDING AFFINITY PREDICTED BY RF-SCORE:    0.00 PKD
ROOT
HETATM    1  O   UNL     1      -8.046  13.322  66.840  1.00  0.00    -0.394 OA 
HETATM    2  H   UNL     1      -8.709  13.956  67.085  1.00  0.00     0.000 HD 
HETATM    3  C   UNL     1      -7.800  12.424  67.920  1.00  0.00    -0.145 C  
ENDROOT
BRANCH   3   4
HETATM    4  C   UNL     1      -6.733  11.400  67.524  1.00  0.00    -0.078 C  
BRANCH   4   5
HETATM    5  N   UNL     1      -6.916  10.858  66.170  1.00  0.00    -0.239 NA 
HETATM    6  H   UNL     1      -6.062  10.941  65.618  1.00  0.00     0.000 HD 
BRANCH   5   7
HETATM    7  C   UNL     1      -7.404   9.473  66.194  1.00  0.00    -0.093 C  
BRANCH   7   8
HETATM    8  C   UNL     1      -8.127   9.132  64.885  1.00  0.00    -0.133 C  
BRANCH   8   9
HETATM    9  N   UNL     1      -9.561   9.315  65.023  1.00  0.00    -0.444 NA 
HETATM   10  H   UNL     1     -10.159   8.489  65.051  1.00  0.00     0.000 HD 
BRANCH   9  11
HETATM   11  C   UNL     1     -10.152  10.566  65.118  1.00  0.00    -0.314 A  
HETATM   12  C   UNL     1     -10.143  11.410  64.008  1.00  0.00    -0.369 A  
HETATM   13  C   UNL     1     -10.691  12.679  64.067  1.00  0.00    -0.457 A  
HETATM   14  C   UNL     1     -11.198  13.199  65.260  1.00  0.00    -0.291 A  
HETATM   15  H   UNL     1     -13.026  14.116  71.102  1.00  0.00     0.000 HD 
HETATM   16  C   UNL     1     -11.191  12.367  66.411  1.00  0.00    -0.365 A  
HETATM   17  C   UNL     1     -10.723  11.043  66.327  1.00  0.00    -0.273 A  
HETATM   18  C   UNL     1     -11.903  10.367  71.175  1.00  0.00    -0.432 A  
HETATM   19  O   UNL     1     -11.996  14.064  67.866  1.00  0.00    -0.360 OA 
HETATM   20  C   UNL     1     -11.398   9.862  69.975  1.00  0.00    -0.249 A  
HETATM   21  C   UNL     1     -10.886  10.128  67.497  1.00  0.00    -0.290 C  
HETATM   22  O   UNL     1     -10.734   8.919  67.347  1.00  0.00    -0.272 OA 
HETATM   23  C   UNL     1     -12.332  11.684  71.241  1.00  0.00    -0.286 A  
HETATM   24  C   UNL     1     -11.336  10.663  68.808  1.00  0.00    -0.339 A  
HETATM   25  O   UNL     1     -12.687  13.779  70.280  1.00  0.00    -0.265 OA 
HETATM   26  H   UNL     1     -11.021   8.025  70.737  1.00  0.00     0.000 HD 
HETATM   27  C   UNL     1     -11.747  11.993  68.893  1.00  0.00    -0.383 A  
HETATM   28  O   UNL     1     -10.980   8.562  69.955  1.00  0.00    -0.236 OA 
HETATM   29  C   UNL     1     -12.249  12.493  70.112  1.00  0.00    -0.234 A  
HETATM   30  C   UNL     1     -11.682  12.881  67.717  1.00  0.00    -0.362 C  
BRANCH  14  31
HETATM   31  N   UNL     1     -11.775  14.456  65.241  1.00  0.00    -0.353 NA 
HETATM   32  H   UNL     1     -12.711  14.568  65.630  1.00  0.00     0.000 HD 
BRANCH  31  33
HETATM   33  C   UNL     1     -11.105  15.627  64.693  1.00  0.00    -0.373 C  
BRANCH  33  34
HETATM   34  C   UNL     1     -10.544  16.512  65.819  1.00  0.00    -0.296 C  
BRANCH  34  35
HETATM   35  N   UNL     1      -9.635  15.755  66.692  1.00  0.00    -0.233 NA 
HETATM   36  H   UNL     1      -8.852  15.358  66.173  1.00  0.00     0.000 HD 
BRANCH  35  37
HETATM   37  C   UNL     1      -9.182  16.593  67.809  1.00  0.00    -0.214 C  
BRANCH  37  38
HETATM   38  C   UNL     1     -10.369  17.021  68.676  1.00  0.00    -0.351 C  
HETATM   39  O   UNL     1     -10.803  15.938  69.495  1.00  0.00    -0.255 OA 
HETATM   40  H   UNL     1     -11.540  16.203  70.033  1.00  0.00     0.000 HD 
ENDBRANCH  37  38
ENDBRANCH  35  37
ENDBRANCH  34  35
ENDBRANCH  33  34
ENDBRANCH  31  33
ENDBRANCH  14  31
ENDBRANCH   9  11
ENDBRANCH   8   9
ENDBRANCH   7   8
ENDBRANCH   5   7
ENDBRANCH   4   5
ENDBRANCH   3   4
TORSDOF 12
ENDMDL
MODEL       39
REMARK 921   NORMALIZED FREE ENERGY PREDICTED BY IDOCK:   -5.73 KCAL/MOL
REMARK 922        TOTAL FREE ENERGY PREDICTED BY IDOCK:  -12.01 KCAL/MOL
REMARK 923 INTER-LIGAND FREE ENERGY PREDICTED BY IDOCK:   -9.90 KCAL/MOL
REMARK 924 INTRA-LIGAND FREE ENERGY PREDICTED BY IDOCK:   -2.11 KCAL/MOL
REMARK 927      BINDING AFFINITY PREDICTED BY RF-SCORE:    0.00 PKD
ROOT
HETATM    1  O   UNL     1     -11.385  11.119  63.156  1.00  0.00    -0.808 OA 
HETATM    2  H   UNL     1     -11.672  10.219  63.249  1.00  0.00     0.000 HD 
HETATM    3  C   UNL     1     -12.426  12.012  63.544  1.00  0.00    -0.540 C  
ENDROOT
BRANCH   3   4
HETATM    4  C   UNL     1     -11.962  13.463  63.394  1.00  0.00    -0.344 C  
BRANCH   4   5
HETATM    5  N   UNL     1     -12.656  14.395  64.295  1.00  0.00    -0.669 NA 
HETATM    6  H   UNL     1     -13.564  14.667  63.919  1.00  0.00     0.000 HD 
BRANCH   5   7
HETATM    7  C   UNL     1     -12.781  13.852  65.655  1.00  0.00    -0.495 C  
BRANCH   7   8
HETATM    8  C   UNL     1     -11.845  14.592  66.619  1.00  0.00    -0.366 C  
BRANCH   8   9
HETATM    9  N   UNL     1     -10.894  13.675  67.223  1.00  0.00    -0.282 NA 
HETATM   10  H   UNL     1      -9.933  13.672  66.881  1.00  0.00     0.000 HD 
BRANCH   9  11
HETATM   11  C   UNL     1     -11.238  12.804  68.246  1.00  0.00    -0.271 A  
HETATM   12  C   UNL     1     -11.880  13.303  69.379  1.00  0.00    -0.386 A  
HETATM   13  C   UNL     1     -12.211  12.477  70.439  1.00  0.00    -0.368 A  
HETATM   14  C   UNL     1     -11.843  11.131  70.455  1.00  0.00    -0.369 A  
HETATM   15  H   UNL     1      -9.605   5.511  69.144  1.00  0.00     0.000 HD 
HETATM   16  C   UNL     1     -11.163  10.607  69.324  1.00  0.00    -0.332 A  
HETATM   17  C   UNL     1     -10.912  11.423  68.205  1.00  0.00    -0.266 A  
HETATM   18  C   UNL     1      -8.860   7.478  65.842  1.00  0.00    -0.157 A  
HETATM   19  O   UNL     1     -10.809   8.469  70.298  1.00  0.00    -0.235 OA 
HETATM   20  C   UNL     1      -9.233   8.824  65.842  1.00  0.00    -0.220 A  
HETATM   21  C   UNL     1     -10.358  10.815  66.958  1.00  0.00    -0.228 C  
HETATM   22  O   UNL     1     -10.390  11.450  65.908  1.00  0.00    -0.236 OA 
HETATM   23  C   UNL     1      -9.092   6.700  66.968  1.00  0.00    -0.135 A  
HETATM   24  C   UNL     1      -9.871   9.411  66.963  1.00  0.00    -0.258 A  
HETATM   25  O   UNL     1      -9.866   6.424  69.150  1.00  0.00    -0.138 OA 
HETATM   26  H   UNL     1      -8.554   9.162  63.966  1.00  0.00     0.000 HD 
HETATM   27  C   UNL     1     -10.077   8.626  68.097  1.00  0.00    -0.236 A  
HETATM   28  O   UNL     1      -8.981   9.556  64.718  1.00  0.00    -0.202 OA 
HETATM   29  C   UNL     1      -9.689   7.270  68.088  1.00  0.00    -0.145 A  
HETATM   30  C   UNL     1     -10.712   9.189  69.302  1.00  0.00    -0.183 C  
BRANCH  14  31
HETATM   31  N   UNL     1     -12.246  10.348  71.522  1.00  0.00    -0.355 NA 
HETATM   32  H   UNL     1     -11.533   9.986  72.157  1.00  0.00     0.000 HD 
BRANCH  31  33
HETATM   33  C   UNL     1     -13.640  10.017  71.782  1.00  0.00    -0.242 C  
BRANCH  33  34
HETATM   34  C   UNL     1     -13.849   8.493  71.773  1.00  0.00    -0.413 C  
BRANCH  34  35
HETATM   35  N   UNL     1     -12.736   7.797  72.436  1.00  0.00    -0.533 NA 
HETATM   36  H   UNL     1     -12.747   7.939  73.447  1.00  0.00     0.000 HD 
BRANCH  35  37
HETATM   37  C   UNL     1     -12.743   6.371  72.084  1.00  0.00     0.012 C  
BRANCH  37  38
HETATM   38  C   UNL     1     -11.507   5.671  72.654  1.00  0.00    -0.285 C  
HETATM   39  O   UNL     1     -10.432   5.720  71.719  1.00  0.00    -0.213 OA 
HETATM   40  H   UNL     1      -9.665   5.285  72.073  1.00  0.00     0.000 HD 
ENDBRANCH  37  38
ENDBRANCH  35  37
ENDBRANCH  34  35
ENDBRANCH  33  34
ENDBRANCH  31  33
ENDBRANCH  14  31
ENDBRANCH   9  11
ENDBRANCH   8   9
ENDBRANCH   7   8
ENDBRANCH   5   7
ENDBRANCH   4   5
ENDBRANCH   3   4
TORSDOF 12
ENDMDL
MODEL       40
REMARK 921   NORMALIZED FREE ENERGY PREDICTED BY IDOCK:   -5.70 KCAL/MOL
REMARK 922        TOTAL FREE ENERGY PREDICTED BY IDOCK:  -11.97 KCAL/MOL
REMARK 923 INTER-LIGAND FREE ENERGY PREDICTED BY IDOCK:   -9.84 KCAL/MOL
REMARK 924 INTRA-LIGAND FREE ENERGY PREDICTED BY IDOCK:   -2.13 KCAL/MOL
REMARK 927      BINDING AFFINITY PREDICTED BY RF-SCORE:    0.00 PKD
ROOT
HETATM    1  O   UNL     1      -7.930  13.351  68.755  1.00  0.00    -0.284 OA 
HETATM    2  H   UNL     1      -7.855  14.281  68.932  1.00  0.00     0.000 HD 
HETATM    3  C   UNL     1      -7.115  12.995  67.641  1.00  0.00    -0.156 C  
ENDROOT
BRANCH   3   4
HETATM    4  C   UNL     1      -7.235  11.495  67.355  1.00  0.00    -0.119 C  
BRANCH   4   5
HETATM    5  N   UNL     1      -7.302  11.177  65.921  1.00  0.00    -0.365 NA 
HETATM    6  H   UNL     1      -6.431  10.760  65.592  1.00  0.00     0.000 HD 
BRANCH   5   7
HETATM    7  C   UNL     1      -8.456  10.326  65.601  1.00  0.00    -0.160 C  
BRANCH   7   8
HETATM    8  C   UNL     1      -9.521  10.425  66.701  1.00  0.00    -0.165 C  
BRANCH   8   9
HETATM    9  N   UNL     1     -10.639  11.243  66.268  1.00  0.00    -0.258 NA 
HETATM   10  H   UNL     1     -11.400  10.797  65.754  1.00  0.00     0.000 HD 
BRANCH   9  11
HETATM   11  C   UNL     1     -10.717  12.604  66.522  1.00  0.00    -0.250 A  
HETATM   12  C   UNL     1     -10.198  13.501  65.590  1.00  0.00    -0.306 A  
HETATM   13  C   UNL     1     -10.223  14.867  65.818  1.00  0.00    -0.358 A  
HETATM   14  C   UNL     1     -10.692  15.396  67.022  1.00  0.00    -0.321 A  
HETATM   15  H   UNL     1     -13.008  16.248  72.698  1.00  0.00     0.000 HD 
HETATM   16  C   UNL     1     -11.199  14.498  67.997  1.00  0.00    -0.308 A  
HETATM   17  C   UNL     1     -11.263  13.118  67.728  1.00  0.00    -0.308 A  
HETATM   18  C   UNL     1     -13.426  12.385  72.215  1.00  0.00    -0.428 A  
HETATM   19  O   UNL     1     -11.536  16.182  69.639  1.00  0.00    -0.327 OA 
HETATM   20  C   UNL     1     -12.952  11.871  71.007  1.00  0.00    -0.089 A  
HETATM   21  C   UNL     1     -11.960  12.210  68.688  1.00  0.00    -0.237 C  
HETATM   22  O   UNL     1     -12.256  11.071  68.340  1.00  0.00    -0.586 OA 
HETATM   23  C   UNL     1     -13.326  13.745  72.471  1.00  0.00    -0.656 A  
HETATM   24  C   UNL     1     -12.391  12.716  70.017  1.00  0.00    -0.164 A  
HETATM   25  O   UNL     1     -12.688  15.906  71.871  1.00  0.00    -0.445 OA 
HETATM   26  H   UNL     1     -13.439   9.960  71.461  1.00  0.00     0.000 HD 
HETATM   27  C   UNL     1     -12.273  14.078  70.295  1.00  0.00    -0.430 A  
HETATM   28  O   UNL     1     -13.063  10.527  70.797  1.00  0.00    -0.364 OA 
HETATM   29  C   UNL     1     -12.749  14.584  71.522  1.00  0.00    -0.339 A  
HETATM   30  C   UNL     1     -11.675  15.002  69.314  1.00  0.00    -0.323 C  
BRANCH  14  31
HETATM   31  N   UNL     1     -10.734  16.771  67.168  1.00  0.00    -0.246 NA 
HETATM   32  H   UNL     1     -11.043  17.156  68.061  1.00  0.00     0.000 HD 
BRANCH  31  33
HETATM   33  C   UNL     1     -10.357  17.693  66.106  1.00  0.00    -0.334 C  
BRANCH  33  34
HETATM   34  C   UNL     1      -9.090  18.476  66.488  1.00  0.00    -0.295 C  
BRANCH  34  35
HETATM   35  N   UNL     1      -7.896  17.910  65.844  1.00  0.00    -0.545 NA 
HETATM   36  H   UNL     1      -7.245  18.636  65.545  1.00  0.00     0.000 HD 
BRANCH  35  37
HETATM   37  C   UNL     1      -7.254  16.930  66.729  1.00  0.00    -0.243 C  
BRANCH  37  38
HETATM   38  C   UNL     1      -7.389  17.357  68.193  1.00  0.00    -0.205 C  
HETATM   39  O   UNL     1      -7.999  16.320  68.959  1.00  0.00    -0.222 OA 
HETATM   40  H   UNL     1      -8.084  16.585  69.867  1.00  0.00     0.000 HD 
ENDBRANCH  37  38
ENDBRANCH  35  37
ENDBRANCH  34  35
ENDBRANCH  33  34
ENDBRANCH  31  33
ENDBRANCH  14  31
ENDBRANCH   9  11
ENDBRANCH   8   9
ENDBRANCH   7   8
ENDBRANCH   5   7
ENDBRANCH   4   5
ENDBRANCH   3   4
TORSDOF 12
ENDMDL
MODEL       41
REMARK 921   NORMALIZED FREE ENERGY PREDICTED BY IDOCK:   -5.66 KCAL/MOL
REMARK 922        TOTAL FREE ENERGY PREDICTED BY IDOCK:  -11.89 KCAL/MOL
REMARK 923 INTER-LIGAND FREE ENERGY PREDICTED BY IDOCK:  -10.06 KCAL/MOL
REMARK 924 INTRA-LIGAND FREE ENERGY PREDICTED BY IDOCK:   -1.83 KCAL/MOL
REMARK 927      BINDING AFFINITY PREDICTED BY RF-SCORE:    0.00 PKD
ROOT
HETATM    1  O   UNL     1     -10.923   5.115  66.200  1.00  0.00    -0.655 OA 
HETATM    2  H   UNL     1     -11.515   4.714  66.825  1.00  0.00     0.000 HD 
HETATM    3  C   UNL     1      -9.584   4.691  66.448  1.00  0.00    -0.183 C  
ENDROOT
BRANCH   3   4
HETATM    4  C   UNL     1      -8.630   5.337  65.440  1.00  0.00    -0.149 C  
BRANCH   4   5
HETATM    5  N   UNL     1      -8.953   6.741  65.145  1.00  0.00    -0.340 NA 
HETATM    6  H   UNL     1      -9.723   7.074  65.726  1.00  0.00     0.000 HD 
BRANCH   5   7
HETATM    7  C   UNL     1      -7.776   7.612  65.266  1.00  0.00    -0.110 C  
BRANCH   7   8
HETATM    8  C   UNL     1      -8.189   9.088  65.198  1.00  0.00    -0.145 C  
BRANCH   8   9
HETATM    9  N   UNL     1      -9.631   9.227  65.289  1.00  0.00    -0.455 NA 
HETATM   10  H   UNL     1     -10.219   8.485  64.909  1.00  0.00     0.000 HD 
BRANCH   9  11
HETATM   11  C   UNL     1     -10.244  10.327  65.871  1.00  0.00    -0.223 A  
HETATM   12  C   UNL     1     -10.307  11.526  65.161  1.00  0.00    -0.329 A  
HETATM   13  C   UNL     1     -10.879  12.658  65.715  1.00  0.00    -0.304 A  
HETATM   14  C   UNL     1     -11.338  12.671  67.033  1.00  0.00    -0.323 A  
HETATM   15  H   UNL     1     -12.899  11.255  72.853  1.00  0.00     0.000 HD 
HETATM   16  C   UNL     1     -11.257  11.470  67.784  1.00  0.00    -0.343 A  
HETATM   17  C   UNL     1     -10.766  10.292  67.191  1.00  0.00    -0.303 A  
HETATM   18  C   UNL     1     -11.694   7.799  71.466  1.00  0.00    -0.312 A  
HETATM   19  O   UNL     1     -12.027  12.462  69.801  1.00  0.00    -0.312 OA 
HETATM   20  C   UNL     1     -11.237   7.802  70.146  1.00  0.00    -0.159 A  
HETATM   21  C   UNL     1     -10.852   8.999  67.934  1.00  0.00    -0.053 C  
HETATM   22  O   UNL     1     -10.682   7.943  67.334  1.00  0.00    -0.272 OA 
HETATM   23  C   UNL     1     -12.147   8.978  72.039  1.00  0.00    -0.440 A  
HETATM   24  C   UNL     1     -11.249   8.985  69.366  1.00  0.00     0.102 A  
HETATM   25  O   UNL     1     -12.594  11.265  71.953  1.00  0.00    -0.252 OA 
HETATM   26  H   UNL     1     -10.785   5.830  70.144  1.00  0.00     0.000 HD 
HETATM   27  C   UNL     1     -11.684  10.169  69.961  1.00  0.00    -0.294 A  
HETATM   28  O   UNL     1     -10.793   6.623  69.621  1.00  0.00    -0.239 OA 
HETATM   29  C   UNL     1     -12.137  10.154  71.296  1.00  0.00    -0.394 A  
HETATM   30  C   UNL     1     -11.696  11.436  69.206  1.00  0.00    -0.337 C  
BRANCH  14  31
HETATM   31  N   UNL     1     -11.942  13.821  67.512  1.00  0.00    -0.383 NA 
HETATM   32  H   UNL     1     -12.894  13.757  67.872  1.00  0.00     0.000 HD 
BRANCH  31  33
HETATM   33  C   UNL     1     -11.279  15.118  67.525  1.00  0.00    -0.330 C  
BRANCH  33  34
HETATM   34  C   UNL     1     -11.364  15.758  68.921  1.00  0.00    -0.356 C  
BRANCH  34  35
HETATM   35  N   UNL     1     -12.628  15.418  69.590  1.00  0.00    -0.617 NA 
HETATM   36  H   UNL     1     -12.983  14.509  69.293  1.00  0.00     0.000 HD 
BRANCH  35  37
HETATM   37  C   UNL     1     -12.472  15.494  71.048  1.00  0.00    -0.436 C  
BRANCH  37  38
HETATM   38  C   UNL     1     -13.802  15.201  71.748  1.00  0.00    -0.506 C  
HETATM   39  O   UNL     1     -13.839  15.826  73.028  1.00  0.00    -0.605 OA 
HETATM   40  H   UNL     1     -14.664  15.644  73.463  1.00  0.00     0.000 HD 
ENDBRANCH  37  38
ENDBRANCH  35  37
ENDBRANCH  34  35
ENDBRANCH  33  34
ENDBRANCH  31  33
ENDBRANCH  14  31
ENDBRANCH   9  11
ENDBRANCH   8   9
ENDBRANCH   7   8
ENDBRANCH   5   7
ENDBRANCH   4   5
ENDBRANCH   3   4
TORSDOF 12
ENDMDL
MODEL       42
REMARK 921   NORMALIZED FREE ENERGY PREDICTED BY IDOCK:   -5.59 KCAL/MOL
REMARK 922        TOTAL FREE ENERGY PREDICTED BY IDOCK:  -11.77 KCAL/MOL
REMARK 923 INTER-LIGAND FREE ENERGY PREDICTED BY IDOCK:   -9.65 KCAL/MOL
REMARK 924 INTRA-LIGAND FREE ENERGY PREDICTED BY IDOCK:   -2.13 KCAL/MOL
REMARK 927      BINDING AFFINITY PREDICTED BY RF-SCORE:    0.00 PKD
ROOT
HETATM    1  O   UNL     1      -8.889  16.834  65.817  1.00  0.00    -0.505 OA 
HETATM    2  H   UNL     1      -8.494  16.301  65.137  1.00  0.00     0.000 HD 
HETATM    3  C   UNL     1      -8.405  16.437  67.097  1.00  0.00    -0.187 C  
ENDROOT
BRANCH   3   4
HETATM    4  C   UNL     1      -9.042  17.296  68.193  1.00  0.00    -0.257 C  
BRANCH   4   5
HETATM    5  N   UNL     1      -8.956  16.693  69.532  1.00  0.00     0.118 NA 
HETATM    6  H   UNL     1      -9.100  17.390  70.262  1.00  0.00     0.000 HD 
BRANCH   5   7
HETATM    7  C   UNL     1      -9.880  15.561  69.684  1.00  0.00    -0.278 C  
BRANCH   7   8
HETATM    8  C   UNL     1     -11.288  16.057  70.036  1.00  0.00    -0.352 C  
BRANCH   8   9
HETATM    9  N   UNL     1     -12.300  15.165  69.501  1.00  0.00    -0.566 NA 
HETATM   10  H   UNL     1     -13.077  15.566  68.975  1.00  0.00     0.000 HD 
BRANCH   9  11
HETATM   11  C   UNL     1     -12.257  13.790  69.674  1.00  0.00    -0.305 A  
HETATM   12  C   UNL     1     -12.656  13.244  70.894  1.00  0.00    -0.386 A  
HETATM   13  C   UNL     1     -12.597  11.881  71.124  1.00  0.00    -0.390 A  
HETATM   14  C   UNL     1     -12.058  11.006  70.179  1.00  0.00    -0.356 A  
HETATM   15  H   UNL     1      -9.480   8.432  65.175  1.00  0.00     0.000 HD 
HETATM   16  C   UNL     1     -11.618  11.543  68.941  1.00  0.00    -0.384 A  
HETATM   17  C   UNL     1     -11.767  12.915  68.668  1.00  0.00    -0.359 A  
HETATM   18  C   UNL     1      -9.857  12.168  64.070  1.00  0.00    -0.217 A  
HETATM   19  O   UNL     1     -10.746   9.481  68.146  1.00  0.00    -0.227 OA 
HETATM   20  C   UNL     1     -10.396  13.031  65.026  1.00  0.00    -0.318 A  
HETATM   21  C   UNL     1     -11.465  13.434  67.300  1.00  0.00    -0.340 C  
HETATM   22  O   UNL     1     -11.844  14.556  66.980  1.00  0.00    -0.394 OA 
HETATM   23  C   UNL     1      -9.692  10.824  64.371  1.00  0.00    -0.356 A  
HETATM   24  C   UNL     1     -10.807  12.557  66.297  1.00  0.00    -0.299 A  
HETATM   25  O   UNL     1      -9.852   9.011  65.829  1.00  0.00    -0.262 OA 
HETATM   26  H   UNL     1     -10.260  14.665  63.841  1.00  0.00     0.000 HD 
HETATM   27  C   UNL     1     -10.615  11.208  66.597  1.00  0.00    -0.314 A  
HETATM   28  O   UNL     1     -10.535  14.348  64.693  1.00  0.00    -0.412 OA 
HETATM   29  C   UNL     1     -10.062  10.349  65.626  1.00  0.00    -0.269 A  
HETATM   30  C   UNL     1     -10.999  10.664  67.912  1.00  0.00    -0.295 C  
BRANCH  14  31
HETATM   31  N   UNL     1     -12.072   9.649  70.450  1.00  0.00    -0.459 NA 
HETATM   32  H   UNL     1     -12.213   8.999  69.677  1.00  0.00     0.000 HD 
BRANCH  31  33
HETATM   33  C   UNL     1     -11.892   9.107  71.790  1.00  0.00    -0.383 C  
BRANCH  33  34
HETATM   34  C   UNL     1     -10.479   8.523  71.957  1.00  0.00    -0.336 C  
BRANCH  34  35
HETATM   35  N   UNL     1      -9.940   8.051  70.673  1.00  0.00    -0.189 NA 
HETATM   36  H   UNL     1     -10.514   8.352  69.885  1.00  0.00     0.000 HD 
BRANCH  35  37
HETATM   37  C   UNL     1      -8.540   8.469  70.521  1.00  0.00    -0.147 C  
BRANCH  37  38
HETATM   38  C   UNL     1      -7.891   7.753  69.334  1.00  0.00    -0.115 C  
HETATM   39  O   UNL     1      -7.991   8.551  68.157  1.00  0.00    -0.108 OA 
HETATM   40  H   UNL     1      -7.588   8.106  67.420  1.00  0.00     0.000 HD 
ENDBRANCH  37  38
ENDBRANCH  35  37
ENDBRANCH  34  35
ENDBRANCH  33  34
ENDBRANCH  31  33
ENDBRANCH  14  31
ENDBRANCH   9  11
ENDBRANCH   8   9
ENDBRANCH   7   8
ENDBRANCH   5   7
ENDBRANCH   4   5
ENDBRANCH   3   4
TORSDOF 12
ENDMDL
MODEL       43
REMARK 921   NORMALIZED FREE ENERGY PREDICTED BY IDOCK:   -5.56 KCAL/MOL
REMARK 922        TOTAL FREE ENERGY PREDICTED BY IDOCK:  -11.73 KCAL/MOL
REMARK 923 INTER-LIGAND FREE ENERGY PREDICTED BY IDOCK:  -10.58 KCAL/MOL
REMARK 924 INTRA-LIGAND FREE ENERGY PREDICTED BY IDOCK:   -1.14 KCAL/MOL
REMARK 927      BINDING AFFINITY PREDICTED BY RF-SCORE:    0.00 PKD
ROOT
HETATM    1  O   UNL     1     -11.484  11.155  63.258  1.00  0.00    -0.751 OA 
HETATM    2  H   UNL     1     -11.743  10.296  63.571  1.00  0.00     0.000 HD 
HETATM    3  C   UNL     1     -12.422  12.139  63.687  1.00  0.00    -0.549 C  
ENDROOT
BRANCH   3   4
HETATM    4  C   UNL     1     -12.005  13.523  63.184  1.00  0.00     0.086 C  
BRANCH   4   5
HETATM    5  N   UNL     1     -12.417  14.618  64.076  1.00  0.00    -0.984 NA 
HETATM    6  H   UNL     1     -13.400  14.534  64.335  1.00  0.00     0.000 HD 
BRANCH   5   7
HETATM    7  C   UNL     1     -11.557  14.712  65.263  1.00  0.00    -0.354 C  
BRANCH   7   8
HETATM    8  C   UNL     1     -10.161  14.151  64.964  1.00  0.00    -0.370 C  
BRANCH   8   9
HETATM    9  N   UNL     1      -9.504  13.719  66.185  1.00  0.00    -0.471 NA 
HETATM   10  H   UNL     1      -8.695  14.244  66.517  1.00  0.00     0.000 HD 
BRANCH   9  11
HETATM   11  C   UNL     1      -9.930  12.622  66.919  1.00  0.00    -0.230 A  
HETATM   12  C   UNL     1      -9.689  11.339  66.428  1.00  0.00    -0.238 A  
HETATM   13  C   UNL     1     -10.125  10.216  67.110  1.00  0.00    -0.260 A  
HETATM   14  C   UNL     1     -10.896  10.322  68.269  1.00  0.00    -0.255 A  
HETATM   15  H   UNL     1     -14.136  12.310  73.154  1.00  0.00     0.000 HD 
HETATM   16  C   UNL     1     -11.179  11.620  68.771  1.00  0.00    -0.304 A  
HETATM   17  C   UNL     1     -10.653  12.759  68.133  1.00  0.00    -0.242 A  
HETATM   18  C   UNL     1     -12.737  15.658  71.684  1.00  0.00    -0.522 A  
HETATM   19  O   UNL     1     -12.601  10.838  70.506  1.00  0.00    -0.329 OA 
HETATM   20  C   UNL     1     -11.968  15.536  70.524  1.00  0.00    -0.371 A  
HETATM   21  C   UNL     1     -10.810  14.101  68.771  1.00  0.00    -0.258 C  
HETATM   22  O   UNL     1     -10.135  15.044  68.371  1.00  0.00    -0.216 OA 
HETATM   23  C   UNL     1     -13.268  14.523  72.279  1.00  0.00    -0.477 A  
HETATM   24  C   UNL     1     -11.696  14.268  69.952  1.00  0.00    -0.373 A  
HETATM   25  O   UNL     1     -13.611  12.218  72.368  1.00  0.00    -0.431 OA 
HETATM   26  H   UNL     1     -11.652  17.526  70.349  1.00  0.00     0.000 HD 
HETATM   27  C   UNL     1     -12.256  13.137  70.545  1.00  0.00    -0.405 A  
HETATM   28  O   UNL     1     -11.470  16.677  69.965  1.00  0.00    -0.058 OA 
HETATM   29  C   UNL     1     -13.036  13.274  71.712  1.00  0.00    -0.335 A  
HETATM   30  C   UNL     1     -12.028  11.794  69.980  1.00  0.00    -0.344 C  
BRANCH  14  31
HETATM   31  N   UNL     1     -11.261   9.162  68.928  1.00  0.00    -0.431 NA 
HETATM   32  H   UNL     1     -12.124   9.163  69.473  1.00  0.00     0.000 HD 
BRANCH  31  33
HETATM   33  C   UNL     1     -10.471   7.940  68.881  1.00  0.00    -0.190 C  
BRANCH  33  34
HETATM   34  C   UNL     1      -9.609   7.799  70.147  1.00  0.00    -0.168 C  
BRANCH  34  35
HETATM   35  N   UNL     1      -8.207   8.156  69.883  1.00  0.00    -0.116 NA 
HETATM   36  H   UNL     1      -8.018   8.240  68.884  1.00  0.00     0.000 HD 
BRANCH  35  37
HETATM   37  C   UNL     1      -7.843   9.376  70.614  1.00  0.00    -0.151 C  
BRANCH  37  38
HETATM   38  C   UNL     1      -6.725  10.126  69.886  1.00  0.00    -0.110 C  
HETATM   39  O   UNL     1      -6.278  11.232  70.666  1.00  0.00    -0.378 OA 
HETATM   40  H   UNL     1      -5.584  11.698  70.214  1.00  0.00     0.000 HD 
ENDBRANCH  37  38
ENDBRANCH  35  37
ENDBRANCH  34  35
ENDBRANCH  33  34
ENDBRANCH  31  33
ENDBRANCH  14  31
ENDBRANCH   9  11
ENDBRANCH   8   9
ENDBRANCH   7   8
ENDBRANCH   5   7
ENDBRANCH   4   5
ENDBRANCH   3   4
TORSDOF 12
ENDMDL
MODEL       44
REMARK 921   NORMALIZED FREE ENERGY PREDICTED BY IDOCK:   -5.56 KCAL/MOL
REMARK 922        TOTAL FREE ENERGY PREDICTED BY IDOCK:  -11.72 KCAL/MOL
REMARK 923 INTER-LIGAND FREE ENERGY PREDICTED BY IDOCK:  -10.21 KCAL/MOL
REMARK 924 INTRA-LIGAND FREE ENERGY PREDICTED BY IDOCK:   -1.52 KCAL/MOL
REMARK 927      BINDING AFFINITY PREDICTED BY RF-SCORE:    0.00 PKD
ROOT
HETATM    1  O   UNL     1     -13.772  15.483  70.569  1.00  0.00    -0.837 OA 
HETATM    2  H   UNL     1     -14.123  15.340  71.440  1.00  0.00     0.000 HD 
HETATM    3  C   UNL     1     -12.356  15.318  70.575  1.00  0.00    -0.387 C  
ENDROOT
BRANCH   3   4
HETATM    4  C   UNL     1     -11.791  15.548  69.171  1.00  0.00    -0.354 C  
BRANCH   4   5
HETATM    5  N   UNL     1     -12.091  14.455  68.234  1.00  0.00    -0.564 NA 
HETATM    6  H   UNL     1     -13.096  14.298  68.157  1.00  0.00     0.000 HD 
BRANCH   5   7
HETATM    7  C   UNL     1     -11.483  14.679  66.915  1.00  0.00    -0.363 C  
BRANCH   7   8
HETATM    8  C   UNL     1     -11.972  13.629  65.910  1.00  0.00    -0.405 C  
BRANCH   8   9
HETATM    9  N   UNL     1     -12.119  12.332  66.546  1.00  0.00    -0.599 NA 
HETATM   10  H   UNL     1     -12.994  12.119  67.024  1.00  0.00     0.000 HD 
BRANCH   9  11
HETATM   11  C   UNL     1     -11.119  11.371  66.530  1.00  0.00    -0.251 A  
HETATM   12  C   UNL     1     -10.353  11.206  65.377  1.00  0.00    -0.331 A  
HETATM   13  C   UNL     1      -9.367  10.236  65.304  1.00  0.00    -0.267 A  
HETATM   14  C   UNL     1      -9.157   9.332  66.346  1.00  0.00    -0.160 A  
HETATM   15  H   UNL     1      -9.378   6.116  71.630  1.00  0.00     0.000 HD 
HETATM   16  C   UNL     1      -9.946   9.464  67.519  1.00  0.00    -0.250 A  
HETATM   17  C   UNL     1     -10.881  10.509  67.632  1.00  0.00    -0.355 A  
HETATM   18  C   UNL     1     -11.972   8.970  72.301  1.00  0.00    -0.332 A  
HETATM   19  O   UNL     1      -9.070   7.510  68.549  1.00  0.00    -0.135 OA 
HETATM   20  C   UNL     1     -12.172   9.866  71.249  1.00  0.00    -0.387 A  
HETATM   21  C   UNL     1     -11.574  10.741  68.935  1.00  0.00    -0.291 C  
HETATM   22  O   UNL     1     -12.174  11.795  69.123  1.00  0.00    -0.251 OA 
HETATM   23  C   UNL     1     -11.066   7.930  72.155  1.00  0.00    -0.351 A  
HETATM   24  C   UNL     1     -11.447   9.752  70.036  1.00  0.00    -0.232 A  
HETATM   25  O   UNL     1      -9.505   6.724  70.911  1.00  0.00    -0.158 OA 
HETATM   26  H   UNL     1     -13.564  10.948  72.242  1.00  0.00     0.000 HD 
HETATM   27  C   UNL     1     -10.556   8.688  69.893  1.00  0.00    -0.227 A  
HETATM   28  O   UNL     1     -13.078  10.871  71.429  1.00  0.00    -0.389 OA 
HETATM   29  C   UNL     1     -10.368   7.786  70.960  1.00  0.00    -0.202 A  
HETATM   30  C   UNL     1      -9.792   8.504  68.645  1.00  0.00    -0.170 C  
BRANCH  14  31
HETATM   31  N   UNL     1      -8.124   8.418  66.230  1.00  0.00    -0.102 NA 
HETATM   32  H   UNL     1      -7.643   8.117  67.078  1.00  0.00     0.000 HD 
BRANCH  31  33
HETATM   33  C   UNL     1      -7.695   7.865  64.954  1.00  0.00    -0.112 C  
BRANCH  33  34
HETATM   34  C   UNL     1      -7.942   6.347  64.906  1.00  0.00    -0.124 C  
BRANCH  34  35
HETATM   35  N   UNL     1      -9.149   5.978  65.660  1.00  0.00    -0.336 NA 
HETATM   36  H   UNL     1      -9.989   6.399  65.263  1.00  0.00     0.000 HD 
BRANCH  35  37
HETATM   37  C   UNL     1      -9.263   4.517  65.760  1.00  0.00    -0.146 C  
BRANCH  37  38
HETATM   38  C   UNL     1     -10.265   3.985  64.732  1.00  0.00    -0.212 C  
HETATM   39  O   UNL     1     -11.600   4.250  65.156  1.00  0.00    -0.928 OA 
HETATM   40  H   UNL     1     -12.223   3.920  64.518  1.00  0.00     0.000 HD 
ENDBRANCH  37  38
ENDBRANCH  35  37
ENDBRANCH  34  35
ENDBRANCH  33  34
ENDBRANCH  31  33
ENDBRANCH  14  31
ENDBRANCH   9  11
ENDBRANCH   8   9
ENDBRANCH   7   8
ENDBRANCH   5   7
ENDBRANCH   4   5
ENDBRANCH   3   4
TORSDOF 12
ENDMDL
MODEL       45
REMARK 921   NORMALIZED FREE ENERGY PREDICTED BY IDOCK:   -5.49 KCAL/MOL
REMARK 922        TOTAL FREE ENERGY PREDICTED BY IDOCK:  -11.60 KCAL/MOL
REMARK 923 INTER-LIGAND FREE ENERGY PREDICTED BY IDOCK:   -9.25 KCAL/MOL
REMARK 924 INTRA-LIGAND FREE ENERGY PREDICTED BY IDOCK:   -2.35 KCAL/MOL
REMARK 927      BINDING AFFINITY PREDICTED BY RF-SCORE:    0.00 PKD
ROOT
HETATM    1  O   UNL     1     -11.956  16.093  63.822  1.00  0.00    -1.394 OA 
HETATM    2  H   UNL     1     -12.235  16.772  63.219  1.00  0.00     0.000 HD 
HETATM    3  C   UNL     1     -10.967  16.604  64.713  1.00  0.00    -0.109 C  
ENDROOT
BRANCH   3   4
HETATM    4  C   UNL     1     -10.517  15.511  65.686  1.00  0.00    -0.374 C  
BRANCH   4   5
HETATM    5  N   UNL     1     -11.526  15.182  66.703  1.00  0.00    -0.251 NA 
HETATM    6  H   UNL     1     -12.028  14.327  66.464  1.00  0.00     0.000 HD 
BRANCH   5   7
HETATM    7  C   UNL     1     -10.943  15.101  68.049  1.00  0.00    -0.295 C  
BRANCH   7   8
HETATM    8  C   UNL     1     -11.956  14.517  69.042  1.00  0.00    -0.299 C  
BRANCH   8   9
HETATM    9  N   UNL     1     -12.465  13.241  68.572  1.00  0.00     0.053 NA 
HETATM   10  H   UNL     1     -13.232  13.238  67.900  1.00  0.00     0.000 HD 
BRANCH   9  11
HETATM   11  C   UNL     1     -11.951  12.025  68.999  1.00  0.00    -0.264 A  
HETATM   12  C   UNL     1     -12.126  11.641  70.327  1.00  0.00    -0.443 A  
HETATM   13  C   UNL     1     -11.601  10.452  70.806  1.00  0.00    -0.450 A  
HETATM   14  C   UNL     1     -10.807   9.632  70.003  1.00  0.00    -0.264 A  
HETATM   15  H   UNL     1      -7.562   7.092  65.384  1.00  0.00     0.000 HD 
HETATM   16  C   UNL     1     -10.591  10.019  68.654  1.00  0.00    -0.239 A  
HETATM   17  C   UNL     1     -11.204  11.176  68.140  1.00  0.00    -0.356 A  
HETATM   18  C   UNL     1      -9.207  10.179  63.627  1.00  0.00    -0.320 A  
HETATM   19  O   UNL     1      -9.075   8.247  68.196  1.00  0.00    -0.135 OA 
HETATM   20  C   UNL     1      -9.998  10.990  64.443  1.00  0.00    -0.312 A  
HETATM   21  C   UNL     1     -11.113  11.473  66.678  1.00  0.00    -0.295 C  
HETATM   22  O   UNL     1     -11.857  12.314  66.183  1.00  0.00    -0.507 OA 
HETATM   23  C   UNL     1      -8.589   9.058  64.163  1.00  0.00    -0.165 A  
HETATM   24  C   UNL     1     -10.207  10.678  65.809  1.00  0.00    -0.317 A  
HETATM   25  O   UNL     1      -8.102   7.636  65.945  1.00  0.00    -0.108 OA 
HETATM   26  H   UNL     1     -10.442  12.296  62.963  1.00  0.00     0.000 HD 
HETATM   27  C   UNL     1      -9.561   9.563  66.343  1.00  0.00    -0.273 A  
HETATM   28  O   UNL     1     -10.582  12.087  63.879  1.00  0.00    -0.323 OA 
HETATM   29  C   UNL     1      -8.760   8.756  65.510  1.00  0.00    -0.185 A  
HETATM   30  C   UNL     1      -9.721   9.203  67.764  1.00  0.00    -0.154 C  
BRANCH  14  31
HETATM   31  N   UNL     1     -10.352   8.435  70.526  1.00  0.00    -0.196 NA 
HETATM   32  H   UNL     1      -9.347   8.260  70.540  1.00  0.00     0.000 HD 
BRANCH  31  33
HETATM   33  C   UNL     1     -11.242   7.413  71.059  1.00  0.00    -0.264 C  
BRANCH  33  34
HETATM   34  C   UNL     1     -11.640   6.411  69.962  1.00  0.00    -0.377 C  
BRANCH  34  35
HETATM   35  N   UNL     1     -10.472   5.990  69.174  1.00  0.00    -0.227 NA 
HETATM   36  H   UNL     1      -9.822   6.760  69.015  1.00  0.00     0.000 HD 
BRANCH  35  37
HETATM   37  C   UNL     1      -9.814   4.840  69.808  1.00  0.00    -0.218 C  
BRANCH  37  38
HETATM   38  C   UNL     1      -8.305   5.073  69.909  1.00  0.00    -0.081 C  
HETATM   39  O   UNL     1      -8.033   6.424  70.274  1.00  0.00    -0.108 OA 
HETATM   40  H   UNL     1      -7.096   6.569  70.336  1.00  0.00     0.000 HD 
ENDBRANCH  37  38
ENDBRANCH  35  37
ENDBRANCH  34  35
ENDBRANCH  33  34
ENDBRANCH  31  33
ENDBRANCH  14  31
ENDBRANCH   9  11
ENDBRANCH   8   9
ENDBRANCH   7   8
ENDBRANCH   5   7
ENDBRANCH   4   5
ENDBRANCH   3   4
TORSDOF 12
ENDMDL
MODEL       46
REMARK 921   NORMALIZED FREE ENERGY PREDICTED BY IDOCK:   -5.48 KCAL/MOL
REMARK 922        TOTAL FREE ENERGY PREDICTED BY IDOCK:  -11.59 KCAL/MOL
REMARK 923 INTER-LIGAND FREE ENERGY PREDICTED BY IDOCK:  -10.64 KCAL/MOL
REMARK 924 INTRA-LIGAND FREE ENERGY PREDICTED BY IDOCK:   -0.95 KCAL/MOL
REMARK 927      BINDING AFFINITY PREDICTED BY RF-SCORE:    0.00 PKD
ROOT
HETATM    1  O   UNL     1      -8.928   6.275  70.085  1.00  0.00    -0.147 OA 
HETATM    2  H   UNL     1      -8.064   6.657  70.176  1.00  0.00     0.000 HD 
HETATM    3  C   UNL     1      -9.703   6.527  71.255  1.00  0.00    -0.173 C  
ENDROOT
BRANCH   3   4
HETATM    4  C   UNL     1     -11.098   5.912  71.109  1.00  0.00    -0.236 C  
BRANCH   4   5
HETATM    5  N   UNL     1     -12.085   6.835  70.530  1.00  0.00    -0.561 NA 
HETATM    6  H   UNL     1     -12.553   6.419  69.724  1.00  0.00     0.000 HD 
BRANCH   5   7
HETATM    7  C   UNL     1     -13.056   7.298  71.531  1.00  0.00    -0.384 C  
BRANCH   7   8
HETATM    8  C   UNL     1     -12.917   8.809  71.758  1.00  0.00    -0.361 C  
BRANCH   8   9
HETATM    9  N   UNL     1     -11.820   9.351  70.976  1.00  0.00    -0.305 NA 
HETATM   10  H   UNL     1     -10.992   8.775  70.830  1.00  0.00     0.000 HD 
BRANCH   9  11
HETATM   11  C   UNL     1     -11.852  10.621  70.419  1.00  0.00    -0.349 A  
HETATM   12  C   UNL     1     -12.424  11.668  71.142  1.00  0.00    -0.412 A  
HETATM   13  C   UNL     1     -12.508  12.944  70.612  1.00  0.00    -0.333 A  
HETATM   14  C   UNL     1     -12.101  13.218  69.305  1.00  0.00    -0.242 A  
HETATM   15  H   UNL     1      -9.952  12.921  63.508  1.00  0.00     0.000 HD 
HETATM   16  C   UNL     1     -11.543  12.160  68.540  1.00  0.00    -0.366 A  
HETATM   17  C   UNL     1     -11.367  10.886  69.111  1.00  0.00    -0.350 A  
HETATM   18  C   UNL     1      -9.229   9.310  64.834  1.00  0.00    -0.206 A  
HETATM   19  O   UNL     1     -11.364  13.448  66.551  1.00  0.00    -0.304 OA 
HETATM   20  C   UNL     1      -9.641   9.051  66.143  1.00  0.00    -0.272 A  
HETATM   21  C   UNL     1     -10.618   9.836  68.357  1.00  0.00    -0.226 C  
HETATM   22  O   UNL     1     -10.230   8.830  68.943  1.00  0.00    -0.197 OA 
HETATM   23  C   UNL     1      -9.438  10.566  64.282  1.00  0.00    -0.337 A  
HETATM   24  C   UNL     1     -10.250  10.056  66.935  1.00  0.00    -0.299 A  
HETATM   25  O   UNL     1     -10.231  12.755  64.401  1.00  0.00    -0.350 OA 
HETATM   26  H   UNL     1      -9.016   7.127  66.115  1.00  0.00     0.000 HD 
HETATM   27  C   UNL     1     -10.477  11.308  66.361  1.00  0.00    -0.306 A  
HETATM   28  O   UNL     1      -9.424   7.801  66.645  1.00  0.00    -0.181 OA 
HETATM   29  C   UNL     1     -10.062  11.554  65.037  1.00  0.00    -0.270 A  
HETATM   30  C   UNL     1     -11.129  12.385  67.129  1.00  0.00    -0.280 C  
BRANCH  14  31
HETATM   31  N   UNL     1     -12.168  14.523  68.851  1.00  0.00    -0.564 NA 
HETATM   32  H   UNL     1     -12.216  14.687  67.846  1.00  0.00     0.000 HD 
BRANCH  31  33
HETATM   33  C   UNL     1     -12.172  15.673  69.744  1.00  0.00    -0.270 C  
BRANCH  33  34
HETATM   34  C   UNL     1     -10.867  15.739  70.556  1.00  0.00    -0.301 C  
BRANCH  34  35
HETATM   35  N   UNL     1     -11.075  15.289  71.940  1.00  0.00    -0.498 NA 
HETATM   36  H   UNL     1     -10.192  15.179  72.440  1.00  0.00     0.000 HD 
BRANCH  35  37
HETATM   37  C   UNL     1     -11.993  16.195  72.640  1.00  0.00    -0.551 C  
BRANCH  37  38
HETATM   38  C   UNL     1     -13.073  15.401  73.380  1.00  0.00    -0.509 C  
HETATM   39  O   UNL     1     -14.215  15.220  72.546  1.00  0.00    -0.501 OA 
HETATM   40  H   UNL     1     -14.886  14.728  73.005  1.00  0.00     0.000 HD 
ENDBRANCH  37  38
ENDBRANCH  35  37
ENDBRANCH  34  35
ENDBRANCH  33  34
ENDBRANCH  31  33
ENDBRANCH  14  31
ENDBRANCH   9  11
ENDBRANCH   8   9
ENDBRANCH   7   8
ENDBRANCH   5   7
ENDBRANCH   4   5
ENDBRANCH   3   4
TORSDOF 12
ENDMDL
MODEL       47
REMARK 921   NORMALIZED FREE ENERGY PREDICTED BY IDOCK:   -5.47 KCAL/MOL
REMARK 922        TOTAL FREE ENERGY PREDICTED BY IDOCK:  -11.58 KCAL/MOL
REMARK 923 INTER-LIGAND FREE ENERGY PREDICTED BY IDOCK:  -10.69 KCAL/MOL
REMARK 924 INTRA-LIGAND FREE ENERGY PREDICTED BY IDOCK:   -0.89 KCAL/MOL
REMARK 927      BINDING AFFINITY PREDICTED BY RF-SCORE:    0.00 PKD
ROOT
HETATM    1  O   UNL     1     -12.221  14.650  74.478  1.00  0.00    -0.621 OA 
HETATM    2  H   UNL     1     -12.612  14.382  75.300  1.00  0.00     0.000 HD 
HETATM    3  C   UNL     1     -12.562  16.003  74.188  1.00  0.00    -0.582 C  
ENDROOT
BRANCH   3   4
HETATM    4  C   UNL     1     -11.931  16.436  72.862  1.00  0.00    -0.474 C  
BRANCH   4   5
HETATM    5  N   UNL     1     -11.280  15.335  72.137  1.00  0.00    -0.470 NA 
HETATM    6  H   UNL     1     -11.530  14.430  72.537  1.00  0.00     0.000 HD 
BRANCH   5   7
HETATM    7  C   UNL     1     -11.567  15.380  70.697  1.00  0.00    -0.332 C  
BRANCH   7   8
HETATM    8  C   UNL     1     -12.766  14.485  70.358  1.00  0.00    -0.322 C  
BRANCH   8   9
HETATM    9  N   UNL     1     -12.522  13.731  69.142  1.00  0.00    -0.318 NA 
HETATM   10  H   UNL     1     -12.720  14.173  68.244  1.00  0.00     0.000 HD 
BRANCH   9  11
HETATM   11  C   UNL     1     -12.029  12.434  69.149  1.00  0.00    -0.240 A  
HETATM   12  C   UNL     1     -12.045  11.707  70.338  1.00  0.00    -0.462 A  
HETATM   13  C   UNL     1     -11.533  10.422  70.400  1.00  0.00    -0.420 A  
HETATM   14  C   UNL     1     -10.906   9.834  69.300  1.00  0.00    -0.216 A  
HETATM   15  H   UNL     1      -8.479   8.577  63.747  1.00  0.00     0.000 HD 
HETATM   16  C   UNL     1     -10.853  10.569  68.086  1.00  0.00    -0.300 A  
HETATM   17  C   UNL     1     -11.459  11.835  67.995  1.00  0.00    -0.388 A  
HETATM   18  C   UNL     1     -10.158  12.060  63.136  1.00  0.00    -0.267 A  
HETATM   19  O   UNL     1      -9.523   8.956  66.955  1.00  0.00    -0.150 OA 
HETATM   20  C   UNL     1     -10.780  12.636  64.246  1.00  0.00    -0.382 A  
HETATM   21  C   UNL     1     -11.550  12.516  66.668  1.00  0.00    -0.380 C  
HETATM   22  O   UNL     1     -12.301  13.476  66.530  1.00  0.00    -0.392 OA 
HETATM   23  C   UNL     1      -9.542  10.823  63.257  1.00  0.00    -0.384 A  
HETATM   24  C   UNL     1     -10.820  11.969  65.495  1.00  0.00    -0.336 A  
HETATM   25  O   UNL     1      -8.904   8.960  64.505  1.00  0.00    -0.144 OA 
HETATM   26  H   UNL     1     -11.342  14.305  63.248  1.00  0.00     0.000 HD 
HETATM   27  C   UNL     1     -10.176  10.736  65.611  1.00  0.00    -0.320 A  
HETATM   28  O   UNL     1     -11.368  13.857  64.086  1.00  0.00    -0.329 OA 
HETATM   29  C   UNL     1      -9.546  10.169  64.485  1.00  0.00    -0.311 A  
HETATM   30  C   UNL     1     -10.163  10.008  66.893  1.00  0.00    -0.238 C  
BRANCH  14  31
HETATM   31  N   UNL     1     -10.457   8.530  69.413  1.00  0.00    -0.220 NA 
HETATM   32  H   UNL     1     -10.834   7.829  68.776  1.00  0.00     0.000 HD 
BRANCH  31  33
HETATM   33  C   UNL     1      -9.472   8.114  70.401  1.00  0.00    -0.163 C  
BRANCH  33  34
HETATM   34  C   UNL     1      -9.552   6.597  70.645  1.00  0.00    -0.169 C  
BRANCH  34  35
HETATM   35  N   UNL     1     -10.808   6.229  71.316  1.00  0.00    -0.254 NA 
HETATM   36  H   UNL     1     -11.301   5.487  70.819  1.00  0.00     0.000 HD 
BRANCH  35  37
HETATM   37  C   UNL     1     -10.553   5.874  72.718  1.00  0.00    -0.225 C  
BRANCH  37  38
HETATM   38  C   UNL     1     -10.772   7.085  73.628  1.00  0.00    -0.273 C  
HETATM   39  O   UNL     1     -12.000   7.733  73.305  1.00  0.00    -0.602 OA 
HETATM   40  H   UNL     1     -12.136   8.486  73.869  1.00  0.00     0.000 HD 
ENDBRANCH  37  38
ENDBRANCH  35  37
ENDBRANCH  34  35
ENDBRANCH  33  34
ENDBRANCH  31  33
ENDBRANCH  14  31
ENDBRANCH   9  11
ENDBRANCH   8   9
ENDBRANCH   7   8
ENDBRANCH   5   7
ENDBRANCH   4   5
ENDBRANCH   3   4
TORSDOF 12
ENDMDL
MODEL       48
REMARK 921   NORMALIZED FREE ENERGY PREDICTED BY IDOCK:   -5.46 KCAL/MOL
REMARK 922        TOTAL FREE ENERGY PREDICTED BY IDOCK:  -11.55 KCAL/MOL
REMARK 923 INTER-LIGAND FREE ENERGY PREDICTED BY IDOCK:   -9.81 KCAL/MOL
REMARK 924 INTRA-LIGAND FREE ENERGY PREDICTED BY IDOCK:   -1.73 KCAL/MOL
REMARK 927      BINDING AFFINITY PREDICTED BY RF-SCORE:    0.00 PKD
ROOT
HETATM    1  O   UNL     1      -9.991   4.405  69.687  1.00  0.00    -0.222 OA 
HETATM    2  H   UNL     1     -10.027   4.403  70.636  1.00  0.00     0.000 HD 
HETATM    3  C   UNL     1      -8.718   3.944  69.241  1.00  0.00    -0.084 C  
ENDROOT
BRANCH   3   4
HETATM    4  C   UNL     1      -8.660   3.946  67.711  1.00  0.00    -0.098 C  
BRANCH   4   5
HETATM    5  N   UNL     1      -9.987   3.957  67.076  1.00  0.00    -0.289 NA 
HETATM    6  H   UNL     1     -10.731   3.983  67.774  1.00  0.00     0.000 HD 
BRANCH   5   7
HETATM    7  C   UNL     1     -10.123   5.054  66.109  1.00  0.00    -0.236 C  
BRANCH   7   8
HETATM    8  C   UNL     1      -9.108   6.165  66.407  1.00  0.00    -0.148 C  
BRANCH   8   9
HETATM    9  N   UNL     1      -9.697   7.475  66.196  1.00  0.00    -0.435 NA 
HETATM   10  H   UNL     1      -9.840   7.799  65.239  1.00  0.00     0.000 HD 
BRANCH   9  11
HETATM   11  C   UNL     1     -10.074   8.306  67.240  1.00  0.00    -0.247 A  
HETATM   12  C   UNL     1     -10.082   7.803  68.541  1.00  0.00    -0.216 A  
HETATM   13  C   UNL     1     -10.484   8.585  69.610  1.00  0.00    -0.221 A  
HETATM   14  C   UNL     1     -10.974   9.878  69.422  1.00  0.00    -0.230 A  
HETATM   15  H   UNL     1     -12.869  15.294  67.100  1.00  0.00     0.000 HD 
HETATM   16  C   UNL     1     -11.002  10.401  68.103  1.00  0.00    -0.334 A  
HETATM   17  C   UNL     1     -10.504   9.642  67.028  1.00  0.00    -0.302 A  
HETATM   18  C   UNL     1     -11.459  13.491  63.924  1.00  0.00    -0.289 A  
HETATM   19  O   UNL     1     -12.100  12.414  68.726  1.00  0.00    -0.269 OA 
HETATM   20  C   UNL     1     -10.973  12.198  64.128  1.00  0.00    -0.361 A  
HETATM   21  C   UNL     1     -10.375  10.270  65.678  1.00  0.00    -0.162 C  
HETATM   22  O   UNL     1      -9.702   9.717  64.814  1.00  0.00    -0.283 OA 
HETATM   23  C   UNL     1     -11.972  14.209  64.995  1.00  0.00    -0.412 A  
HETATM   24  C   UNL     1     -10.967  11.608  65.417  1.00  0.00    -0.328 A  
HETATM   25  O   UNL     1     -12.535  14.416  67.248  1.00  0.00    -0.211 OA 
HETATM   26  H   UNL     1     -10.487  11.917  62.184  1.00  0.00     0.000 HD 
HETATM   27  C   UNL     1     -11.507  12.330  66.480  1.00  0.00    -0.438 A  
HETATM   28  O   UNL     1     -10.483  11.522  63.047  1.00  0.00    -0.298 OA 
HETATM   29  C   UNL     1     -12.002  13.632  66.261  1.00  0.00    -0.423 A  
HETATM   30  C   UNL     1     -11.551  11.758  67.839  1.00  0.00    -0.307 C  
BRANCH  14  31
HETATM   31  N   UNL     1     -11.315  10.624  70.537  1.00  0.00    -0.401 NA 
HETATM   32  H   UNL     1     -10.876  11.537  70.664  1.00  0.00     0.000 HD 
BRANCH  31  33
HETATM   33  C   UNL     1     -12.271  10.168  71.535  1.00  0.00    -0.380 C  
BRANCH  33  34
HETATM   34  C   UNL     1     -13.231  11.303  71.930  1.00  0.00    -0.386 C  
BRANCH  34  35
HETATM   35  N   UNL     1     -12.784  12.594  71.388  1.00  0.00    -0.315 NA 
HETATM   36  H   UNL     1     -12.819  12.611  70.368  1.00  0.00     0.000 HD 
BRANCH  35  37
HETATM   37  C   UNL     1     -13.558  13.693  71.980  1.00  0.00    -0.495 C  
BRANCH  37  38
HETATM   38  C   UNL     1     -13.096  15.040  71.418  1.00  0.00    -0.389 C  
HETATM   39  O   UNL     1     -13.035  14.989  69.995  1.00  0.00    -0.608 OA 
HETATM   40  H   UNL     1     -12.748  15.825  69.645  1.00  0.00     0.000 HD 
ENDBRANCH  37  38
ENDBRANCH  35  37
ENDBRANCH  34  35
ENDBRANCH  33  34
ENDBRANCH  31  33
ENDBRANCH  14  31
ENDBRANCH   9  11
ENDBRANCH   8   9
ENDBRANCH   7   8
ENDBRANCH   5   7
ENDBRANCH   4   5
ENDBRANCH   3   4
TORSDOF 12
ENDMDL
MODEL       49
REMARK 921   NORMALIZED FREE ENERGY PREDICTED BY IDOCK:   -5.44 KCAL/MOL
REMARK 922        TOTAL FREE ENERGY PREDICTED BY IDOCK:  -11.53 KCAL/MOL
REMARK 923 INTER-LIGAND FREE ENERGY PREDICTED BY IDOCK:   -9.67 KCAL/MOL
REMARK 924 INTRA-LIGAND FREE ENERGY PREDICTED BY IDOCK:   -1.86 KCAL/MOL
REMARK 927      BINDING AFFINITY PREDICTED BY RF-SCORE:    0.00 PKD
ROOT
HETATM    1  O   UNL     1     -11.842  14.578  74.456  1.00  0.00    -0.450 OA 
HETATM    2  H   UNL     1     -11.351  14.503  75.265  1.00  0.00     0.000 HD 
HETATM    3  C   UNL     1     -12.520  15.832  74.407  1.00  0.00    -0.638 C  
ENDROOT
BRANCH   3   4
HETATM    4  C   UNL     1     -13.313  15.953  73.103  1.00  0.00    -0.587 C  
BRANCH   4   5
HETATM    5  N   UNL     1     -12.470  16.236  71.931  1.00  0.00    -0.552 NA 
HETATM    6  H   UNL     1     -11.497  15.983  72.105  1.00  0.00     0.000 HD 
BRANCH   5   7
HETATM    7  C   UNL     1     -12.983  15.587  70.717  1.00  0.00    -0.434 C  
BRANCH   7   8
HETATM    8  C   UNL     1     -11.866  14.809  70.009  1.00  0.00    -0.311 C  
BRANCH   8   9
HETATM    9  N   UNL     1     -12.417  13.758  69.173  1.00  0.00    -0.318 NA 
HETATM   10  H   UNL     1     -13.045  14.016  68.412  1.00  0.00     0.000 HD 
BRANCH   9  11
HETATM   11  C   UNL     1     -12.123  12.416  69.365  1.00  0.00    -0.180 A  
HETATM   12  C   UNL     1     -12.380  11.833  70.605  1.00  0.00    -0.421 A  
HETATM   13  C   UNL     1     -12.072  10.507  70.853  1.00  0.00    -0.487 A  
HETATM   14  C   UNL     1     -11.417   9.722  69.902  1.00  0.00    -0.140 A  
HETATM   15  H   UNL     1      -8.586   7.542  64.848  1.00  0.00     0.000 HD 
HETATM   16  C   UNL     1     -11.120  10.303  68.641  1.00  0.00    -0.290 A  
HETATM   17  C   UNL     1     -11.520  11.621  68.355  1.00  0.00    -0.360 A  
HETATM   18  C   UNL     1      -9.657  11.129  63.703  1.00  0.00    -0.316 A  
HETATM   19  O   UNL     1      -9.921   8.412  67.846  1.00  0.00    -0.166 OA 
HETATM   20  C   UNL     1     -10.310  11.903  64.665  1.00  0.00    -0.284 A  
HETATM   21  C   UNL     1     -11.359  12.157  66.969  1.00  0.00    -0.337 C  
HETATM   22  O   UNL     1     -11.941  13.187  66.646  1.00  0.00    -0.391 OA 
HETATM   23  C   UNL     1      -9.247   9.842  64.017  1.00  0.00    -0.302 A  
HETATM   24  C   UNL     1     -10.589  11.390  65.956  1.00  0.00    -0.319 A  
HETATM   25  O   UNL     1      -9.034   8.060  65.506  1.00  0.00    -0.116 OA 
HETATM   26  H   UNL     1     -10.504  13.511  63.452  1.00  0.00     0.000 HD 
HETATM   27  C   UNL     1     -10.150  10.103  66.269  1.00  0.00    -0.303 A  
HETATM   28  O   UNL     1     -10.691  13.167  64.317  1.00  0.00    -0.386 OA 
HETATM   29  C   UNL     1      -9.485   9.335  65.291  1.00  0.00    -0.164 A  
HETATM   30  C   UNL     1     -10.389   9.526  67.604  1.00  0.00    -0.244 C  
BRANCH  14  31
HETATM   31  N   UNL     1     -11.180   8.390  70.194  1.00  0.00    -0.413 NA 
HETATM   32  H   UNL     1     -11.545   7.680  69.558  1.00  0.00     0.000 HD 
BRANCH  31  33
HETATM   33  C   UNL     1     -10.435   7.956  71.366  1.00  0.00    -0.206 C  
BRANCH  33  34
HETATM   34  C   UNL     1      -9.066   8.655  71.432  1.00  0.00    -0.229 C  
BRANCH  34  35
HETATM   35  N   UNL     1      -8.223   8.288  70.285  1.00  0.00    -0.117 NA 
HETATM   36  H   UNL     1      -8.776   7.945  69.500  1.00  0.00     0.000 HD 
BRANCH  35  37
HETATM   37  C   UNL     1      -7.365   9.416  69.899  1.00  0.00    -0.088 C  
BRANCH  37  38
HETATM   38  C   UNL     1      -6.352   8.982  68.838  1.00  0.00    -0.044 C  
HETATM   39  O   UNL     1      -6.949   8.998  67.543  1.00  0.00    -0.076 OA 
HETATM   40  H   UNL     1      -6.320   8.728  66.884  1.00  0.00     0.000 HD 
ENDBRANCH  37  38
ENDBRANCH  35  37
ENDBRANCH  34  35
ENDBRANCH  33  34
ENDBRANCH  31  33
ENDBRANCH  14  31
ENDBRANCH   9  11
ENDBRANCH   8   9
ENDBRANCH   7   8
ENDBRANCH   5   7
ENDBRANCH   4   5
ENDBRANCH   3   4
TORSDOF 12
ENDMDL
MODEL       50
REMARK 921   NORMALIZED FREE ENERGY PREDICTED BY IDOCK:   -5.42 KCAL/MOL
REMARK 922        TOTAL FREE ENERGY PREDICTED BY IDOCK:  -11.48 KCAL/MOL
REMARK 923 INTER-LIGAND FREE ENERGY PREDICTED BY IDOCK:   -9.00 KCAL/MOL
REMARK 924 INTRA-LIGAND FREE ENERGY PREDICTED BY IDOCK:   -2.48 KCAL/MOL
REMARK 927      BINDING AFFINITY PREDICTED BY RF-SCORE:    0.00 PKD
ROOT
HETATM    1  O   UNL     1     -12.916  14.393  70.731  1.00  0.00    -0.349 OA 
HETATM    2  H   UNL     1     -13.801  14.627  70.983  1.00  0.00     0.000 HD 
HETATM    3  C   UNL     1     -12.273  15.499  70.102  1.00  0.00    -0.376 C  
ENDROOT
BRANCH   3   4
HETATM    4  C   UNL     1     -10.846  15.121  69.696  1.00  0.00    -0.286 C  
BRANCH   4   5
HETATM    5  N   UNL     1     -10.759  14.518  68.358  1.00  0.00    -0.237 NA 
HETATM    6  H   UNL     1     -10.951  13.517  68.389  1.00  0.00     0.000 HD 
BRANCH   5   7
HETATM    7  C   UNL     1     -11.632  15.199  67.392  1.00  0.00    -0.240 C  
BRANCH   7   8
HETATM    8  C   UNL     1     -12.095  14.224  66.302  1.00  0.00    -0.413 C  
BRANCH   8   9
HETATM    9  N   UNL     1     -12.269  12.888  66.843  1.00  0.00    -0.410 NA 
HETATM   10  H   UNL     1     -13.029  12.723  67.502  1.00  0.00     0.000 HD 
BRANCH   9  11
HETATM   11  C   UNL     1     -11.446  11.826  66.499  1.00  0.00    -0.255 A  
HETATM   12  C   UNL     1     -10.950  11.742  65.199  1.00  0.00    -0.351 A  
HETATM   13  C   UNL     1     -10.153  10.683  64.801  1.00  0.00    -0.412 A  
HETATM   14  C   UNL     1      -9.881   9.615  65.659  1.00  0.00    -0.299 A  
HETATM   15  H   UNL     1      -9.549   5.701  70.442  1.00  0.00     0.000 HD 
HETATM   16  C   UNL     1     -10.399   9.666  66.979  1.00  0.00    -0.315 A  
HETATM   17  C   UNL     1     -11.129  10.788  67.414  1.00  0.00    -0.363 A  
HETATM   18  C   UNL     1     -11.510   8.716  71.987  1.00  0.00    -0.437 A  
HETATM   19  O   UNL     1      -9.640   7.489  67.557  1.00  0.00    -0.135 OA 
HETATM   20  C   UNL     1     -11.775   9.776  71.117  1.00  0.00    -0.385 A  
HETATM   21  C   UNL     1     -11.514  10.906  68.853  1.00  0.00    -0.300 C  
HETATM   22  O   UNL     1     -11.903  11.985  69.289  1.00  0.00    -0.303 OA 
HETATM   23  C   UNL     1     -10.814   7.607  71.528  1.00  0.00    -0.256 A  
HETATM   24  C   UNL     1     -11.323   9.756  69.774  1.00  0.00    -0.201 A  
HETATM   25  O   UNL     1      -9.721   6.420  69.845  1.00  0.00    -0.164 OA 
HETATM   26  H   UNL     1     -12.772  10.859  72.506  1.00  0.00     0.000 HD 
HETATM   27  C   UNL     1     -10.646   8.626  69.318  1.00  0.00    -0.204 A  
HETATM   28  O   UNL     1     -12.469  10.845  71.606  1.00  0.00    -0.335 OA 
HETATM   29  C   UNL     1     -10.391   7.559  70.204  1.00  0.00    -0.216 A  
HETATM   30  C   UNL     1     -10.174   8.538  67.923  1.00  0.00    -0.218 C  
BRANCH  14  31
HETATM   31  N   UNL     1      -9.038   8.610  65.217  1.00  0.00    -0.413 NA 
HETATM   32  H   UNL     1      -9.368   7.646  65.257  1.00  0.00     0.000 HD 
BRANCH  31  33
HETATM   33  C   UNL     1      -7.702   8.867  64.698  1.00  0.00    -0.117 C  
BRANCH  33  34
HETATM   34  C   UNL     1      -6.773   9.378  65.812  1.00  0.00    -0.077 C  
BRANCH  34  35
HETATM   35  N   UNL     1      -6.713  10.847  65.825  1.00  0.00    -0.333 NA 
HETATM   36  H   UNL     1      -7.416  11.262  65.214  1.00  0.00     0.000 HD 
BRANCH  35  37
HETATM   37  C   UNL     1      -6.817  11.350  67.201  1.00  0.00    -0.124 C  
BRANCH  37  38
HETATM   38  C   UNL     1      -7.868  12.460  67.289  1.00  0.00    -0.166 C  
HETATM   39  O   UNL     1      -8.348  12.585  68.626  1.00  0.00    -0.311 OA 
HETATM   40  H   UNL     1      -9.001  13.274  68.681  1.00  0.00     0.000 HD 
ENDBRANCH  37  38
ENDBRANCH  35  37
ENDBRANCH  34  35
ENDBRANCH  33  34
ENDBRANCH  31  33
ENDBRANCH  14  31
ENDBRANCH   9  11
ENDBRANCH   8   9
ENDBRANCH   7   8
ENDBRANCH   5   7
ENDBRANCH   4   5
ENDBRANCH   3   4
TORSDOF 12
ENDMDL
MODEL       51
REMARK 921   NORMALIZED FREE ENERGY PREDICTED BY IDOCK:   -5.41 KCAL/MOL
REMARK 922        TOTAL FREE ENERGY PREDICTED BY IDOCK:  -11.47 KCAL/MOL
REMARK 923 INTER-LIGAND FREE ENERGY PREDICTED BY IDOCK:  -10.47 KCAL/MOL
REMARK 924 INTRA-LIGAND FREE ENERGY PREDICTED BY IDOCK:   -1.00 KCAL/MOL
REMARK 927      BINDING AFFINITY PREDICTED BY RF-SCORE:    0.00 PKD
ROOT
HETATM    1  O   UNL     1     -11.044  15.488  71.423  1.00  0.00    -0.357 OA 
HETATM    2  H   UNL     1     -10.755  15.875  70.606  1.00  0.00     0.000 HD 
HETATM    3  C   UNL     1     -11.897  16.391  72.122  1.00  0.00    -0.418 C  
ENDROOT
BRANCH   3   4
HETATM    4  C   UNL     1     -12.364  15.766  73.440  1.00  0.00    -0.528 C  
BRANCH   4   5
HETATM    5  N   UNL     1     -13.764  15.316  73.409  1.00  0.00    -0.575 NA 
HETATM    6  H   UNL     1     -14.407  16.094  73.551  1.00  0.00     0.000 HD 
BRANCH   5   7
HETATM    7  C   UNL     1     -14.077  14.582  72.175  1.00  0.00    -0.524 C  
BRANCH   7   8
HETATM    8  C   UNL     1     -13.456  13.180  72.208  1.00  0.00    -0.568 C  
BRANCH   8   9
HETATM    9  N   UNL     1     -12.483  13.020  71.144  1.00  0.00    -0.335 NA 
HETATM   10  H   UNL     1     -12.028  13.851  70.768  1.00  0.00     0.000 HD 
BRANCH   9  11
HETATM   11  C   UNL     1     -12.144  11.782  70.616  1.00  0.00    -0.311 A  
HETATM   12  C   UNL     1     -12.191  10.656  71.437  1.00  0.00    -0.405 A  
HETATM   13  C   UNL     1     -11.830   9.407  70.964  1.00  0.00    -0.396 A  
HETATM   14  C   UNL     1     -11.326   9.236  69.673  1.00  0.00     0.049 A  
HETATM   15  H   UNL     1      -9.313  10.007  63.871  1.00  0.00     0.000 HD 
HETATM   16  C   UNL     1     -11.242  10.373  68.829  1.00  0.00    -0.295 A  
HETATM   17  C   UNL     1     -11.700  11.626  69.277  1.00  0.00    -0.396 A  
HETATM   18  C   UNL     1     -10.601  13.592  64.773  1.00  0.00    -0.429 A  
HETATM   19  O   UNL     1     -10.161   9.210  67.061  1.00  0.00    -0.226 OA 
HETATM   20  C   UNL     1     -11.101  13.748  66.068  1.00  0.00    -0.291 A  
HETATM   21  C   UNL     1     -11.770  12.772  68.320  1.00  0.00    -0.344 C  
HETATM   22  O   UNL     1     -12.411  13.774  68.622  1.00  0.00    -0.271 OA 
HETATM   23  C   UNL     1     -10.128  12.354  64.363  1.00  0.00    -0.293 A  
HETATM   24  C   UNL     1     -11.163  12.656  66.970  1.00  0.00    -0.348 A  
HETATM   25  O   UNL     1      -9.656  10.104  64.752  1.00  0.00    -0.271 OA 
HETATM   26  H   UNL     1     -11.509  15.716  65.830  1.00  0.00     0.000 HD 
HETATM   27  C   UNL     1     -10.662  11.422  66.554  1.00  0.00    -0.325 A  
HETATM   28  O   UNL     1     -11.550  14.984  66.434  1.00  0.00    -0.294 OA 
HETATM   29  C   UNL     1     -10.153  11.280  65.247  1.00  0.00    -0.267 A  
HETATM   30  C   UNL     1     -10.676  10.257  67.457  1.00  0.00    -0.294 C  
BRANCH  14  31
HETATM   31  N   UNL     1     -11.027   7.954  69.244  1.00  0.00    -0.429 NA 
HETATM   32  H   UNL     1     -11.361   7.658  68.327  1.00  0.00     0.000 HD 
BRANCH  31  33
HETATM   33  C   UNL     1     -10.258   7.010  70.043  1.00  0.00    -0.194 C  
BRANCH  33  34
HETATM   34  C   UNL     1     -10.853   5.595  69.936  1.00  0.00    -0.300 C  
BRANCH  34  35
HETATM   35  N   UNL     1     -10.172   4.659  70.842  1.00  0.00    -0.186 NA 
HETATM   36  H   UNL     1      -9.280   4.343  70.462  1.00  0.00     0.000 HD 
BRANCH  35  37
HETATM   37  C   UNL     1     -10.018   5.257  72.175  1.00  0.00    -0.184 C  
BRANCH  37  38
HETATM   38  C   UNL     1     -11.032   4.658  73.153  1.00  0.00    -0.286 C  
HETATM   39  O   UNL     1     -10.834   3.251  73.274  1.00  0.00    -0.180 OA 
HETATM   40  H   UNL     1     -11.464   2.879  73.881  1.00  0.00     0.000 HD 
ENDBRANCH  37  38
ENDBRANCH  35  37
ENDBRANCH  34  35
ENDBRANCH  33  34
ENDBRANCH  31  33
ENDBRANCH  14  31
ENDBRANCH   9  11
ENDBRANCH   8   9
ENDBRANCH   7   8
ENDBRANCH   5   7
ENDBRANCH   4   5
ENDBRANCH   3   4
TORSDOF 12
ENDMDL
MODEL       52
REMARK 921   NORMALIZED FREE ENERGY PREDICTED BY IDOCK:   -5.40 KCAL/MOL
REMARK 922        TOTAL FREE ENERGY PREDICTED BY IDOCK:  -11.45 KCAL/MOL
REMARK 923 INTER-LIGAND FREE ENERGY PREDICTED BY IDOCK:   -9.19 KCAL/MOL
REMARK 924 INTRA-LIGAND FREE ENERGY PREDICTED BY IDOCK:   -2.26 KCAL/MOL
REMARK 927      BINDING AFFINITY PREDICTED BY RF-SCORE:    0.00 PKD
ROOT
HETATM    1  O   UNL     1      -7.804  13.307  66.736  1.00  0.00    -0.382 OA 
HETATM    2  H   UNL     1      -8.585  13.656  67.148  1.00  0.00     0.000 HD 
HETATM    3  C   UNL     1      -7.448  12.061  67.330  1.00  0.00    -0.158 C  
ENDROOT
BRANCH   3   4
HETATM    4  C   UNL     1      -6.189  11.498  66.665  1.00  0.00    -0.113 C  
BRANCH   4   5
HETATM    5  N   UNL     1      -6.476  10.597  65.539  1.00  0.00    -0.274 NA 
HETATM    6  H   UNL     1      -5.655  10.472  64.945  1.00  0.00     0.000 HD 
BRANCH   5   7
HETATM    7  C   UNL     1      -7.009   9.305  65.992  1.00  0.00    -0.089 C  
BRANCH   7   8
HETATM    8  C   UNL     1      -8.012   8.748  64.974  1.00  0.00    -0.132 C  
BRANCH   8   9
HETATM    9  N   UNL     1      -9.318   8.565  65.580  1.00  0.00    -0.426 NA 
HETATM   10  H   UNL     1      -9.700   7.621  65.641  1.00  0.00     0.000 HD 
BRANCH   9  11
HETATM   11  C   UNL     1     -10.067   9.618  66.082  1.00  0.00    -0.258 A  
HETATM   12  C   UNL     1     -10.262  10.751  65.293  1.00  0.00    -0.351 A  
HETATM   13  C   UNL     1     -10.974  11.841  65.764  1.00  0.00    -0.353 A  
HETATM   14  C   UNL     1     -11.454  11.885  67.074  1.00  0.00    -0.316 A  
HETATM   15  H   UNL     1     -12.933  10.676  72.961  1.00  0.00     0.000 HD 
HETATM   16  C   UNL     1     -11.242  10.754  67.905  1.00  0.00    -0.386 A  
HETATM   17  C   UNL     1     -10.604   9.608  67.396  1.00  0.00    -0.333 A  
HETATM   18  C   UNL     1     -11.300   7.306  71.820  1.00  0.00    -0.285 A  
HETATM   19  O   UNL     1     -12.160  11.776  69.843  1.00  0.00    -0.305 OA 
HETATM   20  C   UNL     1     -10.824   7.278  70.508  1.00  0.00    -0.243 A  
HETATM   21  C   UNL     1     -10.547   8.365  68.224  1.00  0.00    -0.109 C  
HETATM   22  O   UNL     1     -10.241   7.300  67.697  1.00  0.00    -0.170 OA 
HETATM   23  C   UNL     1     -11.901   8.457  72.309  1.00  0.00    -0.456 A  
HETATM   24  C   UNL     1     -10.964   8.397  69.649  1.00  0.00    -0.094 A  
HETATM   25  O   UNL     1     -12.616  10.663  72.066  1.00  0.00    -0.301 OA 
HETATM   26  H   UNL     1     -10.139   5.379  70.643  1.00  0.00     0.000 HD 
HETATM   27  C   UNL     1     -11.548   9.557  70.160  1.00  0.00    -0.156 A  
HETATM   28  O   UNL     1     -10.233   6.129  70.068  1.00  0.00    -0.177 OA 
HETATM   29  C   UNL     1     -12.018   9.575  71.489  1.00  0.00    -0.399 A  
HETATM   30  C   UNL     1     -11.698  10.760  69.321  1.00  0.00    -0.303 C  
BRANCH  14  31
HETATM   31  N   UNL     1     -12.199  12.982  67.469  1.00  0.00    -0.252 NA 
HETATM   32  H   UNL     1     -13.028  12.827  68.042  1.00  0.00     0.000 HD 
BRANCH  31  33
HETATM   33  C   UNL     1     -11.852  14.349  67.104  1.00  0.00    -0.410 C  
BRANCH  33  34
HETATM   34  C   UNL     1     -11.779  15.244  68.352  1.00  0.00    -0.321 C  
BRANCH  34  35
HETATM   35  N   UNL     1     -12.540  14.667  69.470  1.00  0.00    -0.575 NA 
HETATM   36  H   UNL     1     -12.565  13.648  69.427  1.00  0.00     0.000 HD 
BRANCH  35  37
HETATM   37  C   UNL     1     -12.010  15.149  70.752  1.00  0.00    -0.327 C  
BRANCH  37  38
HETATM   38  C   UNL     1     -12.986  14.836  71.889  1.00  0.00    -0.327 C  
HETATM   39  O   UNL     1     -13.353  13.458  71.864  1.00  0.00    -0.407 OA 
HETATM   40  H   UNL     1     -13.959  13.264  72.569  1.00  0.00     0.000 HD 
ENDBRANCH  37  38
ENDBRANCH  35  37
ENDBRANCH  34  35
ENDBRANCH  33  34
ENDBRANCH  31  33
ENDBRANCH  14  31
ENDBRANCH   9  11
ENDBRANCH   8   9
ENDBRANCH   7   8
ENDBRANCH   5   7
ENDBRANCH   4   5
ENDBRANCH   3   4
TORSDOF 12
ENDMDL
MODEL       53
REMARK 921   NORMALIZED FREE ENERGY PREDICTED BY IDOCK:   -5.39 KCAL/MOL
REMARK 922        TOTAL FREE ENERGY PREDICTED BY IDOCK:  -11.44 KCAL/MOL
REMARK 923 INTER-LIGAND FREE ENERGY PREDICTED BY IDOCK:   -9.95 KCAL/MOL
REMARK 924 INTRA-LIGAND FREE ENERGY PREDICTED BY IDOCK:   -1.50 KCAL/MOL
REMARK 927      BINDING AFFINITY PREDICTED BY RF-SCORE:    0.00 PKD
ROOT
HETATM    1  O   UNL     1     -11.370  11.138  63.309  1.00  0.00    -0.771 OA 
HETATM    2  H   UNL     1     -11.662  10.241  63.420  1.00  0.00     0.000 HD 
HETATM    3  C   UNL     1     -12.437  12.041  63.591  1.00  0.00    -0.525 C  
ENDROOT
BRANCH   3   4
HETATM    4  C   UNL     1     -11.967  13.487  63.413  1.00  0.00    -0.256 C  
BRANCH   4   5
HETATM    5  N   UNL     1     -12.760  14.458  64.182  1.00  0.00    -0.688 NA 
HETATM    6  H   UNL     1     -13.644  14.666  63.717  1.00  0.00     0.000 HD 
BRANCH   5   7
HETATM    7  C   UNL     1     -12.975  14.017  65.567  1.00  0.00    -0.316 C  
BRANCH   7   8
HETATM    8  C   UNL     1     -11.890  14.586  66.489  1.00  0.00    -0.352 C  
BRANCH   8   9
HETATM    9  N   UNL     1     -11.626  13.685  67.597  1.00  0.00    -0.325 NA 
HETATM   10  H   UNL     1     -12.021  13.906  68.511  1.00  0.00     0.000 HD 
BRANCH   9  11
HETATM   11  C   UNL     1     -10.860  12.537  67.464  1.00  0.00    -0.232 A  
HETATM   12  C   UNL     1     -10.000  12.414  66.373  1.00  0.00    -0.254 A  
HETATM   13  C   UNL     1      -9.242  11.272  66.182  1.00  0.00    -0.222 A  
HETATM   14  C   UNL     1      -9.369  10.165  67.023  1.00  0.00    -0.154 A  
HETATM   15  H   UNL     1     -10.969   6.160  71.463  1.00  0.00     0.000 HD 
HETATM   16  C   UNL     1     -10.261  10.256  68.123  1.00  0.00    -0.192 A  
HETATM   17  C   UNL     1     -10.959  11.452  68.375  1.00  0.00    -0.263 A  
HETATM   18  C   UNL     1     -12.962   9.367  72.497  1.00  0.00    -0.345 A  
HETATM   19  O   UNL     1      -9.965   7.994  68.787  1.00  0.00    -0.178 OA 
HETATM   20  C   UNL     1     -12.826  10.465  71.646  1.00  0.00    -0.474 A  
HETATM   21  C   UNL     1     -11.754  11.592  69.632  1.00  0.00    -0.350 C  
HETATM   22  O   UNL     1     -12.136  12.703  69.987  1.00  0.00    -0.316 OA 
HETATM   23  C   UNL     1     -12.286   8.189  72.213  1.00  0.00    -0.371 A  
HETATM   24  C   UNL     1     -11.987  10.413  70.505  1.00  0.00    -0.427 A  
HETATM   25  O   UNL     1     -10.867   6.905  70.882  1.00  0.00    -0.233 OA 
HETATM   26  H   UNL     1     -14.075  11.639  72.721  1.00  0.00     0.000 HD 
HETATM   27  C   UNL     1     -11.332   9.216  70.217  1.00  0.00    -0.217 A  
HETATM   28  O   UNL     1     -13.513  11.603  71.957  1.00  0.00    -0.411 OA 
HETATM   29  C   UNL     1     -11.483   8.111  71.080  1.00  0.00    -0.279 A  
HETATM   30  C   UNL     1     -10.466   9.094  69.029  1.00  0.00    -0.221 C  
BRANCH  14  31
HETATM   31  N   UNL     1      -8.549   9.072  66.805  1.00  0.00    -0.121 NA 
HETATM   32  H   UNL     1      -8.326   8.466  67.595  1.00  0.00     0.000 HD 
BRANCH  31  33
HETATM   33  C   UNL     1      -7.990   8.747  65.501  1.00  0.00    -0.102 C  
BRANCH  33  34
HETATM   34  C   UNL     1      -7.607   7.259  65.427  1.00  0.00    -0.100 C  
BRANCH  34  35
HETATM   35  N   UNL     1      -8.746   6.434  64.997  1.00  0.00    -0.357 NA 
HETATM   36  H   UNL     1      -8.525   5.885  64.166  1.00  0.00     0.000 HD 
BRANCH  35  37
HETATM   37  C   UNL     1      -9.212   5.589  66.104  1.00  0.00    -0.158 C  
BRANCH  37  38
HETATM   38  C   UNL     1     -10.733   5.425  66.051  1.00  0.00    -0.007 C  
HETATM   39  O   UNL     1     -11.374   6.500  66.733  1.00  0.00    -0.729 OA 
HETATM   40  H   UNL     1     -12.318   6.398  66.701  1.00  0.00     0.000 HD 
ENDBRANCH  37  38
ENDBRANCH  35  37
ENDBRANCH  34  35
ENDBRANCH  33  34
ENDBRANCH  31  33
ENDBRANCH  14  31
ENDBRANCH   9  11
ENDBRANCH   8   9
ENDBRANCH   7   8
ENDBRANCH   5   7
ENDBRANCH   4   5
ENDBRANCH   3   4
TORSDOF 12
ENDMDL
MODEL       54
REMARK 921   NORMALIZED FREE ENERGY PREDICTED BY IDOCK:   -5.37 KCAL/MOL
REMARK 922        TOTAL FREE ENERGY PREDICTED BY IDOCK:  -11.40 KCAL/MOL
REMARK 923 INTER-LIGAND FREE ENERGY PREDICTED BY IDOCK:  -10.65 KCAL/MOL
REMARK 924 INTRA-LIGAND FREE ENERGY PREDICTED BY IDOCK:   -0.76 KCAL/MOL
REMARK 927      BINDING AFFINITY PREDICTED BY RF-SCORE:    0.00 PKD
ROOT
HETATM    1  O   UNL     1     -12.899  15.691  73.861  1.00  0.00    -0.569 OA 
HETATM    2  H   UNL     1     -13.255  15.608  74.738  1.00  0.00     0.000 HD 
HETATM    3  C   UNL     1     -13.944  15.611  72.896  1.00  0.00    -0.399 C  
ENDROOT
BRANCH   3   4
HETATM    4  C   UNL     1     -13.371  15.747  71.482  1.00  0.00    -0.306 C  
BRANCH   4   5
HETATM    5  N   UNL     1     -11.917  15.970  71.460  1.00  0.00    -0.509 NA 
HETATM    6  H   UNL     1     -11.459  15.505  72.244  1.00  0.00     0.000 HD 
BRANCH   5   7
HETATM    7  C   UNL     1     -11.320  15.571  70.179  1.00  0.00    -0.326 C  
BRANCH   7   8
HETATM    8  C   UNL     1     -11.978  14.289  69.654  1.00  0.00    -0.336 C  
BRANCH   8   9
HETATM    9  N   UNL     1     -11.028  13.191  69.633  1.00  0.00    -0.456 NA 
HETATM   10  H   UNL     1     -10.724  12.791  70.521  1.00  0.00     0.000 HD 
BRANCH   9  11
HETATM   11  C   UNL     1     -10.518  12.662  68.457  1.00  0.00    -0.234 A  
HETATM   12  C   UNL     1     -10.120  13.527  67.438  1.00  0.00    -0.237 A  
HETATM   13  C   UNL     1      -9.636  13.043  66.235  1.00  0.00    -0.243 A  
HETATM   14  C   UNL     1      -9.605  11.675  65.959  1.00  0.00    -0.228 A  
HETATM   15  H   UNL     1     -10.060   5.506  66.167  1.00  0.00     0.000 HD 
HETATM   16  C   UNL     1     -10.034  10.777  66.972  1.00  0.00    -0.236 A  
HETATM   17  C   UNL     1     -10.433  11.263  68.230  1.00  0.00    -0.220 A  
HETATM   18  C   UNL     1     -11.120   6.526  69.794  1.00  0.00    -0.430 A  
HETATM   19  O   UNL     1      -9.826   8.846  65.602  1.00  0.00    -0.173 OA 
HETATM   20  C   UNL     1     -11.146   7.898  70.055  1.00  0.00    -0.162 A  
HETATM   21  C   UNL     1     -10.710  10.301  69.339  1.00  0.00    -0.241 C  
HETATM   22  O   UNL     1     -10.792  10.713  70.492  1.00  0.00    -0.158 OA 
HETATM   23  C   UNL     1     -10.749   6.072  68.537  1.00  0.00    -0.354 A  
HETATM   24  C   UNL     1     -10.776   8.842  69.065  1.00  0.00    -0.148 A  
HETATM   25  O   UNL     1     -10.071   6.440  66.337  1.00  0.00    -0.123 OA 
HETATM   26  H   UNL     1     -11.771   7.672  71.966  1.00  0.00     0.000 HD 
HETATM   27  C   UNL     1     -10.429   8.374  67.797  1.00  0.00    -0.284 A  
HETATM   28  O   UNL     1     -11.523   8.304  71.302  1.00  0.00    -0.261 OA 
HETATM   29  C   UNL     1     -10.413   6.987  67.545  1.00  0.00    -0.250 A  
HETATM   30  C   UNL     1     -10.059   9.311  66.720  1.00  0.00    -0.261 C  
BRANCH  14  31
HETATM   31  N   UNL     1      -9.067  11.255  64.756  1.00  0.00    -0.382 NA 
HETATM   32  H   UNL     1      -8.199  10.718  64.772  1.00  0.00     0.000 HD 
BRANCH  31  33
HETATM   33  C   UNL     1      -9.681  11.543  63.468  1.00  0.00    -0.336 C  
BRANCH  33  34
HETATM   34  C   UNL     1     -11.194  11.772  63.625  1.00  0.00    -0.435 C  
BRANCH  34  35
HETATM   35  N   UNL     1     -11.637  12.957  62.876  1.00  0.00    -0.661 NA 
HETATM   36  H   UNL     1     -12.080  12.704  61.992  1.00  0.00     0.000 HD 
BRANCH  35  37
HETATM   37  C   UNL     1     -12.513  13.791  63.709  1.00  0.00    -0.159 C  
BRANCH  37  38
HETATM   38  C   UNL     1     -11.719  14.934  64.346  1.00  0.00    -0.328 C  
HETATM   39  O   UNL     1     -12.252  16.194  63.944  1.00  0.00    -1.203 OA 
HETATM   40  H   UNL     1     -11.759  16.904  64.339  1.00  0.00     0.000 HD 
ENDBRANCH  37  38
ENDBRANCH  35  37
ENDBRANCH  34  35
ENDBRANCH  33  34
ENDBRANCH  31  33
ENDBRANCH  14  31
ENDBRANCH   9  11
ENDBRANCH   8   9
ENDBRANCH   7   8
ENDBRANCH   5   7
ENDBRANCH   4   5
ENDBRANCH   3   4
TORSDOF 12
ENDMDL
MODEL       55
REMARK 921   NORMALIZED FREE ENERGY PREDICTED BY IDOCK:   -5.36 KCAL/MOL
REMARK 922        TOTAL FREE ENERGY PREDICTED BY IDOCK:  -11.38 KCAL/MOL
REMARK 923 INTER-LIGAND FREE ENERGY PREDICTED BY IDOCK:   -9.31 KCAL/MOL
REMARK 924 INTRA-LIGAND FREE ENERGY PREDICTED BY IDOCK:   -2.08 KCAL/MOL
REMARK 927      BINDING AFFINITY PREDICTED BY RF-SCORE:    0.00 PKD
ROOT
HETATM    1  O   UNL     1     -10.459  18.165  65.555  1.00  0.00    -0.626 OA 
HETATM    2  H   UNL     1     -10.161  18.040  64.662  1.00  0.00     0.000 HD 
HETATM    3  C   UNL     1     -10.239  19.513  65.963  1.00  0.00    -0.478 C  
ENDROOT
BRANCH   3   4
HETATM    4  C   UNL     1     -10.720  19.715  67.403  1.00  0.00    -0.435 C  
BRANCH   4   5
HETATM    5  N   UNL     1     -10.077  18.808  68.366  1.00  0.00    -0.382 NA 
HETATM    6  H   UNL     1     -10.346  17.838  68.199  1.00  0.00     0.000 HD 
BRANCH   5   7
HETATM    7  C   UNL     1      -8.616  18.963  68.375  1.00  0.00    -0.346 C  
BRANCH   7   8
HETATM    8  C   UNL     1      -7.929  17.595  68.478  1.00  0.00    -0.283 C  
BRANCH   8   9
HETATM    9  N   UNL     1      -8.803  16.540  67.998  1.00  0.00    -0.194 NA 
HETATM   10  H   UNL     1      -9.713  16.795  67.615  1.00  0.00     0.000 HD 
BRANCH   9  11
HETATM   11  C   UNL     1      -8.451  15.199  68.039  1.00  0.00    -0.148 A  
HETATM   12  C   UNL     1      -7.458  14.781  68.924  1.00  0.00    -0.137 A  
HETATM   13  C   UNL     1      -7.052  13.459  68.975  1.00  0.00    -0.053 A  
HETATM   14  C   UNL     1      -7.557  12.507  68.088  1.00  0.00    -0.127 A  
HETATM   15  H   UNL     1     -10.615   9.494  63.629  1.00  0.00     0.000 HD 
HETATM   16  C   UNL     1      -8.549  12.916  67.158  1.00  0.00    -0.198 A  
HETATM   17  C   UNL     1      -9.033  14.237  67.170  1.00  0.00    -0.237 A  
HETATM   18  C   UNL     1     -12.246  13.049  63.480  1.00  0.00    -0.580 A  
HETATM   19  O   UNL     1      -8.625  10.821  66.039  1.00  0.00    -0.166 OA 
HETATM   20  C   UNL     1     -11.730  13.991  64.373  1.00  0.00    -0.397 A  
HETATM   21  C   UNL     1     -10.197  14.605  66.310  1.00  0.00    -0.292 C  
HETATM   22  O   UNL     1     -10.790  15.661  66.510  1.00  0.00    -0.311 OA 
HETATM   23  C   UNL     1     -11.733  11.761  63.467  1.00  0.00    -0.485 A  
HETATM   24  C   UNL     1     -10.704  13.650  65.290  1.00  0.00    -0.340 A  
HETATM   25  O   UNL     1     -10.261  10.127  64.243  1.00  0.00    -0.177 OA 
HETATM   26  H   UNL     1     -12.944  15.478  63.735  1.00  0.00     0.000 HD 
HETATM   27  C   UNL     1     -10.180  12.358  65.251  1.00  0.00    -0.306 A  
HETATM   28  O   UNL     1     -12.257  15.250  64.350  1.00  0.00    -0.413 OA 
HETATM   29  C   UNL     1     -10.705  11.419  64.340  1.00  0.00    -0.342 A  
HETATM   30  C   UNL     1      -9.095  11.954  66.163  1.00  0.00    -0.161 C  
BRANCH  14  31
HETATM   31  N   UNL     1      -7.144  11.193  68.222  1.00  0.00    -0.070 NA 
HETATM   32  H   UNL     1      -6.634  10.762  67.451  1.00  0.00     0.000 HD 
BRANCH  31  33
HETATM   33  C   UNL     1      -7.405  10.398  69.414  1.00  0.00    -0.123 C  
BRANCH  33  34
HETATM   34  C   UNL     1      -8.053   9.054  69.041  1.00  0.00    -0.107 C  
BRANCH  34  35
HETATM   35  N   UNL     1      -9.455   9.232  68.635  1.00  0.00    -0.145 NA 
HETATM   36  H   UNL     1      -9.918   8.338  68.465  1.00  0.00     0.000 HD 
BRANCH  35  37
HETATM   37  C   UNL     1     -10.177  10.041  69.626  1.00  0.00    -0.239 C  
BRANCH  37  38
HETATM   38  C   UNL     1     -11.134  11.013  68.932  1.00  0.00    -0.239 C  
HETATM   39  O   UNL     1     -12.468  10.511  68.973  1.00  0.00    -0.770 OA 
HETATM   40  H   UNL     1     -13.063  11.114  68.542  1.00  0.00     0.000 HD 
ENDBRANCH  37  38
ENDBRANCH  35  37
ENDBRANCH  34  35
ENDBRANCH  33  34
ENDBRANCH  31  33
ENDBRANCH  14  31
ENDBRANCH   9  11
ENDBRANCH   8   9
ENDBRANCH   7   8
ENDBRANCH   5   7
ENDBRANCH   4   5
ENDBRANCH   3   4
TORSDOF 12
ENDMDL
MODEL       56
REMARK 921   NORMALIZED FREE ENERGY PREDICTED BY IDOCK:   -5.36 KCAL/MOL
REMARK 922        TOTAL FREE ENERGY PREDICTED BY IDOCK:  -11.38 KCAL/MOL
REMARK 923 INTER-LIGAND FREE ENERGY PREDICTED BY IDOCK:  -10.53 KCAL/MOL
REMARK 924 INTRA-LIGAND FREE ENERGY PREDICTED BY IDOCK:   -0.86 KCAL/MOL
REMARK 927      BINDING AFFINITY PREDICTED BY RF-SCORE:    0.00 PKD
ROOT
HETATM    1  O   UNL     1     -11.423   4.564  65.151  1.00  0.00    -1.105 OA 
HETATM    2  H   UNL     1     -12.149   4.026  64.857  1.00  0.00     0.000 HD 
HETATM    3  C   UNL     1     -10.197   4.074  64.614  1.00  0.00    -0.214 C  
ENDROOT
BRANCH   3   4
HETATM    4  C   UNL     1      -9.028   4.942  65.087  1.00  0.00    -0.152 C  
BRANCH   4   5
HETATM    5  N   UNL     1      -8.760   6.091  64.209  1.00  0.00    -0.340 NA 
HETATM    6  H   UNL     1      -9.588   6.677  64.104  1.00  0.00     0.000 HD 
BRANCH   5   7
HETATM    7  C   UNL     1      -7.605   6.874  64.667  1.00  0.00    -0.106 C  
BRANCH   7   8
HETATM    8  C   UNL     1      -7.971   8.359  64.779  1.00  0.00    -0.138 C  
BRANCH   8   9
HETATM    9  N   UNL     1      -9.276   8.526  65.393  1.00  0.00    -0.427 NA 
HETATM   10  H   UNL     1      -9.760   7.700  65.746  1.00  0.00     0.000 HD 
BRANCH   9  11
HETATM   11  C   UNL     1      -9.893   9.762  65.520  1.00  0.00    -0.308 A  
HETATM   12  C   UNL     1      -9.890  10.639  64.437  1.00  0.00    -0.395 A  
HETATM   13  C   UNL     1     -10.464  11.896  64.529  1.00  0.00    -0.341 A  
HETATM   14  C   UNL     1     -10.993  12.368  65.731  1.00  0.00    -0.298 A  
HETATM   15  H   UNL     1     -12.896  13.069  71.580  1.00  0.00     0.000 HD 
HETATM   16  C   UNL     1     -10.980  11.502  66.856  1.00  0.00    -0.350 A  
HETATM   17  C   UNL     1     -10.486  10.190  66.738  1.00  0.00    -0.270 A  
HETATM   18  C   UNL     1     -11.699   9.342  71.550  1.00  0.00    -0.450 A  
HETATM   19  O   UNL     1     -11.833  13.136  68.355  1.00  0.00    -0.332 OA 
HETATM   20  C   UNL     1     -11.172   8.884  70.341  1.00  0.00    -0.230 A  
HETATM   21  C   UNL     1     -10.641   9.236  67.877  1.00  0.00    -0.231 C  
HETATM   22  O   UNL     1     -10.464   8.036  67.692  1.00  0.00    -0.231 OA 
HETATM   23  C   UNL     1     -12.155  10.648  71.652  1.00  0.00    -0.124 A  
HETATM   24  C   UNL     1     -11.115   9.722  69.199  1.00  0.00    -0.158 A  
HETATM   25  O   UNL     1     -12.543  12.764  70.752  1.00  0.00    -0.310 OA 
HETATM   26  H   UNL     1     -10.766   7.033  71.050  1.00  0.00     0.000 HD 
HETATM   27  C   UNL     1     -11.553  11.041  69.320  1.00  0.00    -0.384 A  
HETATM   28  O   UNL     1     -10.728   7.594  70.285  1.00  0.00    -0.230 OA 
HETATM   29  C   UNL     1     -12.077  11.492  70.548  1.00  0.00    -0.378 A  
HETATM   30  C   UNL     1     -11.495  11.966  68.173  1.00  0.00    -0.320 C  
BRANCH  14  31
HETATM   31  N   UNL     1     -11.594  13.614  65.745  1.00  0.00    -0.324 NA 
HETATM   32  H   UNL     1     -12.491  13.716  66.221  1.00  0.00     0.000 HD 
BRANCH  31  33
HETATM   33  C   UNL     1     -11.005  14.786  65.113  1.00  0.00    -0.393 C  
BRANCH  33  34
HETATM   34  C   UNL     1     -10.020  15.482  66.067  1.00  0.00    -0.330 C  
BRANCH  34  35
HETATM   35  N   UNL     1      -9.719  16.850  65.620  1.00  0.00    -0.548 NA 
HETATM   36  H   UNL     1     -10.283  17.120  64.814  1.00  0.00     0.000 HD 
BRANCH  35  37
HETATM   37  C   UNL     1      -9.868  17.796  66.733  1.00  0.00    -0.320 C  
BRANCH  37  38
HETATM   38  C   UNL     1      -9.320  19.172  66.347  1.00  0.00    -0.348 C  
HETATM   39  O   UNL     1     -10.351  20.155  66.412  1.00  0.00    -0.440 OA 
HETATM   40  H   UNL     1     -10.012  21.009  66.172  1.00  0.00     0.000 HD 
ENDBRANCH  37  38
ENDBRANCH  35  37
ENDBRANCH  34  35
ENDBRANCH  33  34
ENDBRANCH  31  33
ENDBRANCH  14  31
ENDBRANCH   9  11
ENDBRANCH   8   9
ENDBRANCH   7   8
ENDBRANCH   5   7
ENDBRANCH   4   5
ENDBRANCH   3   4
TORSDOF 12
ENDMDL
MODEL       57
REMARK 921   NORMALIZED FREE ENERGY PREDICTED BY IDOCK:   -5.32 KCAL/MOL
REMARK 922        TOTAL FREE ENERGY PREDICTED BY IDOCK:  -11.32 KCAL/MOL
REMARK 923 INTER-LIGAND FREE ENERGY PREDICTED BY IDOCK:   -9.17 KCAL/MOL
REMARK 924 INTRA-LIGAND FREE ENERGY PREDICTED BY IDOCK:   -2.16 KCAL/MOL
REMARK 927      BINDING AFFINITY PREDICTED BY RF-SCORE:    0.00 PKD
ROOT
HETATM    1  O   UNL     1     -11.394  11.149  63.132  1.00  0.00    -0.808 OA 
HETATM    2  H   UNL     1     -11.668  10.242  63.069  1.00  0.00     0.000 HD 
HETATM    3  C   UNL     1     -12.509  11.980  63.446  1.00  0.00    -0.509 C  
ENDROOT
BRANCH   3   4
HETATM    4  C   UNL     1     -12.067  13.443  63.547  1.00  0.00    -0.432 C  
BRANCH   4   5
HETATM    5  N   UNL     1     -12.828  14.215  64.541  1.00  0.00    -0.603 NA 
HETATM    6  H   UNL     1     -13.816  14.268  64.292  1.00  0.00     0.000 HD 
BRANCH   5   7
HETATM    7  C   UNL     1     -12.647  13.689  65.901  1.00  0.00    -0.425 C  
BRANCH   7   8
HETATM    8  C   UNL     1     -11.579  14.493  66.653  1.00  0.00    -0.375 C  
BRANCH   8   9
HETATM    9  N   UNL     1     -10.622  13.610  67.295  1.00  0.00    -0.266 NA 
HETATM   10  H   UNL     1      -9.627  13.808  67.190  1.00  0.00     0.000 HD 
BRANCH   9  11
HETATM   11  C   UNL     1     -11.005  12.508  68.046  1.00  0.00    -0.232 A  
HETATM   12  C   UNL     1     -11.753  12.702  69.207  1.00  0.00    -0.379 A  
HETATM   13  C   UNL     1     -12.127  11.635  70.005  1.00  0.00    -0.395 A  
HETATM   14  C   UNL     1     -11.702  10.334  69.729  1.00  0.00    -0.191 A  
HETATM   15  H   UNL     1      -9.123   5.257  67.302  1.00  0.00     0.000 HD 
HETATM   16  C   UNL     1     -10.915  10.118  68.567  1.00  0.00    -0.278 A  
HETATM   17  C   UNL     1     -10.615  11.186  67.703  1.00  0.00    -0.250 A  
HETATM   18  C   UNL     1      -8.216   7.985  64.645  1.00  0.00    -0.109 A  
HETATM   19  O   UNL     1     -10.542   7.816  69.026  1.00  0.00    -0.216 OA 
HETATM   20  C   UNL     1      -8.647   9.281  64.936  1.00  0.00    -0.181 A  
HETATM   21  C   UNL     1      -9.941  10.914  66.398  1.00  0.00    -0.221 C  
HETATM   22  O   UNL     1      -9.920  11.784  65.533  1.00  0.00    -0.229 OA 
HETATM   23  C   UNL     1      -8.498   6.952  65.527  1.00  0.00    -0.122 A  
HETATM   24  C   UNL     1      -9.394   9.563  66.107  1.00  0.00    -0.254 A  
HETATM   25  O   UNL     1      -9.424   6.136  67.505  1.00  0.00    -0.113 OA 
HETATM   26  H   UNL     1      -7.841  10.082  63.261  1.00  0.00     0.000 HD 
HETATM   27  C   UNL     1      -9.651   8.521  66.998  1.00  0.00    -0.246 A  
HETATM   28  O   UNL     1      -8.342  10.271  64.046  1.00  0.00    -0.162 OA 
HETATM   29  C   UNL     1      -9.204   7.218  66.696  1.00  0.00    -0.157 A  
HETATM   30  C   UNL     1     -10.402   8.759  68.245  1.00  0.00    -0.207 C  
BRANCH  14  31
HETATM   31  N   UNL     1     -12.150   9.306  70.539  1.00  0.00    -0.478 NA 
HETATM   32  H   UNL     1     -12.635   8.520  70.105  1.00  0.00     0.000 HD 
BRANCH  31  33
HETATM   33  C   UNL     1     -11.961   9.294  71.983  1.00  0.00    -0.321 C  
BRANCH  33  34
HETATM   34  C   UNL     1     -11.628   7.875  72.476  1.00  0.00    -0.386 C  
BRANCH  34  35
HETATM   35  N   UNL     1     -10.432   7.343  71.807  1.00  0.00    -0.197 NA 
HETATM   36  H   UNL     1     -10.422   7.565  70.812  1.00  0.00     0.000 HD 
BRANCH  35  37
HETATM   37  C   UNL     1      -9.216   7.811  72.485  1.00  0.00    -0.171 C  
BRANCH  37  38
HETATM   38  C   UNL     1      -8.289   8.522  71.495  1.00  0.00    -0.162 C  
HETATM   39  O   UNL     1      -7.908   7.636  70.445  1.00  0.00    -0.089 OA 
HETATM   40  H   UNL     1      -7.333   8.077  69.831  1.00  0.00     0.000 HD 
ENDBRANCH  37  38
ENDBRANCH  35  37
ENDBRANCH  34  35
ENDBRANCH  33  34
ENDBRANCH  31  33
ENDBRANCH  14  31
ENDBRANCH   9  11
ENDBRANCH   8   9
ENDBRANCH   7   8
ENDBRANCH   5   7
ENDBRANCH   4   5
ENDBRANCH   3   4
TORSDOF 12
ENDMDL
MODEL       58
REMARK 921   NORMALIZED FREE ENERGY PREDICTED BY IDOCK:   -5.32 KCAL/MOL
REMARK 922        TOTAL FREE ENERGY PREDICTED BY IDOCK:  -11.32 KCAL/MOL
REMARK 923 INTER-LIGAND FREE ENERGY PREDICTED BY IDOCK:  -10.08 KCAL/MOL
REMARK 924 INTRA-LIGAND FREE ENERGY PREDICTED BY IDOCK:   -1.23 KCAL/MOL
REMARK 927      BINDING AFFINITY PREDICTED BY RF-SCORE:    0.00 PKD
ROOT
HETATM    1  O   UNL     1     -14.298   8.793  73.331  1.00  0.00    -1.155 OA 
HETATM    2  H   UNL     1     -15.170   9.025  73.630  1.00  0.00     0.000 HD 
HETATM    3  C   UNL     1     -14.339   8.384  71.966  1.00  0.00    -0.464 C  
ENDROOT
BRANCH   3   4
HETATM    4  C   UNL     1     -12.934   8.011  71.483  1.00  0.00    -0.303 C  
BRANCH   4   5
HETATM    5  N   UNL     1     -11.910   9.002  71.845  1.00  0.00    -0.365 NA 
HETATM    6  H   UNL     1     -12.300   9.743  72.427  1.00  0.00     0.000 HD 
BRANCH   5   7
HETATM    7  C   UNL     1     -10.743   8.379  72.484  1.00  0.00    -0.302 C  
BRANCH   7   8
HETATM    8  C   UNL     1      -9.451   8.791  71.767  1.00  0.00    -0.293 C  
BRANCH   8   9
HETATM    9  N   UNL     1      -9.738   9.666  70.645  1.00  0.00    -0.317 NA 
HETATM   10  H   UNL     1     -10.019  10.628  70.834  1.00  0.00     0.000 HD 
BRANCH   9  11
HETATM   11  C   UNL     1      -9.645   9.249  69.325  1.00  0.00    -0.161 A  
HETATM   12  C   UNL     1      -9.009   8.042  69.036  1.00  0.00    -0.145 A  
HETATM   13  C   UNL     1      -8.863   7.603  67.731  1.00  0.00    -0.125 A  
HETATM   14  C   UNL     1      -9.271   8.386  66.650  1.00  0.00    -0.180 A  
HETATM   15  H   UNL     1     -11.506  12.836  62.975  1.00  0.00     0.000 HD 
HETATM   16  C   UNL     1      -9.895   9.631  66.920  1.00  0.00    -0.257 A  
HETATM   17  C   UNL     1     -10.131  10.035  68.247  1.00  0.00    -0.182 A  
HETATM   18  C   UNL     1     -12.405  14.189  66.536  1.00  0.00    -0.405 A  
HETATM   19  O   UNL     1     -10.029  10.268  64.635  1.00  0.00    -0.336 OA 
HETATM   20  C   UNL     1     -11.990  13.395  67.608  1.00  0.00    -0.322 A  
HETATM   21  C   UNL     1     -10.945  11.259  68.513  1.00  0.00    -0.220 C  
HETATM   22  O   UNL     1     -11.379  11.465  69.642  1.00  0.00    -0.265 OA 
HETATM   23  C   UNL     1     -12.136  13.785  65.237  1.00  0.00    -0.425 A  
HETATM   24  C   UNL     1     -11.319  12.165  67.397  1.00  0.00    -0.393 A  
HETATM   25  O   UNL     1     -11.225  12.288  63.698  1.00  0.00    -0.397 OA 
HETATM   26  H   UNL     1     -12.719  14.656  69.013  1.00  0.00     0.000 HD 
HETATM   27  C   UNL     1     -11.032  11.781  66.087  1.00  0.00    -0.355 A  
HETATM   28  O   UNL     1     -12.269  13.832  68.871  1.00  0.00    -0.344 OA 
HETATM   29  C   UNL     1     -11.450  12.595  65.013  1.00  0.00    -0.329 A  
HETATM   30  C   UNL     1     -10.314  10.525  65.806  1.00  0.00    -0.200 C  
BRANCH  14  31
HETATM   31  N   UNL     1      -9.140   7.868  65.373  1.00  0.00    -0.393 NA 
HETATM   32  H   UNL     1      -9.940   7.922  64.742  1.00  0.00     0.000 HD 
BRANCH  31  33
HETATM   33  C   UNL     1      -7.913   7.251  64.889  1.00  0.00    -0.127 C  
BRANCH  33  34
HETATM   34  C   UNL     1      -8.190   5.837  64.351  1.00  0.00    -0.114 C  
BRANCH  34  35
HETATM   35  N   UNL     1      -7.875   4.811  65.356  1.00  0.00    -0.090 NA 
HETATM   36  H   UNL     1      -7.636   5.223  66.258  1.00  0.00     0.000 HD 
BRANCH  35  37
HETATM   37  C   UNL     1      -8.980   3.850  65.468  1.00  0.00    -0.133 C  
BRANCH  37  38
HETATM   38  C   UNL     1     -10.323   4.580  65.545  1.00  0.00    -0.229 C  
HETATM   39  O   UNL     1     -11.256   4.003  64.635  1.00  0.00    -0.756 OA 
HETATM   40  H   UNL     1     -12.089   4.457  64.682  1.00  0.00     0.000 HD 
ENDBRANCH  37  38
ENDBRANCH  35  37
ENDBRANCH  34  35
ENDBRANCH  33  34
ENDBRANCH  31  33
ENDBRANCH  14  31
ENDBRANCH   9  11
ENDBRANCH   8   9
ENDBRANCH   7   8
ENDBRANCH   5   7
ENDBRANCH   4   5
ENDBRANCH   3   4
TORSDOF 12
ENDMDL
MODEL       59
REMARK 921   NORMALIZED FREE ENERGY PREDICTED BY IDOCK:   -5.31 KCAL/MOL
REMARK 922        TOTAL FREE ENERGY PREDICTED BY IDOCK:  -11.30 KCAL/MOL
REMARK 923 INTER-LIGAND FREE ENERGY PREDICTED BY IDOCK:  -10.90 KCAL/MOL
REMARK 924 INTRA-LIGAND FREE ENERGY PREDICTED BY IDOCK:   -0.40 KCAL/MOL
REMARK 927      BINDING AFFINITY PREDICTED BY RF-SCORE:    0.00 PKD
ROOT
HETATM    1  O   UNL     1     -13.681  15.574  70.802  1.00  0.00    -0.838 OA 
HETATM    2  H   UNL     1     -13.904  16.476  70.605  1.00  0.00     0.000 HD 
HETATM    3  C   UNL     1     -14.306  15.166  72.016  1.00  0.00    -0.586 C  
ENDROOT
BRANCH   3   4
HETATM    4  C   UNL     1     -13.948  13.711  72.332  1.00  0.00    -0.548 C  
BRANCH   4   5
HETATM    5  N   UNL     1     -13.003  13.120  71.373  1.00  0.00    -0.339 NA 
HETATM    6  H   UNL     1     -12.118  13.628  71.364  1.00  0.00     0.000 HD 
BRANCH   5   7
HETATM    7  C   UNL     1     -12.793  11.687  71.620  1.00  0.00    -0.349 C  
BRANCH   7   8
HETATM    8  C   UNL     1     -12.357  10.976  70.334  1.00  0.00    -0.356 C  
BRANCH   8   9
HETATM    9  N   UNL     1     -11.223  11.650  69.728  1.00  0.00    -0.470 NA 
HETATM   10  H   UNL     1     -10.320  11.610  70.201  1.00  0.00     0.000 HD 
BRANCH   9  11
HETATM   11  C   UNL     1     -11.315  12.348  68.532  1.00  0.00    -0.293 A  
HETATM   12  C   UNL     1     -12.011  13.556  68.501  1.00  0.00    -0.379 A  
HETATM   13  C   UNL     1     -12.158  14.269  67.324  1.00  0.00    -0.390 A  
HETATM   14  C   UNL     1     -11.691  13.770  66.107  1.00  0.00    -0.370 A  
HETATM   15  H   UNL     1      -9.155  10.371  61.598  1.00  0.00     0.000 HD 
HETATM   16  C   UNL     1     -11.004  12.527  66.111  1.00  0.00    -0.318 A  
HETATM   17  C   UNL     1     -10.769  11.848  67.321  1.00  0.00    -0.276 A  
HETATM   18  C   UNL     1      -8.244   8.301  64.792  1.00  0.00    -0.147 A  
HETATM   19  O   UNL     1     -10.796  12.426  63.746  1.00  0.00    -0.384 OA 
HETATM   20  C   UNL     1      -8.720   8.812  66.002  1.00  0.00    -0.167 A  
HETATM   21  C   UNL     1      -9.895  10.637  67.330  1.00  0.00    -0.170 C  
HETATM   22  O   UNL     1      -9.469  10.205  68.397  1.00  0.00    -0.139 OA 
HETATM   23  C   UNL     1      -8.513   8.972  63.609  1.00  0.00    -0.173 A  
HETATM   24  C   UNL     1      -9.453  10.024  66.051  1.00  0.00    -0.251 A  
HETATM   25  O   UNL     1      -9.478  10.729  62.417  1.00  0.00    -0.251 OA 
HETATM   26  H   UNL     1      -7.948   7.306  67.111  1.00  0.00     0.000 HD 
HETATM   27  C   UNL     1      -9.738  10.677  64.852  1.00  0.00    -0.341 A  
HETATM   28  O   UNL     1      -8.440   8.118  67.143  1.00  0.00    -0.121 OA 
HETATM   29  C   UNL     1      -9.258  10.147  63.637  1.00  0.00    -0.282 A  
HETATM   30  C   UNL     1     -10.519  11.928  64.838  1.00  0.00    -0.287 C  
BRANCH  14  31
HETATM   31  N   UNL     1     -11.827  14.553  64.974  1.00  0.00    -0.386 NA 
HETATM   32  H   UNL     1     -12.452  14.232  64.234  1.00  0.00     0.000 HD 
BRANCH  31  33
HETATM   33  C   UNL     1     -11.121  15.813  64.792  1.00  0.00    -0.400 C  
BRANCH  33  34
HETATM   34  C   UNL     1      -9.789  15.807  65.561  1.00  0.00    -0.264 C  
BRANCH  34  35
HETATM   35  N   UNL     1      -9.197  17.152  65.614  1.00  0.00    -0.412 NA 
HETATM   36  H   UNL     1      -9.101  17.563  64.686  1.00  0.00     0.000 HD 
BRANCH  35  37
HETATM   37  C   UNL     1      -9.968  18.015  66.518  1.00  0.00    -0.371 C  
BRANCH  37  38
HETATM   38  C   UNL     1      -9.077  19.112  67.104  1.00  0.00    -0.287 C  
HETATM   39  O   UNL     1      -9.113  20.276  66.281  1.00  0.00    -0.554 OA 
HETATM   40  H   UNL     1      -8.560  20.957  66.644  1.00  0.00     0.000 HD 
ENDBRANCH  37  38
ENDBRANCH  35  37
ENDBRANCH  34  35
ENDBRANCH  33  34
ENDBRANCH  31  33
ENDBRANCH  14  31
ENDBRANCH   9  11
ENDBRANCH   8   9
ENDBRANCH   7   8
ENDBRANCH   5   7
ENDBRANCH   4   5
ENDBRANCH   3   4
TORSDOF 12
ENDMDL
MODEL       60
REMARK 921   NORMALIZED FREE ENERGY PREDICTED BY IDOCK:   -5.31 KCAL/MOL
REMARK 922        TOTAL FREE ENERGY PREDICTED BY IDOCK:  -11.30 KCAL/MOL
REMARK 923 INTER-LIGAND FREE ENERGY PREDICTED BY IDOCK:   -9.41 KCAL/MOL
REMARK 924 INTRA-LIGAND FREE ENERGY PREDICTED BY IDOCK:   -1.89 KCAL/MOL
REMARK 927      BINDING AFFINITY PREDICTED BY RF-SCORE:    0.00 PKD
ROOT
HETATM    1  O   UNL     1     -10.479  10.826  62.763  1.00  0.00    -0.763 OA 
HETATM    2  H   UNL     1      -9.538  10.716  62.823  1.00  0.00     0.000 HD 
HETATM    3  C   UNL     1     -10.890  11.972  63.504  1.00  0.00    -0.444 C  
ENDROOT
BRANCH   3   4
HETATM    4  C   UNL     1     -12.408  12.149  63.407  1.00  0.00    -0.538 C  
BRANCH   4   5
HETATM    5  N   UNL     1     -13.042  12.470  64.695  1.00  0.00    -0.837 NA 
HETATM    6  H   UNL     1     -12.786  11.792  65.413  1.00  0.00     0.000 HD 
BRANCH   5   7
HETATM    7  C   UNL     1     -12.746  13.843  65.125  1.00  0.00    -0.398 C  
BRANCH   7   8
HETATM    8  C   UNL     1     -12.174  13.850  66.548  1.00  0.00    -0.442 C  
BRANCH   8   9
HETATM    9  N   UNL     1     -11.885  12.500  66.997  1.00  0.00    -0.503 NA 
HETATM   10  H   UNL     1     -12.645  11.821  67.023  1.00  0.00     0.000 HD 
BRANCH   9  11
HETATM   11  C   UNL     1     -10.619  12.096  67.393  1.00  0.00    -0.226 A  
HETATM   12  C   UNL     1      -9.510  12.510  66.655  1.00  0.00    -0.242 A  
HETATM   13  C   UNL     1      -8.231  12.103  66.993  1.00  0.00    -0.164 A  
HETATM   14  C   UNL     1      -8.005  11.198  68.031  1.00  0.00    -0.117 A  
HETATM   15  H   UNL     1      -8.547   7.246  72.765  1.00  0.00     0.000 HD 
HETATM   16  C   UNL     1      -9.123  10.740  68.778  1.00  0.00    -0.180 A  
HETATM   17  C   UNL     1     -10.412  11.228  68.498  1.00  0.00    -0.218 A  
HETATM   18  C   UNL     1     -12.231   8.490  72.312  1.00  0.00    -0.454 A  
HETATM   19  O   UNL     1      -7.858   9.206  70.078  1.00  0.00    -0.076 OA 
HETATM   20  C   UNL     1     -12.441   9.395  71.269  1.00  0.00    -0.335 A  
HETATM   21  C   UNL     1     -11.548  10.875  69.402  1.00  0.00    -0.316 C  
HETATM   22  O   UNL     1     -12.600  11.502  69.327  1.00  0.00    -0.156 OA 
HETATM   23  C   UNL     1     -10.955   8.000  72.551  1.00  0.00    -0.430 A  
HETATM   24  C   UNL     1     -11.369   9.848  70.460  1.00  0.00    -0.399 A  
HETATM   25  O   UNL     1      -8.681   7.865  72.056  1.00  0.00    -0.118 OA 
HETATM   26  H   UNL     1     -14.431   9.544  71.604  1.00  0.00     0.000 HD 
HETATM   27  C   UNL     1     -10.095   9.330  70.695  1.00  0.00    -0.339 A  
HETATM   28  O   UNL     1     -13.713   9.847  71.062  1.00  0.00    -0.268 OA 
HETATM   29  C   UNL     1      -9.898   8.412  71.746  1.00  0.00    -0.243 A  
HETATM   30  C   UNL     1      -8.946   9.745  69.869  1.00  0.00    -0.229 C  
BRANCH  14  31
HETATM   31  N   UNL     1      -6.699  10.868  68.349  1.00  0.00    -0.058 NA 
HETATM   32  H   UNL     1      -6.385  10.996  69.311  1.00  0.00     0.000 HD 
BRANCH  31  33
HETATM   33  C   UNL     1      -5.754  10.345  67.373  1.00  0.00    -0.045 C  
BRANCH  33  34
HETATM   34  C   UNL     1      -6.346   9.132  66.635  1.00  0.00    -0.066 C  
BRANCH  34  35
HETATM   35  N   UNL     1      -6.538   9.417  65.206  1.00  0.00    -0.076 NA 
HETATM   36  H   UNL     1      -5.694   9.232  64.664  1.00  0.00     0.000 HD 
BRANCH  35  37
HETATM   37  C   UNL     1      -7.694   8.675  64.687  1.00  0.00    -0.121 C  
BRANCH  37  38
HETATM   38  C   UNL     1      -8.757   8.505  65.776  1.00  0.00    -0.179 C  
HETATM   39  O   UNL     1      -9.947   9.205  65.423  1.00  0.00    -0.428 OA 
HETATM   40  H   UNL     1     -10.607   9.100  66.099  1.00  0.00     0.000 HD 
ENDBRANCH  37  38
ENDBRANCH  35  37
ENDBRANCH  34  35
ENDBRANCH  33  34
ENDBRANCH  31  33
ENDBRANCH  14  31
ENDBRANCH   9  11
ENDBRANCH   8   9
ENDBRANCH   7   8
ENDBRANCH   5   7
ENDBRANCH   4   5
ENDBRANCH   3   4
TORSDOF 12
ENDMDL
MODEL       61
REMARK 921   NORMALIZED FREE ENERGY PREDICTED BY IDOCK:   -5.31 KCAL/MOL
REMARK 922        TOTAL FREE ENERGY PREDICTED BY IDOCK:  -11.29 KCAL/MOL
REMARK 923 INTER-LIGAND FREE ENERGY PREDICTED BY IDOCK:  -10.38 KCAL/MOL
REMARK 924 INTRA-LIGAND FREE ENERGY PREDICTED BY IDOCK:   -0.91 KCAL/MOL
REMARK 927      BINDING AFFINITY PREDICTED BY RF-SCORE:    0.00 PKD
ROOT
HETATM    1  O   UNL     1      -6.740  17.822  69.569  1.00  0.00    -0.215 OA 
HETATM    2  H   UNL     1      -5.793  17.812  69.641  1.00  0.00     0.000 HD 
HETATM    3  C   UNL     1      -7.141  18.630  68.465  1.00  0.00    -0.277 C  
ENDROOT
BRANCH   3   4
HETATM    4  C   UNL     1      -8.668  18.645  68.347  1.00  0.00    -0.333 C  
BRANCH   4   5
HETATM    5  N   UNL     1      -9.270  17.304  68.384  1.00  0.00    -0.261 NA 
HETATM    6  H   UNL     1      -8.847  16.727  69.112  1.00  0.00     0.000 HD 
BRANCH   5   7
HETATM    7  C   UNL     1     -10.731  17.361  68.530  1.00  0.00    -0.279 C  
BRANCH   7   8
HETATM    8  C   UNL     1     -11.199  16.419  69.646  1.00  0.00    -0.257 C  
BRANCH   8   9
HETATM    9  N   UNL     1     -12.219  15.508  69.161  1.00  0.00    -0.598 NA 
HETATM   10  H   UNL     1     -12.958  15.876  68.561  1.00  0.00     0.000 HD 
BRANCH   9  11
HETATM   11  C   UNL     1     -12.232  14.158  69.478  1.00  0.00    -0.305 A  
HETATM   12  C   UNL     1     -12.630  13.762  70.755  1.00  0.00    -0.410 A  
HETATM   13  C   UNL     1     -12.627  12.429  71.126  1.00  0.00    -0.349 A  
HETATM   14  C   UNL     1     -12.147  11.436  70.271  1.00  0.00    -0.374 A  
HETATM   15  H   UNL     1      -9.789   8.235  65.527  1.00  0.00     0.000 HD 
HETATM   16  C   UNL     1     -11.709  11.819  68.976  1.00  0.00    -0.390 A  
HETATM   17  C   UNL     1     -11.803  13.161  68.562  1.00  0.00    -0.377 A  
HETATM   18  C   UNL     1     -10.024  11.848  64.039  1.00  0.00    -0.318 A  
HETATM   19  O   UNL     1     -10.945   9.647  68.390  1.00  0.00    -0.198 OA 
HETATM   20  C   UNL     1     -10.505  12.831  64.907  1.00  0.00    -0.321 A  
HETATM   21  C   UNL     1     -11.507  13.518  67.142  1.00  0.00    -0.338 C  
HETATM   22  O   UNL     1     -11.843  14.617  66.711  1.00  0.00    -0.377 OA 
HETATM   23  C   UNL     1      -9.913  10.537  64.478  1.00  0.00    -0.413 A  
HETATM   24  C   UNL     1     -10.910  12.512  66.227  1.00  0.00    -0.299 A  
HETATM   25  O   UNL     1     -10.122   8.896  66.122  1.00  0.00    -0.291 OA 
HETATM   26  H   UNL     1     -10.321  14.323  63.553  1.00  0.00     0.000 HD 
HETATM   27  C   UNL     1     -10.771  11.195  66.665  1.00  0.00    -0.322 A  
HETATM   28  O   UNL     1     -10.592  14.110  64.438  1.00  0.00    -0.348 OA 
HETATM   29  C   UNL     1     -10.277  10.214  65.781  1.00  0.00    -0.213 A  
HETATM   30  C   UNL     1     -11.151  10.809  68.036  1.00  0.00    -0.299 C  
BRANCH  14  31
HETATM   31  N   UNL     1     -12.214  10.117  70.685  1.00  0.00    -0.332 NA 
HETATM   32  H   UNL     1     -11.620   9.430  70.219  1.00  0.00     0.000 HD 
BRANCH  31  33
HETATM   33  C   UNL     1     -13.093   9.666  71.754  1.00  0.00    -0.421 C  
BRANCH  33  34
HETATM   34  C   UNL     1     -12.428   8.542  72.568  1.00  0.00    -0.294 C  
BRANCH  34  35
HETATM   35  N   UNL     1     -11.019   8.366  72.186  1.00  0.00    -0.317 NA 
HETATM   36  H   UNL     1     -10.558   9.260  72.012  1.00  0.00     0.000 HD 
BRANCH  35  37
HETATM   37  C   UNL     1     -10.310   7.572  73.197  1.00  0.00    -0.347 C  
BRANCH  37  38
HETATM   38  C   UNL     1      -8.830   7.436  72.833  1.00  0.00    -0.134 C  
HETATM   39  O   UNL     1      -8.097   8.568  73.295  1.00  0.00    -0.369 OA 
HETATM   40  H   UNL     1      -7.178   8.483  73.069  1.00  0.00     0.000 HD 
ENDBRANCH  37  38
ENDBRANCH  35  37
ENDBRANCH  34  35
ENDBRANCH  33  34
ENDBRANCH  31  33
ENDBRANCH  14  31
ENDBRANCH   9  11
ENDBRANCH   8   9
ENDBRANCH   7   8
ENDBRANCH   5   7
ENDBRANCH   4   5
ENDBRANCH   3   4
TORSDOF 12
ENDMDL
MODEL       62
REMARK 921   NORMALIZED FREE ENERGY PREDICTED BY IDOCK:   -5.29 KCAL/MOL
REMARK 922        TOTAL FREE ENERGY PREDICTED BY IDOCK:  -11.27 KCAL/MOL
REMARK 923 INTER-LIGAND FREE ENERGY PREDICTED BY IDOCK:  -10.18 KCAL/MOL
REMARK 924 INTRA-LIGAND FREE ENERGY PREDICTED BY IDOCK:   -1.09 KCAL/MOL
REMARK 927      BINDING AFFINITY PREDICTED BY RF-SCORE:    0.00 PKD
ROOT
HETATM    1  O   UNL     1      -9.461   9.482  62.351  1.00  0.00    -0.553 OA 
HETATM    2  H   UNL     1      -8.932   8.704  62.486  1.00  0.00     0.000 HD 
HETATM    3  C   UNL     1      -9.409  10.320  63.502  1.00  0.00    -0.301 C  
ENDROOT
BRANCH   3   4
HETATM    4  C   UNL     1     -10.261  11.574  63.283  1.00  0.00    -0.391 C  
BRANCH   4   5
HETATM    5  N   UNL     1     -11.702  11.294  63.205  1.00  0.00    -0.781 NA 
HETATM    6  H   UNL     1     -11.907  10.329  63.464  1.00  0.00     0.000 HD 
BRANCH   5   7
HETATM    7  C   UNL     1     -12.489  12.241  64.006  1.00  0.00    -0.458 C  
BRANCH   7   8
HETATM    8  C   UNL     1     -11.812  13.617  64.035  1.00  0.00    -0.400 C  
BRANCH   8   9
HETATM    9  N   UNL     1     -11.846  14.183  65.372  1.00  0.00    -0.349 NA 
HETATM   10  H   UNL     1     -12.699  14.645  65.685  1.00  0.00     0.000 HD 
BRANCH   9  11
HETATM   11  C   UNL     1     -10.766  14.122  66.240  1.00  0.00    -0.293 A  
HETATM   12  C   UNL     1     -10.377  12.887  66.757  1.00  0.00    -0.250 A  
HETATM   13  C   UNL     1      -9.327  12.783  67.654  1.00  0.00    -0.191 A  
HETATM   14  C   UNL     1      -8.671  13.915  68.140  1.00  0.00    -0.182 A  
HETATM   15  H   UNL     1      -6.760  19.671  69.374  1.00  0.00     0.000 HD 
HETATM   16  C   UNL     1      -9.070  15.185  67.649  1.00  0.00    -0.181 A  
HETATM   17  C   UNL     1     -10.071  15.285  66.666  1.00  0.00    -0.268 A  
HETATM   18  C   UNL     1      -9.420  20.277  66.567  1.00  0.00    -0.460 A  
HETATM   19  O   UNL     1      -7.633  16.401  69.100  1.00  0.00    -0.228 OA 
HETATM   20  C   UNL     1     -10.069  19.136  66.091  1.00  0.00    -0.426 A  
HETATM   21  C   UNL     1     -10.355  16.608  66.032  1.00  0.00    -0.340 C  
HETATM   22  O   UNL     1     -11.020  16.656  65.002  1.00  0.00    -0.568 OA 
HETATM   23  C   UNL     1      -8.457  20.157  67.558  1.00  0.00    -0.394 A  
HETATM   24  C   UNL     1      -9.745  17.846  66.582  1.00  0.00    -0.319 A  
HETATM   25  O   UNL     1      -7.193  18.889  69.052  1.00  0.00    -0.312 OA 
HETATM   26  H   UNL     1     -11.233  20.161  64.792  1.00  0.00     0.000 HD 
HETATM   27  C   UNL     1      -8.792  17.741  67.595  1.00  0.00    -0.248 A  
HETATM   28  O   UNL     1     -11.016  19.297  65.121  1.00  0.00    -0.448 OA 
HETATM   29  C   UNL     1      -8.149  18.901  68.072  1.00  0.00    -0.292 A  
HETATM   30  C   UNL     1      -8.432  16.428  68.162  1.00  0.00    -0.188 C  
BRANCH  14  31
HETATM   31  N   UNL     1      -7.599  13.740  68.998  1.00  0.00    -0.301 NA 
HETATM   32  H   UNL     1      -7.544  14.323  69.833  1.00  0.00     0.000 HD 
BRANCH  31  33
HETATM   33  C   UNL     1      -6.547  12.761  68.763  1.00  0.00    -0.090 C  
BRANCH  33  34
HETATM   34  C   UNL     1      -6.286  11.927  70.029  1.00  0.00    -0.123 C  
BRANCH  34  35
HETATM   35  N   UNL     1      -7.290  10.864  70.186  1.00  0.00    -0.433 NA 
HETATM   36  H   UNL     1      -8.230  11.243  70.295  1.00  0.00     0.000 HD 
BRANCH  35  37
HETATM   37  C   UNL     1      -7.208   9.915  69.068  1.00  0.00    -0.077 C  
BRANCH  37  38
HETATM   38  C   UNL     1      -8.600   9.392  68.705  1.00  0.00    -0.127 C  
HETATM   39  O   UNL     1      -9.592  10.005  69.525  1.00  0.00    -0.207 OA 
HETATM   40  H   UNL     1     -10.456   9.680  69.301  1.00  0.00     0.000 HD 
ENDBRANCH  37  38
ENDBRANCH  35  37
ENDBRANCH  34  35
ENDBRANCH  33  34
ENDBRANCH  31  33
ENDBRANCH  14  31
ENDBRANCH   9  11
ENDBRANCH   8   9
ENDBRANCH   7   8
ENDBRANCH   5   7
ENDBRANCH   4   5
ENDBRANCH   3   4
TORSDOF 12
ENDMDL
MODEL       63
REMARK 921   NORMALIZED FREE ENERGY PREDICTED BY IDOCK:   -5.25 KCAL/MOL
REMARK 922        TOTAL FREE ENERGY PREDICTED BY IDOCK:  -11.20 KCAL/MOL
REMARK 923 INTER-LIGAND FREE ENERGY PREDICTED BY IDOCK:   -9.95 KCAL/MOL
REMARK 924 INTRA-LIGAND FREE ENERGY PREDICTED BY IDOCK:   -1.25 KCAL/MOL
REMARK 927      BINDING AFFINITY PREDICTED BY RF-SCORE:    0.00 PKD
ROOT
HETATM    1  O   UNL     1      -6.897  10.731  64.379  1.00  0.00    -0.350 OA 
HETATM    2  H   UNL     1      -6.246  10.395  64.982  1.00  0.00     0.000 HD 
HETATM    3  C   UNL     1      -7.221   9.744  63.403  1.00  0.00    -0.123 C  
ENDROOT
BRANCH   3   4
HETATM    4  C   UNL     1      -8.272  10.287  62.430  1.00  0.00    -0.164 C  
BRANCH   4   5
HETATM    5  N   UNL     1      -8.847  11.574  62.849  1.00  0.00    -0.596 NA 
HETATM    6  H   UNL     1      -8.741  12.281  62.122  1.00  0.00     0.000 HD 
BRANCH   5   7
HETATM    7  C   UNL     1     -10.250  11.440  63.264  1.00  0.00    -0.385 C  
BRANCH   7   8
HETATM    8  C   UNL     1     -10.566  12.402  64.416  1.00  0.00    -0.337 C  
BRANCH   8   9
HETATM    9  N   UNL     1      -9.673  12.179  65.538  1.00  0.00    -0.343 NA 
HETATM   10  H   UNL     1      -8.768  12.650  65.545  1.00  0.00     0.000 HD 
BRANCH   9  11
HETATM   11  C   UNL     1      -9.998  11.351  66.603  1.00  0.00    -0.208 A  
HETATM   12  C   UNL     1      -9.755   9.982  66.500  1.00  0.00    -0.254 A  
HETATM   13  C   UNL     1     -10.095   9.114  67.524  1.00  0.00    -0.284 A  
HETATM   14  C   UNL     1     -10.768   9.560  68.663  1.00  0.00    -0.184 A  
HETATM   15  H   UNL     1     -13.651  12.907  72.998  1.00  0.00     0.000 HD 
HETATM   16  C   UNL     1     -11.052  10.946  68.775  1.00  0.00    -0.310 A  
HETATM   17  C   UNL     1     -10.621  11.843  67.781  1.00  0.00    -0.233 A  
HETATM   18  C   UNL     1     -12.495  15.664  70.472  1.00  0.00    -0.440 A  
HETATM   19  O   UNL     1     -12.295  10.715  70.787  1.00  0.00    -0.311 OA 
HETATM   20  C   UNL     1     -11.823  15.203  69.337  1.00  0.00    -0.330 A  
HETATM   21  C   UNL     1     -10.769  13.314  67.998  1.00  0.00    -0.240 C  
HETATM   22  O   UNL     1     -10.162  14.097  67.274  1.00  0.00    -0.252 OA 
HETATM   23  C   UNL     1     -12.936  14.758  71.425  1.00  0.00    -0.413 A  
HETATM   24  C   UNL     1     -11.557  13.823  69.149  1.00  0.00    -0.363 A  
HETATM   25  O   UNL     1     -13.191  12.585  72.232  1.00  0.00    -0.469 OA 
HETATM   26  H   UNL     1     -11.591  17.050  68.545  1.00  0.00     0.000 HD 
HETATM   27  C   UNL     1     -12.026  12.920  70.103  1.00  0.00    -0.373 A  
HETATM   28  O   UNL     1     -11.413  16.126  68.419  1.00  0.00    -0.369 OA 
HETATM   29  C   UNL     1     -12.709  13.398  71.240  1.00  0.00    -0.338 A  
HETATM   30  C   UNL     1     -11.801  11.471  69.948  1.00  0.00    -0.355 C  
BRANCH  14  31
HETATM   31  N   UNL     1     -11.037   8.650  69.670  1.00  0.00    -0.429 NA 
HETATM   32  H   UNL     1     -12.009   8.402  69.855  1.00  0.00     0.000 HD 
BRANCH  31  33
HETATM   33  C   UNL     1      -9.996   8.031  70.478  1.00  0.00    -0.190 C  
BRANCH  33  34
HETATM   34  C   UNL     1      -9.940   6.514  70.226  1.00  0.00    -0.174 C  
BRANCH  34  35
HETATM   35  N   UNL     1      -9.231   6.205  68.975  1.00  0.00    -0.126 NA 
HETATM   36  H   UNL     1      -8.239   6.029  69.134  1.00  0.00     0.000 HD 
BRANCH  35  37
HETATM   37  C   UNL     1      -9.882   5.086  68.282  1.00  0.00    -0.150 C  
BRANCH  37  38
HETATM   38  C   UNL     1      -9.787   5.266  66.765  1.00  0.00    -0.176 C  
HETATM   39  O   UNL     1     -11.009   5.786  66.248  1.00  0.00    -0.681 OA 
HETATM   40  H   UNL     1     -10.950   5.897  65.306  1.00  0.00     0.000 HD 
ENDBRANCH  37  38
ENDBRANCH  35  37
ENDBRANCH  34  35
ENDBRANCH  33  34
ENDBRANCH  31  33
ENDBRANCH  14  31
ENDBRANCH   9  11
ENDBRANCH   8   9
ENDBRANCH   7   8
ENDBRANCH   5   7
ENDBRANCH   4   5
ENDBRANCH   3   4
TORSDOF 12
ENDMDL
MODEL       64
REMARK 921   NORMALIZED FREE ENERGY PREDICTED BY IDOCK:   -5.24 KCAL/MOL
REMARK 922        TOTAL FREE ENERGY PREDICTED BY IDOCK:  -11.19 KCAL/MOL
REMARK 923 INTER-LIGAND FREE ENERGY PREDICTED BY IDOCK:  -10.17 KCAL/MOL
REMARK 924 INTRA-LIGAND FREE ENERGY PREDICTED BY IDOCK:   -1.01 KCAL/MOL
REMARK 927      BINDING AFFINITY PREDICTED BY RF-SCORE:    0.00 PKD
ROOT
HETATM    1  O   UNL     1      -7.914  10.864  69.816  1.00  0.00    -0.369 OA 
HETATM    2  H   UNL     1      -7.418  11.361  69.177  1.00  0.00     0.000 HD 
HETATM    3  C   UNL     1      -7.342   9.569  69.984  1.00  0.00    -0.115 C  
ENDROOT
BRANCH   3   4
HETATM    4  C   UNL     1      -8.142   8.767  71.015  1.00  0.00    -0.156 C  
BRANCH   4   5
HETATM    5  N   UNL     1      -8.670   7.500  70.488  1.00  0.00    -0.145 NA 
HETATM    6  H   UNL     1      -8.565   6.745  71.166  1.00  0.00     0.000 HD 
BRANCH   5   7
HETATM    7  C   UNL     1     -10.064   7.628  70.043  1.00  0.00    -0.204 C  
BRANCH   7   8
HETATM    8  C   UNL     1     -10.122   8.090  68.581  1.00  0.00    -0.199 C  
BRANCH   8   9
HETATM    9  N   UNL     1     -11.122   9.128  68.405  1.00  0.00    -0.463 NA 
HETATM   10  H   UNL     1     -12.101   8.897  68.572  1.00  0.00     0.000 HD 
BRANCH   9  11
HETATM   11  C   UNL     1     -10.801  10.421  68.020  1.00  0.00    -0.270 A  
HETATM   12  C   UNL     1     -10.013  10.618  66.887  1.00  0.00    -0.245 A  
HETATM   13  C   UNL     1      -9.639  11.889  66.485  1.00  0.00    -0.226 A  
HETATM   14  C   UNL     1      -9.966  13.017  67.240  1.00  0.00    -0.232 A  
HETATM   15  H   UNL     1     -12.092  16.968  71.504  1.00  0.00     0.000 HD 
HETATM   16  C   UNL     1     -10.744  12.837  68.413  1.00  0.00    -0.269 A  
HETATM   17  C   UNL     1     -11.206  11.556  68.770  1.00  0.00    -0.309 A  
HETATM   18  C   UNL     1     -13.620  13.570  72.704  1.00  0.00    -0.572 A  
HETATM   19  O   UNL     1     -10.616  15.117  69.069  1.00  0.00    -0.228 OA 
HETATM   20  C   UNL     1     -13.284  12.450  71.939  1.00  0.00    -0.382 A  
HETATM   21  C   UNL     1     -12.168  11.408  69.904  1.00  0.00    -0.277 C  
HETATM   22  O   UNL     1     -12.777  10.352  70.047  1.00  0.00    -0.211 OA 
HETATM   23  C   UNL     1     -13.129  14.818  72.349  1.00  0.00    -0.463 A  
HETATM   24  C   UNL     1     -12.469  12.565  70.785  1.00  0.00    -0.357 A  
HETATM   25  O   UNL     1     -11.863  16.212  70.975  1.00  0.00    -0.408 OA 
HETATM   26  H   UNL     1     -14.327  11.162  73.099  1.00  0.00     0.000 HD 
HETATM   27  C   UNL     1     -11.962  13.822  70.452  1.00  0.00    -0.385 A  
HETATM   28  O   UNL     1     -13.781  11.240  72.326  1.00  0.00    -0.127 OA 
HETATM   29  C   UNL     1     -12.303  14.942  71.237  1.00  0.00    -0.322 A  
HETATM   30  C   UNL     1     -11.088  13.998  69.278  1.00  0.00    -0.232 C  
BRANCH  14  31
HETATM   31  N   UNL     1      -9.604  14.263  66.758  1.00  0.00    -0.269 NA 
HETATM   32  H   UNL     1      -8.646  14.582  66.906  1.00  0.00     0.000 HD 
BRANCH  31  33
HETATM   33  C   UNL     1     -10.527  15.138  66.050  1.00  0.00    -0.319 C  
BRANCH  33  34
HETATM   34  C   UNL     1     -10.960  14.508  64.716  1.00  0.00    -0.391 C  
BRANCH  34  35
HETATM   35  N   UNL     1     -12.298  13.905  64.818  1.00  0.00    -0.531 NA 
HETATM   36  H   UNL     1     -13.033  14.570  64.579  1.00  0.00     0.000 HD 
BRANCH  35  37
HETATM   37  C   UNL     1     -12.374  12.688  64.001  1.00  0.00    -0.443 C  
BRANCH  37  38
HETATM   38  C   UNL     1     -11.044  12.435  63.286  1.00  0.00    -0.284 C  
HETATM   39  O   UNL     1     -10.791  11.036  63.186  1.00  0.00    -0.772 OA 
HETATM   40  H   UNL     1      -9.965  10.879  62.744  1.00  0.00     0.000 HD 
ENDBRANCH  37  38
ENDBRANCH  35  37
ENDBRANCH  34  35
ENDBRANCH  33  34
ENDBRANCH  31  33
ENDBRANCH  14  31
ENDBRANCH   9  11
ENDBRANCH   8   9
ENDBRANCH   7   8
ENDBRANCH   5   7
ENDBRANCH   4   5
ENDBRANCH   3   4
TORSDOF 12
ENDMDL
MODEL       65
REMARK 921   NORMALIZED FREE ENERGY PREDICTED BY IDOCK:   -5.17 KCAL/MOL
REMARK 922        TOTAL FREE ENERGY PREDICTED BY IDOCK:  -11.07 KCAL/MOL
REMARK 923 INTER-LIGAND FREE ENERGY PREDICTED BY IDOCK:   -9.75 KCAL/MOL
REMARK 924 INTRA-LIGAND FREE ENERGY PREDICTED BY IDOCK:   -1.32 KCAL/MOL
REMARK 927      BINDING AFFINITY PREDICTED BY RF-SCORE:    0.00 PKD
ROOT
HETATM    1  O   UNL     1     -14.108  13.442  72.556  1.00  0.00    -0.726 OA 
HETATM    2  H   UNL     1     -14.185  13.069  73.426  1.00  0.00     0.000 HD 
HETATM    3  C   UNL     1     -13.561  14.756  72.631  1.00  0.00    -0.461 C  
ENDROOT
BRANCH   3   4
HETATM    4  C   UNL     1     -13.435  15.357  71.228  1.00  0.00    -0.519 C  
BRANCH   4   5
HETATM    5  N   UNL     1     -12.170  16.074  71.011  1.00  0.00    -0.545 NA 
HETATM    6  H   UNL     1     -11.457  15.777  71.677  1.00  0.00     0.000 HD 
BRANCH   5   7
HETATM    7  C   UNL     1     -11.695  15.943  69.626  1.00  0.00    -0.317 C  
BRANCH   7   8
HETATM    8  C   UNL     1     -10.504  16.875  69.374  1.00  0.00    -0.283 C  
BRANCH   8   9
HETATM    9  N   UNL     1      -9.692  16.392  68.272  1.00  0.00    -0.220 NA 
HETATM   10  H   UNL     1      -9.536  17.007  67.473  1.00  0.00     0.000 HD 
BRANCH   9  11
HETATM   11  C   UNL     1      -9.120  15.128  68.258  1.00  0.00    -0.183 A  
HETATM   12  C   UNL     1      -8.138  14.816  69.197  1.00  0.00    -0.119 A  
HETATM   13  C   UNL     1      -7.516  13.579  69.200  1.00  0.00     0.125 A  
HETATM   14  C   UNL     1      -7.783  12.627  68.215  1.00  0.00    -0.135 A  
HETATM   15  H   UNL     1      -9.941   9.497  63.331  1.00  0.00     0.000 HD 
HETATM   16  C   UNL     1      -8.759  12.936  67.231  1.00  0.00    -0.204 A  
HETATM   17  C   UNL     1      -9.462  14.153  67.285  1.00  0.00    -0.229 A  
HETATM   18  C   UNL     1     -12.143  12.733  63.266  1.00  0.00    -0.524 A  
HETATM   19  O   UNL     1      -8.392  10.949  65.981  1.00  0.00    -0.164 OA 
HETATM   20  C   UNL     1     -11.863  13.677  64.257  1.00  0.00    -0.425 A  
HETATM   21  C   UNL     1     -10.606  14.387  66.352  1.00  0.00    -0.297 C  
HETATM   22  O   UNL     1     -11.384  15.311  66.567  1.00  0.00    -0.287 OA 
HETATM   23  C   UNL     1     -11.417  11.552  63.216  1.00  0.00    -0.180 A  
HETATM   24  C   UNL     1     -10.864  13.442  65.235  1.00  0.00    -0.318 A  
HETATM   25  O   UNL     1      -9.748  10.132  64.011  1.00  0.00    -0.306 OA 
HETATM   26  H   UNL     1     -13.264  14.986  63.611  1.00  0.00     0.000 HD 
HETATM   27  C   UNL     1     -10.125  12.262  65.160  1.00  0.00    -0.284 A  
HETATM   28  O   UNL     1     -12.595  14.829  64.267  1.00  0.00    -0.706 OA 
HETATM   29  C   UNL     1     -10.413  11.321  64.150  1.00  0.00    -0.369 A  
HETATM   30  C   UNL     1      -9.057  11.975  66.135  1.00  0.00    -0.129 C  
BRANCH  14  31
HETATM   31  N   UNL     1      -7.163  11.394  68.302  1.00  0.00    -0.077 NA 
HETATM   32  H   UNL     1      -6.497  11.131  67.574  1.00  0.00     0.000 HD 
BRANCH  31  33
HETATM   33  C   UNL     1      -7.415  10.453  69.384  1.00  0.00    -0.135 C  
BRANCH  33  34
HETATM   34  C   UNL     1      -8.758   9.732  69.177  1.00  0.00    -0.155 C  
BRANCH  34  35
HETATM   35  N   UNL     1      -9.713  10.063  70.245  1.00  0.00    -0.395 NA 
HETATM   36  H   UNL     1      -9.530  10.982  70.648  1.00  0.00     0.000 HD 
BRANCH  35  37
HETATM   37  C   UNL     1     -11.092   9.948  69.751  1.00  0.00    -0.254 C  
BRANCH  37  38
HETATM   38  C   UNL     1     -11.561  11.275  69.150  1.00  0.00    -0.319 C  
HETATM   39  O   UNL     1     -11.864  11.115  67.767  1.00  0.00    -0.608 OA 
HETATM   40  H   UNL     1     -12.155  11.939  67.394  1.00  0.00     0.000 HD 
ENDBRANCH  37  38
ENDBRANCH  35  37
ENDBRANCH  34  35
ENDBRANCH  33  34
ENDBRANCH  31  33
ENDBRANCH  14  31
ENDBRANCH   9  11
ENDBRANCH   8   9
ENDBRANCH   7   8
ENDBRANCH   5   7
ENDBRANCH   4   5
ENDBRANCH   3   4
TORSDOF 12
ENDMDL
MODEL       66
REMARK 921   NORMALIZED FREE ENERGY PREDICTED BY IDOCK:   -5.13 KCAL/MOL
REMARK 922        TOTAL FREE ENERGY PREDICTED BY IDOCK:  -10.98 KCAL/MOL
REMARK 923 INTER-LIGAND FREE ENERGY PREDICTED BY IDOCK:   -9.14 KCAL/MOL
REMARK 924 INTRA-LIGAND FREE ENERGY PREDICTED BY IDOCK:   -1.84 KCAL/MOL
REMARK 927      BINDING AFFINITY PREDICTED BY RF-SCORE:    0.00 PKD
ROOT
HETATM    1  O   UNL     1      -7.504  11.629  68.634  1.00  0.00    -0.106 OA 
HETATM    2  H   UNL     1      -7.079  12.316  68.135  1.00  0.00     0.000 HD 
HETATM    3  C   UNL     1      -6.577  10.586  68.924  1.00  0.00    -0.054 C  
ENDROOT
BRANCH   3   4
HETATM    4  C   UNL     1      -7.263   9.478  69.729  1.00  0.00    -0.084 C  
BRANCH   4   5
HETATM    5  N   UNL     1      -7.478   8.244  68.958  1.00  0.00    -0.089 NA 
HETATM    6  H   UNL     1      -6.968   7.459  69.365  1.00  0.00     0.000 HD 
BRANCH   5   7
HETATM    7  C   UNL     1      -8.906   7.932  68.807  1.00  0.00    -0.138 C  
BRANCH   7   8
HETATM    8  C   UNL     1      -9.448   8.511  67.494  1.00  0.00    -0.149 C  
BRANCH   8   9
HETATM    9  N   UNL     1     -10.700   9.211  67.714  1.00  0.00    -0.436 NA 
HETATM   10  H   UNL     1     -11.453   8.725  68.200  1.00  0.00     0.000 HD 
BRANCH   9  11
HETATM   11  C   UNL     1     -10.915  10.515  67.291  1.00  0.00    -0.260 A  
HETATM   12  C   UNL     1     -10.517  10.889  66.009  1.00  0.00    -0.287 A  
HETATM   13  C   UNL     1     -10.680  12.187  65.557  1.00  0.00    -0.321 A  
HETATM   14  C   UNL     1     -11.173  13.192  66.392  1.00  0.00    -0.300 A  
HETATM   15  H   UNL     1     -13.426  16.490  71.120  1.00  0.00     0.000 HD 
HETATM   16  C   UNL     1     -11.558  12.840  67.712  1.00  0.00    -0.405 A  
HETATM   17  C   UNL     1     -11.483  11.502  68.140  1.00  0.00    -0.385 A  
HETATM   18  C   UNL     1     -13.445  12.856  72.575  1.00  0.00    -0.456 A  
HETATM   19  O   UNL     1     -12.031  15.074  68.367  1.00  0.00    -0.291 OA 
HETATM   20  C   UNL     1     -12.950  11.862  71.729  1.00  0.00    -0.350 A  
HETATM   21  C   UNL     1     -12.056  11.118  69.466  1.00  0.00    -0.326 C  
HETATM   22  O   UNL     1     -12.238   9.932  69.727  1.00  0.00     0.070 OA 
HETATM   23  C   UNL     1     -13.483  14.173  72.141  1.00  0.00    -0.545 A  
HETATM   24  C   UNL     1     -12.505  12.166  70.418  1.00  0.00    -0.224 A  
HETATM   25  O   UNL     1     -13.092  15.819  70.536  1.00  0.00    -0.461 OA 
HETATM   26  H   UNL     1     -13.221  10.376  73.075  1.00  0.00     0.000 HD 
HETATM   27  C   UNL     1     -12.525  13.497  70.001  1.00  0.00    -0.231 A  
HETATM   28  O   UNL     1     -12.923  10.580  72.197  1.00  0.00    -0.435 OA 
HETATM   29  C   UNL     1     -13.022  14.492  70.868  1.00  0.00    -0.361 A  
HETATM   30  C   UNL     1     -12.052  13.877  68.657  1.00  0.00    -0.302 C  
BRANCH  14  31
HETATM   31  N   UNL     1     -11.356  14.459  65.865  1.00  0.00    -0.327 NA 
HETATM   32  H   UNL     1     -12.260  14.914  65.997  1.00  0.00     0.000 HD 
BRANCH  31  33
HETATM   33  C   UNL     1     -10.319  15.171  65.131  1.00  0.00    -0.385 C  
BRANCH  33  34
HETATM   34  C   UNL     1      -9.587  16.163  66.049  1.00  0.00    -0.346 C  
BRANCH  34  35
HETATM   35  N   UNL     1      -8.216  15.716  66.335  1.00  0.00    -0.341 NA 
HETATM   36  H   UNL     1      -7.552  16.491  66.320  1.00  0.00     0.000 HD 
BRANCH  35  37
HETATM   37  C   UNL     1      -8.172  14.982  67.607  1.00  0.00    -0.168 C  
BRANCH  37  38
HETATM   38  C   UNL     1      -8.502  15.913  68.776  1.00  0.00    -0.204 C  
HETATM   39  O   UNL     1      -9.137  15.187  69.826  1.00  0.00    -0.444 OA 
HETATM   40  H   UNL     1      -9.343  15.765  70.552  1.00  0.00     0.000 HD 
ENDBRANCH  37  38
ENDBRANCH  35  37
ENDBRANCH  34  35
ENDBRANCH  33  34
ENDBRANCH  31  33
ENDBRANCH  14  31
ENDBRANCH   9  11
ENDBRANCH   8   9
ENDBRANCH   7   8
ENDBRANCH   5   7
ENDBRANCH   4   5
ENDBRANCH   3   4
TORSDOF 12
ENDMDL
MODEL       67
REMARK 921   NORMALIZED FREE ENERGY PREDICTED BY IDOCK:   -5.12 KCAL/MOL
REMARK 922        TOTAL FREE ENERGY PREDICTED BY IDOCK:  -10.97 KCAL/MOL
REMARK 923 INTER-LIGAND FREE ENERGY PREDICTED BY IDOCK:   -9.03 KCAL/MOL
REMARK 924 INTRA-LIGAND FREE ENERGY PREDICTED BY IDOCK:   -1.94 KCAL/MOL
REMARK 927      BINDING AFFINITY PREDICTED BY RF-SCORE:    0.00 PKD
ROOT
HETATM    1  O   UNL     1      -7.935  10.642  70.154  1.00  0.00    -0.374 OA 
HETATM    2  H   UNL     1      -7.787   9.786  70.538  1.00  0.00     0.000 HD 
HETATM    3  C   UNL     1      -7.077  10.833  69.032  1.00  0.00    -0.091 C  
ENDROOT
BRANCH   3   4
HETATM    4  C   UNL     1      -7.316  12.214  68.413  1.00  0.00    -0.108 C  
BRANCH   4   5
HETATM    5  N   UNL     1      -7.894  12.157  67.062  1.00  0.00    -0.276 NA 
HETATM    6  H   UNL     1      -7.522  12.898  66.468  1.00  0.00     0.000 HD 
BRANCH   5   7
HETATM    7  C   UNL     1      -7.716  10.836  66.444  1.00  0.00    -0.145 C  
BRANCH   7   8
HETATM    8  C   UNL     1      -9.051  10.306  65.908  1.00  0.00    -0.163 C  
BRANCH   8   9
HETATM    9  N   UNL     1     -10.165  10.845  66.668  1.00  0.00    -0.226 NA 
HETATM   10  H   UNL     1     -10.651  11.667  66.309  1.00  0.00     0.000 HD 
BRANCH   9  11
HETATM   11  C   UNL     1     -10.596  10.288  67.863  1.00  0.00    -0.239 A  
HETATM   12  C   UNL     1     -10.456   8.916  68.065  1.00  0.00    -0.263 A  
HETATM   13  C   UNL     1     -10.903   8.312  69.227  1.00  0.00    -0.063 A  
HETATM   14  C   UNL     1     -11.586   9.035  70.207  1.00  0.00    -0.060 A  
HETATM   15  H   UNL     1     -14.380  13.416  73.569  1.00  0.00     0.000 HD 
HETATM   16  C   UNL     1     -11.767  10.429  70.009  1.00  0.00    -0.366 A  
HETATM   17  C   UNL     1     -11.228  11.061  68.873  1.00  0.00    -0.326 A  
HETATM   18  C   UNL     1     -12.913  15.485  70.588  1.00  0.00    -0.425 A  
HETATM   19  O   UNL     1     -13.107  10.717  71.950  1.00  0.00    -0.469 OA 
HETATM   20  C   UNL     1     -12.232  14.748  69.616  1.00  0.00    -0.270 A  
HETATM   21  C   UNL     1     -11.271  12.551  68.767  1.00  0.00    -0.273 C  
HETATM   22  O   UNL     1     -10.576  13.119  67.930  1.00  0.00    -0.225 OA 
HETATM   23  C   UNL     1     -13.461  14.836  71.685  1.00  0.00    -0.468 A  
HETATM   24  C   UNL     1     -12.065  13.346  69.739  1.00  0.00    -0.374 A  
HETATM   25  O   UNL     1     -13.915  12.908  72.915  1.00  0.00    -0.333 OA 
HETATM   26  H   UNL     1     -11.826  16.363  68.467  1.00  0.00     0.000 HD 
HETATM   27  C   UNL     1     -12.641  12.702  70.833  1.00  0.00    -0.338 A  
HETATM   28  O   UNL     1     -11.714  15.424  68.549  1.00  0.00    -0.352 OA 
HETATM   29  C   UNL     1     -13.332  13.456  71.804  1.00  0.00    -0.394 A  
HETATM   30  C   UNL     1     -12.522  11.241  71.000  1.00  0.00    -0.400 C  
BRANCH  14  31
HETATM   31  N   UNL     1     -11.966   8.382  71.366  1.00  0.00    -0.291 NA 
HETATM   32  H   UNL     1     -12.054   8.927  72.225  1.00  0.00     0.000 HD 
BRANCH  31  33
HETATM   33  C   UNL     1     -12.244   6.954  71.418  1.00  0.00    -0.372 C  
BRANCH  33  34
HETATM   34  C   UNL     1     -11.525   6.301  72.610  1.00  0.00    -0.218 C  
BRANCH  34  35
HETATM   35  N   UNL     1     -11.025   7.313  73.552  1.00  0.00    -0.555 NA 
HETATM   36  H   UNL     1     -11.519   7.280  74.444  1.00  0.00     0.000 HD 
BRANCH  35  37
HETATM   37  C   UNL     1      -9.573   7.175  73.727  1.00  0.00    -0.267 C  
BRANCH  37  38
HETATM   38  C   UNL     1      -8.825   8.084  72.748  1.00  0.00    -0.214 C  
HETATM   39  O   UNL     1      -8.011   7.308  71.871  1.00  0.00    -0.091 OA 
HETATM   40  H   UNL     1      -7.547   7.872  71.264  1.00  0.00     0.000 HD 
ENDBRANCH  37  38
ENDBRANCH  35  37
ENDBRANCH  34  35
ENDBRANCH  33  34
ENDBRANCH  31  33
ENDBRANCH  14  31
ENDBRANCH   9  11
ENDBRANCH   8   9
ENDBRANCH   7   8
ENDBRANCH   5   7
ENDBRANCH   4   5
ENDBRANCH   3   4
TORSDOF 12
ENDMDL
MODEL       68
REMARK 921   NORMALIZED FREE ENERGY PREDICTED BY IDOCK:   -5.10 KCAL/MOL
REMARK 922        TOTAL FREE ENERGY PREDICTED BY IDOCK:  -10.95 KCAL/MOL
REMARK 923 INTER-LIGAND FREE ENERGY PREDICTED BY IDOCK:   -9.78 KCAL/MOL
REMARK 924 INTRA-LIGAND FREE ENERGY PREDICTED BY IDOCK:   -1.17 KCAL/MOL
REMARK 927      BINDING AFFINITY PREDICTED BY RF-SCORE:    0.00 PKD
ROOT
HETATM    1  O   UNL     1     -10.872  19.508  67.162  1.00  0.00    -0.491 OA 
HETATM    2  H   UNL     1     -10.616  20.419  67.245  1.00  0.00     0.000 HD 
HETATM    3  C   UNL     1     -10.058  18.853  66.193  1.00  0.00    -0.393 C  
ENDROOT
BRANCH   3   4
HETATM    4  C   UNL     1     -10.470  17.384  66.061  1.00  0.00    -0.276 C  
BRANCH   4   5
HETATM    5  N   UNL     1     -11.185  17.089  64.810  1.00  0.00    -0.840 NA 
HETATM    6  H   UNL     1     -10.814  17.636  64.033  1.00  0.00     0.000 HD 
BRANCH   5   7
HETATM    7  C   UNL     1     -11.180  15.653  64.501  1.00  0.00    -0.325 C  
BRANCH   7   8
HETATM    8  C   UNL     1     -11.687  14.842  65.701  1.00  0.00    -0.257 C  
BRANCH   8   9
HETATM    9  N   UNL     1     -10.726  13.820  66.078  1.00  0.00    -0.281 NA 
HETATM   10  H   UNL     1      -9.783  13.870  65.693  1.00  0.00     0.000 HD 
BRANCH   9  11
HETATM   11  C   UNL     1     -11.038  12.778  66.939  1.00  0.00    -0.270 A  
HETATM   12  C   UNL     1     -11.788  13.043  68.084  1.00  0.00    -0.381 A  
HETATM   13  C   UNL     1     -12.094  12.041  68.989  1.00  0.00    -0.223 A  
HETATM   14  C   UNL     1     -11.596  10.746  68.837  1.00  0.00    -0.291 A  
HETATM   15  H   UNL     1      -8.741   5.610  66.892  1.00  0.00     0.000 HD 
HETATM   16  C   UNL     1     -10.805  10.461  67.693  1.00  0.00    -0.361 A  
HETATM   17  C   UNL     1     -10.575  11.454  66.723  1.00  0.00    -0.298 A  
HETATM   18  C   UNL     1      -8.013   8.107  63.967  1.00  0.00    -0.139 A  
HETATM   19  O   UNL     1     -10.295   8.242  68.372  1.00  0.00    -0.206 OA 
HETATM   20  C   UNL     1      -8.517   9.399  64.134  1.00  0.00    -0.190 A  
HETATM   21  C   UNL     1      -9.894  11.091  65.443  1.00  0.00    -0.251 C  
HETATM   22  O   UNL     1      -9.931  11.871  64.496  1.00  0.00    -0.254 OA 
HETATM   23  C   UNL     1      -8.229   7.153  64.950  1.00  0.00    -0.073 A  
HETATM   24  C   UNL     1      -9.272   9.753  65.280  1.00  0.00    -0.294 A  
HETATM   25  O   UNL     1      -9.091   6.485  67.011  1.00  0.00    -0.123 OA 
HETATM   26  H   UNL     1      -7.772  10.074  62.378  1.00  0.00     0.000 HD 
HETATM   27  C   UNL     1      -9.461   8.791  66.273  1.00  0.00    -0.300 A  
HETATM   28  O   UNL     1      -8.277  10.311  63.146  1.00  0.00    -0.154 OA 
HETATM   29  C   UNL     1      -8.941   7.493  66.096  1.00  0.00    -0.153 A  
HETATM   30  C   UNL     1     -10.215   9.108  67.500  1.00  0.00    -0.245 C  
BRANCH  14  31
HETATM   31  N   UNL     1     -11.977   9.779  69.751  1.00  0.00    -0.448 NA 
HETATM   32  H   UNL     1     -11.793   8.801  69.529  1.00  0.00     0.000 HD 
BRANCH  31  33
HETATM   33  C   UNL     1     -12.628  10.095  71.015  1.00  0.00    -0.381 C  
BRANCH  33  34
HETATM   34  C   UNL     1     -13.358   8.863  71.574  1.00  0.00    -0.325 C  
BRANCH  34  35
HETATM   35  N   UNL     1     -12.874   7.624  70.948  1.00  0.00    -0.557 NA 
HETATM   36  H   UNL     1     -12.514   7.788  70.008  1.00  0.00     0.000 HD 
BRANCH  35  37
HETATM   37  C   UNL     1     -11.880   6.971  71.809  1.00  0.00    -0.312 C  
BRANCH  37  38
HETATM   38  C   UNL     1     -10.968   6.061  70.982  1.00  0.00    -0.286 C  
HETATM   39  O   UNL     1     -11.443   5.967  69.641  1.00  0.00    -0.394 OA 
HETATM   40  H   UNL     1     -10.878   5.402  69.127  1.00  0.00     0.000 HD 
ENDBRANCH  37  38
ENDBRANCH  35  37
ENDBRANCH  34  35
ENDBRANCH  33  34
ENDBRANCH  31  33
ENDBRANCH  14  31
ENDBRANCH   9  11
ENDBRANCH   8   9
ENDBRANCH   7   8
ENDBRANCH   5   7
ENDBRANCH   4   5
ENDBRANCH   3   4
TORSDOF 12
ENDMDL
MODEL       69
REMARK 921   NORMALIZED FREE ENERGY PREDICTED BY IDOCK:   -5.05 KCAL/MOL
REMARK 922        TOTAL FREE ENERGY PREDICTED BY IDOCK:  -10.85 KCAL/MOL
REMARK 923 INTER-LIGAND FREE ENERGY PREDICTED BY IDOCK:   -9.43 KCAL/MOL
REMARK 924 INTRA-LIGAND FREE ENERGY PREDICTED BY IDOCK:   -1.42 KCAL/MOL
REMARK 927      BINDING AFFINITY PREDICTED BY RF-SCORE:    0.00 PKD
ROOT
HETATM    1  O   UNL     1     -13.425  12.917  64.964  1.00  0.00    -0.516 OA 
HETATM    2  H   UNL     1     -13.925  12.460  65.629  1.00  0.00     0.000 HD 
HETATM    3  C   UNL     1     -12.257  12.172  64.627  1.00  0.00    -0.298 C  
ENDROOT
BRANCH   3   4
HETATM    4  C   UNL     1     -11.449  12.910  63.555  1.00  0.00    -0.412 C  
BRANCH   4   5
HETATM    5  N   UNL     1     -10.162  13.425  64.045  1.00  0.00    -0.752 NA 
HETATM    6  H   UNL     1      -9.502  13.562  63.279  1.00  0.00     0.000 HD 
BRANCH   5   7
HETATM    7  C   UNL     1     -10.327  14.654  64.833  1.00  0.00    -0.350 C  
BRANCH   7   8
HETATM    8  C   UNL     1      -9.622  14.523  66.189  1.00  0.00    -0.297 C  
BRANCH   8   9
HETATM    9  N   UNL     1      -9.239  13.146  66.443  1.00  0.00    -0.430 NA 
HETATM   10  H   UNL     1      -8.388  12.787  66.009  1.00  0.00     0.000 HD 
BRANCH   9  11
HETATM   11  C   UNL     1      -9.981  12.298  67.251  1.00  0.00    -0.204 A  
HETATM   12  C   UNL     1     -10.779  12.841  68.257  1.00  0.00    -0.257 A  
HETATM   13  C   UNL     1     -11.510  12.031  69.109  1.00  0.00    -0.357 A  
HETATM   14  C   UNL     1     -11.414  10.640  69.052  1.00  0.00    -0.274 A  
HETATM   15  H   UNL     1     -10.004   4.780  67.642  1.00  0.00     0.000 HD 
HETATM   16  C   UNL     1     -10.584  10.065  68.054  1.00  0.00    -0.280 A  
HETATM   17  C   UNL     1      -9.917  10.885  67.126  1.00  0.00    -0.221 A  
HETATM   18  C   UNL     1      -8.112   6.770  64.852  1.00  0.00    -0.112 A  
HETATM   19  O   UNL     1     -10.886   7.838  68.827  1.00  0.00    -0.114 OA 
HETATM   20  C   UNL     1      -8.217   8.161  64.923  1.00  0.00    -0.147 A  
HETATM   21  C   UNL     1      -9.193  10.262  65.976  1.00  0.00    -0.164 C  
HETATM   22  O   UNL     1      -8.846  10.960  65.029  1.00  0.00    -0.194 OA 
HETATM   23  C   UNL     1      -8.756   5.983  65.796  1.00  0.00    -0.155 A  
HETATM   24  C   UNL     1      -8.992   8.790  65.929  1.00  0.00    -0.240 A  
HETATM   25  O   UNL     1     -10.084   5.725  67.695  1.00  0.00    -0.145 OA 
HETATM   26  H   UNL     1      -7.043   8.478  63.306  1.00  0.00     0.000 HD 
HETATM   27  C   UNL     1      -9.615   7.989  66.886  1.00  0.00    -0.265 A  
HETATM   28  O   UNL     1      -7.563   8.900  63.980  1.00  0.00    -0.111 OA 
HETATM   29  C   UNL     1      -9.495   6.587  66.808  1.00  0.00    -0.158 A  
HETATM   30  C   UNL     1     -10.413   8.589  67.971  1.00  0.00    -0.191 C  
BRANCH  14  31
HETATM   31  N   UNL     1     -12.207   9.887  69.900  1.00  0.00    -0.469 NA 
HETATM   32  H   UNL     1     -12.826   9.185  69.493  1.00  0.00     0.000 HD 
BRANCH  31  33
HETATM   33  C   UNL     1     -12.197  10.050  71.347  1.00  0.00    -0.416 C  
BRANCH  33  34
HETATM   34  C   UNL     1     -13.381  10.918  71.806  1.00  0.00    -0.310 C  
BRANCH  34  35
HETATM   35  N   UNL     1     -12.920  12.183  72.396  1.00  0.00    -0.223 NA 
HETATM   36  H   UNL     1     -12.015  12.470  72.022  1.00  0.00     0.000 HD 
BRANCH  35  37
HETATM   37  C   UNL     1     -13.938  13.227  72.227  1.00  0.00    -0.461 C  
BRANCH  37  38
HETATM   38  C   UNL     1     -13.284  14.563  71.865  1.00  0.00    -0.359 C  
HETATM   39  O   UNL     1     -13.878  15.625  72.607  1.00  0.00    -0.552 OA 
HETATM   40  H   UNL     1     -13.472  16.454  72.382  1.00  0.00     0.000 HD 
ENDBRANCH  37  38
ENDBRANCH  35  37
ENDBRANCH  34  35
ENDBRANCH  33  34
ENDBRANCH  31  33
ENDBRANCH  14  31
ENDBRANCH   9  11
ENDBRANCH   8   9
ENDBRANCH   7   8
ENDBRANCH   5   7
ENDBRANCH   4   5
ENDBRANCH   3   4
TORSDOF 12
ENDMDL
MODEL       70
REMARK 921   NORMALIZED FREE ENERGY PREDICTED BY IDOCK:   -5.02 KCAL/MOL
REMARK 922        TOTAL FREE ENERGY PREDICTED BY IDOCK:  -10.80 KCAL/MOL
REMARK 923 INTER-LIGAND FREE ENERGY PREDICTED BY IDOCK:   -9.55 KCAL/MOL
REMARK 924 INTRA-LIGAND FREE ENERGY PREDICTED BY IDOCK:   -1.25 KCAL/MOL
REMARK 927      BINDING AFFINITY PREDICTED BY RF-SCORE:    0.00 PKD
ROOT
HETATM    1  O   UNL     1      -9.239   7.155  70.534  1.00  0.00    -0.158 OA 
HETATM    2  H   UNL     1      -8.360   7.383  70.811  1.00  0.00     0.000 HD 
HETATM    3  C   UNL     1     -10.094   7.023  71.668  1.00  0.00    -0.182 C  
ENDROOT
BRANCH   3   4
HETATM    4  C   UNL     1     -11.512   6.656  71.221  1.00  0.00    -0.311 C  
BRANCH   4   5
HETATM    5  N   UNL     1     -12.278   7.802  70.709  1.00  0.00    -0.504 NA 
HETATM    6  H   UNL     1     -12.961   7.508  70.010  1.00  0.00     0.000 HD 
BRANCH   5   7
HETATM    7  C   UNL     1     -12.915   8.564  71.791  1.00  0.00    -0.352 C  
BRANCH   7   8
HETATM    8  C   UNL     1     -12.790  10.071  71.536  1.00  0.00    -0.432 C  
BRANCH   8   9
HETATM    9  N   UNL     1     -11.717  10.350  70.598  1.00  0.00    -0.326 NA 
HETATM   10  H   UNL     1     -10.952   9.680  70.516  1.00  0.00     0.000 HD 
BRANCH   9  11
HETATM   11  C   UNL     1     -11.689  11.489  69.808  1.00  0.00    -0.353 A  
HETATM   12  C   UNL     1     -12.214  12.679  70.309  1.00  0.00    -0.347 A  
HETATM   13  C   UNL     1     -12.238  13.832  69.544  1.00  0.00    -0.344 A  
HETATM   14  C   UNL     1     -11.815  13.832  68.214  1.00  0.00    -0.378 A  
HETATM   15  H   UNL     1      -9.661  12.334  62.608  1.00  0.00     0.000 HD 
HETATM   16  C   UNL     1     -11.303  12.624  67.673  1.00  0.00    -0.362 A  
HETATM   17  C   UNL     1     -11.188  11.476  68.479  1.00  0.00    -0.315 A  
HETATM   18  C   UNL     1      -9.108   9.016  64.609  1.00  0.00    -0.032 A  
HETATM   19  O   UNL     1     -11.058  13.496  65.476  1.00  0.00    -0.292 OA 
HETATM   20  C   UNL     1      -9.537   9.031  65.938  1.00  0.00    -0.247 A  
HETATM   21  C   UNL     1     -10.485  10.269  67.949  1.00  0.00    -0.212 C  
HETATM   22  O   UNL     1     -10.145   9.378  68.722  1.00  0.00    -0.180 OA 
HETATM   23  C   UNL     1      -9.258  10.150  63.825  1.00  0.00    -0.321 A  
HETATM   24  C   UNL     1     -10.102  10.196  66.516  1.00  0.00    -0.296 A  
HETATM   25  O   UNL     1      -9.951  12.355  63.512  1.00  0.00    -0.374 OA 
HETATM   26  H   UNL     1      -9.000   7.112  66.287  1.00  0.00     0.000 HD 
HETATM   27  C   UNL     1     -10.269  11.323  65.711  1.00  0.00    -0.301 A  
HETATM   28  O   UNL     1      -9.378   7.892  66.674  1.00  0.00    -0.170 OA 
HETATM   29  C   UNL     1      -9.839  11.292  64.369  1.00  0.00    -0.269 A  
HETATM   30  C   UNL     1     -10.874  12.555  66.250  1.00  0.00    -0.268 C  
BRANCH  14  31
HETATM   31  N   UNL     1     -11.820  15.028  67.518  1.00  0.00    -0.393 NA 
HETATM   32  H   UNL     1     -12.674  15.305  67.034  1.00  0.00     0.000 HD 
BRANCH  31  33
HETATM   33  C   UNL     1     -10.663  15.908  67.445  1.00  0.00    -0.313 C  
BRANCH  33  34
HETATM   34  C   UNL     1     -10.732  16.797  66.192  1.00  0.00    -0.116 C  
BRANCH  34  35
HETATM   35  N   UNL     1     -10.124  18.113  66.436  1.00  0.00    -0.373 NA 
HETATM   36  H   UNL     1     -10.429  18.806  65.751  1.00  0.00     0.000 HD 
BRANCH  35  37
HETATM   37  C   UNL     1     -10.388  18.552  67.812  1.00  0.00    -0.402 C  
BRANCH  37  38
HETATM   38  C   UNL     1      -9.212  19.371  68.350  1.00  0.00    -0.359 C  
HETATM   39  O   UNL     1      -7.976  18.746  68.015  1.00  0.00    -0.267 OA 
HETATM   40  H   UNL     1      -7.246  19.254  68.349  1.00  0.00     0.000 HD 
ENDBRANCH  37  38
ENDBRANCH  35  37
ENDBRANCH  34  35
ENDBRANCH  33  34
ENDBRANCH  31  33
ENDBRANCH  14  31
ENDBRANCH   9  11
ENDBRANCH   8   9
ENDBRANCH   7   8
ENDBRANCH   5   7
ENDBRANCH   4   5
ENDBRANCH   3   4
TORSDOF 12
ENDMDL
MODEL       71
REMARK 921   NORMALIZED FREE ENERGY PREDICTED BY IDOCK:   -5.01 KCAL/MOL
REMARK 922        TOTAL FREE ENERGY PREDICTED BY IDOCK:  -10.78 KCAL/MOL
REMARK 923 INTER-LIGAND FREE ENERGY PREDICTED BY IDOCK:   -9.31 KCAL/MOL
REMARK 924 INTRA-LIGAND FREE ENERGY PREDICTED BY IDOCK:   -1.47 KCAL/MOL
REMARK 927      BINDING AFFINITY PREDICTED BY RF-SCORE:    0.00 PKD
ROOT
HETATM    1  O   UNL     1      -9.571   7.671  74.179  1.00  0.00    -0.402 OA 
HETATM    2  H   UNL     1      -9.053   7.861  74.952  1.00  0.00     0.000 HD 
HETATM    3  C   UNL     1     -10.102   6.350  74.253  1.00  0.00    -0.347 C  
ENDROOT
BRANCH   3   4
HETATM    4  C   UNL     1     -10.938   6.046  73.007  1.00  0.00    -0.257 C  
BRANCH   4   5
HETATM    5  N   UNL     1     -10.434   6.701  71.791  1.00  0.00    -0.208 NA 
HETATM    6  H   UNL     1      -9.424   6.834  71.833  1.00  0.00     0.000 HD 
BRANCH   5   7
HETATM    7  C   UNL     1     -10.827   5.977  70.574  1.00  0.00    -0.314 C  
BRANCH   7   8
HETATM    8  C   UNL     1     -11.146   6.960  69.441  1.00  0.00    -0.206 C  
BRANCH   8   9
HETATM    9  N   UNL     1     -10.297   8.136  69.521  1.00  0.00    -0.218 NA 
HETATM   10  H   UNL     1      -9.288   8.007  69.587  1.00  0.00     0.000 HD 
BRANCH   9  11
HETATM   11  C   UNL     1     -10.803   9.428  69.512  1.00  0.00    -0.213 A  
HETATM   12  C   UNL     1     -11.372   9.944  70.676  1.00  0.00    -0.413 A  
HETATM   13  C   UNL     1     -11.919  11.215  70.704  1.00  0.00    -0.459 A  
HETATM   14  C   UNL     1     -11.999  11.999  69.551  1.00  0.00    -0.283 A  
HETATM   15  H   UNL     1     -11.661  14.248  63.794  1.00  0.00     0.000 HD 
HETATM   16  C   UNL     1     -11.451  11.481  68.348  1.00  0.00    -0.364 A  
HETATM   17  C   UNL     1     -10.808  10.230  68.341  1.00  0.00    -0.288 A  
HETATM   18  C   UNL     1      -9.717  10.866  63.467  1.00  0.00    -0.384 A  
HETATM   19  O   UNL     1     -12.191  13.302  67.013  1.00  0.00    -0.353 OA 
HETATM   20  C   UNL     1      -9.646  10.093  64.628  1.00  0.00    -0.315 A  
HETATM   21  C   UNL     1     -10.083   9.779  67.115  1.00  0.00    -0.211 C  
HETATM   22  O   UNL     1      -9.305   8.833  67.184  1.00  0.00    -0.141 OA 
HETATM   23  C   UNL     1     -10.380  12.084  63.491  1.00  0.00    -0.492 A  
HETATM   24  C   UNL     1     -10.219  10.539  65.845  1.00  0.00    -0.311 A  
HETATM   25  O   UNL     1     -11.614  13.730  64.590  1.00  0.00    -0.349 OA 
HETATM   26  H   UNL     1      -8.606   8.599  63.744  1.00  0.00     0.000 HD 
HETATM   27  C   UNL     1     -10.905  11.753  65.851  1.00  0.00    -0.339 A  
HETATM   28  O   UNL     1      -8.990   8.898  64.560  1.00  0.00    -0.113 OA 
HETATM   29  C   UNL     1     -10.975  12.521  64.670  1.00  0.00    -0.310 A  
HETATM   30  C   UNL     1     -11.542  12.256  67.081  1.00  0.00    -0.353 C  
BRANCH  14  31
HETATM   31  N   UNL     1     -12.514  13.279  69.656  1.00  0.00    -0.073 NA 
HETATM   32  H   UNL     1     -13.375  13.500  69.155  1.00  0.00     0.000 HD 
BRANCH  31  33
HETATM   33  C   UNL     1     -11.884  14.325  70.450  1.00  0.00    -0.305 C  
BRANCH  33  34
HETATM   34  C   UNL     1     -12.032  15.693  69.764  1.00  0.00    -0.354 C  
BRANCH  34  35
HETATM   35  N   UNL     1     -10.722  16.268  69.427  1.00  0.00    -0.296 NA 
HETATM   36  H   UNL     1     -10.058  15.553  69.130  1.00  0.00     0.000 HD 
BRANCH  35  37
HETATM   37  C   UNL     1     -10.871  17.329  68.423  1.00  0.00    -0.273 C  
BRANCH  37  38
HETATM   38  C   UNL     1     -10.297  16.879  67.077  1.00  0.00    -0.307 C  
HETATM   39  O   UNL     1     -11.228  16.044  66.394  1.00  0.00    -0.057 OA 
HETATM   40  H   UNL     1     -10.872  15.764  65.558  1.00  0.00     0.000 HD 
ENDBRANCH  37  38
ENDBRANCH  35  37
ENDBRANCH  34  35
ENDBRANCH  33  34
ENDBRANCH  31  33
ENDBRANCH  14  31
ENDBRANCH   9  11
ENDBRANCH   8   9
ENDBRANCH   7   8
ENDBRANCH   5   7
ENDBRANCH   4   5
ENDBRANCH   3   4
TORSDOF 12
ENDMDL
MODEL       72
REMARK 921   NORMALIZED FREE ENERGY PREDICTED BY IDOCK:   -4.99 KCAL/MOL
REMARK 922        TOTAL FREE ENERGY PREDICTED BY IDOCK:  -10.75 KCAL/MOL
REMARK 923 INTER-LIGAND FREE ENERGY PREDICTED BY IDOCK:   -8.86 KCAL/MOL
REMARK 924 INTRA-LIGAND FREE ENERGY PREDICTED BY IDOCK:   -1.89 KCAL/MOL
REMARK 927      BINDING AFFINITY PREDICTED BY RF-SCORE:    0.00 PKD
ROOT
HETATM    1  O   UNL     1     -12.487  14.105  63.317  1.00  0.00    -1.146 OA 
HETATM    2  H   UNL     1     -13.404  14.162  63.078  1.00  0.00     0.000 HD 
HETATM    3  C   UNL     1     -12.199  15.006  64.384  1.00  0.00    -0.337 C  
ENDROOT
BRANCH   3   4
HETATM    4  C   UNL     1     -10.720  14.915  64.770  1.00  0.00    -0.341 C  
BRANCH   4   5
HETATM    5  N   UNL     1     -10.505  14.537  66.175  1.00  0.00    -0.289 NA 
HETATM    6  H   UNL     1      -9.636  14.931  66.535  1.00  0.00     0.000 HD 
BRANCH   5   7
HETATM    7  C   UNL     1     -11.648  14.900  67.023  1.00  0.00    -0.304 C  
BRANCH   7   8
HETATM    8  C   UNL     1     -11.752  13.952  68.224  1.00  0.00    -0.361 C  
BRANCH   8   9
HETATM    9  N   UNL     1     -12.284  12.662  67.821  1.00  0.00    -0.282 NA 
HETATM   10  H   UNL     1     -13.143  12.638  67.272  1.00  0.00     0.000 HD 
BRANCH   9  11
HETATM   11  C   UNL     1     -11.673  11.462  68.152  1.00  0.00    -0.284 A  
HETATM   12  C   UNL     1     -11.778  10.981  69.456  1.00  0.00    -0.400 A  
HETATM   13  C   UNL     1     -11.157   9.806  69.841  1.00  0.00    -0.293 A  
HETATM   14  C   UNL     1     -10.332   9.098  68.964  1.00  0.00    -0.215 A  
HETATM   15  H   UNL     1      -7.064   7.101  64.101  1.00  0.00     0.000 HD 
HETATM   16  C   UNL     1     -10.187   9.585  67.638  1.00  0.00    -0.273 A  
HETATM   17  C   UNL     1     -10.896  10.726  67.219  1.00  0.00    -0.344 A  
HETATM   18  C   UNL     1      -8.976  10.168  62.598  1.00  0.00    -0.275 A  
HETATM   19  O   UNL     1      -8.566   7.961  67.023  1.00  0.00    -0.124 OA 
HETATM   20  C   UNL     1      -9.797  10.866  63.487  1.00  0.00    -0.359 A  
HETATM   21  C   UNL     1     -10.872  11.122  65.778  1.00  0.00    -0.151 C  
HETATM   22  O   UNL     1     -11.688  11.937  65.361  1.00  0.00    -0.296 OA 
HETATM   23  C   UNL     1      -8.265   9.063  63.041  1.00  0.00    -0.184 A  
HETATM   24  C   UNL     1      -9.940  10.453  64.835  1.00  0.00    -0.409 A  
HETATM   25  O   UNL     1      -7.623   7.568  64.712  1.00  0.00    -0.088 OA 
HETATM   26  H   UNL     1     -10.378  12.229  62.109  1.00  0.00     0.000 HD 
HETATM   27  C   UNL     1      -9.201   9.354  65.275  1.00  0.00    -0.299 A  
HETATM   28  O   UNL     1     -10.474  11.952  63.012  1.00  0.00    -0.329 OA 
HETATM   29  C   UNL     1      -8.371   8.663  64.369  1.00  0.00    -0.139 A  
HETATM   30  C   UNL     1      -9.290   8.894  66.673  1.00  0.00    -0.185 C  
BRANCH  14  31
HETATM   31  N   UNL     1      -9.778   7.906  69.394  1.00  0.00    -0.168 NA 
HETATM   32  H   UNL     1     -10.083   7.039  68.950  1.00  0.00     0.000 HD 
BRANCH  31  33
HETATM   33  C   UNL     1      -8.780   7.831  70.452  1.00  0.00    -0.139 C  
BRANCH  33  34
HETATM   34  C   UNL     1      -7.812   9.023  70.372  1.00  0.00    -0.116 C  
BRANCH  34  35
HETATM   35  N   UNL     1      -6.977   8.954  69.164  1.00  0.00    -0.058 NA 
HETATM   36  H   UNL     1      -7.533   8.775  68.328  1.00  0.00     0.000 HD 
BRANCH  35  37
HETATM   37  C   UNL     1      -6.167  10.172  69.032  1.00  0.00    -0.043 C  
BRANCH  37  38
HETATM   38  C   UNL     1      -5.881  10.779  70.408  1.00  0.00    -0.118 C  
HETATM   39  O   UNL     1      -6.425  12.094  70.494  1.00  0.00    -0.512 OA 
HETATM   40  H   UNL     1      -6.247  12.471  71.348  1.00  0.00     0.000 HD 
ENDBRANCH  37  38
ENDBRANCH  35  37
ENDBRANCH  34  35
ENDBRANCH  33  34
ENDBRANCH  31  33
ENDBRANCH  14  31
ENDBRANCH   9  11
ENDBRANCH   8   9
ENDBRANCH   7   8
ENDBRANCH   5   7
ENDBRANCH   4   5
ENDBRANCH   3   4
TORSDOF 12
ENDMDL
MODEL       73
REMARK 921   NORMALIZED FREE ENERGY PREDICTED BY IDOCK:   -4.97 KCAL/MOL
REMARK 922        TOTAL FREE ENERGY PREDICTED BY IDOCK:  -10.72 KCAL/MOL
REMARK 923 INTER-LIGAND FREE ENERGY PREDICTED BY IDOCK:   -8.90 KCAL/MOL
REMARK 924 INTRA-LIGAND FREE ENERGY PREDICTED BY IDOCK:   -1.82 KCAL/MOL
REMARK 927      BINDING AFFINITY PREDICTED BY RF-SCORE:    0.00 PKD
ROOT
HETATM    1  O   UNL     1      -8.257  11.872  69.086  1.00  0.00    -0.351 OA 
HETATM    2  H   UNL     1      -8.415  11.492  69.942  1.00  0.00     0.000 HD 
HETATM    3  C   UNL     1      -7.354  11.056  68.344  1.00  0.00    -0.096 C  
ENDROOT
BRANCH   3   4
HETATM    4  C   UNL     1      -7.100  11.667  66.963  1.00  0.00    -0.145 C  
BRANCH   4   5
HETATM    5  N   UNL     1      -6.431  10.748  66.031  1.00  0.00    -0.179 NA 
HETATM    6  H   UNL     1      -5.416  10.805  66.118  1.00  0.00     0.000 HD 
BRANCH   5   7
HETATM    7  C   UNL     1      -6.903   9.366  66.189  1.00  0.00    -0.085 C  
BRANCH   7   8
HETATM    8  C   UNL     1      -7.695   8.922  64.953  1.00  0.00    -0.112 C  
BRANCH   8   9
HETATM    9  N   UNL     1      -9.105   8.777  65.266  1.00  0.00    -0.405 NA 
HETATM   10  H   UNL     1      -9.518   7.844  65.242  1.00  0.00     0.000 HD 
BRANCH   9  11
HETATM   11  C   UNL     1      -9.915   9.853  65.596  1.00  0.00    -0.283 A  
HETATM   12  C   UNL     1     -10.141  10.851  64.649  1.00  0.00    -0.391 A  
HETATM   13  C   UNL     1     -10.915  11.960  64.946  1.00  0.00    -0.367 A  
HETATM   14  C   UNL     1     -11.430  12.167  66.227  1.00  0.00    -0.374 A  
HETATM   15  H   UNL     1     -13.002  11.738  72.199  1.00  0.00     0.000 HD 
HETATM   16  C   UNL     1     -11.188  11.177  67.216  1.00  0.00    -0.347 A  
HETATM   17  C   UNL     1     -10.484  10.003  66.889  1.00  0.00    -0.284 A  
HETATM   18  C   UNL     1     -11.186   8.324  71.584  1.00  0.00    -0.330 A  
HETATM   19  O   UNL     1     -12.200  12.419  68.970  1.00  0.00    -0.190 OA 
HETATM   20  C   UNL     1     -10.676   8.133  70.298  1.00  0.00    -0.235 A  
HETATM   21  C   UNL     1     -10.392   8.896  67.887  1.00  0.00    -0.230 C  
HETATM   22  O   UNL     1     -10.024   7.782  67.525  1.00  0.00    -0.158 OA 
HETATM   23  C   UNL     1     -11.852   9.502  71.891  1.00  0.00    -0.349 A  
HETATM   24  C   UNL     1     -10.846   9.110  69.285  1.00  0.00    -0.150 A  
HETATM   25  O   UNL     1     -12.662  11.613  71.320  1.00  0.00    -0.393 OA 
HETATM   26  H   UNL     1      -9.908   6.308  70.717  1.00  0.00     0.000 HD 
HETATM   27  C   UNL     1     -11.495  10.300  69.613  1.00  0.00    -0.297 A  
HETATM   28  O   UNL     1     -10.022   6.963  70.038  1.00  0.00    -0.179 OA 
HETATM   29  C   UNL     1     -12.000  10.484  70.916  1.00  0.00    -0.377 A  
HETATM   30  C   UNL     1     -11.679  11.363  68.608  1.00  0.00    -0.329 C  
BRANCH  14  31
HETATM   31  N   UNL     1     -12.234  13.271  66.446  1.00  0.00    -0.387 NA 
HETATM   32  H   UNL     1     -13.186  13.121  66.781  1.00  0.00     0.000 HD 
BRANCH  31  33
HETATM   33  C   UNL     1     -11.783  14.638  66.221  1.00  0.00    -0.320 C  
BRANCH  33  34
HETATM   34  C   UNL     1     -10.817  15.083  67.332  1.00  0.00    -0.305 C  
BRANCH  34  35
HETATM   35  N   UNL     1     -11.481  15.977  68.292  1.00  0.00    -0.334 NA 
HETATM   36  H   UNL     1     -12.157  15.478  68.871  1.00  0.00     0.000 HD 
BRANCH  35  37
HETATM   37  C   UNL     1     -10.484  16.688  69.102  1.00  0.00    -0.333 C  
BRANCH  37  38
HETATM   38  C   UNL     1      -9.635  17.610  68.223  1.00  0.00    -0.306 C  
HETATM   39  O   UNL     1      -8.267  17.554  68.619  1.00  0.00    -0.274 OA 
HETATM   40  H   UNL     1      -7.740  18.127  68.074  1.00  0.00     0.000 HD 
ENDBRANCH  37  38
ENDBRANCH  35  37
ENDBRANCH  34  35
ENDBRANCH  33  34
ENDBRANCH  31  33
ENDBRANCH  14  31
ENDBRANCH   9  11
ENDBRANCH   8   9
ENDBRANCH   7   8
ENDBRANCH   5   7
ENDBRANCH   4   5
ENDBRANCH   3   4
TORSDOF 12
ENDMDL
MODEL       74
REMARK 921   NORMALIZED FREE ENERGY PREDICTED BY IDOCK:   -4.94 KCAL/MOL
REMARK 922        TOTAL FREE ENERGY PREDICTED BY IDOCK:  -10.68 KCAL/MOL
REMARK 923 INTER-LIGAND FREE ENERGY PREDICTED BY IDOCK:   -9.61 KCAL/MOL
REMARK 924 INTRA-LIGAND FREE ENERGY PREDICTED BY IDOCK:   -1.06 KCAL/MOL
REMARK 927      BINDING AFFINITY PREDICTED BY RF-SCORE:    0.00 PKD
ROOT
HETATM    1  O   UNL     1      -7.067  10.827  64.464  1.00  0.00    -0.351 OA 
HETATM    2  H   UNL     1      -6.391  10.493  65.042  1.00  0.00     0.000 HD 
HETATM    3  C   UNL     1      -7.435   9.833  63.511  1.00  0.00    -0.126 C  
ENDROOT
BRANCH   3   4
HETATM    4  C   UNL     1      -8.526  10.371  62.581  1.00  0.00    -0.186 C  
BRANCH   4   5
HETATM    5  N   UNL     1      -8.983  11.723  62.936  1.00  0.00    -0.642 NA 
HETATM    6  H   UNL     1      -8.863  12.371  62.157  1.00  0.00     0.000 HD 
BRANCH   5   7
HETATM    7  C   UNL     1     -10.369  11.723  63.424  1.00  0.00    -0.439 C  
BRANCH   7   8
HETATM    8  C   UNL     1     -10.536  12.727  64.571  1.00  0.00    -0.360 C  
BRANCH   8   9
HETATM    9  N   UNL     1      -9.683  12.379  65.693  1.00  0.00    -0.374 NA 
HETATM   10  H   UNL     1      -8.758  12.804  65.754  1.00  0.00     0.000 HD 
BRANCH   9  11
HETATM   11  C   UNL     1     -10.073  11.493  66.686  1.00  0.00    -0.210 A  
HETATM   12  C   UNL     1      -9.875  10.126  66.495  1.00  0.00    -0.268 A  
HETATM   13  C   UNL     1     -10.279   9.202  67.443  1.00  0.00    -0.310 A  
HETATM   14  C   UNL     1     -10.975   9.593  68.589  1.00  0.00    -0.111 A  
HETATM   15  H   UNL     1     -13.885  12.736  73.056  1.00  0.00     0.000 HD 
HETATM   16  C   UNL     1     -11.213  10.977  68.790  1.00  0.00    -0.327 A  
HETATM   17  C   UNL     1     -10.718  11.924  67.875  1.00  0.00    -0.239 A  
HETATM   18  C   UNL     1     -12.548  15.617  70.768  1.00  0.00    -0.482 A  
HETATM   19  O   UNL     1     -12.532  10.654  70.740  1.00  0.00    -0.324 OA 
HETATM   20  C   UNL     1     -11.855  15.211  69.626  1.00  0.00    -0.334 A  
HETATM   21  C   UNL     1     -10.822  13.381  68.190  1.00  0.00    -0.255 C  
HETATM   22  O   UNL     1     -10.163  14.190  67.544  1.00  0.00    -0.238 OA 
HETATM   23  C   UNL     1     -13.053  14.664  71.641  1.00  0.00    -0.423 A  
HETATM   24  C   UNL     1     -11.631  13.839  69.349  1.00  0.00    -0.365 A  
HETATM   25  O   UNL     1     -13.411  12.452  72.284  1.00  0.00    -0.522 OA 
HETATM   26  H   UNL     1     -11.531  17.099  68.973  1.00  0.00     0.000 HD 
HETATM   27  C   UNL     1     -12.163  12.890  70.222  1.00  0.00    -0.362 A  
HETATM   28  O   UNL     1     -11.381  16.179  68.788  1.00  0.00    -0.346 OA 
HETATM   29  C   UNL     1     -12.868  13.313  71.368  1.00  0.00    -0.322 A  
HETATM   30  C   UNL     1     -11.984  11.448  69.973  1.00  0.00    -0.363 C  
BRANCH  14  31
HETATM   31  N   UNL     1     -11.309   8.626  69.521  1.00  0.00    -0.421 NA 
HETATM   32  H   UNL     1     -12.244   8.218  69.484  1.00  0.00     0.000 HD 
BRANCH  31  33
HETATM   33  C   UNL     1     -10.389   8.166  70.551  1.00  0.00    -0.202 C  
BRANCH  33  34
HETATM   34  C   UNL     1      -8.958   8.062  69.996  1.00  0.00    -0.144 C  
BRANCH  34  35
HETATM   35  N   UNL     1      -8.068   9.050  70.624  1.00  0.00    -0.145 NA 
HETATM   36  H   UNL     1      -7.652   8.695  71.485  1.00  0.00     0.000 HD 
BRANCH  35  37
HETATM   37  C   UNL     1      -7.049   9.501  69.668  1.00  0.00    -0.072 C  
BRANCH  37  38
HETATM   38  C   UNL     1      -6.524  10.886  70.055  1.00  0.00    -0.151 C  
HETATM   39  O   UNL     1      -7.508  11.883  69.790  1.00  0.00    -0.201 OA 
HETATM   40  H   UNL     1      -7.182  12.743  70.030  1.00  0.00     0.000 HD 
ENDBRANCH  37  38
ENDBRANCH  35  37
ENDBRANCH  34  35
ENDBRANCH  33  34
ENDBRANCH  31  33
ENDBRANCH  14  31
ENDBRANCH   9  11
ENDBRANCH   8   9
ENDBRANCH   7   8
ENDBRANCH   5   7
ENDBRANCH   4   5
ENDBRANCH   3   4
TORSDOF 12
ENDMDL
MODEL       75
REMARK 921   NORMALIZED FREE ENERGY PREDICTED BY IDOCK:   -4.94 KCAL/MOL
REMARK 922        TOTAL FREE ENERGY PREDICTED BY IDOCK:  -10.67 KCAL/MOL
REMARK 923 INTER-LIGAND FREE ENERGY PREDICTED BY IDOCK:   -8.56 KCAL/MOL
REMARK 924 INTRA-LIGAND FREE ENERGY PREDICTED BY IDOCK:   -2.11 KCAL/MOL
REMARK 927      BINDING AFFINITY PREDICTED BY RF-SCORE:    0.00 PKD
ROOT
HETATM    1  O   UNL     1      -6.189   4.210  65.797  1.00  0.00    -0.030 OA 
HETATM    2  H   UNL     1      -6.482   3.492  65.249  1.00  0.00     0.000 HD 
HETATM    3  C   UNL     1      -7.306   4.964  66.261  1.00  0.00    -0.078 C  
ENDROOT
BRANCH   3   4
HETATM    4  C   UNL     1      -6.834   6.121  67.145  1.00  0.00    -0.063 C  
BRANCH   4   5
HETATM    5  N   UNL     1      -7.377   7.426  66.740  1.00  0.00    -0.090 NA 
HETATM    6  H   UNL     1      -7.215   8.134  67.456  1.00  0.00     0.000 HD 
BRANCH   5   7
HETATM    7  C   UNL     1      -6.854   7.857  65.436  1.00  0.00    -0.058 C  
BRANCH   7   8
HETATM    8  C   UNL     1      -7.993   8.351  64.535  1.00  0.00    -0.146 C  
BRANCH   8   9
HETATM    9  N   UNL     1      -9.246   8.405  65.267  1.00  0.00    -0.410 NA 
HETATM   10  H   UNL     1      -9.657   7.532  65.599  1.00  0.00     0.000 HD 
BRANCH   9  11
HETATM   11  C   UNL     1      -9.909   9.594  65.534  1.00  0.00    -0.281 A  
HETATM   12  C   UNL     1      -9.971  10.575  64.545  1.00  0.00    -0.413 A  
HETATM   13  C   UNL     1     -10.592  11.790  64.779  1.00  0.00    -0.351 A  
HETATM   14  C   UNL     1     -11.107  12.115  66.035  1.00  0.00    -0.313 A  
HETATM   15  H   UNL     1     -12.877  12.140  71.966  1.00  0.00     0.000 HD 
HETATM   16  C   UNL     1     -11.029  11.142  67.065  1.00  0.00    -0.348 A  
HETATM   17  C   UNL     1     -10.485   9.871  66.802  1.00  0.00    -0.261 A  
HETATM   18  C   UNL     1     -11.533   8.490  71.529  1.00  0.00    -0.350 A  
HETATM   19  O   UNL     1     -11.907  12.578  68.742  1.00  0.00    -0.306 OA 
HETATM   20  C   UNL     1     -11.020   8.180  70.267  1.00  0.00    -0.240 A  
HETATM   21  C   UNL     1     -10.571   8.801  67.841  1.00  0.00    -0.174 C  
HETATM   22  O   UNL     1     -10.351   7.635  67.530  1.00  0.00    -0.212 OA 
HETATM   23  C   UNL     1     -12.038   9.758  71.773  1.00  0.00    -0.425 A  
HETATM   24  C   UNL     1     -11.028   9.130  69.216  1.00  0.00    -0.081 A  
HETATM   25  O   UNL     1     -12.535  11.935  71.103  1.00  0.00    -0.348 OA 
HETATM   26  H   UNL     1     -10.521   6.285  70.774  1.00  0.00     0.000 HD 
HETATM   27  C   UNL     1     -11.516  10.410  69.481  1.00  0.00    -0.311 A  
HETATM   28  O   UNL     1     -10.526   6.922  70.070  1.00  0.00    -0.196 OA 
HETATM   29  C   UNL     1     -12.024  10.712  70.761  1.00  0.00    -0.374 A  
HETATM   30  C   UNL     1     -11.526  11.447  68.433  1.00  0.00    -0.299 C  
BRANCH  14  31
HETATM   31  N   UNL     1     -11.758  13.327  66.190  1.00  0.00    -0.356 NA 
HETATM   32  H   UNL     1     -12.542  13.379  66.841  1.00  0.00     0.000 HD 
BRANCH  31  33
HETATM   33  C   UNL     1     -11.374  14.531  65.466  1.00  0.00    -0.335 C  
BRANCH  33  34
HETATM   34  C   UNL     1     -10.985  15.653  66.443  1.00  0.00    -0.197 C  
BRANCH  34  35
HETATM   35  N   UNL     1     -10.734  15.125  67.792  1.00  0.00    -0.271 NA 
HETATM   36  H   UNL     1      -9.739  15.113  68.017  1.00  0.00     0.000 HD 
BRANCH  35  37
HETATM   37  C   UNL     1     -11.511  15.874  68.788  1.00  0.00    -0.393 C  
BRANCH  37  38
HETATM   38  C   UNL     1     -10.820  15.831  70.153  1.00  0.00    -0.351 C  
HETATM   39  O   UNL     1     -11.089  14.594  70.808  1.00  0.00    -0.501 OA 
HETATM   40  H   UNL     1     -10.661  14.567  71.655  1.00  0.00     0.000 HD 
ENDBRANCH  37  38
ENDBRANCH  35  37
ENDBRANCH  34  35
ENDBRANCH  33  34
ENDBRANCH  31  33
ENDBRANCH  14  31
ENDBRANCH   9  11
ENDBRANCH   8   9
ENDBRANCH   7   8
ENDBRANCH   5   7
ENDBRANCH   4   5
ENDBRANCH   3   4
TORSDOF 12
ENDMDL
MODEL       76
REMARK 921   NORMALIZED FREE ENERGY PREDICTED BY IDOCK:   -4.86 KCAL/MOL
REMARK 922        TOTAL FREE ENERGY PREDICTED BY IDOCK:  -10.53 KCAL/MOL
REMARK 923 INTER-LIGAND FREE ENERGY PREDICTED BY IDOCK:   -8.36 KCAL/MOL
REMARK 924 INTRA-LIGAND FREE ENERGY PREDICTED BY IDOCK:   -2.17 KCAL/MOL
REMARK 927      BINDING AFFINITY PREDICTED BY RF-SCORE:    0.00 PKD
ROOT
HETATM    1  O   UNL     1      -9.575  12.035  64.306  1.00  0.00    -0.464 OA 
HETATM    2  H   UNL     1      -8.827  11.530  64.010  1.00  0.00     0.000 HD 
HETATM    3  C   UNL     1     -10.621  11.980  63.339  1.00  0.00    -0.428 C  
ENDROOT
BRANCH   3   4
HETATM    4  C   UNL     1     -11.827  12.793  63.817  1.00  0.00    -0.499 C  
BRANCH   4   5
HETATM    5  N   UNL     1     -11.473  13.860  64.766  1.00  0.00    -0.347 NA 
HETATM    6  H   UNL     1     -11.492  14.776  64.317  1.00  0.00     0.000 HD 
BRANCH   5   7
HETATM    7  C   UNL     1     -12.324  13.833  65.963  1.00  0.00    -0.457 C  
BRANCH   7   8
HETATM    8  C   UNL     1     -11.576  13.199  67.142  1.00  0.00    -0.361 C  
BRANCH   8   9
HETATM    9  N   UNL     1     -12.017  11.833  67.361  1.00  0.00    -0.612 NA 
HETATM   10  H   UNL     1     -12.624  11.398  66.666  1.00  0.00     0.000 HD 
BRANCH   9  11
HETATM   11  C   UNL     1     -11.646  11.094  68.474  1.00  0.00    -0.314 A  
HETATM   12  C   UNL     1     -12.238  11.374  69.705  1.00  0.00    -0.332 A  
HETATM   13  C   UNL     1     -11.875  10.685  70.850  1.00  0.00    -0.433 A  
HETATM   14  C   UNL     1     -10.844   9.743  70.836  1.00  0.00    -0.328 A  
HETATM   15  H   UNL     1      -6.216   5.942  69.274  1.00  0.00     0.000 HD 
HETATM   16  C   UNL     1     -10.207   9.463  69.599  1.00  0.00    -0.225 A  
HETATM   17  C   UNL     1     -10.642  10.091  68.417  1.00  0.00    -0.253 A  
HETATM   18  C   UNL     1      -7.258   7.429  65.807  1.00  0.00    -0.066 A  
HETATM   19  O   UNL     1      -8.589   8.007  70.552  1.00  0.00    -0.129 OA 
HETATM   20  C   UNL     1      -8.289   8.371  65.836  1.00  0.00    -0.134 A  
HETATM   21  C   UNL     1     -10.084   9.656  67.102  1.00  0.00    -0.218 C  
HETATM   22  O   UNL     1     -10.642   9.999  66.064  1.00  0.00    -0.120 OA 
HETATM   23  C   UNL     1      -6.827   6.844  66.988  1.00  0.00    -0.065 A  
HETATM   24  C   UNL     1      -8.927   8.725  67.051  1.00  0.00    -0.151 A  
HETATM   25  O   UNL     1      -6.921   6.578  69.303  1.00  0.00    -0.066 OA 
HETATM   26  H   UNL     1      -8.251   8.691  63.839  1.00  0.00     0.000 HD 
HETATM   27  C   UNL     1      -8.469   8.148  68.235  1.00  0.00    -0.130 A  
HETATM   28  O   UNL     1      -8.679   8.929  64.653  1.00  0.00    -0.172 OA 
HETATM   29  C   UNL     1      -7.423   7.204  68.193  1.00  0.00    -0.099 A  
HETATM   30  C   UNL     1      -9.078   8.497  69.532  1.00  0.00    -0.150 C  
BRANCH  14  31
HETATM   31  N   UNL     1     -10.561   9.056  72.003  1.00  0.00    -0.325 NA 
HETATM   32  H   UNL     1      -9.688   9.261  72.489  1.00  0.00     0.000 HD 
BRANCH  31  33
HETATM   33  C   UNL     1     -11.453   8.053  72.569  1.00  0.00    -0.409 C  
BRANCH  33  34
HETATM   34  C   UNL     1     -10.674   7.075  73.466  1.00  0.00    -0.332 C  
BRANCH  34  35
HETATM   35  N   UNL     1      -9.800   6.202  72.670  1.00  0.00    -0.167 NA 
HETATM   36  H   UNL     1      -9.293   5.536  73.255  1.00  0.00     0.000 HD 
BRANCH  35  37
HETATM   37  C   UNL     1     -10.570   5.528  71.617  1.00  0.00    -0.231 C  
BRANCH  37  38
HETATM   38  C   UNL     1      -9.735   4.426  70.961  1.00  0.00    -0.190 C  
HETATM   39  O   UNL     1      -9.551   4.699  69.574  1.00  0.00    -0.153 OA 
HETATM   40  H   UNL     1      -9.033   4.014  69.167  1.00  0.00     0.000 HD 
ENDBRANCH  37  38
ENDBRANCH  35  37
ENDBRANCH  34  35
ENDBRANCH  33  34
ENDBRANCH  31  33
ENDBRANCH  14  31
ENDBRANCH   9  11
ENDBRANCH   8   9
ENDBRANCH   7   8
ENDBRANCH   5   7
ENDBRANCH   4   5
ENDBRANCH   3   4
TORSDOF 12
ENDMDL
MODEL       77
REMARK 921   NORMALIZED FREE ENERGY PREDICTED BY IDOCK:   -4.83 KCAL/MOL
REMARK 922        TOTAL FREE ENERGY PREDICTED BY IDOCK:  -10.49 KCAL/MOL
REMARK 923 INTER-LIGAND FREE ENERGY PREDICTED BY IDOCK:   -8.89 KCAL/MOL
REMARK 924 INTRA-LIGAND FREE ENERGY PREDICTED BY IDOCK:   -1.60 KCAL/MOL
REMARK 927      BINDING AFFINITY PREDICTED BY RF-SCORE:    0.00 PKD
ROOT
HETATM    1  O   UNL     1     -14.173   9.143  72.986  1.00  0.00    -1.082 OA 
HETATM    2  H   UNL     1     -15.032   9.427  73.274  1.00  0.00     0.000 HD 
HETATM    3  C   UNL     1     -14.238   8.651  71.650  1.00  0.00    -0.387 C  
ENDROOT
BRANCH   3   4
HETATM    4  C   UNL     1     -12.853   8.193  71.186  1.00  0.00    -0.088 C  
BRANCH   4   5
HETATM    5  N   UNL     1     -11.770   9.102  71.594  1.00  0.00    -0.353 NA 
HETATM    6  H   UNL     1     -12.132   9.892  72.128  1.00  0.00     0.000 HD 
BRANCH   5   7
HETATM    7  C   UNL     1     -10.712   8.398  72.331  1.00  0.00    -0.335 C  
BRANCH   7   8
HETATM    8  C   UNL     1      -9.419   8.354  71.507  1.00  0.00    -0.203 C  
BRANCH   8   9
HETATM    9  N   UNL     1      -9.441   9.355  70.455  1.00  0.00    -0.259 NA 
HETATM   10  H   UNL     1      -9.487  10.339  70.718  1.00  0.00     0.000 HD 
BRANCH   9  11
HETATM   11  C   UNL     1      -9.401   9.029  69.108  1.00  0.00    -0.148 A  
HETATM   12  C   UNL     1      -8.751   7.862  68.709  1.00  0.00    -0.128 A  
HETATM   13  C   UNL     1      -8.657   7.513  67.372  1.00  0.00    -0.118 A  
HETATM   14  C   UNL     1      -9.133   8.355  66.366  1.00  0.00    -0.187 A  
HETATM   15  H   UNL     1     -11.644  12.978  63.105  1.00  0.00     0.000 HD 
HETATM   16  C   UNL     1      -9.773   9.563  66.748  1.00  0.00    -0.254 A  
HETATM   17  C   UNL     1      -9.956   9.871  68.108  1.00  0.00    -0.175 A  
HETATM   18  C   UNL     1     -12.405  14.067  66.787  1.00  0.00    -0.368 A  
HETATM   19  O   UNL     1     -10.030  10.346  64.519  1.00  0.00    -0.332 OA 
HETATM   20  C   UNL     1     -11.922  13.216  67.782  1.00  0.00    -0.307 A  
HETATM   21  C   UNL     1     -10.785  11.053  68.493  1.00  0.00    -0.202 C  
HETATM   22  O   UNL     1     -11.170  11.172  69.652  1.00  0.00    -0.250 OA 
HETATM   23  C   UNL     1     -12.188  13.757  65.452  1.00  0.00    -0.465 A  
HETATM   24  C   UNL     1     -11.232  12.021  67.458  1.00  0.00    -0.357 A  
HETATM   25  O   UNL     1     -11.315  12.391  63.776  1.00  0.00    -0.389 OA 
HETATM   26  H   UNL     1     -12.612  14.361  69.301  1.00  0.00     0.000 HD 
HETATM   27  C   UNL     1     -10.999  11.732  66.114  1.00  0.00    -0.355 A  
HETATM   28  O   UNL     1     -12.150  13.560  69.084  1.00  0.00    -0.329 OA 
HETATM   29  C   UNL     1     -11.486  12.604  65.118  1.00  0.00    -0.326 A  
HETATM   30  C   UNL     1     -10.265  10.517  65.717  1.00  0.00    -0.243 C  
BRANCH  14  31
HETATM   31  N   UNL     1      -9.051   7.927  65.052  1.00  0.00    -0.235 NA 
HETATM   32  H   UNL     1      -9.887   7.978  64.470  1.00  0.00     0.000 HD 
BRANCH  31  33
HETATM   33  C   UNL     1      -7.825   7.408  64.463  1.00  0.00    -0.129 C  
BRANCH  33  34
HETATM   34  C   UNL     1      -6.653   8.376  64.701  1.00  0.00    -0.065 C  
BRANCH  34  35
HETATM   35  N   UNL     1      -6.312   9.115  63.476  1.00  0.00    -0.089 NA 
HETATM   36  H   UNL     1      -6.651   8.640  62.639  1.00  0.00     0.000 HD 
BRANCH  35  37
HETATM   37  C   UNL     1      -6.803  10.496  63.559  1.00  0.00     0.072 C  
BRANCH  37  38
HETATM   38  C   UNL     1      -7.802  10.781  62.435  1.00  0.00    -0.151 C  
HETATM   39  O   UNL     1      -8.688  11.832  62.811  1.00  0.00    -0.651 OA 
HETATM   40  H   UNL     1      -9.309  12.008  62.114  1.00  0.00     0.000 HD 
ENDBRANCH  37  38
ENDBRANCH  35  37
ENDBRANCH  34  35
ENDBRANCH  33  34
ENDBRANCH  31  33
ENDBRANCH  14  31
ENDBRANCH   9  11
ENDBRANCH   8   9
ENDBRANCH   7   8
ENDBRANCH   5   7
ENDBRANCH   4   5
ENDBRANCH   3   4
TORSDOF 12
ENDMDL
MODEL       78
REMARK 921   NORMALIZED FREE ENERGY PREDICTED BY IDOCK:   -4.83 KCAL/MOL
REMARK 922        TOTAL FREE ENERGY PREDICTED BY IDOCK:  -10.48 KCAL/MOL
REMARK 923 INTER-LIGAND FREE ENERGY PREDICTED BY IDOCK:   -8.95 KCAL/MOL
REMARK 924 INTRA-LIGAND FREE ENERGY PREDICTED BY IDOCK:   -1.53 KCAL/MOL
REMARK 927      BINDING AFFINITY PREDICTED BY RF-SCORE:    0.00 PKD
ROOT
HETATM    1  O   UNL     1      -7.542   9.331  71.491  1.00  0.00    -0.340 OA 
HETATM    2  H   UNL     1      -7.810   8.553  71.966  1.00  0.00     0.000 HD 
HETATM    3  C   UNL     1      -6.287   9.111  70.853  1.00  0.00    -0.070 C  
ENDROOT
BRANCH   3   4
HETATM    4  C   UNL     1      -5.856  10.366  70.088  1.00  0.00    -0.074 C  
BRANCH   4   5
HETATM    5  N   UNL     1      -6.556  11.584  70.521  1.00  0.00    -0.473 NA 
HETATM    6  H   UNL     1      -7.024  11.444  71.416  1.00  0.00     0.000 HD 
BRANCH   5   7
HETATM    7  C   UNL     1      -5.660  12.747  70.562  1.00  0.00    -0.173 C  
BRANCH   7   8
HETATM    8  C   UNL     1      -5.437  13.307  69.152  1.00  0.00    -0.074 C  
BRANCH   8   9
HETATM    9  N   UNL     1      -6.363  14.390  68.872  1.00  0.00    -0.087 NA 
HETATM   10  H   UNL     1      -6.239  15.277  69.360  1.00  0.00     0.000 HD 
BRANCH   9  11
HETATM   11  C   UNL     1      -7.408  14.269  67.968  1.00  0.00    -0.142 A  
HETATM   12  C   UNL     1      -7.708  13.015  67.437  1.00  0.00    -0.159 A  
HETATM   13  C   UNL     1      -8.720  12.853  66.507  1.00  0.00     0.039 A  
HETATM   14  C   UNL     1      -9.425  13.946  66.000  1.00  0.00    -0.118 A  
HETATM   15  H   UNL     1     -11.627  19.585  64.711  1.00  0.00     0.000 HD 
HETATM   16  C   UNL     1      -9.117  15.236  66.505  1.00  0.00    -0.334 A  
HETATM   17  C   UNL     1      -8.156  15.391  67.521  1.00  0.00    -0.187 A  
HETATM   18  C   UNL     1      -9.099  20.336  67.604  1.00  0.00    -0.423 A  
HETATM   19  O   UNL     1     -10.574  16.371  65.010  1.00  0.00    -0.651 OA 
HETATM   20  C   UNL     1      -8.400  19.233  68.100  1.00  0.00    -0.323 A  
HETATM   21  C   UNL     1      -7.970  16.726  68.165  1.00  0.00    -0.181 C  
HETATM   22  O   UNL     1      -7.343  16.810  69.217  1.00  0.00    -0.237 OA 
HETATM   23  C   UNL     1     -10.021  20.164  66.582  1.00  0.00    -0.595 A  
HETATM   24  C   UNL     1      -8.633  17.928  67.598  1.00  0.00    -0.242 A  
HETATM   25  O   UNL     1     -11.159  18.829  65.046  1.00  0.00    -0.457 OA 
HETATM   26  H   UNL     1      -7.341  20.321  69.437  1.00  0.00     0.000 HD 
HETATM   27  C   UNL     1      -9.545  17.771  66.554  1.00  0.00    -0.315 A  
HETATM   28  O   UNL     1      -7.497  19.446  69.100  1.00  0.00    -0.358 OA 
HETATM   29  C   UNL     1     -10.238  18.894  66.057  1.00  0.00    -0.387 A  
HETATM   30  C   UNL     1      -9.809  16.441  65.974  1.00  0.00    -0.335 C  
BRANCH  14  31
HETATM   31  N   UNL     1     -10.456  13.711  65.108  1.00  0.00    -0.353 NA 
HETATM   32  H   UNL     1     -10.344  14.021  64.142  1.00  0.00     0.000 HD 
BRANCH  31  33
HETATM   33  C   UNL     1     -11.693  13.042  65.484  1.00  0.00    -0.368 C  
BRANCH  33  34
HETATM   34  C   UNL     1     -12.246  13.617  66.799  1.00  0.00    -0.369 C  
BRANCH  34  35
HETATM   35  N   UNL     1     -12.027  12.692  67.921  1.00  0.00    -0.350 NA 
HETATM   36  H   UNL     1     -11.506  11.863  67.634  1.00  0.00     0.000 HD 
BRANCH  35  37
HETATM   37  C   UNL     1     -11.377  13.388  69.039  1.00  0.00    -0.287 C  
BRANCH  37  38
HETATM   38  C   UNL     1     -12.059  14.733  69.305  1.00  0.00    -0.261 C  
HETATM   39  O   UNL     1     -11.089  15.775  69.383  1.00  0.00    -0.267 OA 
HETATM   40  H   UNL     1     -11.512  16.610  69.549  1.00  0.00     0.000 HD 
ENDBRANCH  37  38
ENDBRANCH  35  37
ENDBRANCH  34  35
ENDBRANCH  33  34
ENDBRANCH  31  33
ENDBRANCH  14  31
ENDBRANCH   9  11
ENDBRANCH   8   9
ENDBRANCH   7   8
ENDBRANCH   5   7
ENDBRANCH   4   5
ENDBRANCH   3   4
TORSDOF 12
ENDMDL
MODEL       79
REMARK 921   NORMALIZED FREE ENERGY PREDICTED BY IDOCK:   -4.83 KCAL/MOL
REMARK 922        TOTAL FREE ENERGY PREDICTED BY IDOCK:  -10.48 KCAL/MOL
REMARK 923 INTER-LIGAND FREE ENERGY PREDICTED BY IDOCK:  -10.20 KCAL/MOL
REMARK 924 INTRA-LIGAND FREE ENERGY PREDICTED BY IDOCK:   -0.28 KCAL/MOL
REMARK 927      BINDING AFFINITY PREDICTED BY RF-SCORE:    0.00 PKD
ROOT
HETATM    1  O   UNL     1      -7.333  18.636  65.255  1.00  0.00    -0.450 OA 
HETATM    2  H   UNL     1      -6.783  17.891  65.044  1.00  0.00     0.000 HD 
HETATM    3  C   UNL     1      -6.947  19.193  66.509  1.00  0.00    -0.208 C  
ENDROOT
BRANCH   3   4
HETATM    4  C   UNL     1      -7.834  20.394  66.851  1.00  0.00    -0.294 C  
BRANCH   4   5
HETATM    5  N   UNL     1      -9.210  20.265  66.350  1.00  0.00    -0.585 NA 
HETATM    6  H   UNL     1      -9.238  19.748  65.471  1.00  0.00     0.000 HD 
BRANCH   5   7
HETATM    7  C   UNL     1     -10.104  19.666  67.350  1.00  0.00    -0.410 C  
BRANCH   7   8
HETATM    8  C   UNL     1     -10.579  18.282  66.889  1.00  0.00    -0.329 C  
BRANCH   8   9
HETATM    9  N   UNL     1     -10.507  17.321  67.976  1.00  0.00    -0.360 NA 
HETATM   10  H   UNL     1     -10.700  17.641  68.925  1.00  0.00     0.000 HD 
BRANCH   9  11
HETATM   11  C   UNL     1     -10.188  15.986  67.777  1.00  0.00    -0.260 A  
HETATM   12  C   UNL     1      -9.335  15.639  66.731  1.00  0.00    -0.268 A  
HETATM   13  C   UNL     1      -9.015  14.316  66.474  1.00  0.00    -0.161 A  
HETATM   14  C   UNL     1      -9.598  13.273  67.196  1.00  0.00    -0.240 A  
HETATM   15  H   UNL     1     -12.890   9.814  71.135  1.00  0.00     0.000 HD 
HETATM   16  C   UNL     1     -10.492  13.603  68.248  1.00  0.00    -0.253 A  
HETATM   17  C   UNL     1     -10.742  14.949  68.573  1.00  0.00    -0.245 A  
HETATM   18  C   UNL     1     -13.705  13.443  72.356  1.00  0.00    -0.698 A  
HETATM   19  O   UNL     1     -11.073  11.345  68.708  1.00  0.00    -0.199 OA 
HETATM   20  C   UNL     1     -13.115  14.475  71.623  1.00  0.00    -0.343 A  
HETATM   21  C   UNL     1     -11.543  15.278  69.791  1.00  0.00    -0.314 C  
HETATM   22  O   UNL     1     -11.538  16.425  70.228  1.00  0.00    -0.234 OA 
HETATM   23  C   UNL     1     -13.466  12.123  71.999  1.00  0.00    -0.388 A  
HETATM   24  C   UNL     1     -12.253  14.204  70.532  1.00  0.00    -0.431 A  
HETATM   25  O   UNL     1     -12.481  10.510  70.634  1.00  0.00    -0.317 OA 
HETATM   26  H   UNL     1     -13.959  15.942  72.733  1.00  0.00     0.000 HD 
HETATM   27  C   UNL     1     -12.040  12.874  70.168  1.00  0.00    -0.373 A  
HETATM   28  O   UNL     1     -13.381  15.760  72.002  1.00  0.00    -0.459 OA 
HETATM   29  C   UNL     1     -12.646  11.841  70.911  1.00  0.00    -0.289 A  
HETATM   30  C   UNL     1     -11.173  12.532  69.025  1.00  0.00    -0.268 C  
BRANCH  14  31
HETATM   31  N   UNL     1      -9.201  11.976  66.922  1.00  0.00    -0.191 NA 
HETATM   32  H   UNL     1      -8.378  11.608  67.400  1.00  0.00     0.000 HD 
BRANCH  31  33
HETATM   33  C   UNL     1      -9.903  11.114  65.982  1.00  0.00    -0.228 C  
BRANCH  33  34
HETATM   34  C   UNL     1     -10.067  11.811  64.621  1.00  0.00    -0.272 C  
BRANCH  34  35
HETATM   35  N   UNL     1     -10.490  10.862  63.581  1.00  0.00    -0.529 NA 
HETATM   36  H   UNL     1     -11.372  11.138  63.149  1.00  0.00     0.000 HD 
BRANCH  35  37
HETATM   37  C   UNL     1      -9.425  10.685  62.586  1.00  0.00    -0.301 C  
BRANCH  37  38
HETATM   38  C   UNL     1      -8.349   9.732  63.112  1.00  0.00    -0.166 C  
HETATM   39  O   UNL     1      -7.051  10.281  62.901  1.00  0.00    -0.133 OA 
HETATM   40  H   UNL     1      -6.383   9.689  63.227  1.00  0.00     0.000 HD 
ENDBRANCH  37  38
ENDBRANCH  35  37
ENDBRANCH  34  35
ENDBRANCH  33  34
ENDBRANCH  31  33
ENDBRANCH  14  31
ENDBRANCH   9  11
ENDBRANCH   8   9
ENDBRANCH   7   8
ENDBRANCH   5   7
ENDBRANCH   4   5
ENDBRANCH   3   4
TORSDOF 12
ENDMDL
MODEL       80
REMARK 921   NORMALIZED FREE ENERGY PREDICTED BY IDOCK:   -4.82 KCAL/MOL
REMARK 922        TOTAL FREE ENERGY PREDICTED BY IDOCK:  -10.47 KCAL/MOL
REMARK 923 INTER-LIGAND FREE ENERGY PREDICTED BY IDOCK:   -8.82 KCAL/MOL
REMARK 924 INTRA-LIGAND FREE ENERGY PREDICTED BY IDOCK:   -1.66 KCAL/MOL
REMARK 927      BINDING AFFINITY PREDICTED BY RF-SCORE:    0.00 PKD
ROOT
HETATM    1  O   UNL     1      -6.548  20.518  71.966  1.00  0.00    -0.743 OA 
HETATM    2  H   UNL     1      -6.137  20.898  72.733  1.00  0.00     0.000 HD 
HETATM    3  C   UNL     1      -5.555  20.064  71.050  1.00  0.00    -0.303 C  
ENDROOT
BRANCH   3   4
HETATM    4  C   UNL     1      -6.218  19.451  69.813  1.00  0.00    -0.280 C  
BRANCH   4   5
HETATM    5  N   UNL     1      -5.405  18.406  69.172  1.00  0.00    -0.194 NA 
HETATM    6  H   UNL     1      -4.439  18.434  69.501  1.00  0.00     0.000 HD 
BRANCH   5   7
HETATM    7  C   UNL     1      -5.991  17.071  69.346  1.00  0.00    -0.216 C  
BRANCH   7   8
HETATM    8  C   UNL     1      -7.462  17.066  68.912  1.00  0.00    -0.237 C  
BRANCH   8   9
HETATM    9  N   UNL     1      -8.127  15.852  69.349  1.00  0.00    -0.225 NA 
HETATM   10  H   UNL     1      -7.797  15.393  70.198  1.00  0.00     0.000 HD 
BRANCH   9  11
HETATM   11  C   UNL     1      -9.194  15.292  68.662  1.00  0.00    -0.201 A  
HETATM   12  C   UNL     1     -10.317  16.073  68.393  1.00  0.00    -0.251 A  
HETATM   13  C   UNL     1     -11.418  15.546  67.740  1.00  0.00    -0.247 A  
HETATM   14  C   UNL     1     -11.484  14.194  67.400  1.00  0.00    -0.345 A  
HETATM   15  H   UNL     1     -10.370   8.167  66.535  1.00  0.00     0.000 HD 
HETATM   16  C   UNL     1     -10.363  13.373  67.690  1.00  0.00    -0.238 A  
HETATM   17  C   UNL     1      -9.206  13.928  68.266  1.00  0.00    -0.207 A  
HETATM   18  C   UNL     1      -6.973   9.422  68.021  1.00  0.00    -0.079 A  
HETATM   19  O   UNL     1     -11.420  11.365  66.986  1.00  0.00    -0.452 OA 
HETATM   20  C   UNL     1      -6.922  10.776  68.358  1.00  0.00    -0.070 A  
HETATM   21  C   UNL     1      -7.975  13.092  68.401  1.00  0.00    -0.130 C  
HETATM   22  O   UNL     1      -6.899  13.632  68.644  1.00  0.00    -0.084 OA 
HETATM   23  C   UNL     1      -8.135   8.890  67.481  1.00  0.00    -0.109 A  
HETATM   24  C   UNL     1      -8.030  11.632  68.135  1.00  0.00    -0.141 A  
HETATM   25  O   UNL     1     -10.342   9.091  66.757  1.00  0.00    -0.261 OA 
HETATM   26  H   UNL     1      -5.020  10.685  69.042  1.00  0.00     0.000 HD 
HETATM   27  C   UNL     1      -9.201  11.081  67.614  1.00  0.00    -0.151 A  
HETATM   28  O   UNL     1      -5.763  11.258  68.893  1.00  0.00    -0.043 OA 
HETATM   29  C   UNL     1      -9.241   9.711  67.285  1.00  0.00    -0.134 A  
HETATM   30  C   UNL     1     -10.393  11.917  67.385  1.00  0.00    -0.207 C  
BRANCH  14  31
HETATM   31  N   UNL     1     -12.592  13.740  66.706  1.00  0.00    -0.394 NA 
HETATM   32  H   UNL     1     -13.132  12.970  67.102  1.00  0.00     0.000 HD 
BRANCH  31  33
HETATM   33  C   UNL     1     -13.023  14.312  65.438  1.00  0.00    -0.208 C  
BRANCH  33  34
HETATM   34  C   UNL     1     -11.926  14.158  64.371  1.00  0.00    -0.457 C  
BRANCH  34  35
HETATM   35  N   UNL     1     -12.418  13.416  63.201  1.00  0.00    -0.904 NA 
HETATM   36  H   UNL     1     -12.042  13.788  62.329  1.00  0.00     0.000 HD 
BRANCH  35  37
HETATM   37  C   UNL     1     -12.140  11.982  63.351  1.00  0.00    -0.493 C  
BRANCH  37  38
HETATM   38  C   UNL     1     -10.652  11.750  63.628  1.00  0.00    -0.439 C  
HETATM   39  O   UNL     1     -10.440  10.431  64.126  1.00  0.00    -0.374 OA 
HETATM   40  H   UNL     1      -9.517  10.286  64.299  1.00  0.00     0.000 HD 
ENDBRANCH  37  38
ENDBRANCH  35  37
ENDBRANCH  34  35
ENDBRANCH  33  34
ENDBRANCH  31  33
ENDBRANCH  14  31
ENDBRANCH   9  11
ENDBRANCH   8   9
ENDBRANCH   7   8
ENDBRANCH   5   7
ENDBRANCH   4   5
ENDBRANCH   3   4
TORSDOF 12
ENDMDL
MODEL       81
REMARK 921   NORMALIZED FREE ENERGY PREDICTED BY IDOCK:   -4.82 KCAL/MOL
REMARK 922        TOTAL FREE ENERGY PREDICTED BY IDOCK:  -10.46 KCAL/MOL
REMARK 923 INTER-LIGAND FREE ENERGY PREDICTED BY IDOCK:  -10.05 KCAL/MOL
REMARK 924 INTRA-LIGAND FREE ENERGY PREDICTED BY IDOCK:   -0.41 KCAL/MOL
REMARK 927      BINDING AFFINITY PREDICTED BY RF-SCORE:    0.00 PKD
ROOT
HETATM    1  O   UNL     1     -11.555  10.053  67.999  1.00  0.00    -0.644 OA 
HETATM    2  H   UNL     1     -12.052  10.182  67.200  1.00  0.00     0.000 HD 
HETATM    3  C   UNL     1     -10.294   9.458  67.703  1.00  0.00    -0.246 C  
ENDROOT
BRANCH   3   4
HETATM    4  C   UNL     1      -9.492   9.250  68.991  1.00  0.00    -0.155 C  
BRANCH   4   5
HETATM    5  N   UNL     1      -9.016  10.505  69.592  1.00  0.00    -0.398 NA 
HETATM    6  H   UNL     1      -9.378  10.623  70.538  1.00  0.00     0.000 HD 
BRANCH   5   7
HETATM    7  C   UNL     1      -7.551  10.607  69.563  1.00  0.00    -0.124 C  
BRANCH   7   8
HETATM    8  C   UNL     1      -7.098  11.553  68.443  1.00  0.00    -0.081 C  
BRANCH   8   9
HETATM    9  N   UNL     1      -7.534  12.913  68.707  1.00  0.00    -0.242 NA 
HETATM   10  H   UNL     1      -7.166  13.394  69.528  1.00  0.00     0.000 HD 
BRANCH   9  11
HETATM   11  C   UNL     1      -8.429  13.586  67.888  1.00  0.00    -0.179 A  
HETATM   12  C   UNL     1      -9.334  12.854  67.122  1.00  0.00    -0.229 A  
HETATM   13  C   UNL     1     -10.223  13.481  66.266  1.00  0.00    -0.299 A  
HETATM   14  C   UNL     1     -10.193  14.863  66.072  1.00  0.00    -0.301 A  
HETATM   15  H   UNL     1      -8.904  20.915  66.236  1.00  0.00     0.000 HD 
HETATM   16  C   UNL     1      -9.259  15.627  66.820  1.00  0.00    -0.275 A  
HETATM   17  C   UNL     1      -8.422  15.001  67.762  1.00  0.00    -0.161 A  
HETATM   18  C   UNL     1      -6.526  19.497  69.004  1.00  0.00    -0.342 A  
HETATM   19  O   UNL     1      -9.786  17.674  65.736  1.00  0.00    -0.537 OA 
HETATM   20  C   UNL     1      -6.567  18.113  69.186  1.00  0.00    -0.255 A  
HETATM   21  C   UNL     1      -7.573  15.835  68.665  1.00  0.00    -0.150 C  
HETATM   22  O   UNL     1      -7.056  15.324  69.654  1.00  0.00    -0.179 OA 
HETATM   23  C   UNL     1      -7.340  20.089  68.049  1.00  0.00    -0.326 A  
HETATM   24  C   UNL     1      -7.445  17.296  68.431  1.00  0.00    -0.234 A  
HETATM   25  O   UNL     1      -8.941  19.973  66.358  1.00  0.00    -0.351 OA 
HETATM   26  H   UNL     1      -5.156  18.116  70.637  1.00  0.00     0.000 HD 
HETATM   27  C   UNL     1      -8.241  17.900  67.458  1.00  0.00    -0.228 A  
HETATM   28  O   UNL     1      -5.745  17.569  70.131  1.00  0.00    -0.240 OA 
HETATM   29  C   UNL     1      -8.186  19.297  67.278  1.00  0.00    -0.277 A  
HETATM   30  C   UNL     1      -9.156  17.098  66.624  1.00  0.00    -0.258 C  
BRANCH  14  31
HETATM   31  N   UNL     1     -11.139  15.434  65.238  1.00  0.00    -0.367 NA 
HETATM   32  H   UNL     1     -11.296  16.441  65.299  1.00  0.00     0.000 HD 
BRANCH  31  33
HETATM   33  C   UNL     1     -11.918  14.665  64.279  1.00  0.00    -0.386 C  
BRANCH  33  34
HETATM   34  C   UNL     1     -13.001  13.840  64.994  1.00  0.00    -0.162 C  
BRANCH  34  35
HETATM   35  N   UNL     1     -13.088  12.479  64.444  1.00  0.00    -0.807 NA 
HETATM   36  H   UNL     1     -14.040  12.241  64.166  1.00  0.00     0.000 HD 
BRANCH  35  37
HETATM   37  C   UNL     1     -12.137  12.314  63.337  1.00  0.00    -0.516 C  
BRANCH  37  38
HETATM   38  C   UNL     1     -10.982  11.399  63.752  1.00  0.00    -0.370 C  
HETATM   39  O   UNL     1     -10.531  10.631  62.639  1.00  0.00    -0.730 OA 
HETATM   40  H   UNL     1      -9.815  10.063  62.896  1.00  0.00     0.000 HD 
ENDBRANCH  37  38
ENDBRANCH  35  37
ENDBRANCH  34  35
ENDBRANCH  33  34
ENDBRANCH  31  33
ENDBRANCH  14  31
ENDBRANCH   9  11
ENDBRANCH   8   9
ENDBRANCH   7   8
ENDBRANCH   5   7
ENDBRANCH   4   5
ENDBRANCH   3   4
TORSDOF 12
ENDMDL
MODEL       82
REMARK 921   NORMALIZED FREE ENERGY PREDICTED BY IDOCK:   -4.82 KCAL/MOL
REMARK 922        TOTAL FREE ENERGY PREDICTED BY IDOCK:  -10.46 KCAL/MOL
REMARK 923 INTER-LIGAND FREE ENERGY PREDICTED BY IDOCK:  -10.31 KCAL/MOL
REMARK 924 INTRA-LIGAND FREE ENERGY PREDICTED BY IDOCK:   -0.15 KCAL/MOL
REMARK 927      BINDING AFFINITY PREDICTED BY RF-SCORE:    0.00 PKD
ROOT
HETATM    1  O   UNL     1     -10.851  17.745  67.402  1.00  0.00    -0.318 OA 
HETATM    2  H   UNL     1     -10.955  18.536  67.917  1.00  0.00     0.000 HD 
HETATM    3  C   UNL     1     -10.633  18.074  66.032  1.00  0.00    -0.251 C  
ENDROOT
BRANCH   3   4
HETATM    4  C   UNL     1     -10.466  16.799  65.201  1.00  0.00    -0.047 C  
BRANCH   4   5
HETATM    5  N   UNL     1     -11.464  16.665  64.130  1.00  0.00    -1.440 NA 
HETATM    6  H   UNL     1     -11.120  17.056  63.252  1.00  0.00     0.000 HD 
BRANCH   5   7
HETATM    7  C   UNL     1     -11.902  15.273  63.958  1.00  0.00     0.022 C  
BRANCH   7   8
HETATM    8  C   UNL     1     -12.171  14.621  65.321  1.00  0.00    -0.249 C  
BRANCH   8   9
HETATM    9  N   UNL     1     -10.942  14.107  65.900  1.00  0.00    -0.293 NA 
HETATM   10  H   UNL     1     -10.109  14.695  65.878  1.00  0.00     0.000 HD 
BRANCH   9  11
HETATM   11  C   UNL     1     -10.855  12.851  66.482  1.00  0.00    -0.271 A  
HETATM   12  C   UNL     1     -10.336  11.792  65.739  1.00  0.00    -0.293 A  
HETATM   13  C   UNL     1     -10.261  10.514  66.267  1.00  0.00    -0.296 A  
HETATM   14  C   UNL     1     -10.777  10.217  67.529  1.00  0.00    -0.290 A  
HETATM   15  H   UNL     1     -13.416  10.407  73.125  1.00  0.00     0.000 HD 
HETATM   16  C   UNL     1     -11.336  11.275  68.292  1.00  0.00    -0.359 A  
HETATM   17  C   UNL     1     -11.325  12.592  67.796  1.00  0.00    -0.351 A  
HETATM   18  C   UNL     1     -13.436  14.180  72.082  1.00  0.00    -0.545 A  
HETATM   19  O   UNL     1     -12.070   9.862  70.055  1.00  0.00    -0.106 OA 
HETATM   20  C   UNL     1     -12.918  14.462  70.817  1.00  0.00    -0.326 A  
HETATM   21  C   UNL     1     -11.754  13.718  68.680  1.00  0.00    -0.356 C  
HETATM   22  O   UNL     1     -11.495  14.873  68.358  1.00  0.00    -0.290 OA 
HETATM   23  C   UNL     1     -13.463  12.871  72.539  1.00  0.00    -0.456 A  
HETATM   24  C   UNL     1     -12.391  13.437  69.992  1.00  0.00    -0.294 A  
HETATM   25  O   UNL     1     -13.057  10.591  72.264  1.00  0.00    -0.394 OA 
HETATM   26  H   UNL     1     -13.269  16.450  70.954  1.00  0.00     0.000 HD 
HETATM   27  C   UNL     1     -12.446  12.121  70.452  1.00  0.00    -0.224 A  
HETATM   28  O   UNL     1     -12.916  15.763  70.402  1.00  0.00    -0.409 OA 
HETATM   29  C   UNL     1     -12.978  11.849  71.729  1.00  0.00    -0.350 A  
HETATM   30  C   UNL     1     -11.936  11.010  69.628  1.00  0.00    -0.353 C  
BRANCH  14  31
HETATM   31  N   UNL     1     -10.628   8.931  68.018  1.00  0.00    -0.384 NA 
HETATM   32  H   UNL     1     -11.061   8.697  68.912  1.00  0.00     0.000 HD 
BRANCH  31  33
HETATM   33  C   UNL     1      -9.882   7.897  67.316  1.00  0.00    -0.195 C  
BRANCH  33  34
HETATM   34  C   UNL     1     -10.726   6.619  67.172  1.00  0.00    -0.370 C  
BRANCH  34  35
HETATM   35  N   UNL     1     -10.241   5.779  66.067  1.00  0.00    -0.417 NA 
HETATM   36  H   UNL     1      -9.900   6.339  65.285  1.00  0.00     0.000 HD 
BRANCH  35  37
HETATM   37  C   UNL     1      -9.224   4.835  66.549  1.00  0.00    -0.133 C  
BRANCH  37  38
HETATM   38  C   UNL     1      -9.842   3.834  67.528  1.00  0.00     0.030 C  
HETATM   39  O   UNL     1      -9.872   2.530  66.953  1.00  0.00    -0.299 OA 
HETATM   40  H   UNL     1     -10.256   1.908  67.560  1.00  0.00     0.000 HD 
ENDBRANCH  37  38
ENDBRANCH  35  37
ENDBRANCH  34  35
ENDBRANCH  33  34
ENDBRANCH  31  33
ENDBRANCH  14  31
ENDBRANCH   9  11
ENDBRANCH   8   9
ENDBRANCH   7   8
ENDBRANCH   5   7
ENDBRANCH   4   5
ENDBRANCH   3   4
TORSDOF 12
ENDMDL
MODEL       83
REMARK 921   NORMALIZED FREE ENERGY PREDICTED BY IDOCK:   -4.75 KCAL/MOL
REMARK 922        TOTAL FREE ENERGY PREDICTED BY IDOCK:  -10.34 KCAL/MOL
REMARK 923 INTER-LIGAND FREE ENERGY PREDICTED BY IDOCK:   -8.95 KCAL/MOL
REMARK 924 INTRA-LIGAND FREE ENERGY PREDICTED BY IDOCK:   -1.39 KCAL/MOL
REMARK 927      BINDING AFFINITY PREDICTED BY RF-SCORE:    0.00 PKD
ROOT
HETATM    1  O   UNL     1      -9.959   4.929  70.371  1.00  0.00    -0.210 OA 
HETATM    2  H   UNL     1      -9.771   5.006  71.299  1.00  0.00     0.000 HD 
HETATM    3  C   UNL     1      -9.255   3.821  69.815  1.00  0.00    -0.143 C  
ENDROOT
BRANCH   3   4
HETATM    4  C   UNL     1      -9.559   3.698  68.320  1.00  0.00    -0.099 C  
BRANCH   4   5
HETATM    5  N   UNL     1     -10.397   4.789  67.801  1.00  0.00    -0.017 NA 
HETATM    6  H   UNL     1     -10.498   5.537  68.488  1.00  0.00     0.000 HD 
BRANCH   5   7
HETATM    7  C   UNL     1      -9.897   5.304  66.520  1.00  0.00    -0.185 C  
BRANCH   7   8
HETATM    8  C   UNL     1      -8.533   5.980  66.705  1.00  0.00    -0.110 C  
BRANCH   8   9
HETATM    9  N   UNL     1      -8.614   7.399  66.411  1.00  0.00    -0.127 NA 
HETATM   10  H   UNL     1      -8.249   7.736  65.520  1.00  0.00     0.000 HD 
BRANCH   9  11
HETATM   11  C   UNL     1      -9.167   8.318  67.291  1.00  0.00    -0.138 A  
HETATM   12  C   UNL     1      -9.135   8.054  68.660  1.00  0.00    -0.140 A  
HETATM   13  C   UNL     1      -9.704   8.925  69.573  1.00  0.00    -0.173 A  
HETATM   14  C   UNL     1     -10.406  10.058  69.157  1.00  0.00    -0.216 A  
HETATM   15  H   UNL     1     -13.128  14.567  65.906  1.00  0.00     0.000 HD 
HETATM   16  C   UNL     1     -10.476  10.332  67.766  1.00  0.00    -0.269 A  
HETATM   17  C   UNL     1      -9.815   9.499  66.844  1.00  0.00    -0.262 A  
HETATM   18  C   UNL     1     -11.312  12.522  63.106  1.00  0.00    -0.165 A  
HETATM   19  O   UNL     1     -11.928  12.195  68.019  1.00  0.00    -0.465 OA 
HETATM   20  C   UNL     1     -10.616  11.391  63.537  1.00  0.00    -0.402 A  
HETATM   21  C   UNL     1      -9.749   9.897  65.405  1.00  0.00    -0.306 C  
HETATM   22  O   UNL     1      -8.959   9.332  64.656  1.00  0.00    -0.206 OA 
HETATM   23  C   UNL     1     -11.981  13.312  64.030  1.00  0.00    -0.525 A  
HETATM   24  C   UNL     1     -10.554  11.043  64.909  1.00  0.00    -0.328 A  
HETATM   25  O   UNL     1     -12.652  13.802  66.208  1.00  0.00    -0.416 OA 
HETATM   26  H   UNL     1     -10.019  10.869  61.675  1.00  0.00     0.000 HD 
HETATM   27  C   UNL     1     -11.250  11.831  65.826  1.00  0.00    -0.337 A  
HETATM   28  O   UNL     1      -9.978  10.636  62.595  1.00  0.00    -0.215 OA 
HETATM   29  C   UNL     1     -11.955  12.966  65.377  1.00  0.00    -0.426 A  
HETATM   30  C   UNL     1     -11.243  11.504  67.264  1.00  0.00    -0.301 C  
BRANCH  14  31
HETATM   31  N   UNL     1     -10.911  10.914  70.121  1.00  0.00    -0.462 NA 
HETATM   32  H   UNL     1     -10.717  11.912  70.035  1.00  0.00     0.000 HD 
BRANCH  31  33
HETATM   33  C   UNL     1     -11.705  10.454  71.251  1.00  0.00    -0.231 C  
BRANCH  33  34
HETATM   34  C   UNL     1     -13.201  10.433  70.893  1.00  0.00    -0.244 C  
BRANCH  34  35
HETATM   35  N   UNL     1     -13.754   9.074  70.986  1.00  0.00    -0.578 NA 
HETATM   36  H   UNL     1     -13.577   8.532  70.141  1.00  0.00     0.000 HD 
BRANCH  35  37
HETATM   37  C   UNL     1     -13.248   8.397  72.187  1.00  0.00    -0.318 C  
BRANCH  37  38
HETATM   38  C   UNL     1     -12.238   7.312  71.807  1.00  0.00    -0.334 C  
HETATM   39  O   UNL     1     -12.436   6.899  70.456  1.00  0.00    -0.601 OA 
HETATM   40  H   UNL     1     -11.810   6.225  70.220  1.00  0.00     0.000 HD 
ENDBRANCH  37  38
ENDBRANCH  35  37
ENDBRANCH  34  35
ENDBRANCH  33  34
ENDBRANCH  31  33
ENDBRANCH  14  31
ENDBRANCH   9  11
ENDBRANCH   8   9
ENDBRANCH   7   8
ENDBRANCH   5   7
ENDBRANCH   4   5
ENDBRANCH   3   4
TORSDOF 12
ENDMDL
MODEL       84
REMARK 921   NORMALIZED FREE ENERGY PREDICTED BY IDOCK:   -4.74 KCAL/MOL
REMARK 922        TOTAL FREE ENERGY PREDICTED BY IDOCK:  -10.33 KCAL/MOL
REMARK 923 INTER-LIGAND FREE ENERGY PREDICTED BY IDOCK:   -9.26 KCAL/MOL
REMARK 924 INTRA-LIGAND FREE ENERGY PREDICTED BY IDOCK:   -1.07 KCAL/MOL
REMARK 927      BINDING AFFINITY PREDICTED BY RF-SCORE:    0.00 PKD
ROOT
HETATM    1  O   UNL     1      -9.551   7.305  72.789  1.00  0.00    -0.146 OA 
HETATM    2  H   UNL     1      -9.106   7.840  73.435  1.00  0.00     0.000 HD 
HETATM    3  C   UNL     1     -10.747   6.759  73.340  1.00  0.00    -0.305 C  
ENDROOT
BRANCH   3   4
HETATM    4  C   UNL     1     -11.464   5.896  72.299  1.00  0.00    -0.297 C  
BRANCH   4   5
HETATM    5  N   UNL     1     -12.370   6.662  71.430  1.00  0.00    -0.339 NA 
HETATM    6  H   UNL     1     -12.764   6.074  70.695  1.00  0.00     0.000 HD 
BRANCH   5   7
HETATM    7  C   UNL     1     -13.427   7.337  72.196  1.00  0.00     0.031 C  
BRANCH   7   8
HETATM    8  C   UNL     1     -13.623   8.773  71.695  1.00  0.00    -0.383 C  
BRANCH   8   9
HETATM    9  N   UNL     1     -12.357   9.483  71.649  1.00  0.00    -0.372 NA 
HETATM   10  H   UNL     1     -11.586   9.145  72.224  1.00  0.00     0.000 HD 
BRANCH   9  11
HETATM   11  C   UNL     1     -12.153  10.602  70.855  1.00  0.00    -0.385 A  
HETATM   12  C   UNL     1     -12.639  11.837  71.282  1.00  0.00    -0.401 A  
HETATM   13  C   UNL     1     -12.488  12.974  70.507  1.00  0.00    -0.306 A  
HETATM   14  C   UNL     1     -11.920  12.917  69.233  1.00  0.00    -0.260 A  
HETATM   15  H   UNL     1      -9.273  11.155  63.922  1.00  0.00     0.000 HD 
HETATM   16  C   UNL     1     -11.444  11.664  68.766  1.00  0.00    -0.346 A  
HETATM   17  C   UNL     1     -11.509  10.526  69.592  1.00  0.00    -0.349 A  
HETATM   18  C   UNL     1      -9.205   7.843  66.008  1.00  0.00    -0.162 A  
HETATM   19  O   UNL     1     -10.889  12.473  66.602  1.00  0.00    -0.237 OA 
HETATM   20  C   UNL     1      -9.777   7.916  67.280  1.00  0.00    -0.176 A  
HETATM   21  C   UNL     1     -10.846   9.260  69.158  1.00  0.00    -0.133 C  
HETATM   22  O   UNL     1     -10.664   8.361  69.973  1.00  0.00    -0.233 OA 
HETATM   23  C   UNL     1      -9.178   8.971  65.200  1.00  0.00    -0.159 A  
HETATM   24  C   UNL     1     -10.312   9.131  67.778  1.00  0.00    -0.302 A  
HETATM   25  O   UNL     1      -9.660  11.215  64.788  1.00  0.00    -0.224 OA 
HETATM   26  H   UNL     1      -9.431   5.969  67.707  1.00  0.00     0.000 HD 
HETATM   27  C   UNL     1     -10.301  10.251  66.947  1.00  0.00    -0.298 A  
HETATM   28  O   UNL     1      -9.790   6.783  68.041  1.00  0.00    -0.133 OA 
HETATM   29  C   UNL     1      -9.726  10.163  65.663  1.00  0.00    -0.259 A  
HETATM   30  C   UNL     1     -10.866  11.535  67.401  1.00  0.00    -0.246 C  
BRANCH  14  31
HETATM   31  N   UNL     1     -11.755  14.097  68.529  1.00  0.00    -0.326 NA 
HETATM   32  H   UNL     1     -12.414  14.313  67.780  1.00  0.00     0.000 HD 
BRANCH  31  33
HETATM   33  C   UNL     1     -10.684  15.043  68.806  1.00  0.00    -0.241 C  
BRANCH  33  34
HETATM   34  C   UNL     1     -10.482  16.001  67.620  1.00  0.00    -0.292 C  
BRANCH  34  35
HETATM   35  N   UNL     1     -10.478  15.276  66.341  1.00  0.00    -0.294 NA 
HETATM   36  H   UNL     1     -10.056  14.351  66.430  1.00  0.00     0.000 HD 
BRANCH  35  37
HETATM   37  C   UNL     1     -11.836  15.207  65.788  1.00  0.00     0.074 C  
BRANCH  37  38
HETATM   38  C   UNL     1     -11.789  15.104  64.261  1.00  0.00    -0.251 C  
HETATM   39  O   UNL     1     -11.542  16.384  63.684  1.00  0.00    -1.514 OA 
HETATM   40  H   UNL     1     -11.514  16.320  62.736  1.00  0.00     0.000 HD 
ENDBRANCH  37  38
ENDBRANCH  35  37
ENDBRANCH  34  35
ENDBRANCH  33  34
ENDBRANCH  31  33
ENDBRANCH  14  31
ENDBRANCH   9  11
ENDBRANCH   8   9
ENDBRANCH   7   8
ENDBRANCH   5   7
ENDBRANCH   4   5
ENDBRANCH   3   4
TORSDOF 12
ENDMDL
MODEL       85
REMARK 921   NORMALIZED FREE ENERGY PREDICTED BY IDOCK:   -4.72 KCAL/MOL
REMARK 922        TOTAL FREE ENERGY PREDICTED BY IDOCK:  -10.29 KCAL/MOL
REMARK 923 INTER-LIGAND FREE ENERGY PREDICTED BY IDOCK:   -9.13 KCAL/MOL
REMARK 924 INTRA-LIGAND FREE ENERGY PREDICTED BY IDOCK:   -1.17 KCAL/MOL
REMARK 927      BINDING AFFINITY PREDICTED BY RF-SCORE:    0.00 PKD
ROOT
HETATM    1  O   UNL     1      -7.619  15.691  69.523  1.00  0.00    -0.217 OA 
HETATM    2  H   UNL     1      -7.346  15.316  70.352  1.00  0.00     0.000 HD 
HETATM    3  C   UNL     1      -6.496  16.232  68.833  1.00  0.00    -0.141 C  
ENDROOT
BRANCH   3   4
HETATM    4  C   UNL     1      -6.936  16.836  67.496  1.00  0.00    -0.143 C  
BRANCH   4   5
HETATM    5  N   UNL     1      -7.004  18.304  67.513  1.00  0.00    -0.198 NA 
HETATM    6  H   UNL     1      -6.306  18.715  66.893  1.00  0.00     0.000 HD 
BRANCH   5   7
HETATM    7  C   UNL     1      -8.353  18.795  67.198  1.00  0.00    -0.271 C  
BRANCH   7   8
HETATM    8  C   UNL     1      -9.312  18.525  68.364  1.00  0.00    -0.334 C  
BRANCH   8   9
HETATM    9  N   UNL     1     -10.541  17.912  67.893  1.00  0.00    -0.394 NA 
HETATM   10  H   UNL     1     -11.384  18.483  67.844  1.00  0.00     0.000 HD 
BRANCH   9  11
HETATM   11  C   UNL     1     -10.616  16.582  67.506  1.00  0.00    -0.313 A  
HETATM   12  C   UNL     1     -10.265  16.231  66.203  1.00  0.00    -0.361 A  
HETATM   13  C   UNL     1     -10.357  14.922  65.763  1.00  0.00    -0.351 A  
HETATM   14  C   UNL     1     -10.882  13.916  66.576  1.00  0.00    -0.295 A  
HETATM   15  H   UNL     1     -13.349  10.617  71.197  1.00  0.00     0.000 HD 
HETATM   16  C   UNL     1     -11.273  14.256  67.898  1.00  0.00    -0.305 A  
HETATM   17  C   UNL     1     -11.089  15.566  68.378  1.00  0.00    -0.315 A  
HETATM   18  C   UNL     1     -12.867  14.127  72.863  1.00  0.00    -0.433 A  
HETATM   19  O   UNL     1     -12.158  12.106  68.386  1.00  0.00    -0.369 OA 
HETATM   20  C   UNL     1     -12.342  15.123  72.037  1.00  0.00    -0.356 A  
HETATM   21  C   UNL     1     -11.338  15.865  69.820  1.00  0.00    -0.347 C  
HETATM   22  O   UNL     1     -10.929  16.918  70.300  1.00  0.00    -0.133 OA 
HETATM   23  C   UNL     1     -13.066  12.849  72.360  1.00  0.00    -0.340 A  
HETATM   24  C   UNL     1     -11.980  14.850  70.694  1.00  0.00    -0.363 A  
HETATM   25  O   UNL     1     -12.986  11.288  70.629  1.00  0.00    -0.180 OA 
HETATM   26  H   UNL     1     -12.411  16.551  73.469  1.00  0.00     0.000 HD 
HETATM   27  C   UNL     1     -12.207  13.569  70.192  1.00  0.00    -0.400 A  
HETATM   28  O   UNL     1     -12.169  16.368  72.569  1.00  0.00    -0.485 OA 
HETATM   29  C   UNL     1     -12.745  12.574  71.034  1.00  0.00    -0.225 A  
HETATM   30  C   UNL     1     -11.875  13.234  68.795  1.00  0.00    -0.334 C  
BRANCH  14  31
HETATM   31  N   UNL     1     -10.903  12.619  66.094  1.00  0.00    -0.268 NA 
HETATM   32  H   UNL     1     -11.732  12.050  66.264  1.00  0.00     0.000 HD 
BRANCH  31  33
HETATM   33  C   UNL     1      -9.795  12.030  65.355  1.00  0.00    -0.220 C  
BRANCH  33  34
HETATM   34  C   UNL     1      -8.997  11.064  66.247  1.00  0.00    -0.185 C  
BRANCH  34  35
HETATM   35  N   UNL     1      -9.588  10.964  67.589  1.00  0.00    -0.162 NA 
HETATM   36  H   UNL     1     -10.608  10.964  67.557  1.00  0.00     0.000 HD 
BRANCH  35  37
HETATM   37  C   UNL     1      -9.064   9.786  68.293  1.00  0.00    -0.122 C  
BRANCH  37  38
HETATM   38  C   UNL     1      -9.347   9.886  69.794  1.00  0.00    -0.221 C  
HETATM   39  O   UNL     1      -8.126   9.932  70.528  1.00  0.00    -0.345 OA 
HETATM   40  H   UNL     1      -8.301   9.994  71.460  1.00  0.00     0.000 HD 
ENDBRANCH  37  38
ENDBRANCH  35  37
ENDBRANCH  34  35
ENDBRANCH  33  34
ENDBRANCH  31  33
ENDBRANCH  14  31
ENDBRANCH   9  11
ENDBRANCH   8   9
ENDBRANCH   7   8
ENDBRANCH   5   7
ENDBRANCH   4   5
ENDBRANCH   3   4
TORSDOF 12
ENDMDL
MODEL       86
REMARK 921   NORMALIZED FREE ENERGY PREDICTED BY IDOCK:   -4.70 KCAL/MOL
REMARK 922        TOTAL FREE ENERGY PREDICTED BY IDOCK:  -10.26 KCAL/MOL
REMARK 923 INTER-LIGAND FREE ENERGY PREDICTED BY IDOCK:   -9.32 KCAL/MOL
REMARK 924 INTRA-LIGAND FREE ENERGY PREDICTED BY IDOCK:   -0.94 KCAL/MOL
REMARK 927      BINDING AFFINITY PREDICTED BY RF-SCORE:    0.00 PKD
ROOT
HETATM    1  O   UNL     1      -8.308   7.030  63.606  1.00  0.00    -0.343 OA 
HETATM    2  H   UNL     1      -7.757   6.295  63.847  1.00  0.00     0.000 HD 
HETATM    3  C   UNL     1      -7.532   8.039  62.964  1.00  0.00    -0.114 C  
ENDROOT
BRANCH   3   4
HETATM    4  C   UNL     1      -8.421   9.223  62.576  1.00  0.00    -0.203 C  
BRANCH   4   5
HETATM    5  N   UNL     1      -9.631   9.342  63.404  1.00  0.00    -0.332 NA 
HETATM    6  H   UNL     1      -9.865   8.454  63.848  1.00  0.00     0.000 HD 
BRANCH   5   7
HETATM    7  C   UNL     1      -9.513  10.420  64.396  1.00  0.00    -0.287 C  
BRANCH   7   8
HETATM    8  C   UNL     1      -9.375   9.840  65.809  1.00  0.00    -0.221 C  
BRANCH   8   9
HETATM    9  N   UNL     1      -9.993  10.714  66.790  1.00  0.00    -0.201 NA 
HETATM   10  H   UNL     1     -10.084  11.706  66.573  1.00  0.00     0.000 HD 
BRANCH   9  11
HETATM   11  C   UNL     1     -10.466  10.255  68.011  1.00  0.00    -0.196 A  
HETATM   12  C   UNL     1     -10.375   8.896  68.309  1.00  0.00    -0.250 A  
HETATM   13  C   UNL     1     -10.864   8.389  69.501  1.00  0.00    -0.126 A  
HETATM   14  C   UNL     1     -11.542   9.199  70.413  1.00  0.00    -0.146 A  
HETATM   15  H   UNL     1     -14.253  13.890  73.407  1.00  0.00     0.000 HD 
HETATM   16  C   UNL     1     -11.673  10.581  70.116  1.00  0.00    -0.410 A  
HETATM   17  C   UNL     1     -11.091  11.116  68.952  1.00  0.00    -0.293 A  
HETATM   18  C   UNL     1     -12.660  15.700  70.323  1.00  0.00    -0.319 A  
HETATM   19  O   UNL     1     -13.039  11.046  72.004  1.00  0.00    -0.496 OA 
HETATM   20  C   UNL     1     -11.986  14.876  69.419  1.00  0.00    -0.301 A  
HETATM   21  C   UNL     1     -11.083  12.595  68.743  1.00  0.00    -0.263 C  
HETATM   22  O   UNL     1     -10.353  13.082  67.885  1.00  0.00    -0.221 OA 
HETATM   23  C   UNL     1     -13.250  15.146  71.449  1.00  0.00    -0.528 A  
HETATM   24  C   UNL     1     -11.868  13.481  69.640  1.00  0.00    -0.398 A  
HETATM   25  O   UNL     1     -13.792  13.323  72.799  1.00  0.00    -0.690 OA 
HETATM   26  H   UNL     1     -11.504  16.394  68.170  1.00  0.00     0.000 HD 
HETATM   27  C   UNL     1     -12.486  12.933  70.764  1.00  0.00    -0.370 A  
HETATM   28  O   UNL     1     -11.425  15.459  68.319  1.00  0.00    -0.332 OA 
HETATM   29  C   UNL     1     -13.170  13.774  71.665  1.00  0.00    -0.371 A  
HETATM   30  C   UNL     1     -12.419  11.484  71.033  1.00  0.00    -0.356 C  
BRANCH  14  31
HETATM   31  N   UNL     1     -11.966   8.641  71.606  1.00  0.00    -0.306 NA 
HETATM   32  H   UNL     1     -12.966   8.507  71.753  1.00  0.00     0.000 HD 
BRANCH  31  33
HETATM   33  C   UNL     1     -11.048   8.235  72.661  1.00  0.00    -0.330 C  
BRANCH  33  34
HETATM   34  C   UNL     1     -11.073   6.709  72.849  1.00  0.00    -0.229 C  
BRANCH  34  35
HETATM   35  N   UNL     1      -9.724   6.177  73.091  1.00  0.00    -0.157 NA 
HETATM   36  H   UNL     1      -9.721   5.468  73.825  1.00  0.00     0.000 HD 
BRANCH  35  37
HETATM   37  C   UNL     1      -9.142   5.672  71.841  1.00  0.00    -0.138 C  
BRANCH  37  38
HETATM   38  C   UNL     1     -10.219   5.018  70.971  1.00  0.00    -0.213 C  
HETATM   39  O   UNL     1      -9.862   3.672  70.666  1.00  0.00    -0.178 OA 
HETATM   40  H   UNL     1     -10.530   3.266  70.126  1.00  0.00     0.000 HD 
ENDBRANCH  37  38
ENDBRANCH  35  37
ENDBRANCH  34  35
ENDBRANCH  33  34
ENDBRANCH  31  33
ENDBRANCH  14  31
ENDBRANCH   9  11
ENDBRANCH   8   9
ENDBRANCH   7   8
ENDBRANCH   5   7
ENDBRANCH   4   5
ENDBRANCH   3   4
TORSDOF 12
ENDMDL
MODEL       87
REMARK 921   NORMALIZED FREE ENERGY PREDICTED BY IDOCK:   -4.67 KCAL/MOL
REMARK 922        TOTAL FREE ENERGY PREDICTED BY IDOCK:  -10.21 KCAL/MOL
REMARK 923 INTER-LIGAND FREE ENERGY PREDICTED BY IDOCK:   -9.27 KCAL/MOL
REMARK 924 INTRA-LIGAND FREE ENERGY PREDICTED BY IDOCK:   -0.94 KCAL/MOL
REMARK 927      BINDING AFFINITY PREDICTED BY RF-SCORE:    0.00 PKD
ROOT
HETATM    1  O   UNL     1      -6.451  20.579  71.936  1.00  0.00    -0.775 OA 
HETATM    2  H   UNL     1      -6.069  20.417  72.790  1.00  0.00     0.000 HD 
HETATM    3  C   UNL     1      -5.738  19.860  70.932  1.00  0.00    -0.291 C  
ENDROOT
BRANCH   3   4
HETATM    4  C   UNL     1      -6.354  20.122  69.555  1.00  0.00    -0.327 C  
BRANCH   4   5
HETATM    5  N   UNL     1      -5.481  19.726  68.440  1.00  0.00    -0.199 NA 
HETATM    6  H   UNL     1      -4.500  19.909  68.654  1.00  0.00     0.000 HD 
BRANCH   5   7
HETATM    7  C   UNL     1      -5.690  18.325  68.050  1.00  0.00    -0.161 C  
BRANCH   7   8
HETATM    8  C   UNL     1      -7.187  17.999  67.991  1.00  0.00    -0.230 C  
BRANCH   8   9
HETATM    9  N   UNL     1      -7.443  16.649  68.460  1.00  0.00    -0.193 NA 
HETATM   10  H   UNL     1      -6.648  16.051  68.685  1.00  0.00     0.000 HD 
BRANCH   9  11
HETATM   11  C   UNL     1      -8.723  16.138  68.615  1.00  0.00    -0.214 A  
HETATM   12  C   UNL     1      -9.730  16.965  69.110  1.00  0.00    -0.177 A  
HETATM   13  C   UNL     1     -11.014  16.489  69.314  1.00  0.00    -0.302 A  
HETATM   14  C   UNL     1     -11.332  15.145  69.112  1.00  0.00    -0.298 A  
HETATM   15  H   UNL     1     -11.248   9.091  67.823  1.00  0.00     0.000 HD 
HETATM   16  C   UNL     1     -10.314  14.278  68.636  1.00  0.00    -0.246 A  
HETATM   17  C   UNL     1      -9.035  14.781  68.336  1.00  0.00    -0.187 A  
HETATM   18  C   UNL     1      -7.637  10.197  66.793  1.00  0.00    -0.105 A  
HETATM   19  O   UNL     1     -11.652  12.320  68.793  1.00  0.00    -0.281 OA 
HETATM   20  C   UNL     1      -7.334  11.544  67.001  1.00  0.00    -0.145 A  
HETATM   21  C   UNL     1      -8.031  13.898  67.670  1.00  0.00    -0.175 C  
HETATM   22  O   UNL     1      -7.027  14.393  67.167  1.00  0.00    -0.173 OA 
HETATM   23  C   UNL     1      -8.896   9.717  67.122  1.00  0.00    -0.141 A  
HETATM   24  C   UNL     1      -8.297  12.444  67.521  1.00  0.00    -0.173 A  
HETATM   25  O   UNL     1     -11.051  10.010  67.963  1.00  0.00    -0.266 OA 
HETATM   26  H   UNL     1      -5.435  11.372  66.322  1.00  0.00     0.000 HD 
HETATM   27  C   UNL     1      -9.552  11.944  67.871  1.00  0.00    -0.193 A  
HETATM   28  O   UNL     1      -6.081  11.975  66.670  1.00  0.00    -0.178 OA 
HETATM   29  C   UNL     1      -9.843  10.581  67.663  1.00  0.00    -0.166 A  
HETATM   30  C   UNL     1     -10.586  12.828  68.440  1.00  0.00    -0.248 C  
BRANCH  14  31
HETATM   31  N   UNL     1     -12.645  14.742  69.288  1.00  0.00    -0.562 NA 
HETATM   32  H   UNL     1     -13.107  14.244  68.527  1.00  0.00     0.000 HD 
BRANCH  31  33
HETATM   33  C   UNL     1     -13.395  14.996  70.510  1.00  0.00    -0.140 C  
BRANCH  33  34
HETATM   34  C   UNL     1     -13.215  13.842  71.510  1.00  0.00    -0.352 C  
BRANCH  34  35
HETATM   35  N   UNL     1     -13.698  14.214  72.848  1.00  0.00    -0.633 NA 
HETATM   36  H   UNL     1     -13.253  13.660  73.581  1.00  0.00     0.000 HD 
BRANCH  35  37
HETATM   37  C   UNL     1     -13.528  15.655  73.072  1.00  0.00    -0.562 C  
BRANCH  37  38
HETATM   38  C   UNL     1     -12.371  15.916  74.039  1.00  0.00    -0.609 C  
HETATM   39  O   UNL     1     -11.821  14.685  74.501  1.00  0.00    -0.566 OA 
HETATM   40  H   UNL     1     -11.103  14.847  75.102  1.00  0.00     0.000 HD 
ENDBRANCH  37  38
ENDBRANCH  35  37
ENDBRANCH  34  35
ENDBRANCH  33  34
ENDBRANCH  31  33
ENDBRANCH  14  31
ENDBRANCH   9  11
ENDBRANCH   8   9
ENDBRANCH   7   8
ENDBRANCH   5   7
ENDBRANCH   4   5
ENDBRANCH   3   4
TORSDOF 12
ENDMDL
MODEL       88
REMARK 921   NORMALIZED FREE ENERGY PREDICTED BY IDOCK:   -4.67 KCAL/MOL
REMARK 922        TOTAL FREE ENERGY PREDICTED BY IDOCK:  -10.20 KCAL/MOL
REMARK 923 INTER-LIGAND FREE ENERGY PREDICTED BY IDOCK:   -9.34 KCAL/MOL
REMARK 924 INTRA-LIGAND FREE ENERGY PREDICTED BY IDOCK:   -0.86 KCAL/MOL
REMARK 927      BINDING AFFINITY PREDICTED BY RF-SCORE:    0.00 PKD
ROOT
HETATM    1  O   UNL     1     -11.734  17.448  74.160  1.00  0.00    -0.054 OA 
HETATM    2  H   UNL     1     -11.367  17.855  74.936  1.00  0.00     0.000 HD 
HETATM    3  C   UNL     1     -12.470  16.281  74.517  1.00  0.00    -0.424 C  
ENDROOT
BRANCH   3   4
HETATM    4  C   UNL     1     -13.061  15.626  73.266  1.00  0.00    -0.564 C  
BRANCH   4   5
HETATM    5  N   UNL     1     -12.662  14.220  73.098  1.00  0.00    -0.350 NA 
HETATM    6  H   UNL     1     -12.290  13.835  73.966  1.00  0.00     0.000 HD 
BRANCH   5   7
HETATM    7  C   UNL     1     -13.759  13.396  72.574  1.00  0.00    -0.531 C  
BRANCH   7   8
HETATM    8  C   UNL     1     -13.652  13.261  71.050  1.00  0.00     0.392 C  
BRANCH   8   9
HETATM    9  N   UNL     1     -12.262  13.235  70.629  1.00  0.00    -0.433 NA 
HETATM   10  H   UNL     1     -11.583  12.750  71.214  1.00  0.00     0.000 HD 
BRANCH   9  11
HETATM   11  C   UNL     1     -11.820  13.843  69.463  1.00  0.00    -0.329 A  
HETATM   12  C   UNL     1     -11.982  15.219  69.309  1.00  0.00    -0.327 A  
HETATM   13  C   UNL     1     -11.586  15.863  68.149  1.00  0.00    -0.224 A  
HETATM   14  C   UNL     1     -11.088  15.152  67.056  1.00  0.00    -0.328 A  
HETATM   15  H   UNL     1      -9.104  10.786  63.143  1.00  0.00     0.000 HD 
HETATM   16  C   UNL     1     -10.941  13.746  67.180  1.00  0.00    -0.299 A  
HETATM   17  C   UNL     1     -11.252  13.103  68.392  1.00  0.00    -0.305 A  
HETATM   18  C   UNL     1      -9.769   8.722  66.402  1.00  0.00    -0.335 A  
HETATM   19  O   UNL     1     -10.274  13.432  64.921  1.00  0.00    -0.348 OA 
HETATM   20  C   UNL     1     -10.268   9.447  67.486  1.00  0.00    -0.231 A  
HETATM   21  C   UNL     1     -10.926  11.655  68.565  1.00  0.00    -0.220 C  
HETATM   22  O   UNL     1     -10.941  11.161  69.688  1.00  0.00    -0.244 OA 
HETATM   23  C   UNL     1      -9.497   9.373  65.207  1.00  0.00    -0.296 A  
HETATM   24  C   UNL     1     -10.480  10.846  67.402  1.00  0.00    -0.263 A  
HETATM   25  O   UNL     1      -9.439  11.287  63.877  1.00  0.00    -0.223 OA 
HETATM   26  H   UNL     1     -10.387   7.831  68.698  1.00  0.00     0.000 HD 
HETATM   27  C   UNL     1     -10.226  11.484  66.188  1.00  0.00    -0.272 A  
HETATM   28  O   UNL     1     -10.530   8.768  68.642  1.00  0.00    -0.211 OA 
HETATM   29  C   UNL     1      -9.729  10.740  65.099  1.00  0.00    -0.265 A  
HETATM   30  C   UNL     1     -10.452  12.933  66.034  1.00  0.00    -0.276 C  
BRANCH  14  31
HETATM   31  N   UNL     1     -10.666  15.860  65.944  1.00  0.00    -0.317 NA 
HETATM   32  H   UNL     1     -11.301  15.941  65.149  1.00  0.00     0.000 HD 
BRANCH  31  33
HETATM   33  C   UNL     1      -9.358  16.494  65.856  1.00  0.00    -0.191 C  
BRANCH  33  34
HETATM   34  C   UNL     1      -9.345  17.825  66.626  1.00  0.00    -0.287 C  
BRANCH  34  35
HETATM   35  N   UNL     1      -8.171  17.923  67.506  1.00  0.00    -0.225 NA 
HETATM   36  H   UNL     1      -7.337  18.214  66.996  1.00  0.00     0.000 HD 
BRANCH  35  37
HETATM   37  C   UNL     1      -8.455  18.809  68.641  1.00  0.00    -0.329 C  
BRANCH  37  38
HETATM   38  C   UNL     1      -9.849  19.426  68.506  1.00  0.00    -0.427 C  
HETATM   39  O   UNL     1     -10.303  19.912  69.768  1.00  0.00    -0.604 OA 
HETATM   40  H   UNL     1     -11.168  20.294  69.684  1.00  0.00     0.000 HD 
ENDBRANCH  37  38
ENDBRANCH  35  37
ENDBRANCH  34  35
ENDBRANCH  33  34
ENDBRANCH  31  33
ENDBRANCH  14  31
ENDBRANCH   9  11
ENDBRANCH   8   9
ENDBRANCH   7   8
ENDBRANCH   5   7
ENDBRANCH   4   5
ENDBRANCH   3   4
TORSDOF 12
ENDMDL
MODEL       89
REMARK 921   NORMALIZED FREE ENERGY PREDICTED BY IDOCK:   -4.65 KCAL/MOL
REMARK 922        TOTAL FREE ENERGY PREDICTED BY IDOCK:  -10.18 KCAL/MOL
REMARK 923 INTER-LIGAND FREE ENERGY PREDICTED BY IDOCK:   -9.18 KCAL/MOL
REMARK 924 INTRA-LIGAND FREE ENERGY PREDICTED BY IDOCK:   -1.00 KCAL/MOL
REMARK 927      BINDING AFFINITY PREDICTED BY RF-SCORE:    0.00 PKD
ROOT
HETATM    1  O   UNL     1     -11.164   2.589  63.745  1.00  0.00    -0.598 OA 
HETATM    2  H   UNL     1     -11.998   2.600  63.291  1.00  0.00     0.000 HD 
HETATM    3  C   UNL     1     -10.804   3.908  64.146  1.00  0.00    -0.149 C  
ENDROOT
BRANCH   3   4
HETATM    4  C   UNL     1      -9.460   3.891  64.878  1.00  0.00    -0.170 C  
BRANCH   4   5
HETATM    5  N   UNL     1      -9.385   2.876  65.940  1.00  0.00    -0.327 NA 
HETATM    6  H   UNL     1      -8.836   2.069  65.643  1.00  0.00     0.000 HD 
BRANCH   5   7
HETATM    7  C   UNL     1      -8.877   3.435  67.199  1.00  0.00    -0.135 C  
BRANCH   7   8
HETATM    8  C   UNL     1      -9.899   4.401  67.812  1.00  0.00    -0.094 C  
BRANCH   8   9
HETATM    9  N   UNL     1      -9.234   5.447  68.569  1.00  0.00    -0.108 NA 
HETATM   10  H   UNL     1      -8.773   5.199  69.445  1.00  0.00     0.000 HD 
BRANCH   9  11
HETATM   11  C   UNL     1      -9.199   6.769  68.151  1.00  0.00    -0.121 A  
HETATM   12  C   UNL     1      -8.342   7.132  67.113  1.00  0.00    -0.118 A  
HETATM   13  C   UNL     1      -8.249   8.446  66.685  1.00  0.00    -0.105 A  
HETATM   14  C   UNL     1      -8.943   9.472  67.329  1.00  0.00    -0.131 A  
HETATM   15  H   UNL     1     -12.530  12.856  71.070  1.00  0.00     0.000 HD 
HETATM   16  C   UNL     1      -9.799   9.129  68.409  1.00  0.00    -0.181 A  
HETATM   17  C   UNL     1      -9.969   7.782  68.781  1.00  0.00    -0.181 A  
HETATM   18  C   UNL     1     -13.304   9.212  72.271  1.00  0.00    -0.540 A  
HETATM   19  O   UNL     1     -10.331  11.382  68.942  1.00  0.00    -0.206 OA 
HETATM   20  C   UNL     1     -12.602   8.197  71.618  1.00  0.00    -0.320 A  
HETATM   21  C   UNL     1     -11.004   7.422  69.796  1.00  0.00    -0.200 C  
HETATM   22  O   UNL     1     -11.343   6.250  69.926  1.00  0.00    -0.397 OA 
HETATM   23  C   UNL     1     -13.099  10.535  71.907  1.00  0.00    -0.567 A  
HETATM   24  C   UNL     1     -11.697   8.486  70.567  1.00  0.00    -0.082 A  
HETATM   25  O   UNL     1     -12.051  12.171  70.617  1.00  0.00    -0.365 OA 
HETATM   26  H   UNL     1     -13.434   6.715  72.717  1.00  0.00     0.000 HD 
HETATM   27  C   UNL     1     -11.481   9.822  70.225  1.00  0.00    -0.317 A  
HETATM   28  O   UNL     1     -12.827   6.909  72.012  1.00  0.00    -0.279 OA 
HETATM   29  C   UNL     1     -12.191  10.838  70.897  1.00  0.00    -0.384 A  
HETATM   30  C   UNL     1     -10.532  10.185  69.157  1.00  0.00    -0.222 C  
BRANCH  14  31
HETATM   31  N   UNL     1      -8.843  10.756  66.824  1.00  0.00    -0.140 NA 
HETATM   32  H   UNL     1      -8.542  11.503  67.450  1.00  0.00     0.000 HD 
BRANCH  31  33
HETATM   33  C   UNL     1      -9.148  11.089  65.440  1.00  0.00    -0.195 C  
BRANCH  33  34
HETATM   34  C   UNL     1     -10.655  11.344  65.260  1.00  0.00    -0.277 C  
BRANCH  34  35
HETATM   35  N   UNL     1     -11.050  12.639  65.831  1.00  0.00    -0.280 NA 
HETATM   36  H   UNL     1     -10.701  12.758  66.782  1.00  0.00     0.000 HD 
BRANCH  35  37
HETATM   37  C   UNL     1     -10.627  13.737  64.951  1.00  0.00    -0.413 C  
BRANCH  37  38
HETATM   38  C   UNL     1     -11.838  14.542  64.475  1.00  0.00    -0.446 C  
HETATM   39  O   UNL     1     -12.356  13.992  63.266  1.00  0.00    -1.133 OA 
HETATM   40  H   UNL     1     -13.108  14.491  62.969  1.00  0.00     0.000 HD 
ENDBRANCH  37  38
ENDBRANCH  35  37
ENDBRANCH  34  35
ENDBRANCH  33  34
ENDBRANCH  31  33
ENDBRANCH  14  31
ENDBRANCH   9  11
ENDBRANCH   8   9
ENDBRANCH   7   8
ENDBRANCH   5   7
ENDBRANCH   4   5
ENDBRANCH   3   4
TORSDOF 12
ENDMDL
MODEL       90
REMARK 921   NORMALIZED FREE ENERGY PREDICTED BY IDOCK:   -4.65 KCAL/MOL
REMARK 922        TOTAL FREE ENERGY PREDICTED BY IDOCK:  -10.17 KCAL/MOL
REMARK 923 INTER-LIGAND FREE ENERGY PREDICTED BY IDOCK:   -8.54 KCAL/MOL
REMARK 924 INTRA-LIGAND FREE ENERGY PREDICTED BY IDOCK:   -1.63 KCAL/MOL
REMARK 927      BINDING AFFINITY PREDICTED BY RF-SCORE:    0.00 PKD
ROOT
HETATM    1  O   UNL     1     -12.234  13.481  62.772  1.00  0.00    -0.814 OA 
HETATM    2  H   UNL     1     -12.230  13.324  61.836  1.00  0.00     0.000 HD 
HETATM    3  C   UNL     1     -12.220  12.243  63.479  1.00  0.00    -0.568 C  
ENDROOT
BRANCH   3   4
HETATM    4  C   UNL     1     -12.225  12.496  64.989  1.00  0.00    -0.456 C  
BRANCH   4   5
HETATM    5  N   UNL     1     -12.915  13.737  65.371  1.00  0.00    -0.727 NA 
HETATM    6  H   UNL     1     -13.923  13.595  65.441  1.00  0.00     0.000 HD 
BRANCH   5   7
HETATM    7  C   UNL     1     -12.370  14.309  66.610  1.00  0.00    -0.286 C  
BRANCH   7   8
HETATM    8  C   UNL     1     -10.837  14.258  66.598  1.00  0.00    -0.301 C  
BRANCH   8   9
HETATM    9  N   UNL     1     -10.334  13.531  67.750  1.00  0.00    -0.237 NA 
HETATM   10  H   UNL     1     -10.256  14.021  68.641  1.00  0.00     0.000 HD 
BRANCH   9  11
HETATM   11  C   UNL     1      -9.955  12.198  67.689  1.00  0.00    -0.197 A  
HETATM   12  C   UNL     1      -9.061  11.789  66.700  1.00  0.00    -0.194 A  
HETATM   13  C   UNL     1      -8.681  10.463  66.581  1.00  0.00    -0.141 A  
HETATM   14  C   UNL     1      -9.239   9.470  67.389  1.00  0.00    -0.133 A  
HETATM   15  H   UNL     1     -12.486   6.268  71.574  1.00  0.00     0.000 HD 
HETATM   16  C   UNL     1     -10.173   9.861  68.384  1.00  0.00    -0.203 A  
HETATM   17  C   UNL     1     -10.486  11.220  68.570  1.00  0.00    -0.218 A  
HETATM   18  C   UNL     1     -13.480   9.959  72.417  1.00  0.00    -0.301 A  
HETATM   19  O   UNL     1     -10.672   7.635  69.049  1.00  0.00    -0.202 OA 
HETATM   20  C   UNL     1     -12.915  10.941  71.600  1.00  0.00    -0.464 A  
HETATM   21  C   UNL     1     -11.331  11.630  69.733  1.00  0.00    -0.200 C  
HETATM   22  O   UNL     1     -11.384  12.813  70.055  1.00  0.00    -0.070 OA 
HETATM   23  C   UNL     1     -13.179   8.623  72.197  1.00  0.00    -0.420 A  
HETATM   24  C   UNL     1     -12.014  10.603  70.560  1.00  0.00    -0.446 A  
HETATM   25  O   UNL     1     -12.093   6.930  71.017  1.00  0.00    -0.354 OA 
HETATM   26  H   UNL     1     -13.847  12.469  72.544  1.00  0.00     0.000 HD 
HETATM   27  C   UNL     1     -11.738   9.255  70.332  1.00  0.00    -0.157 A  
HETATM   28  O   UNL     1     -13.243  12.243  71.846  1.00  0.00    -0.473 OA 
HETATM   29  C   UNL     1     -12.320   8.273  71.159  1.00  0.00    -0.206 A  
HETATM   30  C   UNL     1     -10.828   8.842  69.247  1.00  0.00    -0.077 C  
BRANCH  14  31
HETATM   31  N   UNL     1      -8.782   8.172  67.251  1.00  0.00    -0.123 NA 
HETATM   32  H   UNL     1      -8.768   7.571  68.075  1.00  0.00     0.000 HD 
BRANCH  31  33
HETATM   33  C   UNL     1      -8.320   7.624  65.984  1.00  0.00    -0.135 C  
BRANCH  33  34
HETATM   34  C   UNL     1      -7.442   6.382  66.214  1.00  0.00    -0.085 C  
BRANCH  34  35
HETATM   35  N   UNL     1      -7.103   6.223  67.636  1.00  0.00    -0.078 NA 
HETATM   36  H   UNL     1      -7.522   6.954  68.211  1.00  0.00     0.000 HD 
BRANCH  35  37
HETATM   37  C   UNL     1      -7.474   4.881  68.103  1.00  0.00    -0.074 C  
BRANCH  37  38
HETATM   38  C   UNL     1      -8.352   4.970  69.353  1.00  0.00    -0.085 C  
HETATM   39  O   UNL     1      -8.253   6.266  69.940  1.00  0.00    -0.117 OA 
HETATM   40  H   UNL     1      -8.798   6.321  70.716  1.00  0.00     0.000 HD 
ENDBRANCH  37  38
ENDBRANCH  35  37
ENDBRANCH  34  35
ENDBRANCH  33  34
ENDBRANCH  31  33
ENDBRANCH  14  31
ENDBRANCH   9  11
ENDBRANCH   8   9
ENDBRANCH   7   8
ENDBRANCH   5   7
ENDBRANCH   4   5
ENDBRANCH   3   4
TORSDOF 12
ENDMDL
MODEL       91
REMARK 921   NORMALIZED FREE ENERGY PREDICTED BY IDOCK:   -4.63 KCAL/MOL
REMARK 922        TOTAL FREE ENERGY PREDICTED BY IDOCK:  -10.14 KCAL/MOL
REMARK 923 INTER-LIGAND FREE ENERGY PREDICTED BY IDOCK:   -9.30 KCAL/MOL
REMARK 924 INTRA-LIGAND FREE ENERGY PREDICTED BY IDOCK:   -0.84 KCAL/MOL
REMARK 927      BINDING AFFINITY PREDICTED BY RF-SCORE:    0.00 PKD
ROOT
HETATM    1  O   UNL     1      -8.807   5.833  63.868  1.00  0.00    -0.343 OA 
HETATM    2  H   UNL     1      -8.754   5.309  64.658  1.00  0.00     0.000 HD 
HETATM    3  C   UNL     1      -7.860   6.897  63.919  1.00  0.00    -0.107 C  
ENDROOT
BRANCH   3   4
HETATM    4  C   UNL     1      -7.944   7.743  62.645  1.00  0.00    -0.132 C  
BRANCH   4   5
HETATM    5  N   UNL     1      -9.034   8.730  62.670  1.00  0.00    -0.441 NA 
HETATM    6  H   UNL     1      -9.673   8.557  63.446  1.00  0.00     0.000 HD 
BRANCH   5   7
HETATM    7  C   UNL     1      -8.525  10.108  62.696  1.00  0.00    -0.173 C  
BRANCH   7   8
HETATM    8  C   UNL     1      -8.325  10.583  64.141  1.00  0.00    -0.095 C  
BRANCH   8   9
HETATM    9  N   UNL     1      -9.598  10.904  64.761  1.00  0.00    -0.234 NA 
HETATM   10  H   UNL     1     -10.239  11.524  64.268  1.00  0.00     0.000 HD 
BRANCH   9  11
HETATM   11  C   UNL     1      -9.978  10.401  65.997  1.00  0.00    -0.241 A  
HETATM   12  C   UNL     1      -9.932   9.025  66.216  1.00  0.00    -0.352 A  
HETATM   13  C   UNL     1     -10.334   8.476  67.421  1.00  0.00    -0.356 A  
HETATM   14  C   UNL     1     -10.880   9.266  68.435  1.00  0.00    -0.076 A  
HETATM   15  H   UNL     1     -13.045  13.908  71.909  1.00  0.00     0.000 HD 
HETATM   16  C   UNL     1     -10.963  10.667  68.222  1.00  0.00    -0.314 A  
HETATM   17  C   UNL     1     -10.465  11.237  67.036  1.00  0.00    -0.272 A  
HETATM   18  C   UNL     1     -11.653  15.808  68.783  1.00  0.00    -0.401 A  
HETATM   19  O   UNL     1     -12.121  11.092  70.254  1.00  0.00    -0.300 OA 
HETATM   20  C   UNL     1     -11.111  15.004  67.777  1.00  0.00    -0.310 A  
HETATM   21  C   UNL     1     -10.398  12.724  66.903  1.00  0.00    -0.238 C  
HETATM   22  O   UNL     1      -9.727  13.222  66.004  1.00  0.00    -0.276 OA 
HETATM   23  C   UNL     1     -12.164  15.222  69.931  1.00  0.00    -0.357 A  
HETATM   24  C   UNL     1     -11.047  13.595  67.915  1.00  0.00    -0.283 A  
HETATM   25  O   UNL     1     -12.674  13.355  71.232  1.00  0.00    -0.354 OA 
HETATM   26  H   UNL     1     -10.668  16.564  66.567  1.00  0.00     0.000 HD 
HETATM   27  C   UNL     1     -11.586  13.016  69.064  1.00  0.00    -0.367 A  
HETATM   28  O   UNL     1     -10.625  15.620  66.660  1.00  0.00    -0.301 OA 
HETATM   29  C   UNL     1     -12.137  13.837  70.068  1.00  0.00    -0.349 A  
HETATM   30  C   UNL     1     -11.571  11.553  69.251  1.00  0.00    -0.322 C  
BRANCH  14  31
HETATM   31  N   UNL     1     -11.218   8.663  69.633  1.00  0.00    -0.445 NA 
HETATM   32  H   UNL     1     -12.046   8.996  70.128  1.00  0.00     0.000 HD 
BRANCH  31  33
HETATM   33  C   UNL     1     -10.448   7.576  70.219  1.00  0.00    -0.222 C  
BRANCH  33  34
HETATM   34  C   UNL     1     -11.190   6.237  70.065  1.00  0.00    -0.412 C  
BRANCH  34  35
HETATM   35  N   UNL     1     -10.440   5.136  70.686  1.00  0.00    -0.234 NA 
HETATM   36  H   UNL     1      -9.647   4.846  70.114  1.00  0.00     0.000 HD 
BRANCH  35  37
HETATM   37  C   UNL     1     -10.030   5.500  72.048  1.00  0.00    -0.181 C  
BRANCH  37  38
HETATM   38  C   UNL     1     -10.916   4.801  73.082  1.00  0.00    -0.300 C  
HETATM   39  O   UNL     1     -12.245   5.313  73.026  1.00  0.00    -0.513 OA 
HETATM   40  H   UNL     1     -12.795   4.879  73.668  1.00  0.00     0.000 HD 
ENDBRANCH  37  38
ENDBRANCH  35  37
ENDBRANCH  34  35
ENDBRANCH  33  34
ENDBRANCH  31  33
ENDBRANCH  14  31
ENDBRANCH   9  11
ENDBRANCH   8   9
ENDBRANCH   7   8
ENDBRANCH   5   7
ENDBRANCH   4   5
ENDBRANCH   3   4
TORSDOF 12
ENDMDL
MODEL       92
REMARK 921   NORMALIZED FREE ENERGY PREDICTED BY IDOCK:   -4.62 KCAL/MOL
REMARK 922        TOTAL FREE ENERGY PREDICTED BY IDOCK:  -10.12 KCAL/MOL
REMARK 923 INTER-LIGAND FREE ENERGY PREDICTED BY IDOCK:   -8.38 KCAL/MOL
REMARK 924 INTRA-LIGAND FREE ENERGY PREDICTED BY IDOCK:   -1.73 KCAL/MOL
REMARK 927      BINDING AFFINITY PREDICTED BY RF-SCORE:    0.00 PKD
ROOT
HETATM    1  O   UNL     1      -9.152  16.529  65.820  1.00  0.00    -0.487 OA 
HETATM    2  H   UNL     1      -8.846  17.079  66.531  1.00  0.00     0.000 HD 
HETATM    3  C   UNL     1     -10.576  16.461  65.828  1.00  0.00    -0.315 C  
ENDROOT
BRANCH   3   4
HETATM    4  C   UNL     1     -11.070  15.574  64.682  1.00  0.00    -0.359 C  
BRANCH   4   5
HETATM    5  N   UNL     1     -11.681  14.317  65.139  1.00  0.00    -0.352 NA 
HETATM    6  H   UNL     1     -12.516  14.493  65.698  1.00  0.00     0.000 HD 
BRANCH   5   7
HETATM    7  C   UNL     1     -11.969  13.408  64.020  1.00  0.00    -0.464 C  
BRANCH   7   8
HETATM    8  C   UNL     1     -11.227  12.078  64.202  1.00  0.00    -0.373 C  
BRANCH   8   9
HETATM    9  N   UNL     1     -10.548  12.035  65.485  1.00  0.00    -0.263 NA 
HETATM   10  H   UNL     1     -10.198  12.906  65.883  1.00  0.00     0.000 HD 
BRANCH   9  11
HETATM   11  C   UNL     1     -10.355  10.857  66.192  1.00  0.00    -0.248 A  
HETATM   12  C   UNL     1      -9.751   9.773  65.557  1.00  0.00    -0.382 A  
HETATM   13  C   UNL     1      -9.569   8.567  66.213  1.00  0.00    -0.306 A  
HETATM   14  C   UNL     1     -10.055   8.361  67.505  1.00  0.00    -0.218 A  
HETATM   15  H   UNL     1     -12.688   8.913  73.080  1.00  0.00     0.000 HD 
HETATM   16  C   UNL     1     -10.699   9.443  68.161  1.00  0.00    -0.230 A  
HETATM   17  C   UNL     1     -10.798  10.698  67.531  1.00  0.00    -0.351 A  
HETATM   18  C   UNL     1     -13.024  12.543  71.654  1.00  0.00    -0.405 A  
HETATM   19  O   UNL     1     -11.309   8.164  70.068  1.00  0.00    -0.153 OA 
HETATM   20  C   UNL     1     -12.534  12.733  70.360  1.00  0.00    -0.156 A  
HETATM   21  C   UNL     1     -11.317  11.870  68.299  1.00  0.00    -0.277 C  
HETATM   22  O   UNL     1     -11.156  13.003  67.857  1.00  0.00    -0.237 OA 
HETATM   23  C   UNL     1     -12.941  11.290  72.243  1.00  0.00     0.060 A  
HETATM   24  C   UNL     1     -11.926  11.675  69.640  1.00  0.00    -0.390 A  
HETATM   25  O   UNL     1     -12.347   9.035  72.201  1.00  0.00    -0.368 OA 
HETATM   26  H   UNL     1     -13.049  14.689  70.296  1.00  0.00     0.000 HD 
HETATM   27  C   UNL     1     -11.870  10.414  70.234  1.00  0.00    -0.399 A  
HETATM   28  O   UNL     1     -12.641  13.980  69.814  1.00  0.00    -0.276 OA 
HETATM   29  C   UNL     1     -12.374  10.233  71.538  1.00  0.00    -0.390 A  
HETATM   30  C   UNL     1     -11.271   9.269  69.523  1.00  0.00     0.004 C  
BRANCH  14  31
HETATM   31  N   UNL     1      -9.799   7.150  68.123  1.00  0.00    -0.139 NA 
HETATM   32  H   UNL     1     -10.585   6.533  68.329  1.00  0.00     0.000 HD 
BRANCH  31  33
HETATM   33  C   UNL     1      -8.459   6.715  68.491  1.00  0.00    -0.122 C  
BRANCH  33  34
HETATM   34  C   UNL     1      -8.314   6.632  70.020  1.00  0.00    -0.135 C  
BRANCH  34  35
HETATM   35  N   UNL     1      -8.198   7.969  70.620  1.00  0.00    -0.111 NA 
HETATM   36  H   UNL     1      -8.305   7.941  71.634  1.00  0.00     0.000 HD 
BRANCH  35  37
HETATM   37  C   UNL     1      -6.935   8.601  70.220  1.00  0.00    -0.041 C  
BRANCH  37  38
HETATM   38  C   UNL     1      -7.201   9.825  69.339  1.00  0.00    -0.076 C  
HETATM   39  O   UNL     1      -7.368  10.990  70.143  1.00  0.00    -0.426 OA 
HETATM   40  H   UNL     1      -7.534  11.749  69.597  1.00  0.00     0.000 HD 
ENDBRANCH  37  38
ENDBRANCH  35  37
ENDBRANCH  34  35
ENDBRANCH  33  34
ENDBRANCH  31  33
ENDBRANCH  14  31
ENDBRANCH   9  11
ENDBRANCH   8   9
ENDBRANCH   7   8
ENDBRANCH   5   7
ENDBRANCH   4   5
ENDBRANCH   3   4
TORSDOF 12
ENDMDL
MODEL       93
REMARK 921   NORMALIZED FREE ENERGY PREDICTED BY IDOCK:   -4.59 KCAL/MOL
REMARK 922        TOTAL FREE ENERGY PREDICTED BY IDOCK:  -10.07 KCAL/MOL
REMARK 923 INTER-LIGAND FREE ENERGY PREDICTED BY IDOCK:   -8.81 KCAL/MOL
REMARK 924 INTRA-LIGAND FREE ENERGY PREDICTED BY IDOCK:   -1.27 KCAL/MOL
REMARK 927      BINDING AFFINITY PREDICTED BY RF-SCORE:    0.00 PKD
ROOT
HETATM    1  O   UNL     1      -5.733  13.942  73.383  1.00  0.00    -0.468 OA 
HETATM    2  H   UNL     1      -5.425  13.466  74.145  1.00  0.00     0.000 HD 
HETATM    3  C   UNL     1      -5.151  13.405  72.198  1.00  0.00    -0.133 C  
ENDROOT
BRANCH   3   4
HETATM    4  C   UNL     1      -5.648  14.172  70.970  1.00  0.00    -0.197 C  
BRANCH   4   5
HETATM    5  N   UNL     1      -6.425  13.342  70.037  1.00  0.00    -0.355 NA 
HETATM    6  H   UNL     1      -6.430  13.744  69.099  1.00  0.00     0.000 HD 
BRANCH   5   7
HETATM    7  C   UNL     1      -5.955  11.950  70.019  1.00  0.00    -0.159 C  
BRANCH   7   8
HETATM    8  C   UNL     1      -5.594  11.522  68.591  1.00  0.00    -0.042 C  
BRANCH   8   9
HETATM    9  N   UNL     1      -6.504  10.497  68.112  1.00  0.00    -0.062 NA 
HETATM   10  H   UNL     1      -6.166   9.537  68.043  1.00  0.00     0.000 HD 
BRANCH   9  11
HETATM   11  C   UNL     1      -7.813  10.768  67.745  1.00  0.00    -0.109 A  
HETATM   12  C   UNL     1      -8.059  11.463  66.561  1.00  0.00    -0.141 A  
HETATM   13  C   UNL     1      -9.347  11.785  66.172  1.00  0.00    -0.236 A  
HETATM   14  C   UNL     1     -10.446  11.504  66.986  1.00  0.00    -0.228 A  
HETATM   15  H   UNL     1     -14.227   9.665  71.528  1.00  0.00     0.000 HD 
HETATM   16  C   UNL     1     -10.216  10.823  68.210  1.00  0.00    -0.187 A  
HETATM   17  C   UNL     1      -8.918  10.409  68.561  1.00  0.00    -0.139 A  
HETATM   18  C   UNL     1     -10.768   8.284  72.734  1.00  0.00    -0.313 A  
HETATM   19  O   UNL     1     -12.477  10.971  68.928  1.00  0.00    -0.460 OA 
HETATM   20  C   UNL     1      -9.679   8.574  71.909  1.00  0.00    -0.287 A  
HETATM   21  C   UNL     1      -8.719   9.541  69.760  1.00  0.00    -0.194 C  
HETATM   22  O   UNL     1      -7.649   8.960  69.917  1.00  0.00    -0.057 OA 
HETATM   23  C   UNL     1     -12.035   8.727  72.382  1.00  0.00    -0.369 A  
HETATM   24  C   UNL     1      -9.843   9.294  70.700  1.00  0.00    -0.332 A  
HETATM   25  O   UNL     1     -13.492   9.862  70.959  1.00  0.00    -0.363 OA 
HETATM   26  H   UNL     1      -8.339   7.643  73.106  1.00  0.00     0.000 HD 
HETATM   27  C   UNL     1     -11.117   9.756  70.369  1.00  0.00    -0.367 A  
HETATM   28  O   UNL     1      -8.449   8.126  72.295  1.00  0.00    -0.139 OA 
HETATM   29  C   UNL     1     -12.207   9.462  71.214  1.00  0.00    -0.345 A  
HETATM   30  C   UNL     1     -11.344  10.532  69.136  1.00  0.00    -0.257 C  
BRANCH  14  31
HETATM   31  N   UNL     1     -11.711  11.810  66.518  1.00  0.00    -0.528 NA 
HETATM   32  H   UNL     1     -12.510  11.318  66.920  1.00  0.00     0.000 HD 
BRANCH  31  33
HETATM   33  C   UNL     1     -11.955  12.801  65.480  1.00  0.00    -0.449 C  
BRANCH  33  34
HETATM   34  C   UNL     1     -12.694  14.022  66.054  1.00  0.00    -0.338 C  
BRANCH  34  35
HETATM   35  N   UNL     1     -12.181  14.380  67.385  1.00  0.00    -0.617 NA 
HETATM   36  H   UNL     1     -11.979  13.555  67.949  1.00  0.00     0.000 HD 
BRANCH  35  37
HETATM   37  C   UNL     1     -11.012  15.260  67.262  1.00  0.00    -0.327 C  
BRANCH  37  38
HETATM   38  C   UNL     1     -10.789  16.041  68.560  1.00  0.00    -0.304 C  
HETATM   39  O   UNL     1     -10.208  17.312  68.282  1.00  0.00    -0.307 OA 
HETATM   40  H   UNL     1     -10.069  17.797  69.087  1.00  0.00     0.000 HD 
ENDBRANCH  37  38
ENDBRANCH  35  37
ENDBRANCH  34  35
ENDBRANCH  33  34
ENDBRANCH  31  33
ENDBRANCH  14  31
ENDBRANCH   9  11
ENDBRANCH   8   9
ENDBRANCH   7   8
ENDBRANCH   5   7
ENDBRANCH   4   5
ENDBRANCH   3   4
TORSDOF 12
ENDMDL
MODEL       94
REMARK 921   NORMALIZED FREE ENERGY PREDICTED BY IDOCK:   -4.57 KCAL/MOL
REMARK 922        TOTAL FREE ENERGY PREDICTED BY IDOCK:  -10.05 KCAL/MOL
REMARK 923 INTER-LIGAND FREE ENERGY PREDICTED BY IDOCK:   -9.35 KCAL/MOL
REMARK 924 INTRA-LIGAND FREE ENERGY PREDICTED BY IDOCK:   -0.70 KCAL/MOL
REMARK 927      BINDING AFFINITY PREDICTED BY RF-SCORE:    0.00 PKD
ROOT
HETATM    1  O   UNL     1     -13.505  10.472  72.330  1.00  0.00    -0.606 OA 
HETATM    2  H   UNL     1     -14.277  10.962  72.073  1.00  0.00     0.000 HD 
HETATM    3  C   UNL     1     -13.672   9.091  72.021  1.00  0.00    -0.461 C  
ENDROOT
BRANCH   3   4
HETATM    4  C   UNL     1     -12.427   8.301  72.434  1.00  0.00    -0.302 C  
BRANCH   4   5
HETATM    5  N   UNL     1     -12.270   7.034  71.704  1.00  0.00    -0.339 NA 
HETATM    6  H   UNL     1     -12.943   6.961  70.940  1.00  0.00     0.000 HD 
BRANCH   5   7
HETATM    7  C   UNL     1     -10.895   6.843  71.225  1.00  0.00    -0.234 C  
BRANCH   7   8
HETATM    8  C   UNL     1     -10.327   8.158  70.677  1.00  0.00    -0.199 C  
BRANCH   8   9
HETATM    9  N   UNL     1     -10.548   8.261  69.246  1.00  0.00    -0.304 NA 
HETATM   10  H   UNL     1     -10.583   7.404  68.694  1.00  0.00     0.000 HD 
BRANCH   9  11
HETATM   11  C   UNL     1     -10.714   9.476  68.597  1.00  0.00    -0.184 A  
HETATM   12  C   UNL     1     -11.421  10.496  69.233  1.00  0.00    -0.323 A  
HETATM   13  C   UNL     1     -11.641  11.712  68.610  1.00  0.00    -0.373 A  
HETATM   14  C   UNL     1     -11.239  11.939  67.293  1.00  0.00    -0.317 A  
HETATM   15  H   UNL     1      -8.932  11.491  61.567  1.00  0.00     0.000 HD 
HETATM   16  C   UNL     1     -10.542  10.904  66.616  1.00  0.00    -0.305 A  
HETATM   17  C   UNL     1     -10.233   9.703  67.281  1.00  0.00    -0.292 A  
HETATM   18  C   UNL     1      -7.824   8.093  63.163  1.00  0.00    -0.149 A  
HETATM   19  O   UNL     1     -10.468  12.060  64.542  1.00  0.00    -0.270 OA 
HETATM   20  C   UNL     1      -8.235   7.880  64.481  1.00  0.00    -0.069 A  
HETATM   21  C   UNL     1      -9.349   8.698  66.617  1.00  0.00    -0.192 C  
HETATM   22  O   UNL     1      -8.860   7.789  67.280  1.00  0.00    -0.126 OA 
HETATM   23  C   UNL     1      -8.165   9.273  62.518  1.00  0.00    -0.158 A  
HETATM   24  C   UNL     1      -8.975   8.860  65.188  1.00  0.00    -0.189 A  
HETATM   25  O   UNL     1      -9.211  11.356  62.465  1.00  0.00    -0.335 OA 
HETATM   26  H   UNL     1      -7.389   6.046  64.602  1.00  0.00     0.000 HD 
HETATM   27  C   UNL     1      -9.333  10.032  64.522  1.00  0.00    -0.345 A  
HETATM   28  O   UNL     1      -7.885   6.703  65.076  1.00  0.00    -0.100 OA 
HETATM   29  C   UNL     1      -8.918  10.231  63.189  1.00  0.00    -0.241 A  
HETATM   30  C   UNL     1     -10.124  11.076  65.199  1.00  0.00    -0.289 C  
BRANCH  14  31
HETATM   31  N   UNL     1     -11.446  13.193  66.745  1.00  0.00    -0.327 NA 
HETATM   32  H   UNL     1     -12.264  13.335  66.151  1.00  0.00     0.000 HD 
BRANCH  31  33
HETATM   33  C   UNL     1     -10.552  14.318  66.977  1.00  0.00    -0.280 C  
BRANCH  33  34
HETATM   34  C   UNL     1     -10.452  14.634  68.479  1.00  0.00    -0.247 C  
BRANCH  34  35
HETATM   35  N   UNL     1     -10.979  15.973  68.780  1.00  0.00    -0.299 NA 
HETATM   36  H   UNL     1     -11.651  16.284  68.079  1.00  0.00     0.000 HD 
BRANCH  35  37
HETATM   37  C   UNL     1     -11.544  16.007  70.135  1.00  0.00    -0.317 C  
BRANCH  37  38
HETATM   38  C   UNL     1     -12.635  14.945  70.289  1.00  0.00    -0.313 C  
HETATM   39  O   UNL     1     -13.824  15.526  70.820  1.00  0.00    -0.867 OA 
HETATM   40  H   UNL     1     -14.501  14.866  70.916  1.00  0.00     0.000 HD 
ENDBRANCH  37  38
ENDBRANCH  35  37
ENDBRANCH  34  35
ENDBRANCH  33  34
ENDBRANCH  31  33
ENDBRANCH  14  31
ENDBRANCH   9  11
ENDBRANCH   8   9
ENDBRANCH   7   8
ENDBRANCH   5   7
ENDBRANCH   4   5
ENDBRANCH   3   4
TORSDOF 12
ENDMDL
MODEL       95
REMARK 921   NORMALIZED FREE ENERGY PREDICTED BY IDOCK:   -4.56 KCAL/MOL
REMARK 922        TOTAL FREE ENERGY PREDICTED BY IDOCK:  -10.03 KCAL/MOL
REMARK 923 INTER-LIGAND FREE ENERGY PREDICTED BY IDOCK:   -8.64 KCAL/MOL
REMARK 924 INTRA-LIGAND FREE ENERGY PREDICTED BY IDOCK:   -1.39 KCAL/MOL
REMARK 927      BINDING AFFINITY PREDICTED BY RF-SCORE:    0.00 PKD
ROOT
HETATM    1  O   UNL     1      -9.256  16.473  65.732  1.00  0.00    -0.486 OA 
HETATM    2  H   UNL     1      -9.041  17.061  66.447  1.00  0.00     0.000 HD 
HETATM    3  C   UNL     1     -10.637  16.124  65.779  1.00  0.00    -0.334 C  
ENDROOT
BRANCH   3   4
HETATM    4  C   UNL     1     -10.983  15.177  64.627  1.00  0.00    -0.303 C  
BRANCH   4   5
HETATM    5  N   UNL     1     -11.358  13.827  65.074  1.00  0.00    -0.317 NA 
HETATM    6  H   UNL     1     -12.208  13.846  65.638  1.00  0.00     0.000 HD 
BRANCH   5   7
HETATM    7  C   UNL     1     -11.484  12.892  63.948  1.00  0.00    -0.446 C  
BRANCH   7   8
HETATM    8  C   UNL     1     -10.586  11.667  64.160  1.00  0.00    -0.357 C  
BRANCH   8   9
HETATM    9  N   UNL     1      -9.979  11.693  65.478  1.00  0.00    -0.234 NA 
HETATM   10  H   UNL     1      -9.498  12.540  65.779  1.00  0.00     0.000 HD 
BRANCH   9  11
HETATM   11  C   UNL     1     -10.025  10.612  66.347  1.00  0.00    -0.222 A  
HETATM   12  C   UNL     1      -9.542   9.375  65.921  1.00  0.00    -0.338 A  
HETATM   13  C   UNL     1      -9.598   8.262  66.741  1.00  0.00    -0.288 A  
HETATM   14  C   UNL     1     -10.216   8.310  67.992  1.00  0.00    -0.214 A  
HETATM   15  H   UNL     1     -13.188  10.004  73.150  1.00  0.00     0.000 HD 
HETATM   16  C   UNL     1     -10.741   9.552  68.434  1.00  0.00    -0.230 A  
HETATM   17  C   UNL     1     -10.597  10.706  67.643  1.00  0.00    -0.288 A  
HETATM   18  C   UNL     1     -12.853  13.407  71.245  1.00  0.00    -0.407 A  
HETATM   19  O   UNL     1     -11.693   8.653  70.417  1.00  0.00    -0.164 OA 
HETATM   20  C   UNL     1     -12.234  13.342  69.995  1.00  0.00    -0.298 A  
HETATM   21  C   UNL     1     -10.995  12.036  68.197  1.00  0.00    -0.230 C  
HETATM   22  O   UNL     1     -10.628  13.062  67.632  1.00  0.00    -0.221 OA 
HETATM   23  C   UNL     1     -13.009  12.250  71.995  1.00  0.00    -0.375 A  
HETATM   24  C   UNL     1     -11.735  12.119  69.482  1.00  0.00    -0.402 A  
HETATM   25  O   UNL     1     -12.761   9.952  72.303  1.00  0.00    -0.325 OA 
HETATM   26  H   UNL     1     -12.440  15.322  69.628  1.00  0.00     0.000 HD 
HETATM   27  C   UNL     1     -11.919  10.959  70.235  1.00  0.00    -0.448 A  
HETATM   28  O   UNL     1     -12.106  14.502  69.285  1.00  0.00    -0.321 OA 
HETATM   29  C   UNL     1     -12.552  11.036  71.492  1.00  0.00    -0.356 A  
HETATM   30  C   UNL     1     -11.444   9.653  69.742  1.00  0.00    -0.052 C  
BRANCH  14  31
HETATM   31  N   UNL     1     -10.198   7.174  68.782  1.00  0.00    -0.174 NA 
HETATM   32  H   UNL     1     -11.086   6.733  69.021  1.00  0.00     0.000 HD 
BRANCH  31  33
HETATM   33  C   UNL     1      -8.968   6.580  69.289  1.00  0.00    -0.131 C  
BRANCH  33  34
HETATM   34  C   UNL     1      -8.912   5.079  68.957  1.00  0.00    -0.097 C  
BRANCH  34  35
HETATM   35  N   UNL     1      -8.895   4.852  67.505  1.00  0.00    -0.103 NA 
HETATM   36  H   UNL     1      -8.066   4.337  67.210  1.00  0.00     0.000 HD 
BRANCH  35  37
HETATM   37  C   UNL     1     -10.133   4.189  67.076  1.00  0.00     0.052 C  
BRANCH  37  38
HETATM   38  C   UNL     1     -10.754   4.927  65.888  1.00  0.00    -0.179 C  
HETATM   39  O   UNL     1      -9.745   5.306  64.954  1.00  0.00    -0.348 OA 
HETATM   40  H   UNL     1     -10.131   5.764  64.217  1.00  0.00     0.000 HD 
ENDBRANCH  37  38
ENDBRANCH  35  37
ENDBRANCH  34  35
ENDBRANCH  33  34
ENDBRANCH  31  33
ENDBRANCH  14  31
ENDBRANCH   9  11
ENDBRANCH   8   9
ENDBRANCH   7   8
ENDBRANCH   5   7
ENDBRANCH   4   5
ENDBRANCH   3   4
TORSDOF 12
ENDMDL
MODEL       96
REMARK 921   NORMALIZED FREE ENERGY PREDICTED BY IDOCK:   -4.52 KCAL/MOL
REMARK 922        TOTAL FREE ENERGY PREDICTED BY IDOCK:   -9.96 KCAL/MOL
REMARK 923 INTER-LIGAND FREE ENERGY PREDICTED BY IDOCK:   -9.44 KCAL/MOL
REMARK 924 INTRA-LIGAND FREE ENERGY PREDICTED BY IDOCK:   -0.52 KCAL/MOL
REMARK 927      BINDING AFFINITY PREDICTED BY RF-SCORE:    0.00 PKD
ROOT
HETATM    1  O   UNL     1     -11.500   4.542  65.121  1.00  0.00    -1.105 OA 
HETATM    2  H   UNL     1     -12.234   5.138  65.036  1.00  0.00     0.000 HD 
HETATM    3  C   UNL     1     -10.612   4.995  66.140  1.00  0.00    -0.265 C  
ENDROOT
BRANCH   3   4
HETATM    4  C   UNL     1      -9.428   4.033  66.276  1.00  0.00    -0.190 C  
BRANCH   4   5
HETATM    5  N   UNL     1      -8.135   4.646  65.937  1.00  0.00    -0.102 NA 
HETATM    6  H   UNL     1      -8.232   5.318  65.175  1.00  0.00     0.000 HD 
BRANCH   5   7
HETATM    7  C   UNL     1      -7.493   5.257  67.109  1.00  0.00    -0.084 C  
BRANCH   7   8
HETATM    8  C   UNL     1      -7.429   6.782  66.956  1.00  0.00    -0.087 C  
BRANCH   8   9
HETATM    9  N   UNL     1      -7.740   7.442  68.211  1.00  0.00    -0.118 NA 
HETATM   10  H   UNL     1      -7.596   6.930  69.082  1.00  0.00     0.000 HD 
BRANCH   9  11
HETATM   11  C   UNL     1      -8.225   8.740  68.277  1.00  0.00    -0.118 A  
HETATM   12  C   UNL     1      -7.523   9.762  67.639  1.00  0.00    -0.091 A  
HETATM   13  C   UNL     1      -7.951  11.077  67.706  1.00  0.00    -0.115 A  
HETATM   14  C   UNL     1      -9.053  11.445  68.481  1.00  0.00    -0.169 A  
HETATM   15  H   UNL     1     -13.981  11.561  72.224  1.00  0.00     0.000 HD 
HETATM   16  C   UNL     1      -9.766  10.424  69.162  1.00  0.00    -0.234 A  
HETATM   17  C   UNL     1      -9.390   9.076  69.017  1.00  0.00    -0.140 A  
HETATM   18  C   UNL     1     -13.262   7.724  71.937  1.00  0.00    -0.300 A  
HETATM   19  O   UNL     1     -11.221  11.933  70.281  1.00  0.00     0.065 OA 
HETATM   20  C   UNL     1     -12.157   7.371  71.160  1.00  0.00    -0.325 A  
HETATM   21  C   UNL     1     -10.253   8.002  69.593  1.00  0.00    -0.208 C  
HETATM   22  O   UNL     1     -10.085   6.837  69.246  1.00  0.00    -0.161 OA 
HETATM   23  C   UNL     1     -13.597   9.061  72.090  1.00  0.00    -0.523 A  
HETATM   24  C   UNL     1     -11.379   8.353  70.497  1.00  0.00    -0.228 A  
HETATM   25  O   UNL     1     -13.230  11.329  71.689  1.00  0.00    -0.419 OA 
HETATM   26  H   UNL     1     -12.378   5.386  71.485  1.00  0.00     0.000 HD 
HETATM   27  C   UNL     1     -11.711   9.696  70.677  1.00  0.00    -0.353 A  
HETATM   28  O   UNL     1     -11.857   6.044  71.041  1.00  0.00    -0.139 OA 
HETATM   29  C   UNL     1     -12.825  10.039  71.471  1.00  0.00    -0.432 A  
HETATM   30  C   UNL     1     -10.923  10.763  70.033  1.00  0.00    -0.211 C  
BRANCH  14  31
HETATM   31  N   UNL     1      -9.457  12.768  68.468  1.00  0.00    -0.381 NA 
HETATM   32  H   UNL     1      -9.172  13.372  69.239  1.00  0.00     0.000 HD 
BRANCH  31  33
HETATM   33  C   UNL     1     -10.272  13.338  67.404  1.00  0.00    -0.229 C  
BRANCH  33  34
HETATM   34  C   UNL     1      -9.476  13.416  66.090  1.00  0.00    -0.140 C  
BRANCH  34  35
HETATM   35  N   UNL     1     -10.370  13.518  64.928  1.00  0.00    -0.462 NA 
HETATM   36  H   UNL     1     -10.730  12.607  64.644  1.00  0.00     0.000 HD 
BRANCH  35  37
HETATM   37  C   UNL     1     -11.451  14.475  65.197  1.00  0.00    -0.368 C  
BRANCH  37  38
HETATM   38  C   UNL     1     -10.910  15.907  65.214  1.00  0.00    -0.387 C  
HETATM   39  O   UNL     1     -11.398  16.636  64.090  1.00  0.00    -1.419 OA 
HETATM   40  H   UNL     1     -11.061  17.525  64.100  1.00  0.00     0.000 HD 
ENDBRANCH  37  38
ENDBRANCH  35  37
ENDBRANCH  34  35
ENDBRANCH  33  34
ENDBRANCH  31  33
ENDBRANCH  14  31
ENDBRANCH   9  11
ENDBRANCH   8   9
ENDBRANCH   7   8
ENDBRANCH   5   7
ENDBRANCH   4   5
ENDBRANCH   3   4
TORSDOF 12
ENDMDL
MODEL       97
REMARK 921   NORMALIZED FREE ENERGY PREDICTED BY IDOCK:   -4.52 KCAL/MOL
REMARK 922        TOTAL FREE ENERGY PREDICTED BY IDOCK:   -9.95 KCAL/MOL
REMARK 923 INTER-LIGAND FREE ENERGY PREDICTED BY IDOCK:   -8.38 KCAL/MOL
REMARK 924 INTRA-LIGAND FREE ENERGY PREDICTED BY IDOCK:   -1.57 KCAL/MOL
REMARK 927      BINDING AFFINITY PREDICTED BY RF-SCORE:    0.00 PKD
ROOT
HETATM    1  O   UNL     1      -9.731   6.049  72.620  1.00  0.00    -0.156 OA 
HETATM    2  H   UNL     1     -10.584   6.219  73.002  1.00  0.00     0.000 HD 
HETATM    3  C   UNL     1      -8.807   7.063  73.007  1.00  0.00    -0.126 C  
ENDROOT
BRANCH   3   4
HETATM    4  C   UNL     1      -7.432   6.788  72.392  1.00  0.00    -0.088 C  
BRANCH   4   5
HETATM    5  N   UNL     1      -7.043   7.767  71.367  1.00  0.00    -0.056 NA 
HETATM    6  H   UNL     1      -6.326   8.403  71.715  1.00  0.00     0.000 HD 
BRANCH   5   7
HETATM    7  C   UNL     1      -6.622   7.118  70.118  1.00  0.00    -0.047 C  
BRANCH   7   8
HETATM    8  C   UNL     1      -7.549   5.942  69.783  1.00  0.00    -0.081 C  
BRANCH   8   9
HETATM    9  N   UNL     1      -8.431   6.278  68.680  1.00  0.00    -0.122 NA 
HETATM   10  H   UNL     1      -8.911   5.522  68.190  1.00  0.00     0.000 HD 
BRANCH   9  11
HETATM   11  C   UNL     1      -8.651   7.583  68.264  1.00  0.00    -0.124 A  
HETATM   12  C   UNL     1      -7.848   8.121  67.259  1.00  0.00    -0.105 A  
HETATM   13  C   UNL     1      -8.008   9.429  66.836  1.00  0.00    -0.109 A  
HETATM   14  C   UNL     1      -8.920  10.287  67.453  1.00  0.00    -0.135 A  
HETATM   15  H   UNL     1     -13.258  12.841  71.055  1.00  0.00     0.000 HD 
HETATM   16  C   UNL     1      -9.728   9.769  68.499  1.00  0.00    -0.164 A  
HETATM   17  C   UNL     1      -9.634   8.413  68.864  1.00  0.00    -0.153 A  
HETATM   18  C   UNL     1     -13.318   9.106  72.225  1.00  0.00    -0.540 A  
HETATM   19  O   UNL     1     -10.728  11.862  69.012  1.00  0.00    -0.214 OA 
HETATM   20  C   UNL     1     -12.400   8.260  71.599  1.00  0.00    -0.315 A  
HETATM   21  C   UNL     1     -10.611   7.841  69.839  1.00  0.00    -0.239 C  
HETATM   22  O   UNL     1     -10.709   6.624  69.956  1.00  0.00    -0.209 OA 
HETATM   23  C   UNL     1     -13.373  10.445  71.869  1.00  0.00    -0.469 A  
HETATM   24  C   UNL     1     -11.535   8.736  70.583  1.00  0.00    -0.263 A  
HETATM   25  O   UNL     1     -12.634  12.271  70.621  1.00  0.00    -0.257 OA 
HETATM   26  H   UNL     1     -12.953   6.631  72.665  1.00  0.00     0.000 HD 
HETATM   27  C   UNL     1     -11.582  10.090  70.250  1.00  0.00    -0.354 A  
HETATM   28  O   UNL     1     -12.373   6.950  71.984  1.00  0.00    -0.315 OA 
HETATM   29  C   UNL     1     -12.509  10.935  70.895  1.00  0.00    -0.408 A  
HETATM   30  C   UNL     1     -10.689  10.647  69.219  1.00  0.00    -0.238 C  
BRANCH  14  31
HETATM   31  N   UNL     1      -9.065  11.569  66.952  1.00  0.00    -0.174 NA 
HETATM   32  H   UNL     1      -8.742  12.353  67.520  1.00  0.00     0.000 HD 
BRANCH  31  33
HETATM   33  C   UNL     1      -9.658  11.849  65.652  1.00  0.00    -0.204 C  
BRANCH  33  34
HETATM   34  C   UNL     1     -10.561  13.093  65.722  1.00  0.00    -0.282 C  
BRANCH  34  35
HETATM   35  N   UNL     1     -11.931  12.738  66.119  1.00  0.00    -0.460 NA 
HETATM   36  H   UNL     1     -11.999  12.543  67.118  1.00  0.00     0.000 HD 
BRANCH  35  37
HETATM   37  C   UNL     1     -12.872  13.785  65.701  1.00  0.00    -0.408 C  
BRANCH  37  38
HETATM   38  C   UNL     1     -12.281  14.614  64.558  1.00  0.00    -0.456 C  
HETATM   39  O   UNL     1     -12.498  13.964  63.308  1.00  0.00    -1.113 OA 
HETATM   40  H   UNL     1     -12.130  14.478  62.598  1.00  0.00     0.000 HD 
ENDBRANCH  37  38
ENDBRANCH  35  37
ENDBRANCH  34  35
ENDBRANCH  33  34
ENDBRANCH  31  33
ENDBRANCH  14  31
ENDBRANCH   9  11
ENDBRANCH   8   9
ENDBRANCH   7   8
ENDBRANCH   5   7
ENDBRANCH   4   5
ENDBRANCH   3   4
TORSDOF 12
ENDMDL
MODEL       98
REMARK 921   NORMALIZED FREE ENERGY PREDICTED BY IDOCK:   -4.51 KCAL/MOL
REMARK 922        TOTAL FREE ENERGY PREDICTED BY IDOCK:   -9.94 KCAL/MOL
REMARK 923 INTER-LIGAND FREE ENERGY PREDICTED BY IDOCK:   -8.66 KCAL/MOL
REMARK 924 INTRA-LIGAND FREE ENERGY PREDICTED BY IDOCK:   -1.28 KCAL/MOL
REMARK 927      BINDING AFFINITY PREDICTED BY RF-SCORE:    0.00 PKD
ROOT
HETATM    1  O   UNL     1      -8.367   7.515  71.948  1.00  0.00    -0.104 OA 
HETATM    2  H   UNL     1      -8.292   8.262  72.529  1.00  0.00     0.000 HD 
HETATM    3  C   UNL     1      -8.675   6.340  72.694  1.00  0.00    -0.123 C  
ENDROOT
BRANCH   3   4
HETATM    4  C   UNL     1      -8.796   5.135  71.757  1.00  0.00    -0.134 C  
BRANCH   4   5
HETATM    5  N   UNL     1      -8.779   5.498  70.333  1.00  0.00    -0.129 NA 
HETATM    6  H   UNL     1      -8.108   4.931  69.814  1.00  0.00     0.000 HD 
BRANCH   5   7
HETATM    7  C   UNL     1     -10.117   5.427  69.731  1.00  0.00    -0.249 C  
BRANCH   7   8
HETATM    8  C   UNL     1     -10.825   6.784  69.828  1.00  0.00    -0.272 C  
BRANCH   8   9
HETATM    9  N   UNL     1      -9.904   7.870  69.548  1.00  0.00    -0.174 NA 
HETATM   10  H   UNL     1      -8.905   7.711  69.682  1.00  0.00     0.000 HD 
BRANCH   9  11
HETATM   11  C   UNL     1     -10.324   9.116  69.105  1.00  0.00    -0.212 A  
HETATM   12  C   UNL     1     -10.988   9.964  69.990  1.00  0.00    -0.338 A  
HETATM   13  C   UNL     1     -11.456  11.202  69.583  1.00  0.00    -0.383 A  
HETATM   14  C   UNL     1     -11.357  11.616  68.253  1.00  0.00    -0.285 A  
HETATM   15  H   UNL     1     -10.236  12.072  62.183  1.00  0.00     0.000 HD 
HETATM   16  C   UNL     1     -10.710  10.755  67.328  1.00  0.00    -0.325 A  
HETATM   17  C   UNL     1     -10.149   9.540  67.761  1.00  0.00    -0.244 A  
HETATM   18  C   UNL     1      -8.479   8.693  63.087  1.00  0.00    -0.100 A  
HETATM   19  O   UNL     1     -11.182  12.124  65.444  1.00  0.00    -0.314 OA 
HETATM   20  C   UNL     1      -8.587   8.292  64.421  1.00  0.00     0.091 A  
HETATM   21  C   UNL     1      -9.319   8.732  66.817  1.00  0.00    -0.179 C  
HETATM   22  O   UNL     1      -8.613   7.827  67.253  1.00  0.00    -0.126 OA 
HETATM   23  C   UNL     1      -9.065   9.882  62.677  1.00  0.00    -0.304 A  
HETATM   24  C   UNL     1      -9.264   9.089  65.376  1.00  0.00    -0.241 A  
HETATM   25  O   UNL     1     -10.310  11.809  63.093  1.00  0.00    -0.386 OA 
HETATM   26  H   UNL     1      -7.548   6.578  64.142  1.00  0.00     0.000 HD 
HETATM   27  C   UNL     1      -9.870  10.270  64.947  1.00  0.00    -0.404 A  
HETATM   28  O   UNL     1      -8.002   7.113  64.782  1.00  0.00    -0.122 OA 
HETATM   29  C   UNL     1      -9.760  10.660  63.597  1.00  0.00    -0.330 A  
HETATM   30  C   UNL     1     -10.611  11.127  65.891  1.00  0.00    -0.234 C  
BRANCH  14  31
HETATM   31  N   UNL     1     -11.801  12.884  67.920  1.00  0.00    -0.353 NA 
HETATM   32  H   UNL     1     -12.562  12.972  67.246  1.00  0.00     0.000 HD 
BRANCH  31  33
HETATM   33  C   UNL     1     -11.233  14.098  68.489  1.00  0.00    -0.260 C  
BRANCH  33  34
HETATM   34  C   UNL     1     -11.524  15.310  67.588  1.00  0.00    -0.280 C  
BRANCH  34  35
HETATM   35  N   UNL     1     -10.285  15.872  67.030  1.00  0.00    -0.276 NA 
HETATM   36  H   UNL     1      -9.456  15.481  67.477  1.00  0.00     0.000 HD 
BRANCH  35  37
HETATM   37  C   UNL     1     -10.256  15.698  65.572  1.00  0.00    -0.385 C  
BRANCH  37  38
HETATM   38  C   UNL     1     -10.788  16.950  64.871  1.00  0.00     0.003 C  
HETATM   39  O   UNL     1     -11.781  16.598  63.910  1.00  0.00    -1.487 OA 
HETATM   40  H   UNL     1     -12.110  17.375  63.474  1.00  0.00     0.000 HD 
ENDBRANCH  37  38
ENDBRANCH  35  37
ENDBRANCH  34  35
ENDBRANCH  33  34
ENDBRANCH  31  33
ENDBRANCH  14  31
ENDBRANCH   9  11
ENDBRANCH   8   9
ENDBRANCH   7   8
ENDBRANCH   5   7
ENDBRANCH   4   5
ENDBRANCH   3   4
TORSDOF 12
ENDMDL
MODEL       99
REMARK 921   NORMALIZED FREE ENERGY PREDICTED BY IDOCK:   -4.50 KCAL/MOL
REMARK 922        TOTAL FREE ENERGY PREDICTED BY IDOCK:   -9.93 KCAL/MOL
REMARK 923 INTER-LIGAND FREE ENERGY PREDICTED BY IDOCK:   -8.21 KCAL/MOL
REMARK 924 INTRA-LIGAND FREE ENERGY PREDICTED BY IDOCK:   -1.72 KCAL/MOL
REMARK 927      BINDING AFFINITY PREDICTED BY RF-SCORE:    0.00 PKD
ROOT
HETATM    1  O   UNL     1      -8.966  16.877  65.955  1.00  0.00    -0.509 OA 
HETATM    2  H   UNL     1      -8.627  17.665  66.362  1.00  0.00     0.000 HD 
HETATM    3  C   UNL     1     -10.388  16.935  65.877  1.00  0.00    -0.315 C  
ENDROOT
BRANCH   3   4
HETATM    4  C   UNL     1     -10.934  15.664  65.220  1.00  0.00    -0.364 C  
BRANCH   4   5
HETATM    5  N   UNL     1     -11.529  14.720  66.179  1.00  0.00    -0.338 NA 
HETATM    6  H   UNL     1     -11.888  15.205  67.002  1.00  0.00     0.000 HD 
BRANCH   5   7
HETATM    7  C   UNL     1     -12.566  13.886  65.556  1.00  0.00    -0.526 C  
BRANCH   7   8
HETATM    8  C   UNL     1     -12.091  12.433  65.440  1.00  0.00    -0.365 C  
BRANCH   8   9
HETATM    9  N   UNL     1     -10.970  12.181  66.328  1.00  0.00    -0.282 NA 
HETATM   10  H   UNL     1     -10.551  12.970  66.821  1.00  0.00     0.000 HD 
BRANCH   9  11
HETATM   11  C   UNL     1     -10.445  10.914  66.534  1.00  0.00    -0.253 A  
HETATM   12  C   UNL     1      -9.690  10.318  65.525  1.00  0.00    -0.326 A  
HETATM   13  C   UNL     1      -9.175   9.042  65.673  1.00  0.00    -0.288 A  
HETATM   14  C   UNL     1      -9.459   8.268  66.800  1.00  0.00    -0.198 A  
HETATM   15  H   UNL     1     -11.523   6.095  72.216  1.00  0.00     0.000 HD 
HETATM   16  C   UNL     1     -10.251   8.845  67.827  1.00  0.00    -0.283 A  
HETATM   17  C   UNL     1     -10.694  10.176  67.721  1.00  0.00    -0.328 A  
HETATM   18  C   UNL     1     -12.808   9.793  72.275  1.00  0.00    -0.379 A  
HETATM   19  O   UNL     1     -10.350   6.854  69.120  1.00  0.00    -0.180 OA 
HETATM   20  C   UNL     1     -12.516  10.553  71.141  1.00  0.00    -0.412 A  
HETATM   21  C   UNL     1     -11.371  10.824  68.884  1.00  0.00    -0.284 C  
HETATM   22  O   UNL     1     -11.514  12.042  68.901  1.00  0.00    -0.250 OA 
HETATM   23  C   UNL     1     -12.386   8.473  72.345  1.00  0.00    -0.424 A  
HETATM   24  C   UNL     1     -11.772  10.013  70.063  1.00  0.00    -0.242 A  
HETATM   25  O   UNL     1     -11.317   6.608  71.442  1.00  0.00    -0.263 OA 
HETATM   26  H   UNL     1     -13.455  12.208  71.830  1.00  0.00     0.000 HD 
HETATM   27  C   UNL     1     -11.373   8.678  70.134  1.00  0.00    -0.083 A  
HETATM   28  O   UNL     1     -12.956  11.845  71.108  1.00  0.00    -0.299 OA 
HETATM   29  C   UNL     1     -11.680   7.918  71.282  1.00  0.00    -0.287 A  
HETATM   30  C   UNL     1     -10.618   8.053  69.033  1.00  0.00    -0.154 C  
BRANCH  14  31
HETATM   31  N   UNL     1      -8.876   7.018  66.908  1.00  0.00    -0.120 NA 
HETATM   32  H   UNL     1      -9.479   6.196  66.891  1.00  0.00     0.000 HD 
BRANCH  31  33
HETATM   33  C   UNL     1      -7.439   6.823  67.046  1.00  0.00    -0.087 C  
BRANCH  33  34
HETATM   34  C   UNL     1      -6.913   7.526  68.309  1.00  0.00    -0.068 C  
BRANCH  34  35
HETATM   35  N   UNL     1      -7.397   6.867  69.530  1.00  0.00    -0.088 NA 
HETATM   36  H   UNL     1      -8.416   6.865  69.583  1.00  0.00     0.000 HD 
BRANCH  35  37
HETATM   37  C   UNL     1      -6.842   5.512  69.635  1.00  0.00    -0.060 C  
BRANCH  37  38
HETATM   38  C   UNL     1      -7.926   4.517  70.058  1.00  0.00    -0.063 C  
HETATM   39  O   UNL     1      -8.752   4.180  68.946  1.00  0.00    -0.085 OA 
HETATM   40  H   UNL     1      -9.425   3.563  69.208  1.00  0.00     0.000 HD 
ENDBRANCH  37  38
ENDBRANCH  35  37
ENDBRANCH  34  35
ENDBRANCH  33  34
ENDBRANCH  31  33
ENDBRANCH  14  31
ENDBRANCH   9  11
ENDBRANCH   8   9
ENDBRANCH   7   8
ENDBRANCH   5   7
ENDBRANCH   4   5
ENDBRANCH   3   4
TORSDOF 12
ENDMDL
MODEL      100
REMARK 921   NORMALIZED FREE ENERGY PREDICTED BY IDOCK:   -4.49 KCAL/MOL
REMARK 922        TOTAL FREE ENERGY PREDICTED BY IDOCK:   -9.90 KCAL/MOL
REMARK 923 INTER-LIGAND FREE ENERGY PREDICTED BY IDOCK:   -8.59 KCAL/MOL
REMARK 924 INTRA-LIGAND FREE ENERGY PREDICTED BY IDOCK:   -1.30 KCAL/MOL
REMARK 927      BINDING AFFINITY PREDICTED BY RF-SCORE:    0.00 PKD
ROOT
HETATM    1  O   UNL     1      -9.018   3.905  66.527  1.00  0.00    -0.120 OA 
HETATM    2  H   UNL     1      -8.361   3.480  65.989  1.00  0.00     0.000 HD 
HETATM    3  C   UNL     1      -9.748   4.855  65.755  1.00  0.00    -0.169 C  
ENDROOT
BRANCH   3   4
HETATM    4  C   UNL     1     -10.808   5.539  66.622  1.00  0.00    -0.179 C  
BRANCH   4   5
HETATM    5  N   UNL     1     -10.663   7.002  66.679  1.00  0.00    -0.532 NA 
HETATM    6  H   UNL     1     -11.437   7.432  67.185  1.00  0.00     0.000 HD 
BRANCH   5   7
HETATM    7  C   UNL     1      -9.367   7.403  67.243  1.00  0.00    -0.133 C  
BRANCH   7   8
HETATM    8  C   UNL     1      -9.122   8.900  67.020  1.00  0.00    -0.135 C  
BRANCH   8   9
HETATM    9  N   UNL     1     -10.099   9.698  67.738  1.00  0.00    -0.175 NA 
HETATM   10  H   UNL     1     -10.659   9.249  68.463  1.00  0.00     0.000 HD 
BRANCH   9  11
HETATM   11  C   UNL     1     -10.304  11.045  67.480  1.00  0.00    -0.198 A  
HETATM   12  C   UNL     1      -9.770  11.605  66.320  1.00  0.00    -0.241 A  
HETATM   13  C   UNL     1      -9.920  12.952  66.039  1.00  0.00    -0.275 A  
HETATM   14  C   UNL     1     -10.536  13.820  66.942  1.00  0.00    -0.276 A  
HETATM   15  H   UNL     1     -13.423  16.376  71.784  1.00  0.00     0.000 HD 
HETATM   16  C   UNL     1     -11.061  13.277  68.143  1.00  0.00    -0.286 A  
HETATM   17  C   UNL     1     -10.996  11.893  68.386  1.00  0.00    -0.273 A  
HETATM   18  C   UNL     1     -13.501  12.571  72.701  1.00  0.00     0.111 A  
HETATM   19  O   UNL     1     -11.675  15.388  69.045  1.00  0.00    -0.332 OA 
HETATM   20  C   UNL     1     -12.880  11.715  71.788  1.00  0.00    -0.313 A  
HETATM   21  C   UNL     1     -11.707  11.315  69.566  1.00  0.00    -0.345 C  
HETATM   22  O   UNL     1     -11.882  10.102  69.634  1.00  0.00    -0.164 OA 
HETATM   23  C   UNL     1     -13.528  13.936  72.454  1.00  0.00    -0.661 A  
HETATM   24  C   UNL     1     -12.296  12.210  70.595  1.00  0.00    -0.385 A  
HETATM   25  O   UNL     1     -13.003  15.800  71.156  1.00  0.00    -0.491 OA 
HETATM   26  H   UNL     1     -13.260  10.048  72.870  1.00  0.00     0.000 HD 
HETATM   27  C   UNL     1     -12.308  13.586  70.371  1.00  0.00    -0.397 A  
HETATM   28  O   UNL     1     -12.868  10.380  72.071  1.00  0.00    -0.431 OA 
HETATM   29  C   UNL     1     -12.932  14.440  71.303  1.00  0.00    -0.344 A  
HETATM   30  C   UNL     1     -11.693  14.161  69.160  1.00  0.00    -0.327 C  
BRANCH  14  31
HETATM   31  N   UNL     1     -10.696  15.146  66.580  1.00  0.00    -0.305 NA 
HETATM   32  H   UNL     1     -11.640  15.533  66.554  1.00  0.00     0.000 HD 
BRANCH  31  33
HETATM   33  C   UNL     1      -9.580  16.014  66.235  1.00  0.00    -0.307 C  
BRANCH  33  34
HETATM   34  C   UNL     1      -8.789  16.412  67.493  1.00  0.00    -0.179 C  
BRANCH  34  35
HETATM   35  N   UNL     1      -7.530  15.659  67.594  1.00  0.00    -0.148 NA 
HETATM   36  H   UNL     1      -6.721  16.277  67.648  1.00  0.00     0.000 HD 
BRANCH  35  37
HETATM   37  C   UNL     1      -7.582  14.726  68.727  1.00  0.00    -0.137 C  
BRANCH  37  38
HETATM   38  C   UNL     1      -6.970  13.377  68.341  1.00  0.00    -0.105 C  
HETATM   39  O   UNL     1      -5.924  13.560  67.390  1.00  0.00    -0.341 OA 
HETATM   40  H   UNL     1      -5.544  12.723  67.150  1.00  0.00     0.000 HD 
ENDBRANCH  37  38
ENDBRANCH  35  37
ENDBRANCH  34  35
ENDBRANCH  33  34
ENDBRANCH  31  33
ENDBRANCH  14  31
ENDBRANCH   9  11
ENDBRANCH   8   9
ENDBRANCH   7   8
ENDBRANCH   5   7
ENDBRANCH   4   5
ENDBRANCH   3   4
TORSDOF 12
ENDMDL
MODEL      101
REMARK 921   NORMALIZED FREE ENERGY PREDICTED BY IDOCK:   -4.46 KCAL/MOL
REMARK 922        TOTAL FREE ENERGY PREDICTED BY IDOCK:   -9.85 KCAL/MOL
REMARK 923 INTER-LIGAND FREE ENERGY PREDICTED BY IDOCK:   -9.27 KCAL/MOL
REMARK 924 INTRA-LIGAND FREE ENERGY PREDICTED BY IDOCK:   -0.59 KCAL/MOL
REMARK 927      BINDING AFFINITY PREDICTED BY RF-SCORE:    0.00 PKD
ROOT
HETATM    1  O   UNL     1     -10.478  10.617  62.461  1.00  0.00    -0.719 OA 
HETATM    2  H   UNL     1     -10.014   9.885  62.073  1.00  0.00     0.000 HD 
HETATM    3  C   UNL     1      -9.588  11.400  63.254  1.00  0.00    -0.357 C  
ENDROOT
BRANCH   3   4
HETATM    4  C   UNL     1     -10.336  12.581  63.879  1.00  0.00    -0.409 C  
BRANCH   4   5
HETATM    5  N   UNL     1     -11.751  12.651  63.484  1.00  0.00    -0.529 NA 
HETATM    6  H   UNL     1     -11.981  11.931  62.800  1.00  0.00     0.000 HD 
BRANCH   5   7
HETATM    7  C   UNL     1     -12.649  12.590  64.646  1.00  0.00    -0.426 C  
BRANCH   7   8
HETATM    8  C   UNL     1     -12.941  13.999  65.177  1.00  0.00    -0.223 C  
BRANCH   8   9
HETATM    9  N   UNL     1     -12.627  14.095  66.591  1.00  0.00    -0.510 NA 
HETATM   10  H   UNL     1     -13.200  14.701  67.179  1.00  0.00     0.000 HD 
BRANCH   9  11
HETATM   11  C   UNL     1     -11.581  13.397  67.177  1.00  0.00    -0.358 A  
HETATM   12  C   UNL     1     -11.809  12.110  67.663  1.00  0.00    -0.316 A  
HETATM   13  C   UNL     1     -10.804  11.390  68.285  1.00  0.00    -0.253 A  
HETATM   14  C   UNL     1      -9.549  11.951  68.527  1.00  0.00    -0.157 A  
HETATM   15  H   UNL     1      -4.613  15.668  68.898  1.00  0.00     0.000 HD 
HETATM   16  C   UNL     1      -9.304  13.271  68.067  1.00  0.00    -0.218 A  
HETATM   17  C   UNL     1     -10.292  13.968  67.348  1.00  0.00    -0.259 A  
HETATM   18  C   UNL     1      -7.102  17.823  66.780  1.00  0.00    -0.236 A  
HETATM   19  O   UNL     1      -7.145  13.409  69.049  1.00  0.00    -0.105 OA 
HETATM   20  C   UNL     1      -8.354  17.248  66.547  1.00  0.00    -0.277 A  
HETATM   21  C   UNL     1      -9.960  15.282  66.719  1.00  0.00    -0.242 C  
HETATM   22  O   UNL     1     -10.715  15.760  65.878  1.00  0.00    -0.321 OA 
HETATM   23  C   UNL     1      -6.153  17.128  67.516  1.00  0.00    -0.160 A  
HETATM   24  C   UNL     1      -8.670  15.953  67.026  1.00  0.00    -0.248 A  
HETATM   25  O   UNL     1      -5.461  15.268  68.740  1.00  0.00    -0.088 OA 
HETATM   26  H   UNL     1      -9.051  18.836  65.504  1.00  0.00     0.000 HD 
HETATM   27  C   UNL     1      -7.716  15.274  67.785  1.00  0.00    -0.164 A  
HETATM   28  O   UNL     1      -9.262  17.968  65.825  1.00  0.00    -0.486 OA 
HETATM   29  C   UNL     1      -6.459  15.867  68.019  1.00  0.00    -0.133 A  
HETATM   30  C   UNL     1      -7.998  13.934  68.331  1.00  0.00    -0.144 C  
BRANCH  14  31
HETATM   31  N   UNL     1      -8.574  11.162  69.111  1.00  0.00    -0.376 NA 
HETATM   32  H   UNL     1      -8.104  11.509  69.948  1.00  0.00     0.000 HD 
BRANCH  31  33
HETATM   33  C   UNL     1      -8.187   9.860  68.586  1.00  0.00    -0.108 C  
BRANCH  33  34
HETATM   34  C   UNL     1      -8.749   8.730  69.465  1.00  0.00    -0.138 C  
BRANCH  34  35
HETATM   35  N   UNL     1      -9.255   9.248  70.745  1.00  0.00    -0.256 NA 
HETATM   36  H   UNL     1      -9.175  10.263  70.802  1.00  0.00     0.000 HD 
BRANCH  35  37
HETATM   37  C   UNL     1     -10.632   8.793  70.972  1.00  0.00    -0.230 C  
BRANCH  37  38
HETATM   38  C   UNL     1     -10.960   7.600  70.071  1.00  0.00    -0.228 C  
HETATM   39  O   UNL     1     -12.232   7.054  70.412  1.00  0.00    -0.591 OA 
HETATM   40  H   UNL     1     -12.435   6.313  69.854  1.00  0.00     0.000 HD 
ENDBRANCH  37  38
ENDBRANCH  35  37
ENDBRANCH  34  35
ENDBRANCH  33  34
ENDBRANCH  31  33
ENDBRANCH  14  31
ENDBRANCH   9  11
ENDBRANCH   8   9
ENDBRANCH   7   8
ENDBRANCH   5   7
ENDBRANCH   4   5
ENDBRANCH   3   4
TORSDOF 12
ENDMDL
MODEL      102
REMARK 921   NORMALIZED FREE ENERGY PREDICTED BY IDOCK:   -4.42 KCAL/MOL
REMARK 922        TOTAL FREE ENERGY PREDICTED BY IDOCK:   -9.78 KCAL/MOL
REMARK 923 INTER-LIGAND FREE ENERGY PREDICTED BY IDOCK:   -8.65 KCAL/MOL
REMARK 924 INTRA-LIGAND FREE ENERGY PREDICTED BY IDOCK:   -1.13 KCAL/MOL
REMARK 927      BINDING AFFINITY PREDICTED BY RF-SCORE:    0.00 PKD
ROOT
HETATM    1  O   UNL     1      -7.580   7.772  65.719  1.00  0.00    -0.079 OA 
HETATM    2  H   UNL     1      -6.947   7.346  66.284  1.00  0.00     0.000 HD 
HETATM    3  C   UNL     1      -7.238   7.563  64.351  1.00  0.00    -0.081 C  
ENDROOT
BRANCH   3   4
HETATM    4  C   UNL     1      -8.260   8.250  63.440  1.00  0.00    -0.088 C  
BRANCH   4   5
HETATM    5  N   UNL     1      -8.157   9.717  63.449  1.00  0.00    -0.141 NA 
HETATM    6  H   UNL     1      -7.204  10.023  63.252  1.00  0.00     0.000 HD 
BRANCH   5   7
HETATM    7  C   UNL     1      -9.120  10.340  62.530  1.00  0.00    -0.287 C  
BRANCH   7   8
HETATM    8  C   UNL     1      -9.799  11.544  63.196  1.00  0.00    -0.390 C  
BRANCH   8   9
HETATM    9  N   UNL     1      -9.385  11.671  64.582  1.00  0.00    -0.422 NA 
HETATM   10  H   UNL     1      -8.501  11.252  64.868  1.00  0.00     0.000 HD 
BRANCH   9  11
HETATM   11  C   UNL     1     -10.143  12.338  65.533  1.00  0.00    -0.256 A  
HETATM   12  C   UNL     1     -10.481  13.674  65.319  1.00  0.00    -0.362 A  
HETATM   13  C   UNL     1     -11.207  14.389  66.256  1.00  0.00    -0.338 A  
HETATM   14  C   UNL     1     -11.558  13.830  67.486  1.00  0.00    -0.354 A  
HETATM   15  H   UNL     1     -12.377  10.115  72.369  1.00  0.00     0.000 HD 
HETATM   16  C   UNL     1     -11.199  12.480  67.737  1.00  0.00    -0.318 A  
HETATM   17  C   UNL     1     -10.547  11.722  66.747  1.00  0.00    -0.273 A  
HETATM   18  C   UNL     1     -10.667   7.714  69.793  1.00  0.00    -0.243 A  
HETATM   19  O   UNL     1     -11.980  12.496  69.981  1.00  0.00    -0.332 OA 
HETATM   20  C   UNL     1     -10.321   8.288  68.567  1.00  0.00    -0.199 A  
HETATM   21  C   UNL     1     -10.335  10.258  66.957  1.00  0.00    -0.243 C  
HETATM   22  O   UNL     1     -10.020   9.549  66.007  1.00  0.00    -0.278 OA 
HETATM   23  C   UNL     1     -11.284   8.488  70.765  1.00  0.00    -0.289 A  
HETATM   24  C   UNL     1     -10.611   9.646  68.282  1.00  0.00    -0.268 A  
HETATM   25  O   UNL     1     -12.149  10.511  71.536  1.00  0.00    -0.330 OA 
HETATM   26  H   UNL     1      -9.514   6.584  67.831  1.00  0.00     0.000 HD 
HETATM   27  C   UNL     1     -11.210  10.420  69.276  1.00  0.00    -0.304 A  
HETATM   28  O   UNL     1      -9.709   7.494  67.641  1.00  0.00    -0.139 OA 
HETATM   29  C   UNL     1     -11.547   9.831  70.511  1.00  0.00    -0.292 A  
HETATM   30  C   UNL     1     -11.513  11.844  69.046  1.00  0.00    -0.297 C  
BRANCH  14  31
HETATM   31  N   UNL     1     -12.324  14.582  68.360  1.00  0.00    -0.605 NA 
HETATM   32  H   UNL     1     -13.337  14.588  68.237  1.00  0.00     0.000 HD 
BRANCH  31  33
HETATM   33  C   UNL     1     -11.751  15.363  69.446  1.00  0.00    -0.351 C  
BRANCH  33  34
HETATM   34  C   UNL     1     -11.547  16.826  69.016  1.00  0.00     0.309 C  
BRANCH  34  35
HETATM   35  N   UNL     1     -10.282  16.997  68.286  1.00  0.00    -0.306 NA 
HETATM   36  H   UNL     1     -10.401  16.865  67.282  1.00  0.00     0.000 HD 
BRANCH  35  37
HETATM   37  C   UNL     1      -9.683  18.301  68.600  1.00  0.00    -0.361 C  
BRANCH  37  38
HETATM   38  C   UNL     1      -9.811  19.252  67.407  1.00  0.00    -0.336 C  
HETATM   39  O   UNL     1     -10.411  18.583  66.300  1.00  0.00    -0.396 OA 
HETATM   40  H   UNL     1     -10.490  19.173  65.559  1.00  0.00     0.000 HD 
ENDBRANCH  37  38
ENDBRANCH  35  37
ENDBRANCH  34  35
ENDBRANCH  33  34
ENDBRANCH  31  33
ENDBRANCH  14  31
ENDBRANCH   9  11
ENDBRANCH   8   9
ENDBRANCH   7   8
ENDBRANCH   5   7
ENDBRANCH   4   5
ENDBRANCH   3   4
TORSDOF 12
ENDMDL
MODEL      103
REMARK 921   NORMALIZED FREE ENERGY PREDICTED BY IDOCK:   -4.41 KCAL/MOL
REMARK 922        TOTAL FREE ENERGY PREDICTED BY IDOCK:   -9.77 KCAL/MOL
REMARK 923 INTER-LIGAND FREE ENERGY PREDICTED BY IDOCK:   -8.66 KCAL/MOL
REMARK 924 INTRA-LIGAND FREE ENERGY PREDICTED BY IDOCK:   -1.11 KCAL/MOL
REMARK 927      BINDING AFFINITY PREDICTED BY RF-SCORE:    0.00 PKD
ROOT
HETATM    1  O   UNL     1     -11.150   5.298  66.213  1.00  0.00    -0.667 OA 
HETATM    2  H   UNL     1     -11.782   4.892  66.795  1.00  0.00     0.000 HD 
HETATM    3  C   UNL     1     -10.299   6.175  66.947  1.00  0.00    -0.248 C  
ENDROOT
BRANCH   3   4
HETATM    4  C   UNL     1      -9.280   6.829  66.010  1.00  0.00    -0.030 C  
BRANCH   4   5
HETATM    5  N   UNL     1      -8.656   8.035  66.576  1.00  0.00    -0.134 NA 
HETATM    6  H   UNL     1      -7.847   7.798  67.150  1.00  0.00     0.000 HD 
BRANCH   5   7
HETATM    7  C   UNL     1      -8.305   9.011  65.535  1.00  0.00    -0.133 C  
BRANCH   7   8
HETATM    8  C   UNL     1      -7.767  10.302  66.166  1.00  0.00    -0.123 C  
BRANCH   8   9
HETATM    9  N   UNL     1      -8.405  10.558  67.445  1.00  0.00    -0.121 NA 
HETATM   10  H   UNL     1      -8.289   9.877  68.195  1.00  0.00     0.000 HD 
BRANCH   9  11
HETATM   11  C   UNL     1      -9.166  11.692  67.690  1.00  0.00    -0.178 A  
HETATM   12  C   UNL     1      -8.859  12.876  67.020  1.00  0.00    -0.208 A  
HETATM   13  C   UNL     1      -9.569  14.040  67.258  1.00  0.00    -0.238 A  
HETATM   14  C   UNL     1     -10.564  14.099  68.235  1.00  0.00    -0.251 A  
HETATM   15  H   UNL     1     -14.600  12.869  72.765  1.00  0.00     0.000 HD 
HETATM   16  C   UNL     1     -10.874  12.912  68.950  1.00  0.00    -0.239 A  
HETATM   17  C   UNL     1     -10.220  11.705  68.641  1.00  0.00    -0.215 A  
HETATM   18  C   UNL     1     -13.049   9.342  72.072  1.00  0.00    -0.516 A  
HETATM   19  O   UNL     1     -12.416  13.976  70.411  1.00  0.00    -0.336 OA 
HETATM   20  C   UNL     1     -12.055   9.300  71.092  1.00  0.00    -0.316 A  
HETATM   21  C   UNL     1     -10.680  10.433  69.275  1.00  0.00    -0.237 C  
HETATM   22  O   UNL     1     -10.305   9.358  68.817  1.00  0.00    -0.198 OA 
HETATM   23  C   UNL     1     -13.660  10.549  72.379  1.00  0.00     0.117 A  
HETATM   24  C   UNL     1     -11.671  10.464  70.382  1.00  0.00    -0.419 A  
HETATM   25  O   UNL     1     -13.927  12.848  72.093  1.00  0.00    -0.367 OA 
HETATM   26  H   UNL     1     -11.730   7.313  71.300  1.00  0.00     0.000 HD 
HETATM   27  C   UNL     1     -12.275  11.676  70.717  1.00  0.00    -0.443 A  
HETATM   28  O   UNL     1     -11.473   8.094  70.824  1.00  0.00    -0.278 OA 
HETATM   29  C   UNL     1     -13.273  11.707  71.712  1.00  0.00    -0.333 A  
HETATM   30  C   UNL     1     -11.898  12.925  70.029  1.00  0.00    -0.286 C  
BRANCH  14  31
HETATM   31  N   UNL     1     -11.269  15.279  68.391  1.00  0.00    -0.293 NA 
HETATM   32  H   UNL     1     -12.277  15.268  68.235  1.00  0.00     0.000 HD 
BRANCH  31  33
HETATM   33  C   UNL     1     -10.638  16.536  68.768  1.00  0.00    -0.322 C  
BRANCH  33  34
HETATM   34  C   UNL     1     -10.775  17.574  67.642  1.00  0.00    -0.306 C  
BRANCH  34  35
HETATM   35  N   UNL     1      -9.730  18.604  67.733  1.00  0.00    -0.305 NA 
HETATM   36  H   UNL     1      -8.979  18.329  68.367  1.00  0.00     0.000 HD 
BRANCH  35  37
HETATM   37  C   UNL     1      -9.223  18.939  66.396  1.00  0.00    -0.313 C  
BRANCH  37  38
HETATM   38  C   UNL     1      -7.905  19.711  66.499  1.00  0.00    -0.294 C  
HETATM   39  O   UNL     1      -7.585  20.317  65.249  1.00  0.00    -0.435 OA 
HETATM   40  H   UNL     1      -6.767  20.795  65.312  1.00  0.00     0.000 HD 
ENDBRANCH  37  38
ENDBRANCH  35  37
ENDBRANCH  34  35
ENDBRANCH  33  34
ENDBRANCH  31  33
ENDBRANCH  14  31
ENDBRANCH   9  11
ENDBRANCH   8   9
ENDBRANCH   7   8
ENDBRANCH   5   7
ENDBRANCH   4   5
ENDBRANCH   3   4
TORSDOF 12
ENDMDL
MODEL      104
REMARK 921   NORMALIZED FREE ENERGY PREDICTED BY IDOCK:   -4.37 KCAL/MOL
REMARK 922        TOTAL FREE ENERGY PREDICTED BY IDOCK:   -9.70 KCAL/MOL
REMARK 923 INTER-LIGAND FREE ENERGY PREDICTED BY IDOCK:   -8.48 KCAL/MOL
REMARK 924 INTRA-LIGAND FREE ENERGY PREDICTED BY IDOCK:   -1.22 KCAL/MOL
REMARK 927      BINDING AFFINITY PREDICTED BY RF-SCORE:    0.00 PKD
ROOT
HETATM    1  O   UNL     1      -7.235  14.673  69.941  1.00  0.00    -0.338 OA 
HETATM    2  H   UNL     1      -6.499  14.746  70.537  1.00  0.00     0.000 HD 
HETATM    3  C   UNL     1      -7.525  15.941  69.358  1.00  0.00    -0.213 C  
ENDROOT
BRANCH   3   4
HETATM    4  C   UNL     1      -8.710  15.822  68.396  1.00  0.00    -0.177 C  
BRANCH   4   5
HETATM    5  N   UNL     1      -9.474  17.071  68.253  1.00  0.00    -0.257 NA 
HETATM    6  H   UNL     1      -8.982  17.740  67.659  1.00  0.00     0.000 HD 
BRANCH   5   7
HETATM    7  C   UNL     1     -10.839  16.828  67.767  1.00  0.00    -0.285 C  
BRANCH   7   8
HETATM    8  C   UNL     1     -11.585  15.877  68.711  1.00  0.00    -0.386 C  
BRANCH   8   9
HETATM    9  N   UNL     1     -12.212  14.798  67.969  1.00  0.00    -0.580 NA 
HETATM   10  H   UNL     1     -13.214  14.848  67.785  1.00  0.00     0.000 HD 
BRANCH   9  11
HETATM   11  C   UNL     1     -11.506  13.700  67.500  1.00  0.00    -0.329 A  
HETATM   12  C   UNL     1     -10.864  13.781  66.265  1.00  0.00    -0.283 A  
HETATM   13  C   UNL     1     -10.176  12.700  65.741  1.00  0.00    -0.288 A  
HETATM   14  C   UNL     1     -10.166  11.462  66.386  1.00  0.00    -0.230 A  
HETATM   15  H   UNL     1     -10.992   6.725  70.284  1.00  0.00     0.000 HD 
HETATM   16  C   UNL     1     -10.837  11.349  67.631  1.00  0.00    -0.286 A  
HETATM   17  C   UNL     1     -11.454  12.472  68.211  1.00  0.00    -0.355 A  
HETATM   18  C   UNL     1     -12.700   9.675  72.208  1.00  0.00    -0.362 A  
HETATM   19  O   UNL     1     -10.466   9.010  67.827  1.00  0.00    -0.237 OA 
HETATM   20  C   UNL     1     -12.703  10.907  71.550  1.00  0.00    -0.428 A  
HETATM   21  C   UNL     1     -12.001  12.381  69.599  1.00  0.00    -0.274 C  
HETATM   22  O   UNL     1     -12.290  13.408  70.205  1.00  0.00    -0.306 OA 
HETATM   23  C   UNL     1     -12.110   8.574  71.604  1.00  0.00    -0.373 A  
HETATM   24  C   UNL     1     -12.090  11.065  70.282  1.00  0.00    -0.448 A  
HETATM   25  O   UNL     1     -10.985   7.561  69.831  1.00  0.00    -0.250 OA 
HETATM   26  H   UNL     1     -13.710  11.857  73.025  1.00  0.00     0.000 HD 
HETATM   27  C   UNL     1     -11.522   9.945  69.674  1.00  0.00    -0.160 A  
HETATM   28  O   UNL     1     -13.300  11.963  72.175  1.00  0.00    -0.503 OA 
HETATM   29  C   UNL     1     -11.532   8.706  70.346  1.00  0.00    -0.136 A  
HETATM   30  C   UNL     1     -10.893  10.044  68.344  1.00  0.00    -0.235 C  
BRANCH  14  31
HETATM   31  N   UNL     1      -9.420  10.435  65.834  1.00  0.00    -0.179 NA 
HETATM   32  H   UNL     1      -9.899   9.573  65.572  1.00  0.00     0.000 HD 
BRANCH  31  33
HETATM   33  C   UNL     1      -7.985  10.529  65.611  1.00  0.00    -0.158 C  
BRANCH  33  34
HETATM   34  C   UNL     1      -7.216  10.374  66.934  1.00  0.00    -0.099 C  
BRANCH  34  35
HETATM   35  N   UNL     1      -6.094   9.434  66.793  1.00  0.00    -0.063 NA 
HETATM   36  H   UNL     1      -5.203   9.919  66.685  1.00  0.00     0.000 HD 
BRANCH  35  37
HETATM   37  C   UNL     1      -6.071   8.493  67.920  1.00  0.00    -0.048 C  
BRANCH  37  38
HETATM   38  C   UNL     1      -7.454   7.873  68.130  1.00  0.00    -0.107 C  
HETATM   39  O   UNL     1      -7.985   8.259  69.396  1.00  0.00    -0.109 OA 
HETATM   40  H   UNL     1      -8.843   7.874  69.527  1.00  0.00     0.000 HD 
ENDBRANCH  37  38
ENDBRANCH  35  37
ENDBRANCH  34  35
ENDBRANCH  33  34
ENDBRANCH  31  33
ENDBRANCH  14  31
ENDBRANCH   9  11
ENDBRANCH   8   9
ENDBRANCH   7   8
ENDBRANCH   5   7
ENDBRANCH   4   5
ENDBRANCH   3   4
TORSDOF 12
ENDMDL
MODEL      105
REMARK 921   NORMALIZED FREE ENERGY PREDICTED BY IDOCK:   -4.37 KCAL/MOL
REMARK 922        TOTAL FREE ENERGY PREDICTED BY IDOCK:   -9.69 KCAL/MOL
REMARK 923 INTER-LIGAND FREE ENERGY PREDICTED BY IDOCK:   -8.18 KCAL/MOL
REMARK 924 INTRA-LIGAND FREE ENERGY PREDICTED BY IDOCK:   -1.51 KCAL/MOL
REMARK 927      BINDING AFFINITY PREDICTED BY RF-SCORE:    0.00 PKD
ROOT
HETATM    1  O   UNL     1      -7.757  11.470  68.929  1.00  0.00    -0.178 OA 
HETATM    2  H   UNL     1      -7.909  11.106  69.793  1.00  0.00     0.000 HD 
HETATM    3  C   UNL     1      -7.030  10.543  68.126  1.00  0.00    -0.073 C  
ENDROOT
BRANCH   3   4
HETATM    4  C   UNL     1      -6.785  11.130  66.733  1.00  0.00    -0.135 C  
BRANCH   4   5
HETATM    5  N   UNL     1      -6.468  10.113  65.718  1.00  0.00    -0.099 NA 
HETATM    6  H   UNL     1      -5.464  10.059  65.549  1.00  0.00     0.000 HD 
BRANCH   5   7
HETATM    7  C   UNL     1      -7.023   8.798  66.068  1.00  0.00    -0.080 C  
BRANCH   7   8
HETATM    8  C   UNL     1      -7.938   8.285  64.949  1.00  0.00    -0.144 C  
BRANCH   8   9
HETATM    9  N   UNL     1      -9.313   8.195  65.405  1.00  0.00    -0.376 NA 
HETATM   10  H   UNL     1      -9.849   7.357  65.180  1.00  0.00     0.000 HD 
BRANCH   9  11
HETATM   11  C   UNL     1      -9.929   9.201  66.135  1.00  0.00    -0.268 A  
HETATM   12  C   UNL     1     -10.019  10.481  65.588  1.00  0.00    -0.332 A  
HETATM   13  C   UNL     1     -10.595  11.523  66.294  1.00  0.00    -0.309 A  
HETATM   14  C   UNL     1     -11.032  11.358  67.609  1.00  0.00    -0.250 A  
HETATM   15  H   UNL     1     -12.477   9.175  73.218  1.00  0.00     0.000 HD 
HETATM   16  C   UNL     1     -10.924  10.070  68.196  1.00  0.00    -0.289 A  
HETATM   17  C   UNL     1     -10.428   8.987  67.447  1.00  0.00    -0.338 A  
HETATM   18  C   UNL     1     -11.254   5.946  71.374  1.00  0.00    -0.285 A  
HETATM   19  O   UNL     1     -11.671  10.781  70.337  1.00  0.00    -0.302 OA 
HETATM   20  C   UNL     1     -10.819   6.127  70.059  1.00  0.00    -0.341 A  
HETATM   21  C   UNL     1     -10.486   7.607  68.017  1.00  0.00    -0.189 C  
HETATM   22  O   UNL     1     -10.313   6.640  67.281  1.00  0.00    -0.176 OA 
HETATM   23  C   UNL     1     -11.712   7.034  72.103  1.00  0.00    -0.321 A  
HETATM   24  C   UNL     1     -10.859   7.401  69.440  1.00  0.00    -0.184 A  
HETATM   25  O   UNL     1     -12.187   9.306  72.323  1.00  0.00    -0.329 OA 
HETATM   26  H   UNL     1     -10.343   4.179  69.794  1.00  0.00     0.000 HD 
HETATM   27  C   UNL     1     -11.298   8.492  70.191  1.00  0.00    -0.072 A  
HETATM   28  O   UNL     1     -10.369   5.033  69.379  1.00  0.00    -0.226 OA 
HETATM   29  C   UNL     1     -11.728   8.297  71.519  1.00  0.00    -0.292 A  
HETATM   30  C   UNL     1     -11.338   9.845  69.607  1.00  0.00    -0.165 C  
BRANCH  14  31
HETATM   31  N   UNL     1     -11.641  12.427  68.243  1.00  0.00    -0.312 NA 
HETATM   32  H   UNL     1     -12.660  12.442  68.301  1.00  0.00     0.000 HD 
BRANCH  31  33
HETATM   33  C   UNL     1     -10.895  13.532  68.829  1.00  0.00    -0.253 C  
BRANCH  33  34
HETATM   34  C   UNL     1     -11.325  14.871  68.207  1.00  0.00    -0.310 C  
BRANCH  34  35
HETATM   35  N   UNL     1     -10.691  15.081  66.897  1.00  0.00    -0.302 NA 
HETATM   36  H   UNL     1     -10.017  14.347  66.679  1.00  0.00     0.000 HD 
BRANCH  35  37
HETATM   37  C   UNL     1     -11.713  15.214  65.850  1.00  0.00    -0.007 C  
BRANCH  37  38
HETATM   38  C   UNL     1     -11.162  14.748  64.500  1.00  0.00    -0.274 C  
HETATM   39  O   UNL     1     -12.221  14.292  63.662  1.00  0.00    -0.970 OA 
HETATM   40  H   UNL     1     -11.880  14.002  62.824  1.00  0.00     0.000 HD 
ENDBRANCH  37  38
ENDBRANCH  35  37
ENDBRANCH  34  35
ENDBRANCH  33  34
ENDBRANCH  31  33
ENDBRANCH  14  31
ENDBRANCH   9  11
ENDBRANCH   8   9
ENDBRANCH   7   8
ENDBRANCH   5   7
ENDBRANCH   4   5
ENDBRANCH   3   4
TORSDOF 12
ENDMDL
MODEL      106
REMARK 921   NORMALIZED FREE ENERGY PREDICTED BY IDOCK:   -4.36 KCAL/MOL
REMARK 922        TOTAL FREE ENERGY PREDICTED BY IDOCK:   -9.68 KCAL/MOL
REMARK 923 INTER-LIGAND FREE ENERGY PREDICTED BY IDOCK:   -8.51 KCAL/MOL
REMARK 924 INTRA-LIGAND FREE ENERGY PREDICTED BY IDOCK:   -1.17 KCAL/MOL
REMARK 927      BINDING AFFINITY PREDICTED BY RF-SCORE:    0.00 PKD
ROOT
HETATM    1  O   UNL     1     -13.056  11.989  63.623  1.00  0.00    -0.756 OA 
HETATM    2  H   UNL     1     -13.932  12.237  63.356  1.00  0.00     0.000 HD 
HETATM    3  C   UNL     1     -12.180  13.110  63.544  1.00  0.00    -0.476 C  
ENDROOT
BRANCH   3   4
HETATM    4  C   UNL     1     -10.766  12.710  63.975  1.00  0.00    -0.425 C  
BRANCH   4   5
HETATM    5  N   UNL     1     -10.270  13.470  65.132  1.00  0.00    -0.455 NA 
HETATM    6  H   UNL     1      -9.530  14.117  64.860  1.00  0.00     0.000 HD 
BRANCH   5   7
HETATM    7  C   UNL     1     -11.355  14.166  65.837  1.00  0.00    -0.323 C  
BRANCH   7   8
HETATM    8  C   UNL     1     -11.704  13.439  67.141  1.00  0.00    -0.379 C  
BRANCH   8   9
HETATM    9  N   UNL     1     -10.979  12.186  67.246  1.00  0.00    -0.247 NA 
HETATM   10  H   UNL     1     -10.413  11.881  66.454  1.00  0.00     0.000 HD 
BRANCH   9  11
HETATM   11  C   UNL     1     -11.022  11.385  68.378  1.00  0.00    -0.215 A  
HETATM   12  C   UNL     1     -12.185  11.355  69.146  1.00  0.00    -0.242 A  
HETATM   13  C   UNL     1     -12.262  10.597  70.302  1.00  0.00    -0.417 A  
HETATM   14  C   UNL     1     -11.156   9.900  70.791  1.00  0.00    -0.347 A  
HETATM   15  H   UNL     1      -5.565   7.405  71.702  1.00  0.00     0.000 HD 
HETATM   16  C   UNL     1      -9.952   9.940  70.040  1.00  0.00    -0.302 A  
HETATM   17  C   UNL     1      -9.901  10.631  68.815  1.00  0.00    -0.196 A  
HETATM   18  C   UNL     1      -5.131   9.133  68.216  1.00  0.00    -0.031 A  
HETATM   19  O   UNL     1      -8.693   8.727  71.648  1.00  0.00    -0.195 OA 
HETATM   20  C   UNL     1      -6.246   9.827  67.741  1.00  0.00    -0.052 A  
HETATM   21  C   UNL     1      -8.686  10.516  67.952  1.00  0.00    -0.126 C  
HETATM   22  O   UNL     1      -8.737  10.883  66.782  1.00  0.00    -0.141 OA 
HETATM   23  C   UNL     1      -5.196   8.484  69.440  1.00  0.00    -0.031 A  
HETATM   24  C   UNL     1      -7.459   9.861  68.473  1.00  0.00    -0.082 A  
HETATM   25  O   UNL     1      -6.330   7.871  71.383  1.00  0.00    -0.035 OA 
HETATM   26  H   UNL     1      -5.327  10.435  66.044  1.00  0.00     0.000 HD 
HETATM   27  C   UNL     1      -7.504   9.225  69.714  1.00  0.00    -0.075 A  
HETATM   28  O   UNL     1      -6.139  10.458  66.535  1.00  0.00    -0.061 OA 
HETATM   29  C   UNL     1      -6.369   8.534  70.186  1.00  0.00    -0.038 A  
HETATM   30  C   UNL     1      -8.730   9.249  70.532  1.00  0.00    -0.236 C  
BRANCH  14  31
HETATM   31  N   UNL     1     -11.312   9.124  71.925  1.00  0.00    -0.375 NA 
HETATM   32  H   UNL     1     -10.527   9.044  72.572  1.00  0.00     0.000 HD 
BRANCH  31  33
HETATM   33  C   UNL     1     -12.545   8.416  72.239  1.00  0.00    -0.349 C  
BRANCH  33  34
HETATM   34  C   UNL     1     -12.524   6.996  71.648  1.00  0.00    -0.374 C  
BRANCH  34  35
HETATM   35  N   UNL     1     -12.342   7.027  70.189  1.00  0.00    -0.531 NA 
HETATM   36  H   UNL     1     -12.251   7.980  69.837  1.00  0.00     0.000 HD 
BRANCH  35  37
HETATM   37  C   UNL     1     -11.203   6.187  69.798  1.00  0.00    -0.423 C  
BRANCH  37  38
HETATM   38  C   UNL     1     -10.697   6.580  68.408  1.00  0.00    -0.279 C  
HETATM   39  O   UNL     1     -11.794   6.835  67.533  1.00  0.00    -0.297 OA 
HETATM   40  H   UNL     1     -11.481   7.078  66.670  1.00  0.00     0.000 HD 
ENDBRANCH  37  38
ENDBRANCH  35  37
ENDBRANCH  34  35
ENDBRANCH  33  34
ENDBRANCH  31  33
ENDBRANCH  14  31
ENDBRANCH   9  11
ENDBRANCH   8   9
ENDBRANCH   7   8
ENDBRANCH   5   7
ENDBRANCH   4   5
ENDBRANCH   3   4
TORSDOF 12
ENDMDL
MODEL      107
REMARK 921   NORMALIZED FREE ENERGY PREDICTED BY IDOCK:   -4.35 KCAL/MOL
REMARK 922        TOTAL FREE ENERGY PREDICTED BY IDOCK:   -9.66 KCAL/MOL
REMARK 923 INTER-LIGAND FREE ENERGY PREDICTED BY IDOCK:   -8.44 KCAL/MOL
REMARK 924 INTRA-LIGAND FREE ENERGY PREDICTED BY IDOCK:   -1.23 KCAL/MOL
REMARK 927      BINDING AFFINITY PREDICTED BY RF-SCORE:    0.00 PKD
ROOT
HETATM    1  O   UNL     1     -13.901  10.277  72.346  1.00  0.00    -0.493 OA 
HETATM    2  H   UNL     1     -14.753  10.691  72.421  1.00  0.00     0.000 HD 
HETATM    3  C   UNL     1     -14.020   8.869  72.529  1.00  0.00    -0.396 C  
ENDROOT
BRANCH   3   4
HETATM    4  C   UNL     1     -12.648   8.201  72.407  1.00  0.00    -0.226 C  
BRANCH   4   5
HETATM    5  N   UNL     1     -12.721   6.775  72.056  1.00  0.00    -0.541 NA 
HETATM    6  H   UNL     1     -13.405   6.609  71.317  1.00  0.00     0.000 HD 
BRANCH   5   7
HETATM    7  C   UNL     1     -11.404   6.230  71.698  1.00  0.00    -0.294 C  
BRANCH   7   8
HETATM    8  C   UNL     1     -10.510   7.326  71.105  1.00  0.00    -0.209 C  
BRANCH   8   9
HETATM    9  N   UNL     1     -10.752   7.479  69.682  1.00  0.00    -0.246 NA 
HETATM   10  H   UNL     1     -11.132   6.688  69.163  1.00  0.00     0.000 HD 
BRANCH   9  11
HETATM   11  C   UNL     1     -10.489   8.657  68.999  1.00  0.00    -0.199 A  
HETATM   12  C   UNL     1     -10.938   9.867  69.529  1.00  0.00    -0.274 A  
HETATM   13  C   UNL     1     -10.728  11.063  68.865  1.00  0.00    -0.249 A  
HETATM   14  C   UNL     1     -10.135  11.100  67.602  1.00  0.00    -0.179 A  
HETATM   15  H   UNL     1      -7.440   9.730  62.200  1.00  0.00     0.000 HD 
HETATM   16  C   UNL     1      -9.696   9.877  67.030  1.00  0.00    -0.230 A  
HETATM   17  C   UNL     1      -9.821   8.673  67.746  1.00  0.00    -0.218 A  
HETATM   18  C   UNL     1      -7.541   6.241  63.972  1.00  0.00    -0.098 A  
HETATM   19  O   UNL     1      -9.064  10.860  64.961  1.00  0.00    -0.197 OA 
HETATM   20  C   UNL     1      -8.138   6.220  65.234  1.00  0.00    -0.132 A  
HETATM   21  C   UNL     1      -9.197   7.426  67.209  1.00  0.00    -0.131 C  
HETATM   22  O   UNL     1      -9.066   6.450  67.940  1.00  0.00    -0.115 OA 
HETATM   23  C   UNL     1      -7.454   7.436  63.272  1.00  0.00    -0.101 A  
HETATM   24  C   UNL     1      -8.637   7.403  65.833  1.00  0.00    -0.165 A  
HETATM   25  O   UNL     1      -7.843   9.725  63.061  1.00  0.00    -0.123 OA 
HETATM   26  H   UNL     1      -7.874   4.229  65.486  1.00  0.00     0.000 HD 
HETATM   27  C   UNL     1      -8.567   8.594  65.109  1.00  0.00    -0.200 A  
HETATM   28  O   UNL     1      -8.209   5.023  65.887  1.00  0.00    -0.110 OA 
HETATM   29  C   UNL     1      -7.968   8.601  63.833  1.00  0.00    -0.159 A  
HETATM   30  C   UNL     1      -9.093   9.852  65.670  1.00  0.00    -0.178 C  
BRANCH  14  31
HETATM   31  N   UNL     1      -9.911  12.332  67.012  1.00  0.00    -0.203 NA 
HETATM   32  H   UNL     1      -8.996  12.514  66.598  1.00  0.00     0.000 HD 
BRANCH  31  33
HETATM   33  C   UNL     1     -10.920  13.380  66.957  1.00  0.00    -0.287 C  
BRANCH  33  34
HETATM   34  C   UNL     1     -12.191  12.876  66.253  1.00  0.00    -0.270 C  
BRANCH  34  35
HETATM   35  N   UNL     1     -12.809  13.935  65.441  1.00  0.00    -0.722 NA 
HETATM   36  H   UNL     1     -12.996  14.774  65.990  1.00  0.00     0.000 HD 
BRANCH  35  37
HETATM   37  C   UNL     1     -11.982  14.224  64.263  1.00  0.00    -0.425 C  
BRANCH  37  38
HETATM   38  C   UNL     1     -11.578  12.927  63.558  1.00  0.00    -0.468 C  
HETATM   39  O   UNL     1     -10.159  12.842  63.448  1.00  0.00    -0.601 OA 
HETATM   40  H   UNL     1      -9.907  12.037  63.010  1.00  0.00     0.000 HD 
ENDBRANCH  37  38
ENDBRANCH  35  37
ENDBRANCH  34  35
ENDBRANCH  33  34
ENDBRANCH  31  33
ENDBRANCH  14  31
ENDBRANCH   9  11
ENDBRANCH   8   9
ENDBRANCH   7   8
ENDBRANCH   5   7
ENDBRANCH   4   5
ENDBRANCH   3   4
TORSDOF 12
ENDMDL
MODEL      108
REMARK 921   NORMALIZED FREE ENERGY PREDICTED BY IDOCK:   -4.32 KCAL/MOL
REMARK 922        TOTAL FREE ENERGY PREDICTED BY IDOCK:   -9.62 KCAL/MOL
REMARK 923 INTER-LIGAND FREE ENERGY PREDICTED BY IDOCK:   -8.44 KCAL/MOL
REMARK 924 INTRA-LIGAND FREE ENERGY PREDICTED BY IDOCK:   -1.18 KCAL/MOL
REMARK 927      BINDING AFFINITY PREDICTED BY RF-SCORE:    0.00 PKD
ROOT
HETATM    1  O   UNL     1      -8.508   6.809  62.975  1.00  0.00    -0.338 OA 
HETATM    2  H   UNL     1      -8.344   7.522  62.370  1.00  0.00     0.000 HD 
HETATM    3  C   UNL     1      -8.108   5.570  62.395  1.00  0.00    -0.097 C  
ENDROOT
BRANCH   3   4
HETATM    4  C   UNL     1      -8.372   4.419  63.370  1.00  0.00    -0.104 C  
BRANCH   4   5
HETATM    5  N   UNL     1      -9.660   4.532  64.072  1.00  0.00    -0.343 NA 
HETATM    6  H   UNL     1     -10.314   3.813  63.763  1.00  0.00     0.000 HD 
BRANCH   5   7
HETATM    7  C   UNL     1      -9.493   4.511  65.531  1.00  0.00    -0.173 C  
BRANCH   7   8
HETATM    8  C   UNL     1     -10.633   5.275  66.216  1.00  0.00    -0.248 C  
BRANCH   8   9
HETATM    9  N   UNL     1     -10.182   6.576  66.676  1.00  0.00    -0.361 NA 
HETATM   10  H   UNL     1      -9.784   7.224  65.996  1.00  0.00     0.000 HD 
BRANCH   9  11
HETATM   11  C   UNL     1     -10.271   6.976  68.001  1.00  0.00    -0.182 A  
HETATM   12  C   UNL     1     -10.113   6.027  69.010  1.00  0.00    -0.223 A  
HETATM   13  C   UNL     1     -10.227   6.373  70.345  1.00  0.00    -0.233 A  
HETATM   14  C   UNL     1     -10.586   7.665  70.734  1.00  0.00    -0.221 A  
HETATM   15  H   UNL     1     -12.197  13.638  70.928  1.00  0.00     0.000 HD 
HETATM   16  C   UNL     1     -10.780   8.641  69.722  1.00  0.00    -0.215 A  
HETATM   17  C   UNL     1     -10.569   8.314  68.370  1.00  0.00    -0.148 A  
HETATM   18  C   UNL     1     -11.585  13.080  67.103  1.00  0.00    -0.411 A  
HETATM   19  O   UNL     1     -11.505  10.327  71.231  1.00  0.00    -0.318 OA 
HETATM   20  C   UNL     1     -11.227  11.783  66.729  1.00  0.00    -0.328 A  
HETATM   21  C   UNL     1     -10.603   9.392  67.336  1.00  0.00    -0.258 C  
HETATM   22  O   UNL     1     -10.161   9.169  66.213  1.00  0.00    -0.286 OA 
HETATM   23  C   UNL     1     -11.815  13.372  68.439  1.00  0.00    -0.401 A  
HETATM   24  C   UNL     1     -11.068  10.757  67.694  1.00  0.00    -0.384 A  
HETATM   25  O   UNL     1     -11.950  12.754  70.683  1.00  0.00    -0.300 OA 
HETATM   26  H   UNL     1     -11.123  12.223  64.757  1.00  0.00     0.000 HD 
HETATM   27  C   UNL     1     -11.326  11.057  69.031  1.00  0.00    -0.345 A  
HETATM   28  O   UNL     1     -11.017  11.535  65.403  1.00  0.00    -0.282 OA 
HETATM   29  C   UNL     1     -11.693  12.368  69.395  1.00  0.00    -0.322 A  
HETATM   30  C   UNL     1     -11.201  10.023  70.076  1.00  0.00    -0.288 C  
BRANCH  14  31
HETATM   31  N   UNL     1     -10.636   7.959  72.086  1.00  0.00    -0.235 NA 
HETATM   32  H   UNL     1     -10.275   8.859  72.402  1.00  0.00     0.000 HD 
BRANCH  31  33
HETATM   33  C   UNL     1     -11.181   7.042  73.077  1.00  0.00    -0.206 C  
BRANCH  33  34
HETATM   34  C   UNL     1     -10.144   6.744  74.172  1.00  0.00    -0.350 C  
BRANCH  34  35
HETATM   35  N   UNL     1      -8.930   6.136  73.608  1.00  0.00    -0.127 NA 
HETATM   36  H   UNL     1      -8.927   6.167  72.588  1.00  0.00     0.000 HD 
BRANCH  35  37
HETATM   37  C   UNL     1      -7.731   6.764  74.177  1.00  0.00    -0.103 C  
BRANCH  37  38
HETATM   38  C   UNL     1      -7.954   8.266  74.376  1.00  0.00    -0.231 C  
HETATM   39  O   UNL     1      -7.880   8.949  73.128  1.00  0.00    -0.378 OA 
HETATM   40  H   UNL     1      -8.018   9.881  73.251  1.00  0.00     0.000 HD 
ENDBRANCH  37  38
ENDBRANCH  35  37
ENDBRANCH  34  35
ENDBRANCH  33  34
ENDBRANCH  31  33
ENDBRANCH  14  31
ENDBRANCH   9  11
ENDBRANCH   8   9
ENDBRANCH   7   8
ENDBRANCH   5   7
ENDBRANCH   4   5
ENDBRANCH   3   4
TORSDOF 12
ENDMDL
MODEL      109
REMARK 921   NORMALIZED FREE ENERGY PREDICTED BY IDOCK:   -4.32 KCAL/MOL
REMARK 922        TOTAL FREE ENERGY PREDICTED BY IDOCK:   -9.62 KCAL/MOL
REMARK 923 INTER-LIGAND FREE ENERGY PREDICTED BY IDOCK:   -8.32 KCAL/MOL
REMARK 924 INTRA-LIGAND FREE ENERGY PREDICTED BY IDOCK:   -1.29 KCAL/MOL
REMARK 927      BINDING AFFINITY PREDICTED BY RF-SCORE:    0.00 PKD
ROOT
HETATM    1  O   UNL     1      -9.802   8.820  72.239  1.00  0.00    -0.307 OA 
HETATM    2  H   UNL     1      -9.636   9.542  72.834  1.00  0.00     0.000 HD 
HETATM    3  C   UNL     1     -10.720   7.900  72.826  1.00  0.00    -0.371 C  
ENDROOT
BRANCH   3   4
HETATM    4  C   UNL     1     -10.988   6.736  71.867  1.00  0.00    -0.239 C  
BRANCH   4   5
HETATM    5  N   UNL     1     -10.030   6.664  70.754  1.00  0.00    -0.184 NA 
HETATM    6  H   UNL     1      -9.110   6.361  71.075  1.00  0.00     0.000 HD 
BRANCH   5   7
HETATM    7  C   UNL     1     -10.521   5.813  69.662  1.00  0.00    -0.293 C  
BRANCH   7   8
HETATM    8  C   UNL     1     -10.567   6.598  68.345  1.00  0.00    -0.242 C  
BRANCH   8   9
HETATM    9  N   UNL     1      -9.321   7.310  68.123  1.00  0.00    -0.132 NA 
HETATM   10  H   UNL     1      -8.511   7.066  68.692  1.00  0.00     0.000 HD 
BRANCH   9  11
HETATM   11  C   UNL     1      -9.187   8.309  67.169  1.00  0.00    -0.144 A  
HETATM   12  C   UNL     1      -8.504   8.032  65.986  1.00  0.00    -0.144 A  
HETATM   13  C   UNL     1      -8.316   9.007  65.021  1.00  0.00    -0.174 A  
HETATM   14  C   UNL     1      -8.728  10.325  65.228  1.00  0.00    -0.172 A  
HETATM   15  H   UNL     1     -11.042  15.597  67.500  1.00  0.00     0.000 HD 
HETATM   16  C   UNL     1      -9.401  10.635  66.438  1.00  0.00    -0.195 A  
HETATM   17  C   UNL     1      -9.678   9.625  67.377  1.00  0.00    -0.198 A  
HETATM   18  C   UNL     1     -12.060  13.004  70.250  1.00  0.00    -0.388 A  
HETATM   19  O   UNL     1      -9.511  12.967  65.993  1.00  0.00    -0.210 OA 
HETATM   20  C   UNL     1     -11.640  11.691  70.030  1.00  0.00    -0.255 A  
HETATM   21  C   UNL     1     -10.540   9.931  68.559  1.00  0.00    -0.217 C  
HETATM   22  O   UNL     1     -11.004   9.010  69.225  1.00  0.00    -0.161 OA 
HETATM   23  C   UNL     1     -11.751  13.990  69.325  1.00  0.00    -0.372 A  
HETATM   24  C   UNL     1     -10.922  11.334  68.862  1.00  0.00    -0.274 A  
HETATM   25  O   UNL     1     -10.757  14.705  67.340  1.00  0.00    -0.272 OA 
HETATM   26  H   UNL     1     -12.441  10.991  71.752  1.00  0.00     0.000 HD 
HETATM   27  C   UNL     1     -10.596  12.338  67.950  1.00  0.00    -0.232 A  
HETATM   28  O   UNL     1     -11.959  10.752  70.969  1.00  0.00    -0.334 OA 
HETATM   29  C   UNL     1     -11.020  13.661  68.187  1.00  0.00    -0.253 A  
HETATM   30  C   UNL     1      -9.828  12.031  66.729  1.00  0.00    -0.204 C  
BRANCH  14  31
HETATM   31  N   UNL     1      -8.554  11.240  64.205  1.00  0.00    -0.313 NA 
HETATM   32  H   UNL     1      -7.856  11.975  64.324  1.00  0.00     0.000 HD 
BRANCH  31  33
HETATM   33  C   UNL     1      -9.320  11.202  62.967  1.00  0.00    -0.350 C  
BRANCH  33  34
HETATM   34  C   UNL     1     -10.790  10.850  63.247  1.00  0.00     0.280 C  
BRANCH  34  35
HETATM   35  N   UNL     1     -11.684  11.960  62.886  1.00  0.00    -0.579 NA 
HETATM   36  H   UNL     1     -12.326  11.703  62.135  1.00  0.00     0.000 HD 
BRANCH  35  37
HETATM   37  C   UNL     1     -12.398  12.449  64.072  1.00  0.00    -0.488 C  
BRANCH  37  38
HETATM   38  C   UNL     1     -12.334  13.976  64.147  1.00  0.00    -0.332 C  
HETATM   39  O   UNL     1     -10.978  14.416  64.180  1.00  0.00    -0.575 OA 
HETATM   40  H   UNL     1     -10.938  15.364  64.227  1.00  0.00     0.000 HD 
ENDBRANCH  37  38
ENDBRANCH  35  37
ENDBRANCH  34  35
ENDBRANCH  33  34
ENDBRANCH  31  33
ENDBRANCH  14  31
ENDBRANCH   9  11
ENDBRANCH   8   9
ENDBRANCH   7   8
ENDBRANCH   5   7
ENDBRANCH   4   5
ENDBRANCH   3   4
TORSDOF 12
ENDMDL
MODEL      110
REMARK 921   NORMALIZED FREE ENERGY PREDICTED BY IDOCK:   -4.27 KCAL/MOL
REMARK 922        TOTAL FREE ENERGY PREDICTED BY IDOCK:   -9.53 KCAL/MOL
REMARK 923 INTER-LIGAND FREE ENERGY PREDICTED BY IDOCK:   -9.15 KCAL/MOL
REMARK 924 INTRA-LIGAND FREE ENERGY PREDICTED BY IDOCK:   -0.37 KCAL/MOL
REMARK 927      BINDING AFFINITY PREDICTED BY RF-SCORE:    0.00 PKD
ROOT
HETATM    1  O   UNL     1     -11.401  10.001  68.576  1.00  0.00    -0.477 OA 
HETATM    2  H   UNL     1     -12.214  10.406  68.300  1.00  0.00     0.000 HD 
HETATM    3  C   UNL     1     -10.661   9.561  67.440  1.00  0.00    -0.271 C  
ENDROOT
BRANCH   3   4
HETATM    4  C   UNL     1      -9.349   8.907  67.884  1.00  0.00    -0.141 C  
BRANCH   4   5
HETATM    5  N   UNL     1      -8.356   9.871  68.382  1.00  0.00    -0.106 NA 
HETATM    6  H   UNL     1      -7.793   9.468  69.132  1.00  0.00     0.000 HD 
BRANCH   5   7
HETATM    7  C   UNL     1      -7.510  10.396  67.302  1.00  0.00    -0.094 C  
BRANCH   7   8
HETATM    8  C   UNL     1      -8.199  11.574  66.602  1.00  0.00    -0.156 C  
BRANCH   8   9
HETATM    9  N   UNL     1      -7.887  12.826  67.267  1.00  0.00    -0.274 NA 
HETATM   10  H   UNL     1      -6.909  13.103  67.354  1.00  0.00     0.000 HD 
BRANCH   9  11
HETATM   11  C   UNL     1      -8.862  13.662  67.789  1.00  0.00    -0.190 A  
HETATM   12  C   UNL     1      -9.992  13.101  68.384  1.00  0.00    -0.223 A  
HETATM   13  C   UNL     1     -11.007  13.896  68.888  1.00  0.00    -0.290 A  
HETATM   14  C   UNL     1     -10.982  15.285  68.747  1.00  0.00    -0.260 A  
HETATM   15  H   UNL     1      -9.526  21.151  67.412  1.00  0.00     0.000 HD 
HETATM   16  C   UNL     1      -9.855  15.876  68.118  1.00  0.00    -0.214 A  
HETATM   17  C   UNL     1      -8.778  15.076  67.693  1.00  0.00    -0.182 A  
HETATM   18  C   UNL     1      -6.331  19.225  66.225  1.00  0.00    -0.196 A  
HETATM   19  O   UNL     1     -10.755  18.075  68.158  1.00  0.00    -0.355 OA 
HETATM   20  C   UNL     1      -6.372  17.836  66.371  1.00  0.00    -0.217 A  
HETATM   21  C   UNL     1      -7.527  15.725  67.197  1.00  0.00    -0.224 C  
HETATM   22  O   UNL     1      -6.503  15.059  67.083  1.00  0.00    -0.275 OA 
HETATM   23  C   UNL     1      -7.417  19.990  66.625  1.00  0.00    -0.299 A  
HETATM   24  C   UNL     1      -7.493  17.189  66.948  1.00  0.00    -0.239 A  
HETATM   25  O   UNL     1      -9.559  20.207  67.519  1.00  0.00    -0.370 OA 
HETATM   26  H   UNL     1      -4.534  17.552  65.572  1.00  0.00     0.000 HD 
HETATM   27  C   UNL     1      -8.588  17.967  67.324  1.00  0.00    -0.240 A  
HETATM   28  O   UNL     1      -5.286  17.119  65.959  1.00  0.00    -0.333 OA 
HETATM   29  C   UNL     1      -8.538  19.367  67.164  1.00  0.00    -0.294 A  
HETATM   30  C   UNL     1      -9.793  17.347  67.906  1.00  0.00    -0.287 C  
BRANCH  14  31
HETATM   31  N   UNL     1     -12.004  16.026  69.314  1.00  0.00    -0.353 NA 
HETATM   32  H   UNL     1     -12.236  16.930  68.902  1.00  0.00     0.000 HD 
BRANCH  31  33
HETATM   33  C   UNL     1     -12.763  15.574  70.472  1.00  0.00    -0.388 C  
BRANCH  33  34
HETATM   34  C   UNL     1     -12.036  15.940  71.777  1.00  0.00    -0.494 C  
BRANCH  34  35
HETATM   35  N   UNL     1     -12.407  15.030  72.870  1.00  0.00    -0.359 NA 
HETATM   36  H   UNL     1     -12.526  15.525  73.754  1.00  0.00     0.000 HD 
BRANCH  35  37
HETATM   37  C   UNL     1     -13.603  14.258  72.509  1.00  0.00    -0.520 C  
BRANCH  37  38
HETATM   38  C   UNL     1     -13.210  12.926  71.866  1.00  0.00    -0.423 C  
HETATM   39  O   UNL     1     -13.679  11.835  72.655  1.00  0.00    -0.410 OA 
HETATM   40  H   UNL     1     -13.435  11.008  72.257  1.00  0.00     0.000 HD 
ENDBRANCH  37  38
ENDBRANCH  35  37
ENDBRANCH  34  35
ENDBRANCH  33  34
ENDBRANCH  31  33
ENDBRANCH  14  31
ENDBRANCH   9  11
ENDBRANCH   8   9
ENDBRANCH   7   8
ENDBRANCH   5   7
ENDBRANCH   4   5
ENDBRANCH   3   4
TORSDOF 12
ENDMDL
MODEL      111
REMARK 921   NORMALIZED FREE ENERGY PREDICTED BY IDOCK:   -4.25 KCAL/MOL
REMARK 922        TOTAL FREE ENERGY PREDICTED BY IDOCK:   -9.50 KCAL/MOL
REMARK 923 INTER-LIGAND FREE ENERGY PREDICTED BY IDOCK:   -7.66 KCAL/MOL
REMARK 924 INTRA-LIGAND FREE ENERGY PREDICTED BY IDOCK:   -1.84 KCAL/MOL
REMARK 927      BINDING AFFINITY PREDICTED BY RF-SCORE:    0.00 PKD
ROOT
HETATM    1  O   UNL     1      -7.096   9.463  68.924  1.00  0.00    -0.066 OA 
HETATM    2  H   UNL     1      -6.990   8.566  69.217  1.00  0.00     0.000 HD 
HETATM    3  C   UNL     1      -6.669   9.593  67.571  1.00  0.00    -0.070 C  
ENDROOT
BRANCH   3   4
HETATM    4  C   UNL     1      -6.841  11.040  67.098  1.00  0.00    -0.098 C  
BRANCH   4   5
HETATM    5  N   UNL     1      -7.152  11.153  65.665  1.00  0.00    -0.364 NA 
HETATM    6  H   UNL     1      -6.433  11.681  65.171  1.00  0.00     0.000 HD 
BRANCH   5   7
HETATM    7  C   UNL     1      -7.369   9.839  65.045  1.00  0.00    -0.128 C  
BRANCH   7   8
HETATM    8  C   UNL     1      -8.629   9.857  64.171  1.00  0.00    -0.191 C  
BRANCH   8   9
HETATM    9  N   UNL     1      -9.757  10.411  64.898  1.00  0.00    -0.284 NA 
HETATM   10  H   UNL     1     -10.309  11.147  64.458  1.00  0.00     0.000 HD 
BRANCH   9  11
HETATM   11  C   UNL     1     -10.115   9.981  66.167  1.00  0.00    -0.247 A  
HETATM   12  C   UNL     1     -10.078   8.618  66.460  1.00  0.00    -0.339 A  
HETATM   13  C   UNL     1     -10.459   8.140  67.702  1.00  0.00    -0.300 A  
HETATM   14  C   UNL     1     -10.974   8.990  68.683  1.00  0.00     0.080 A  
HETATM   15  H   UNL     1     -13.017  13.839  71.943  1.00  0.00     0.000 HD 
HETATM   16  C   UNL     1     -11.049  10.379  68.396  1.00  0.00    -0.322 A  
HETATM   17  C   UNL     1     -10.571  10.877  67.170  1.00  0.00    -0.302 A  
HETATM   18  C   UNL     1     -11.675  15.550  68.688  1.00  0.00    -0.363 A  
HETATM   19  O   UNL     1     -12.157  10.926  70.425  1.00  0.00    -0.301 OA 
HETATM   20  C   UNL     1     -11.163  14.686  67.717  1.00  0.00    -0.308 A  
HETATM   21  C   UNL     1     -10.492  12.354  66.954  1.00  0.00    -0.224 C  
HETATM   22  O   UNL     1      -9.836  12.795  66.015  1.00  0.00    -0.261 OA 
HETATM   23  C   UNL     1     -12.167  15.032  69.878  1.00  0.00    -0.351 A  
HETATM   24  C   UNL     1     -11.110  13.286  67.931  1.00  0.00    -0.287 A  
HETATM   25  O   UNL     1     -12.666  13.245  71.290  1.00  0.00    -0.359 OA 
HETATM   26  H   UNL     1     -10.731  16.173  66.414  1.00  0.00     0.000 HD 
HETATM   27  C   UNL     1     -11.630  12.776  69.121  1.00  0.00    -0.373 A  
HETATM   28  O   UNL     1     -10.696  15.235  66.558  1.00  0.00    -0.303 OA 
HETATM   29  C   UNL     1     -12.150  13.657  70.090  1.00  0.00    -0.361 A  
HETATM   30  C   UNL     1     -11.626  11.326  69.388  1.00  0.00    -0.321 C  
BRANCH  14  31
HETATM   31  N   UNL     1     -11.293   8.457  69.919  1.00  0.00    -0.454 NA 
HETATM   32  H   UNL     1     -12.067   8.868  70.441  1.00  0.00     0.000 HD 
BRANCH  31  33
HETATM   33  C   UNL     1     -10.574   7.337  70.509  1.00  0.00    -0.222 C  
BRANCH  33  34
HETATM   34  C   UNL     1      -9.451   7.837  71.434  1.00  0.00    -0.148 C  
BRANCH  34  35
HETATM   35  N   UNL     1      -8.128   7.427  70.940  1.00  0.00    -0.104 NA 
HETATM   36  H   UNL     1      -7.435   7.398  71.688  1.00  0.00     0.000 HD 
BRANCH  35  37
HETATM   37  C   UNL     1      -8.222   6.144  70.231  1.00  0.00    -0.124 C  
BRANCH  37  38
HETATM   38  C   UNL     1      -7.401   5.071  70.950  1.00  0.00    -0.068 C  
HETATM   39  O   UNL     1      -8.026   4.706  72.178  1.00  0.00    -0.096 OA 
HETATM   40  H   UNL     1      -7.516   4.040  72.624  1.00  0.00     0.000 HD 
ENDBRANCH  37  38
ENDBRANCH  35  37
ENDBRANCH  34  35
ENDBRANCH  33  34
ENDBRANCH  31  33
ENDBRANCH  14  31
ENDBRANCH   9  11
ENDBRANCH   8   9
ENDBRANCH   7   8
ENDBRANCH   5   7
ENDBRANCH   4   5
ENDBRANCH   3   4
TORSDOF 12
ENDMDL
MODEL      112
REMARK 921   NORMALIZED FREE ENERGY PREDICTED BY IDOCK:   -4.24 KCAL/MOL
REMARK 922        TOTAL FREE ENERGY PREDICTED BY IDOCK:   -9.48 KCAL/MOL
REMARK 923 INTER-LIGAND FREE ENERGY PREDICTED BY IDOCK:   -8.36 KCAL/MOL
REMARK 924 INTRA-LIGAND FREE ENERGY PREDICTED BY IDOCK:   -1.12 KCAL/MOL
REMARK 927      BINDING AFFINITY PREDICTED BY RF-SCORE:    0.00 PKD
ROOT
HETATM    1  O   UNL     1     -10.058   9.440  65.920  1.00  0.00    -0.296 OA 
HETATM    2  H   UNL     1     -10.298   9.411  66.838  1.00  0.00     0.000 HD 
HETATM    3  C   UNL     1      -9.363  10.651  65.630  1.00  0.00    -0.201 C  
ENDROOT
BRANCH   3   4
HETATM    4  C   UNL     1      -8.976  10.697  64.149  1.00  0.00    -0.198 C  
BRANCH   4   5
HETATM    5  N   UNL     1      -9.464  11.898  63.455  1.00  0.00    -0.599 NA 
HETATM    6  H   UNL     1      -9.143  11.922  62.487  1.00  0.00     0.000 HD 
BRANCH   5   7
HETATM    7  C   UNL     1     -10.926  12.023  63.536  1.00  0.00    -0.444 C  
BRANCH   7   8
HETATM    8  C   UNL     1     -11.321  13.436  63.985  1.00  0.00    -0.320 C  
BRANCH   8   9
HETATM    9  N   UNL     1     -10.429  13.918  65.024  1.00  0.00    -0.388 NA 
HETATM   10  H   UNL     1      -9.455  14.103  64.785  1.00  0.00     0.000 HD 
BRANCH   9  11
HETATM   11  C   UNL     1     -10.847  14.139  66.328  1.00  0.00    -0.300 A  
HETATM   12  C   UNL     1     -11.674  13.202  66.946  1.00  0.00    -0.441 A  
HETATM   13  C   UNL     1     -12.142  13.396  68.234  1.00  0.00    -0.271 A  
HETATM   14  C   UNL     1     -11.876  14.573  68.935  1.00  0.00    -0.324 A  
HETATM   15  H   UNL     1      -9.924  20.160  70.751  1.00  0.00     0.000 HD 
HETATM   16  C   UNL     1     -11.059  15.555  68.314  1.00  0.00    -0.322 A  
HETATM   17  C   UNL     1     -10.503  15.316  67.044  1.00  0.00    -0.292 A  
HETATM   18  C   UNL     1      -8.140  19.755  67.290  1.00  0.00    -0.327 A  
HETATM   19  O   UNL     1     -11.327  17.146  70.058  1.00  0.00     0.442 OA 
HETATM   20  C   UNL     1      -8.417  18.573  66.600  1.00  0.00    -0.278 A  
HETATM   21  C   UNL     1      -9.506  16.277  66.482  1.00  0.00    -0.264 C  
HETATM   22  O   UNL     1      -8.824  15.946  65.517  1.00  0.00    -0.116 OA 
HETATM   23  C   UNL     1      -8.723  19.981  68.529  1.00  0.00    -0.073 A  
HETATM   24  C   UNL     1      -9.265  17.580  67.152  1.00  0.00    -0.245 A  
HETATM   25  O   UNL     1     -10.113  19.350  70.291  1.00  0.00     0.430 OA 
HETATM   26  H   UNL     1      -7.260  19.057  65.012  1.00  0.00     0.000 HD 
HETATM   27  C   UNL     1      -9.864  17.830  68.387  1.00  0.00    -0.347 A  
HETATM   28  O   UNL     1      -7.829  18.392  65.382  1.00  0.00    -0.246 OA 
HETATM   29  C   UNL     1      -9.582  19.030  69.070  1.00  0.00    -0.308 A  
HETATM   30  C   UNL     1     -10.775  16.845  68.998  1.00  0.00    -0.308 C  
BRANCH  14  31
HETATM   31  N   UNL     1     -12.333  14.686  70.236  1.00  0.00    -0.334 NA 
HETATM   32  H   UNL     1     -12.806  15.547  70.513  1.00  0.00     0.000 HD 
BRANCH  31  33
HETATM   33  C   UNL     1     -12.172  13.632  71.228  1.00  0.00    -0.171 C  
BRANCH  33  34
HETATM   34  C   UNL     1     -13.536  13.042  71.623  1.00  0.00    -0.201 C  
BRANCH  34  35
HETATM   35  N   UNL     1     -13.391  11.693  72.190  1.00  0.00    -0.562 NA 
HETATM   36  H   UNL     1     -14.237  11.391  72.673  1.00  0.00     0.000 HD 
BRANCH  35  37
HETATM   37  C   UNL     1     -12.986  10.741  71.148  1.00  0.00    -0.371 C  
BRANCH  37  38
HETATM   38  C   UNL     1     -11.686  10.035  71.540  1.00  0.00    -0.280 C  
HETATM   39  O   UNL     1     -10.631  10.409  70.656  1.00  0.00    -0.404 OA 
HETATM   40  H   UNL     1      -9.824   9.971  70.899  1.00  0.00     0.000 HD 
ENDBRANCH  37  38
ENDBRANCH  35  37
ENDBRANCH  34  35
ENDBRANCH  33  34
ENDBRANCH  31  33
ENDBRANCH  14  31
ENDBRANCH   9  11
ENDBRANCH   8   9
ENDBRANCH   7   8
ENDBRANCH   5   7
ENDBRANCH   4   5
ENDBRANCH   3   4
TORSDOF 12
ENDMDL
MODEL      113
REMARK 921   NORMALIZED FREE ENERGY PREDICTED BY IDOCK:   -4.22 KCAL/MOL
REMARK 922        TOTAL FREE ENERGY PREDICTED BY IDOCK:   -9.45 KCAL/MOL
REMARK 923 INTER-LIGAND FREE ENERGY PREDICTED BY IDOCK:   -7.63 KCAL/MOL
REMARK 924 INTRA-LIGAND FREE ENERGY PREDICTED BY IDOCK:   -1.81 KCAL/MOL
REMARK 927      BINDING AFFINITY PREDICTED BY RF-SCORE:    0.00 PKD
ROOT
HETATM    1  O   UNL     1      -5.319   9.047  65.249  1.00  0.00    -0.037 OA 
HETATM    2  H   UNL     1      -4.486   9.319  65.616  1.00  0.00     0.000 HD 
HETATM    3  C   UNL     1      -6.013  10.172  64.716  1.00  0.00    -0.123 C  
ENDROOT
BRANCH   3   4
HETATM    4  C   UNL     1      -7.355   9.732  64.124  1.00  0.00    -0.128 C  
BRANCH   4   5
HETATM    5  N   UNL     1      -8.315  10.836  63.968  1.00  0.00    -0.366 NA 
HETATM    6  H   UNL     1      -8.027  11.475  63.226  1.00  0.00     0.000 HD 
BRANCH   5   7
HETATM    7  C   UNL     1      -9.683  10.348  63.752  1.00  0.00    -0.290 C  
BRANCH   7   8
HETATM    8  C   UNL     1     -10.648  11.522  63.544  1.00  0.00    -0.423 C  
BRANCH   8   9
HETATM    9  N   UNL     1     -11.034  12.108  64.815  1.00  0.00    -0.299 NA 
HETATM   10  H   UNL     1     -11.582  11.546  65.466  1.00  0.00     0.000 HD 
BRANCH   9  11
HETATM   11  C   UNL     1     -10.687  13.400  65.181  1.00  0.00    -0.330 A  
HETATM   12  C   UNL     1     -11.350  14.476  64.592  1.00  0.00    -0.372 A  
HETATM   13  C   UNL     1     -11.014  15.782  64.902  1.00  0.00    -0.443 A  
HETATM   14  C   UNL     1      -9.945  16.078  65.751  1.00  0.00    -0.351 A  
HETATM   15  H   UNL     1      -5.089  15.843  69.581  1.00  0.00     0.000 HD 
HETATM   16  C   UNL     1      -9.237  14.997  66.339  1.00  0.00    -0.328 A  
HETATM   17  C   UNL     1      -9.640  13.670  66.101  1.00  0.00    -0.226 A  
HETATM   18  C   UNL     1      -6.022  12.059  69.212  1.00  0.00    -0.081 A  
HETATM   19  O   UNL     1      -7.607  16.386  67.369  1.00  0.00    -0.138 OA 
HETATM   20  C   UNL     1      -7.093  11.780  68.359  1.00  0.00    -0.085 A  
HETATM   21  C   UNL     1      -9.000  12.556  66.865  1.00  0.00    -0.212 C  
HETATM   22  O   UNL     1      -9.521  11.445  66.866  1.00  0.00    -0.175 OA 
HETATM   23  C   UNL     1      -5.625  13.374  69.409  1.00  0.00    -0.082 A  
HETATM   24  C   UNL     1      -7.804  12.817  67.706  1.00  0.00    -0.156 A  
HETATM   25  O   UNL     1      -5.821  15.662  69.003  1.00  0.00    -0.102 OA 
HETATM   26  H   UNL     1      -6.971   9.778  68.624  1.00  0.00     0.000 HD 
HETATM   27  C   UNL     1      -7.380  14.133  67.893  1.00  0.00    -0.163 A  
HETATM   28  O   UNL     1      -7.447  10.473  68.187  1.00  0.00    -0.087 OA 
HETATM   29  C   UNL     1      -6.294  14.402  68.751  1.00  0.00    -0.086 A  
HETATM   30  C   UNL     1      -8.065  15.252  67.220  1.00  0.00    -0.201 C  
BRANCH  14  31
HETATM   31  N   UNL     1      -9.691  17.403  66.057  1.00  0.00    -0.506 NA 
HETATM   32  H   UNL     1      -8.777  17.647  66.440  1.00  0.00     0.000 HD 
BRANCH  31  33
HETATM   33  C   UNL     1     -10.667  18.464  65.859  1.00  0.00    -0.178 C  
BRANCH  33  34
HETATM   34  C   UNL     1     -10.204  19.765  66.537  1.00  0.00    -0.492 C  
BRANCH  34  35
HETATM   35  N   UNL     1      -8.764  19.731  66.832  1.00  0.00    -0.315 NA 
HETATM   36  H   UNL     1      -8.262  20.483  66.360  1.00  0.00     0.000 HD 
BRANCH  35  37
HETATM   37  C   UNL     1      -8.539  19.748  68.283  1.00  0.00    -0.272 C  
BRANCH  37  38
HETATM   38  C   UNL     1      -7.045  19.627  68.596  1.00  0.00    -0.334 C  
HETATM   39  O   UNL     1      -6.798  18.478  69.404  1.00  0.00    -0.250 OA 
HETATM   40  H   UNL     1      -5.871  18.403  69.599  1.00  0.00     0.000 HD 
ENDBRANCH  37  38
ENDBRANCH  35  37
ENDBRANCH  34  35
ENDBRANCH  33  34
ENDBRANCH  31  33
ENDBRANCH  14  31
ENDBRANCH   9  11
ENDBRANCH   8   9
ENDBRANCH   7   8
ENDBRANCH   5   7
ENDBRANCH   4   5
ENDBRANCH   3   4
TORSDOF 12
ENDMDL
MODEL      114
REMARK 921   NORMALIZED FREE ENERGY PREDICTED BY IDOCK:   -4.22 KCAL/MOL
REMARK 922        TOTAL FREE ENERGY PREDICTED BY IDOCK:   -9.44 KCAL/MOL
REMARK 923 INTER-LIGAND FREE ENERGY PREDICTED BY IDOCK:   -7.25 KCAL/MOL
REMARK 924 INTRA-LIGAND FREE ENERGY PREDICTED BY IDOCK:   -2.19 KCAL/MOL
REMARK 927      BINDING AFFINITY PREDICTED BY RF-SCORE:    0.00 PKD
ROOT
HETATM    1  O   UNL     1     -10.023   4.377  70.302  1.00  0.00    -0.217 OA 
HETATM    2  H   UNL     1     -10.707   4.007  70.847  1.00  0.00     0.000 HD 
HETATM    3  C   UNL     1      -8.870   4.667  71.089  1.00  0.00    -0.118 C  
ENDROOT
BRANCH   3   4
HETATM    4  C   UNL     1      -7.767   5.264  70.210  1.00  0.00    -0.072 C  
BRANCH   4   5
HETATM    5  N   UNL     1      -7.772   6.734  70.185  1.00  0.00    -0.099 NA 
HETATM    6  H   UNL     1      -7.359   7.121  71.034  1.00  0.00     0.000 HD 
BRANCH   5   7
HETATM    7  C   UNL     1      -7.116   7.265  68.982  1.00  0.00    -0.080 C  
BRANCH   7   8
HETATM    8  C   UNL     1      -7.618   6.537  67.729  1.00  0.00    -0.106 C  
BRANCH   8   9
HETATM    9  N   UNL     1      -8.982   6.924  67.416  1.00  0.00    -0.117 NA 
HETATM   10  H   UNL     1      -9.667   6.193  67.229  1.00  0.00     0.000 HD 
BRANCH   9  11
HETATM   11  C   UNL     1      -9.392   8.248  67.360  1.00  0.00    -0.141 A  
HETATM   12  C   UNL     1      -8.893   9.074  66.354  1.00  0.00    -0.172 A  
HETATM   13  C   UNL     1      -9.247  10.410  66.280  1.00  0.00    -0.195 A  
HETATM   14  C   UNL     1     -10.051  11.005  67.255  1.00  0.00    -0.189 A  
HETATM   15  H   UNL     1     -13.598  12.215  72.180  1.00  0.00     0.000 HD 
HETATM   16  C   UNL     1     -10.547  10.189  68.305  1.00  0.00    -0.262 A  
HETATM   17  C   UNL     1     -10.266   8.810  68.327  1.00  0.00    -0.240 A  
HETATM   18  C   UNL     1     -13.095   8.344  72.467  1.00  0.00    -0.209 A  
HETATM   19  O   UNL     1     -11.554  11.994  69.478  1.00  0.00    -0.293 OA 
HETATM   20  C   UNL     1     -12.289   7.764  71.485  1.00  0.00    -0.320 A  
HETATM   21  C   UNL     1     -10.939   7.936  69.335  1.00  0.00    -0.020 C  
HETATM   22  O   UNL     1     -10.913   6.718  69.193  1.00  0.00    -0.249 OA 
HETATM   23  C   UNL     1     -13.335   9.710  72.440  1.00  0.00    -0.426 A  
HETATM   24  C   UNL     1     -11.727   8.539  70.441  1.00  0.00    -0.003 A  
HETATM   25  O   UNL     1     -13.053  11.828  71.506  1.00  0.00    -0.407 OA 
HETATM   26  H   UNL     1     -12.449   5.897  72.250  1.00  0.00     0.000 HD 
HETATM   27  C   UNL     1     -11.955   9.916  70.439  1.00  0.00    -0.271 A  
HETATM   28  O   UNL     1     -12.072   6.417  71.551  1.00  0.00    -0.328 OA 
HETATM   29  C   UNL     1     -12.765  10.490  71.439  1.00  0.00    -0.442 A  
HETATM   30  C   UNL     1     -11.375  10.777  69.392  1.00  0.00    -0.285 C  
BRANCH  14  31
HETATM   31  N   UNL     1     -10.408  12.332  67.097  1.00  0.00    -0.217 NA 
HETATM   32  H   UNL     1     -11.298  12.646  67.485  1.00  0.00     0.000 HD 
BRANCH  31  33
HETATM   33  C   UNL     1      -9.571  13.302  66.404  1.00  0.00    -0.254 C  
BRANCH  33  34
HETATM   34  C   UNL     1      -9.028  14.354  67.386  1.00  0.00    -0.199 C  
BRANCH  34  35
HETATM   35  N   UNL     1      -9.507  14.107  68.753  1.00  0.00    -0.349 NA 
HETATM   36  H   UNL     1      -8.809  13.626  69.320  1.00  0.00     0.000 HD 
BRANCH  35  37
HETATM   37  C   UNL     1      -9.946  15.363  69.376  1.00  0.00    -0.272 C  
BRANCH  37  38
HETATM   38  C   UNL     1     -11.197  15.901  68.676  1.00  0.00    -0.360 C  
HETATM   39  O   UNL     1     -10.973  17.229  68.209  1.00  0.00    -0.336 OA 
HETATM   40  H   UNL     1     -11.749  17.564  67.775  1.00  0.00     0.000 HD 
ENDBRANCH  37  38
ENDBRANCH  35  37
ENDBRANCH  34  35
ENDBRANCH  33  34
ENDBRANCH  31  33
ENDBRANCH  14  31
ENDBRANCH   9  11
ENDBRANCH   8   9
ENDBRANCH   7   8
ENDBRANCH   5   7
ENDBRANCH   4   5
ENDBRANCH   3   4
TORSDOF 12
ENDMDL
MODEL      115
REMARK 921   NORMALIZED FREE ENERGY PREDICTED BY IDOCK:   -4.18 KCAL/MOL
REMARK 922        TOTAL FREE ENERGY PREDICTED BY IDOCK:   -9.37 KCAL/MOL
REMARK 923 INTER-LIGAND FREE ENERGY PREDICTED BY IDOCK:   -7.55 KCAL/MOL
REMARK 924 INTRA-LIGAND FREE ENERGY PREDICTED BY IDOCK:   -1.82 KCAL/MOL
REMARK 927      BINDING AFFINITY PREDICTED BY RF-SCORE:    0.00 PKD
ROOT
HETATM    1  O   UNL     1     -13.311  11.484  71.997  1.00  0.00    -0.482 OA 
HETATM    2  H   UNL     1     -13.300  10.549  71.830  1.00  0.00     0.000 HD 
HETATM    3  C   UNL     1     -12.577  12.174  70.989  1.00  0.00    -0.263 C  
ENDROOT
BRANCH   3   4
HETATM    4  C   UNL     1     -12.596  13.681  71.259  1.00  0.00    -0.351 C  
BRANCH   4   5
HETATM    5  N   UNL     1     -12.762  14.490  70.043  1.00  0.00    -0.535 NA 
HETATM    6  H   UNL     1     -13.745  14.560  69.776  1.00  0.00     0.000 HD 
BRANCH   5   7
HETATM    7  C   UNL     1     -12.150  15.819  70.179  1.00  0.00    -0.333 C  
BRANCH   7   8
HETATM    8  C   UNL     1     -10.622  15.704  70.241  1.00  0.00    -0.313 C  
BRANCH   8   9
HETATM    9  N   UNL     1     -10.059  15.561  68.910  1.00  0.00    -0.205 NA 
HETATM   10  H   UNL     1     -10.238  16.292  68.222  1.00  0.00     0.000 HD 
BRANCH   9  11
HETATM   11  C   UNL     1      -9.287  14.471  68.535  1.00  0.00    -0.203 A  
HETATM   12  C   UNL     1      -8.103  14.207  69.222  1.00  0.00     0.229 A  
HETATM   13  C   UNL     1      -7.284  13.150  68.861  1.00  0.00    -0.048 A  
HETATM   14  C   UNL     1      -7.566  12.359  67.746  1.00  0.00    -0.134 A  
HETATM   15  H   UNL     1     -10.045   9.787  62.691  1.00  0.00     0.000 HD 
HETATM   16  C   UNL     1      -8.752  12.628  67.014  1.00  0.00    -0.198 A  
HETATM   17  C   UNL     1      -9.634  13.639  67.438  1.00  0.00    -0.226 A  
HETATM   18  C   UNL     1     -12.751  12.442  63.668  1.00  0.00    -0.466 A  
HETATM   19  O   UNL     1      -8.291  11.025  65.322  1.00  0.00    -0.085 OA 
HETATM   20  C   UNL     1     -12.454  13.226  64.785  1.00  0.00    -0.383 A  
HETATM   21  C   UNL     1     -10.960  13.792  66.765  1.00  0.00    -0.304 C  
HETATM   22  O   UNL     1     -11.832  14.476  67.293  1.00  0.00    -0.394 OA 
HETATM   23  C   UNL     1     -11.852  11.470  63.252  1.00  0.00    -0.089 A  
HETATM   24  C   UNL     1     -11.260  13.033  65.524  1.00  0.00    -0.315 A  
HETATM   25  O   UNL     1      -9.838  10.314  63.454  1.00  0.00    -0.267 OA 
HETATM   26  H   UNL     1     -14.162  14.305  64.663  1.00  0.00     0.000 HD 
HETATM   27  C   UNL     1     -10.353  12.070  65.081  1.00  0.00    -0.313 A  
HETATM   28  O   UNL     1     -13.361  14.176  65.158  1.00  0.00    -0.684 OA 
HETATM   29  C   UNL     1     -10.661  11.290  63.949  1.00  0.00    -0.384 A  
HETATM   30  C   UNL     1      -9.083  11.842  65.795  1.00  0.00    -0.038 C  
BRANCH  14  31
HETATM   31  N   UNL     1      -6.733  11.290  67.466  1.00  0.00    -0.069 NA 
HETATM   32  H   UNL     1      -6.012  11.408  66.755  1.00  0.00     0.000 HD 
BRANCH  31  33
HETATM   33  C   UNL     1      -6.840  10.004  68.141  1.00  0.00    -0.064 C  
BRANCH  33  34
HETATM   34  C   UNL     1      -6.214   8.887  67.288  1.00  0.00    -0.059 C  
BRANCH  34  35
HETATM   35  N   UNL     1      -6.538   9.056  65.864  1.00  0.00    -0.064 NA 
HETATM   36  H   UNL     1      -5.805   9.559  65.364  1.00  0.00     0.000 HD 
BRANCH  35  37
HETATM   37  C   UNL     1      -6.828   7.755  65.248  1.00  0.00    -0.051 C  
BRANCH  37  38
HETATM   38  C   UNL     1      -8.284   7.355  65.497  1.00  0.00    -0.135 C  
HETATM   39  O   UNL     1      -9.125   8.506  65.489  1.00  0.00    -0.328 OA 
HETATM   40  H   UNL     1     -10.029   8.258  65.644  1.00  0.00     0.000 HD 
ENDBRANCH  37  38
ENDBRANCH  35  37
ENDBRANCH  34  35
ENDBRANCH  33  34
ENDBRANCH  31  33
ENDBRANCH  14  31
ENDBRANCH   9  11
ENDBRANCH   8   9
ENDBRANCH   7   8
ENDBRANCH   5   7
ENDBRANCH   4   5
ENDBRANCH   3   4
TORSDOF 12
ENDMDL
MODEL      116
REMARK 921   NORMALIZED FREE ENERGY PREDICTED BY IDOCK:   -4.18 KCAL/MOL
REMARK 922        TOTAL FREE ENERGY PREDICTED BY IDOCK:   -9.37 KCAL/MOL
REMARK 923 INTER-LIGAND FREE ENERGY PREDICTED BY IDOCK:   -8.07 KCAL/MOL
REMARK 924 INTRA-LIGAND FREE ENERGY PREDICTED BY IDOCK:   -1.30 KCAL/MOL
REMARK 927      BINDING AFFINITY PREDICTED BY RF-SCORE:    0.00 PKD
ROOT
HETATM    1  O   UNL     1      -6.216  13.957  72.815  1.00  0.00    -0.279 OA 
HETATM    2  H   UNL     1      -6.281  13.499  73.645  1.00  0.00     0.000 HD 
HETATM    3  C   UNL     1      -5.248  13.326  71.980  1.00  0.00    -0.085 C  
ENDROOT
BRANCH   3   4
HETATM    4  C   UNL     1      -5.143  14.063  70.642  1.00  0.00    -0.105 C  
BRANCH   4   5
HETATM    5  N   UNL     1      -5.962  13.463  69.578  1.00  0.00    -0.099 NA 
HETATM    6  H   UNL     1      -5.538  13.604  68.661  1.00  0.00     0.000 HD 
BRANCH   5   7
HETATM    7  C   UNL     1      -6.232  12.041  69.829  1.00  0.00    -0.136 C  
BRANCH   7   8
HETATM    8  C   UNL     1      -5.876  11.199  68.598  1.00  0.00    -0.042 C  
BRANCH   8   9
HETATM    9  N   UNL     1      -7.063  10.888  67.822  1.00  0.00    -0.081 NA 
HETATM   10  H   UNL     1      -6.989  10.207  67.066  1.00  0.00     0.000 HD 
BRANCH   9  11
HETATM   11  C   UNL     1      -8.295  11.477  68.066  1.00  0.00    -0.146 A  
HETATM   12  C   UNL     1      -8.586  12.711  67.486  1.00  0.00    -0.185 A  
HETATM   13  C   UNL     1      -9.788  13.353  67.729  1.00  0.00    -0.234 A  
HETATM   14  C   UNL     1     -10.722  12.833  68.627  1.00  0.00    -0.246 A  
HETATM   15  H   UNL     1     -13.807   9.403  72.754  1.00  0.00     0.000 HD 
HETATM   16  C   UNL     1     -10.434  11.591  69.251  1.00  0.00    -0.066 A  
HETATM   17  C   UNL     1      -9.256  10.891  68.931  1.00  0.00    -0.168 A  
HETATM   18  C   UNL     1     -10.687   7.164  71.999  1.00  0.00    -0.243 A  
HETATM   19  O   UNL     1     -12.360  11.634  70.641  1.00  0.00    -0.359 OA 
HETATM   20  C   UNL     1      -9.761   7.697  71.100  1.00  0.00    -0.162 A  
HETATM   21  C   UNL     1      -9.052   9.508  69.459  1.00  0.00    -0.185 C  
HETATM   22  O   UNL     1      -8.176   8.798  68.976  1.00  0.00    -0.114 OA 
HETATM   23  C   UNL     1     -11.827   7.885  72.321  1.00  0.00    -0.404 A  
HETATM   24  C   UNL     1      -9.974   8.956  70.484  1.00  0.00    -0.243 A  
HETATM   25  O   UNL     1     -13.185   9.772  72.138  1.00  0.00    -0.433 OA 
HETATM   26  H   UNL     1      -8.506   6.116  71.227  1.00  0.00     0.000 HD 
HETATM   27  C   UNL     1     -11.113   9.682  70.835  1.00  0.00    -0.422 A  
HETATM   28  O   UNL     1      -8.649   6.959  70.815  1.00  0.00    -0.141 OA 
HETATM   29  C   UNL     1     -12.036   9.136  71.749  1.00  0.00    -0.379 A  
HETATM   30  C   UNL     1     -11.375  11.009  70.246  1.00  0.00    -0.203 C  
BRANCH  14  31
HETATM   31  N   UNL     1     -11.924  13.498  68.789  1.00  0.00    -0.350 NA 
HETATM   32  H   UNL     1     -12.766  12.947  68.962  1.00  0.00     0.000 HD 
BRANCH  31  33
HETATM   33  C   UNL     1     -12.044  14.948  68.725  1.00  0.00    -0.177 C  
BRANCH  33  34
HETATM   34  C   UNL     1     -12.027  15.559  70.137  1.00  0.00    -0.366 C  
BRANCH  34  35
HETATM   35  N   UNL     1     -11.782  14.532  71.161  1.00  0.00    -0.484 NA 
HETATM   36  H   UNL     1     -10.800  14.260  71.200  1.00  0.00     0.000 HD 
BRANCH  35  37
HETATM   37  C   UNL     1     -12.277  14.986  72.467  1.00  0.00    -0.351 C  
BRANCH  37  38
HETATM   38  C   UNL     1     -13.762  14.650  72.626  1.00  0.00    -0.442 C  
HETATM   39  O   UNL     1     -13.951  13.237  72.664  1.00  0.00    -0.741 OA 
HETATM   40  H   UNL     1     -14.872  13.028  72.762  1.00  0.00     0.000 HD 
ENDBRANCH  37  38
ENDBRANCH  35  37
ENDBRANCH  34  35
ENDBRANCH  33  34
ENDBRANCH  31  33
ENDBRANCH  14  31
ENDBRANCH   9  11
ENDBRANCH   8   9
ENDBRANCH   7   8
ENDBRANCH   5   7
ENDBRANCH   4   5
ENDBRANCH   3   4
TORSDOF 12
ENDMDL
MODEL      117
REMARK 921   NORMALIZED FREE ENERGY PREDICTED BY IDOCK:   -4.17 KCAL/MOL
REMARK 922        TOTAL FREE ENERGY PREDICTED BY IDOCK:   -9.35 KCAL/MOL
REMARK 923 INTER-LIGAND FREE ENERGY PREDICTED BY IDOCK:   -8.23 KCAL/MOL
REMARK 924 INTRA-LIGAND FREE ENERGY PREDICTED BY IDOCK:   -1.12 KCAL/MOL
REMARK 927      BINDING AFFINITY PREDICTED BY RF-SCORE:    0.00 PKD
ROOT
HETATM    1  O   UNL     1      -9.085   8.172  65.202  1.00  0.00    -0.391 OA 
HETATM    2  H   UNL     1      -9.161   7.930  66.117  1.00  0.00     0.000 HD 
HETATM    3  C   UNL     1      -8.120   9.210  65.046  1.00  0.00    -0.130 C  
ENDROOT
BRANCH   3   4
HETATM    4  C   UNL     1      -7.997   9.599  63.570  1.00  0.00    -0.140 C  
BRANCH   4   5
HETATM    5  N   UNL     1      -8.484  10.956  63.281  1.00  0.00    -0.369 NA 
HETATM    6  H   UNL     1      -7.841  11.458  62.667  1.00  0.00     0.000 HD 
BRANCH   5   7
HETATM    7  C   UNL     1      -9.847  10.946  62.733  1.00  0.00    -0.215 C  
BRANCH   7   8
HETATM    8  C   UNL     1     -10.659  12.124  63.283  1.00  0.00    -0.319 C  
BRANCH   8   9
HETATM    9  N   UNL     1     -10.031  12.676  64.470  1.00  0.00    -0.549 NA 
HETATM   10  H   UNL     1      -9.242  13.312  64.355  1.00  0.00     0.000 HD 
BRANCH   9  11
HETATM   11  C   UNL     1     -10.459  12.376  65.755  1.00  0.00    -0.259 A  
HETATM   12  C   UNL     1     -10.884  11.080  66.045  1.00  0.00    -0.189 A  
HETATM   13  C   UNL     1     -11.352  10.743  67.304  1.00  0.00    -0.173 A  
HETATM   14  C   UNL     1     -11.496  11.703  68.307  1.00  0.00    -0.303 A  
HETATM   15  H   UNL     1     -11.581  16.903  71.663  1.00  0.00     0.000 HD 
HETATM   16  C   UNL     1     -11.096  13.035  68.025  1.00  0.00    -0.288 A  
HETATM   17  C   UNL     1     -10.530  13.358  66.778  1.00  0.00    -0.275 A  
HETATM   18  C   UNL     1      -9.875  18.097  68.349  1.00  0.00    -0.380 A  
HETATM   19  O   UNL     1     -11.854  13.899  70.105  1.00  0.00    -0.290 OA 
HETATM   20  C   UNL     1      -9.739  17.126  67.354  1.00  0.00    -0.253 A  
HETATM   21  C   UNL     1      -9.953  14.719  66.559  1.00  0.00    -0.271 C  
HETATM   22  O   UNL     1      -9.228  14.921  65.590  1.00  0.00    -0.139 OA 
HETATM   23  C   UNL     1     -10.462  17.762  69.560  1.00  0.00     0.284 A  
HETATM   24  C   UNL     1     -10.166  15.791  67.564  1.00  0.00    -0.265 A  
HETATM   25  O   UNL     1     -11.488  16.236  70.994  1.00  0.00    -0.407 OA 
HETATM   26  H   UNL     1      -8.876  18.393  66.032  1.00  0.00     0.000 HD 
HETATM   27  C   UNL     1     -10.777  15.473  68.777  1.00  0.00    -0.249 A  
HETATM   28  O   UNL     1      -9.162  17.498  66.174  1.00  0.00    -0.441 OA 
HETATM   29  C   UNL     1     -10.915  16.464  69.771  1.00  0.00    -0.341 A  
HETATM   30  C   UNL     1     -11.264  14.107  69.043  1.00  0.00    -0.271 C  
BRANCH  14  31
HETATM   31  N   UNL     1     -11.924  11.293  69.558  1.00  0.00    -0.338 NA 
HETATM   32  H   UNL     1     -12.834  11.613  69.890  1.00  0.00     0.000 HD 
BRANCH  31  33
HETATM   33  C   UNL     1     -11.136  10.424  70.421  1.00  0.00    -0.296 C  
BRANCH  33  34
HETATM   34  C   UNL     1     -11.775   9.029  70.521  1.00  0.00    -0.126 C  
BRANCH  34  35
HETATM   35  N   UNL     1     -10.752   7.975  70.578  1.00  0.00    -0.225 NA 
HETATM   36  H   UNL     1     -11.099   7.088  70.212  1.00  0.00     0.000 HD 
BRANCH  35  37
HETATM   37  C   UNL     1      -9.530   8.410  69.891  1.00  0.00    -0.166 C  
BRANCH  37  38
HETATM   38  C   UNL     1      -8.298   8.125  70.754  1.00  0.00    -0.120 C  
HETATM   39  O   UNL     1      -8.171   9.106  71.780  1.00  0.00    -0.340 OA 
HETATM   40  H   UNL     1      -7.407   8.929  72.316  1.00  0.00     0.000 HD 
ENDBRANCH  37  38
ENDBRANCH  35  37
ENDBRANCH  34  35
ENDBRANCH  33  34
ENDBRANCH  31  33
ENDBRANCH  14  31
ENDBRANCH   9  11
ENDBRANCH   8   9
ENDBRANCH   7   8
ENDBRANCH   5   7
ENDBRANCH   4   5
ENDBRANCH   3   4
TORSDOF 12
ENDMDL
MODEL      118
REMARK 921   NORMALIZED FREE ENERGY PREDICTED BY IDOCK:   -4.14 KCAL/MOL
REMARK 922        TOTAL FREE ENERGY PREDICTED BY IDOCK:   -9.31 KCAL/MOL
REMARK 923 INTER-LIGAND FREE ENERGY PREDICTED BY IDOCK:   -7.53 KCAL/MOL
REMARK 924 INTRA-LIGAND FREE ENERGY PREDICTED BY IDOCK:   -1.78 KCAL/MOL
REMARK 927      BINDING AFFINITY PREDICTED BY RF-SCORE:    0.00 PKD
ROOT
HETATM    1  O   UNL     1      -8.434  17.745  65.905  1.00  0.00    -0.522 OA 
HETATM    2  H   UNL     1      -8.533  18.190  65.072  1.00  0.00     0.000 HD 
HETATM    3  C   UNL     1      -7.973  18.656  66.899  1.00  0.00    -0.242 C  
ENDROOT
BRANCH   3   4
HETATM    4  C   UNL     1      -7.815  17.938  68.242  1.00  0.00    -0.285 C  
BRANCH   4   5
HETATM    5  N   UNL     1      -7.882  16.473  68.133  1.00  0.00    -0.164 NA 
HETATM    6  H   UNL     1      -8.327  16.187  67.261  1.00  0.00     0.000 HD 
BRANCH   5   7
HETATM    7  C   UNL     1      -6.560  15.850  68.289  1.00  0.00    -0.119 C  
BRANCH   7   8
HETATM    8  C   UNL     1      -6.476  15.090  69.618  1.00  0.00    -0.154 C  
BRANCH   8   9
HETATM    9  N   UNL     1      -7.423  13.990  69.647  1.00  0.00    -0.333 NA 
HETATM   10  H   UNL     1      -8.178  14.013  70.333  1.00  0.00     0.000 HD 
BRANCH   9  11
HETATM   11  C   UNL     1      -7.346  12.910  68.780  1.00  0.00    -0.066 A  
HETATM   12  C   UNL     1      -6.231  12.075  68.830  1.00  0.00    -0.072 A  
HETATM   13  C   UNL     1      -6.095  11.006  67.962  1.00  0.00    -0.049 A  
HETATM   14  C   UNL     1      -7.025  10.768  66.949  1.00  0.00    -0.109 A  
HETATM   15  H   UNL     1     -11.837  10.966  63.060  1.00  0.00     0.000 HD 
HETATM   16  C   UNL     1      -8.155  11.623  66.861  1.00  0.00    -0.164 A  
HETATM   17  C   UNL     1      -8.344  12.651  67.803  1.00  0.00    -0.172 A  
HETATM   18  C   UNL     1     -12.705  13.831  65.581  1.00  0.00    -0.523 A  
HETATM   19  O   UNL     1      -8.981  10.630  64.867  1.00  0.00    -0.189 OA 
HETATM   20  C   UNL     1     -11.765  14.057  66.589  1.00  0.00    -0.399 A  
HETATM   21  C   UNL     1      -9.621  13.425  67.805  1.00  0.00    -0.213 C  
HETATM   22  O   UNL     1      -9.904  14.125  68.773  1.00  0.00    -0.224 OA 
HETATM   23  C   UNL     1     -12.484  12.830  64.646  1.00  0.00    -0.525 A  
HETATM   24  C   UNL     1     -10.594  13.266  66.694  1.00  0.00    -0.283 A  
HETATM   25  O   UNL     1     -11.194  11.110  63.745  1.00  0.00    -0.275 OA 
HETATM   26  H   UNL     1     -12.801  15.587  67.414  1.00  0.00     0.000 HD 
HETATM   27  C   UNL     1     -10.371  12.279  65.734  1.00  0.00    -0.287 A  
HETATM   28  O   UNL     1     -12.016  15.056  67.485  1.00  0.00    -0.272 OA 
HETATM   29  C   UNL     1     -11.325  12.065  64.718  1.00  0.00    -0.313 A  
HETATM   30  C   UNL     1      -9.159  11.441  65.777  1.00  0.00    -0.184 C  
BRANCH  14  31
HETATM   31  N   UNL     1      -6.857   9.655  66.144  1.00  0.00    -0.089 NA 
HETATM   32  H   UNL     1      -6.674   9.796  65.151  1.00  0.00     0.000 HD 
BRANCH  31  33
HETATM   33  C   UNL     1      -6.930   8.292  66.651  1.00  0.00    -0.069 C  
BRANCH  33  34
HETATM   34  C   UNL     1      -8.081   8.147  67.661  1.00  0.00    -0.127 C  
BRANCH  34  35
HETATM   35  N   UNL     1      -9.188   7.358  67.100  1.00  0.00    -0.131 NA 
HETATM   36  H   UNL     1      -9.349   6.499  67.627  1.00  0.00     0.000 HD 
BRANCH  35  37
HETATM   37  C   UNL     1     -10.404   8.177  67.007  1.00  0.00    -0.333 C  
BRANCH  37  38
HETATM   38  C   UNL     1     -10.509   9.123  68.206  1.00  0.00    -0.208 C  
HETATM   39  O   UNL     1     -11.201   8.489  69.279  1.00  0.00    -0.433 OA 
HETATM   40  H   UNL     1     -11.267   9.076  70.024  1.00  0.00     0.000 HD 
ENDBRANCH  37  38
ENDBRANCH  35  37
ENDBRANCH  34  35
ENDBRANCH  33  34
ENDBRANCH  31  33
ENDBRANCH  14  31
ENDBRANCH   9  11
ENDBRANCH   8   9
ENDBRANCH   7   8
ENDBRANCH   5   7
ENDBRANCH   4   5
ENDBRANCH   3   4
TORSDOF 12
ENDMDL
MODEL      119
REMARK 921   NORMALIZED FREE ENERGY PREDICTED BY IDOCK:   -4.14 KCAL/MOL
REMARK 922        TOTAL FREE ENERGY PREDICTED BY IDOCK:   -9.30 KCAL/MOL
REMARK 923 INTER-LIGAND FREE ENERGY PREDICTED BY IDOCK:   -7.06 KCAL/MOL
REMARK 924 INTRA-LIGAND FREE ENERGY PREDICTED BY IDOCK:   -2.25 KCAL/MOL
REMARK 927      BINDING AFFINITY PREDICTED BY RF-SCORE:    0.00 PKD
ROOT
HETATM    1  O   UNL     1      -8.860   9.758  70.747  1.00  0.00    -0.347 OA 
HETATM    2  H   UNL     1      -8.549  10.191  71.533  1.00  0.00     0.000 HD 
HETATM    3  C   UNL     1     -10.251   9.472  70.860  1.00  0.00    -0.286 C  
ENDROOT
BRANCH   3   4
HETATM    4  C   UNL     1     -10.753   8.774  69.592  1.00  0.00    -0.208 C  
BRANCH   4   5
HETATM    5  N   UNL     1      -9.882   8.985  68.426  1.00  0.00    -0.161 NA 
HETATM    6  H   UNL     1      -9.050   8.396  68.473  1.00  0.00     0.000 HD 
BRANCH   5   7
HETATM    7  C   UNL     1     -10.602   8.791  67.160  1.00  0.00    -0.233 C  
BRANCH   7   8
HETATM    8  C   UNL     1     -10.782  10.129  66.431  1.00  0.00    -0.007 C  
BRANCH   8   9
HETATM    9  N   UNL     1      -9.579  10.936  66.527  1.00  0.00    -0.190 NA 
HETATM   10  H   UNL     1      -8.693  10.472  66.726  1.00  0.00     0.000 HD 
BRANCH   9  11
HETATM   11  C   UNL     1      -9.583  12.313  66.358  1.00  0.00    -0.237 A  
HETATM   12  C   UNL     1     -10.373  12.873  65.354  1.00  0.00    -0.310 A  
HETATM   13  C   UNL     1     -10.383  14.238  65.127  1.00  0.00    -0.440 A  
HETATM   14  C   UNL     1      -9.543  15.100  65.834  1.00  0.00    -0.338 A  
HETATM   15  H   UNL     1      -5.373  17.607  69.661  1.00  0.00     0.000 HD 
HETATM   16  C   UNL     1      -8.709  14.548  66.841  1.00  0.00    -0.237 A  
HETATM   17  C   UNL     1      -8.769  13.174  67.139  1.00  0.00    -0.214 A  
HETATM   18  C   UNL     1      -5.385  13.864  70.804  1.00  0.00    -0.142 A  
HETATM   19  O   UNL     1      -7.595  16.596  67.300  1.00  0.00    -0.147 OA 
HETATM   20  C   UNL     1      -6.229  13.014  70.086  1.00  0.00    -0.033 A  
HETATM   21  C   UNL     1      -8.019  12.640  68.317  1.00  0.00    -0.153 C  
HETATM   22  O   UNL     1      -8.276  11.518  68.741  1.00  0.00    -0.145 OA 
HETATM   23  C   UNL     1      -5.321  15.209  70.473  1.00  0.00    -0.133 A  
HETATM   24  C   UNL     1      -7.048  13.503  69.038  1.00  0.00    -0.066 A  
HETATM   25  O   UNL     1      -5.954  17.037  69.171  1.00  0.00    -0.165 OA 
HETATM   26  H   UNL     1      -5.709  11.367  71.141  1.00  0.00     0.000 HD 
HETATM   27  C   UNL     1      -6.957  14.853  68.698  1.00  0.00    -0.108 A  
HETATM   28  O   UNL     1      -6.258  11.695  70.438  1.00  0.00    -0.233 OA 
HETATM   29  C   UNL     1      -6.095  15.699  69.426  1.00  0.00    -0.131 A  
HETATM   30  C   UNL     1      -7.765  15.413  67.600  1.00  0.00    -0.160 C  
BRANCH  14  31
HETATM   31  N   UNL     1      -9.635  16.459  65.592  1.00  0.00    -0.507 NA 
HETATM   32  H   UNL     1      -8.832  16.936  65.180  1.00  0.00     0.000 HD 
BRANCH  31  33
HETATM   33  C   UNL     1     -10.825  17.241  65.900  1.00  0.00    -0.003 C  
BRANCH  33  34
HETATM   34  C   UNL     1     -10.479  18.734  66.021  1.00  0.00    -0.432 C  
BRANCH  34  35
HETATM   35  N   UNL     1      -9.068  18.929  66.385  1.00  0.00    -0.346 NA 
HETATM   36  H   UNL     1      -8.468  18.993  65.562  1.00  0.00     0.000 HD 
BRANCH  35  37
HETATM   37  C   UNL     1      -8.922  20.099  67.261  1.00  0.00    -0.356 C  
BRANCH  37  38
HETATM   38  C   UNL     1      -7.455  20.526  67.348  1.00  0.00    -0.331 C  
HETATM   39  O   UNL     1      -6.768  19.749  68.327  1.00  0.00    -0.260 OA 
HETATM   40  H   UNL     1      -5.858  20.014  68.381  1.00  0.00     0.000 HD 
ENDBRANCH  37  38
ENDBRANCH  35  37
ENDBRANCH  34  35
ENDBRANCH  33  34
ENDBRANCH  31  33
ENDBRANCH  14  31
ENDBRANCH   9  11
ENDBRANCH   8   9
ENDBRANCH   7   8
ENDBRANCH   5   7
ENDBRANCH   4   5
ENDBRANCH   3   4
TORSDOF 12
ENDMDL
MODEL      120
REMARK 921   NORMALIZED FREE ENERGY PREDICTED BY IDOCK:   -4.13 KCAL/MOL
REMARK 922        TOTAL FREE ENERGY PREDICTED BY IDOCK:   -9.28 KCAL/MOL
REMARK 923 INTER-LIGAND FREE ENERGY PREDICTED BY IDOCK:   -8.72 KCAL/MOL
REMARK 924 INTRA-LIGAND FREE ENERGY PREDICTED BY IDOCK:   -0.57 KCAL/MOL
REMARK 927      BINDING AFFINITY PREDICTED BY RF-SCORE:    0.00 PKD
ROOT
HETATM    1  O   UNL     1     -11.664   4.254  64.839  1.00  0.00    -0.892 OA 
HETATM    2  H   UNL     1     -12.138   4.429  64.035  1.00  0.00     0.000 HD 
HETATM    3  C   UNL     1     -10.289   4.005  64.555  1.00  0.00    -0.206 C  
ENDROOT
BRANCH   3   4
HETATM    4  C   UNL     1      -9.524   3.723  65.850  1.00  0.00    -0.171 C  
BRANCH   4   5
HETATM    5  N   UNL     1      -9.689   4.773  66.867  1.00  0.00    -0.171 NA 
HETATM    6  H   UNL     1     -10.326   4.475  67.606  1.00  0.00     0.000 HD 
BRANCH   5   7
HETATM    7  C   UNL     1      -8.400   5.212  67.418  1.00  0.00    -0.106 C  
BRANCH   7   8
HETATM    8  C   UNL     1      -7.855   6.407  66.626  1.00  0.00    -0.104 C  
BRANCH   8   9
HETATM    9  N   UNL     1      -7.974   7.635  67.392  1.00  0.00    -0.117 NA 
HETATM   10  H   UNL     1      -7.706   7.625  68.376  1.00  0.00     0.000 HD 
BRANCH   9  11
HETATM   11  C   UNL     1      -8.438   8.820  66.841  1.00  0.00    -0.111 A  
HETATM   12  C   UNL     1      -9.214   8.776  65.684  1.00  0.00    -0.244 A  
HETATM   13  C   UNL     1      -9.670   9.936  65.081  1.00  0.00    -0.376 A  
HETATM   14  C   UNL     1      -9.304  11.196  65.556  1.00  0.00    -0.223 A  
HETATM   15  H   UNL     1      -6.912  15.948  68.720  1.00  0.00     0.000 HD 
HETATM   16  C   UNL     1      -8.491  11.265  66.718  1.00  0.00    -0.161 A  
HETATM   17  C   UNL     1      -8.107  10.089  67.388  1.00  0.00    -0.114 A  
HETATM   18  C   UNL     1      -5.776  12.881  70.869  1.00  0.00    -0.109 A  
HETATM   19  O   UNL     1      -8.253  13.628  66.635  1.00  0.00     0.093 OA 
HETATM   20  C   UNL     1      -6.148  11.627  70.380  1.00  0.00    -0.074 A  
HETATM   21  C   UNL     1      -7.404  10.183  68.702  1.00  0.00    -0.082 C  
HETATM   22  O   UNL     1      -7.310   9.187  69.412  1.00  0.00    -0.071 OA 
HETATM   23  C   UNL     1      -6.141  14.026  70.176  1.00  0.00    -0.154 A  
HETATM   24  C   UNL     1      -6.919  11.497  69.198  1.00  0.00    -0.113 A  
HETATM   25  O   UNL     1      -7.174  15.099  68.383  1.00  0.00    -0.107 OA 
HETATM   26  H   UNL     1      -5.247  10.611  71.880  1.00  0.00     0.000 HD 
HETATM   27  C   UNL     1      -7.259  12.654  68.497  1.00  0.00    -0.113 A  
HETATM   28  O   UNL     1      -5.763  10.525  71.088  1.00  0.00    -0.224 OA 
HETATM   29  C   UNL     1      -6.871  13.914  68.997  1.00  0.00    -0.111 A  
HETATM   30  C   UNL     1      -8.038  12.580  67.247  1.00  0.00    -0.179 C  
BRANCH  14  31
HETATM   31  N   UNL     1      -9.832  12.316  64.937  1.00  0.00    -0.435 NA 
HETATM   32  H   UNL     1      -9.782  13.210  65.425  1.00  0.00     0.000 HD 
BRANCH  31  33
HETATM   33  C   UNL     1     -10.454  12.275  63.621  1.00  0.00    -0.450 C  
BRANCH  33  34
HETATM   34  C   UNL     1     -11.967  12.528  63.726  1.00  0.00    -0.517 C  
BRANCH  34  35
HETATM   35  N   UNL     1     -12.264  13.965  63.817  1.00  0.00    -0.864 NA 
HETATM   36  H   UNL     1     -13.212  14.178  63.504  1.00  0.00     0.000 HD 
BRANCH  35  37
HETATM   37  C   UNL     1     -12.014  14.454  65.179  1.00  0.00    -0.391 C  
BRANCH  37  38
HETATM   38  C   UNL     1     -11.286  15.800  65.141  1.00  0.00    -0.248 C  
HETATM   39  O   UNL     1     -11.513  16.454  63.895  1.00  0.00    -1.569 OA 
HETATM   40  H   UNL     1     -11.061  17.289  63.871  1.00  0.00     0.000 HD 
ENDBRANCH  37  38
ENDBRANCH  35  37
ENDBRANCH  34  35
ENDBRANCH  33  34
ENDBRANCH  31  33
ENDBRANCH  14  31
ENDBRANCH   9  11
ENDBRANCH   8   9
ENDBRANCH   7   8
ENDBRANCH   5   7
ENDBRANCH   4   5
ENDBRANCH   3   4
TORSDOF 12
ENDMDL
MODEL      121
REMARK 921   NORMALIZED FREE ENERGY PREDICTED BY IDOCK:   -4.10 KCAL/MOL
REMARK 922        TOTAL FREE ENERGY PREDICTED BY IDOCK:   -9.24 KCAL/MOL
REMARK 923 INTER-LIGAND FREE ENERGY PREDICTED BY IDOCK:   -7.32 KCAL/MOL
REMARK 924 INTRA-LIGAND FREE ENERGY PREDICTED BY IDOCK:   -1.92 KCAL/MOL
REMARK 927      BINDING AFFINITY PREDICTED BY RF-SCORE:    0.00 PKD
ROOT
HETATM    1  O   UNL     1     -12.023  10.638  67.929  1.00  0.00    -0.737 OA 
HETATM    2  H   UNL     1     -12.411  10.583  68.794  1.00  0.00     0.000 HD 
HETATM    3  C   UNL     1     -11.780  11.999  67.583  1.00  0.00    -0.294 C  
ENDROOT
BRANCH   3   4
HETATM    4  C   UNL     1     -11.154  12.086  66.188  1.00  0.00    -0.322 C  
BRANCH   4   5
HETATM    5  N   UNL     1      -9.788  12.632  66.194  1.00  0.00    -0.258 NA 
HETATM    6  H   UNL     1      -9.628  13.239  65.390  1.00  0.00     0.000 HD 
BRANCH   5   7
HETATM    7  C   UNL     1      -9.478  13.322  67.453  1.00  0.00    -0.218 C  
BRANCH   7   8
HETATM    8  C   UNL     1      -8.307  12.638  68.169  1.00  0.00    -0.175 C  
BRANCH   8   9
HETATM    9  N   UNL     1      -8.026  11.341  67.580  1.00  0.00    -0.120 NA 
HETATM   10  H   UNL     1      -7.440  11.299  66.746  1.00  0.00     0.000 HD 
BRANCH   9  11
HETATM   11  C   UNL     1      -8.522  10.156  68.102  1.00  0.00    -0.118 A  
HETATM   12  C   UNL     1      -8.920  10.114  69.438  1.00  0.00    -0.205 A  
HETATM   13  C   UNL     1      -9.389   8.945  70.012  1.00  0.00    -0.184 A  
HETATM   14  C   UNL     1      -9.405   7.742  69.303  1.00  0.00    -0.148 A  
HETATM   15  H   UNL     1      -8.897   3.294  65.029  1.00  0.00     0.000 HD 
HETATM   16  C   UNL     1      -8.977   7.755  67.950  1.00  0.00    -0.125 A  
HETATM   17  C   UNL     1      -8.592   8.962  67.337  1.00  0.00    -0.119 A  
HETATM   18  C   UNL     1      -7.877   6.489  63.010  1.00  0.00    -0.101 A  
HETATM   19  O   UNL     1      -9.156   5.401  67.680  1.00  0.00    -0.109 OA 
HETATM   20  C   UNL     1      -7.865   7.684  63.732  1.00  0.00    -0.117 A  
HETATM   21  C   UNL     1      -8.317   8.989  65.869  1.00  0.00    -0.125 C  
HETATM   22  O   UNL     1      -8.248  10.067  65.286  1.00  0.00    -0.135 OA 
HETATM   23  C   UNL     1      -8.233   5.306  63.642  1.00  0.00    -0.126 A  
HETATM   24  C   UNL     1      -8.235   7.721  65.100  1.00  0.00    -0.135 A  
HETATM   25  O   UNL     1      -8.896   4.104  65.527  1.00  0.00    -0.117 OA 
HETATM   26  H   UNL     1      -7.254   8.799  62.158  1.00  0.00     0.000 HD 
HETATM   27  C   UNL     1      -8.568   6.522  65.731  1.00  0.00    -0.149 A  
HETATM   28  O   UNL     1      -7.502   8.824  63.075  1.00  0.00    -0.098 OA 
HETATM   29  C   UNL     1      -8.569   5.321  64.992  1.00  0.00    -0.150 A  
HETATM   30  C   UNL     1      -8.937   6.496  67.158  1.00  0.00    -0.113 C  
BRANCH  14  31
HETATM   31  N   UNL     1      -9.930   6.620  69.918  1.00  0.00    -0.170 NA 
HETATM   32  H   UNL     1      -9.287   5.958  70.355  1.00  0.00     0.000 HD 
BRANCH  31  33
HETATM   33  C   UNL     1     -11.358   6.339  69.972  1.00  0.00    -0.416 C  
BRANCH  33  34
HETATM   34  C   UNL     1     -11.896   6.520  71.401  1.00  0.00    -0.329 C  
BRANCH  34  35
HETATM   35  N   UNL     1     -12.933   7.560  71.454  1.00  0.00    -0.454 NA 
HETATM   36  H   UNL     1     -13.835   7.183  71.747  1.00  0.00     0.000 HD 
BRANCH  35  37
HETATM   37  C   UNL     1     -12.501   8.671  72.312  1.00  0.00    -0.395 C  
BRANCH  37  38
HETATM   38  C   UNL     1     -13.165   9.979  71.874  1.00  0.00    -0.452 C  
HETATM   39  O   UNL     1     -13.170  10.082  70.452  1.00  0.00    -0.603 OA 
HETATM   40  H   UNL     1     -13.581  10.894  70.180  1.00  0.00     0.000 HD 
ENDBRANCH  37  38
ENDBRANCH  35  37
ENDBRANCH  34  35
ENDBRANCH  33  34
ENDBRANCH  31  33
ENDBRANCH  14  31
ENDBRANCH   9  11
ENDBRANCH   8   9
ENDBRANCH   7   8
ENDBRANCH   5   7
ENDBRANCH   4   5
ENDBRANCH   3   4
TORSDOF 12
ENDMDL
MODEL      122
REMARK 921   NORMALIZED FREE ENERGY PREDICTED BY IDOCK:   -4.09 KCAL/MOL
REMARK 922        TOTAL FREE ENERGY PREDICTED BY IDOCK:   -9.22 KCAL/MOL
REMARK 923 INTER-LIGAND FREE ENERGY PREDICTED BY IDOCK:   -8.21 KCAL/MOL
REMARK 924 INTRA-LIGAND FREE ENERGY PREDICTED BY IDOCK:   -1.01 KCAL/MOL
REMARK 927      BINDING AFFINITY PREDICTED BY RF-SCORE:    0.00 PKD
ROOT
HETATM    1  O   UNL     1      -9.344   6.394  70.409  1.00  0.00    -0.160 OA 
HETATM    2  H   UNL     1      -9.965   5.677  70.461  1.00  0.00     0.000 HD 
HETATM    3  C   UNL     1      -9.792   7.492  71.199  1.00  0.00    -0.173 C  
ENDROOT
BRANCH   3   4
HETATM    4  C   UNL     1      -8.790   8.647  71.117  1.00  0.00    -0.199 C  
BRANCH   4   5
HETATM    5  N   UNL     1      -9.390   9.910  70.662  1.00  0.00    -0.305 NA 
HETATM    6  H   UNL     1      -9.244  10.656  71.342  1.00  0.00     0.000 HD 
BRANCH   5   7
HETATM    7  C   UNL     1      -8.907  10.300  69.331  1.00  0.00    -0.163 C  
BRANCH   7   8
HETATM    8  C   UNL     1      -7.468  10.825  69.412  1.00  0.00    -0.124 C  
BRANCH   8   9
HETATM    9  N   UNL     1      -7.150  11.645  68.256  1.00  0.00    -0.073 NA 
HETATM   10  H   UNL     1      -6.504  11.277  67.559  1.00  0.00     0.000 HD 
BRANCH   9  11
HETATM   11  C   UNL     1      -7.689  12.908  68.061  1.00  0.00    -0.143 A  
HETATM   12  C   UNL     1      -7.306  13.949  68.906  1.00  0.00    -0.088 A  
HETATM   13  C   UNL     1      -7.844  15.218  68.771  1.00  0.00    -0.154 A  
HETATM   14  C   UNL     1      -8.849  15.487  67.840  1.00  0.00    -0.171 A  
HETATM   15  H   UNL     1     -13.128  15.178  63.379  1.00  0.00     0.000 HD 
HETATM   16  C   UNL     1      -9.275  14.434  66.989  1.00  0.00    -0.246 A  
HETATM   17  C   UNL     1      -8.661  13.170  67.060  1.00  0.00    -0.193 A  
HETATM   18  C   UNL     1     -11.553  11.597  63.250  1.00  0.00    -0.246 A  
HETATM   19  O   UNL     1     -11.012  15.705  65.982  1.00  0.00    -0.299 OA 
HETATM   20  C   UNL     1     -10.549  11.343  64.187  1.00  0.00    -0.369 A  
HETATM   21  C   UNL     1      -8.995  12.129  66.042  1.00  0.00     0.020 C  
HETATM   22  O   UNL     1      -8.280  11.137  65.932  1.00  0.00    -0.141 OA 
HETATM   23  C   UNL     1     -12.164  12.842  63.217  1.00  0.00    -0.481 A  
HETATM   24  C   UNL     1     -10.119  12.342  65.095  1.00  0.00    -0.276 A  
HETATM   25  O   UNL     1     -12.443  15.015  64.016  1.00  0.00    -0.796 OA 
HETATM   26  H   UNL     1     -10.267   9.432  63.583  1.00  0.00     0.000 HD 
HETATM   27  C   UNL     1     -10.757  13.583  65.068  1.00  0.00    -0.366 A  
HETATM   28  O   UNL     1      -9.979  10.102  64.191  1.00  0.00    -0.278 OA 
HETATM   29  C   UNL     1     -11.774  13.824  64.122  1.00  0.00    -0.364 A  
HETATM   30  C   UNL     1     -10.370  14.653  66.005  1.00  0.00    -0.305 C  
BRANCH  14  31
HETATM   31  N   UNL     1      -9.310  16.786  67.722  1.00  0.00    -0.231 NA 
HETATM   32  H   UNL     1     -10.253  16.999  68.048  1.00  0.00     0.000 HD 
BRANCH  31  33
HETATM   33  C   UNL     1      -8.511  17.863  67.154  1.00  0.00    -0.233 C  
BRANCH  33  34
HETATM   34  C   UNL     1      -9.412  19.006  66.657  1.00  0.00    -0.342 C  
BRANCH  34  35
HETATM   35  N   UNL     1      -8.616  20.155  66.202  1.00  0.00    -0.556 NA 
HETATM   36  H   UNL     1      -9.204  20.952  65.956  1.00  0.00     0.000 HD 
BRANCH  35  37
HETATM   37  C   UNL     1      -7.607  20.510  67.209  1.00  0.00    -0.342 C  
BRANCH  37  38
HETATM   38  C   UNL     1      -6.255  20.779  66.544  1.00  0.00    -0.244 C  
HETATM   39  O   UNL     1      -5.491  19.578  66.468  1.00  0.00    -0.163 OA 
HETATM   40  H   UNL     1      -4.651  19.745  66.055  1.00  0.00     0.000 HD 
ENDBRANCH  37  38
ENDBRANCH  35  37
ENDBRANCH  34  35
ENDBRANCH  33  34
ENDBRANCH  31  33
ENDBRANCH  14  31
ENDBRANCH   9  11
ENDBRANCH   8   9
ENDBRANCH   7   8
ENDBRANCH   5   7
ENDBRANCH   4   5
ENDBRANCH   3   4
TORSDOF 12
ENDMDL
MODEL      123
REMARK 921   NORMALIZED FREE ENERGY PREDICTED BY IDOCK:   -4.07 KCAL/MOL
REMARK 922        TOTAL FREE ENERGY PREDICTED BY IDOCK:   -9.19 KCAL/MOL
REMARK 923 INTER-LIGAND FREE ENERGY PREDICTED BY IDOCK:   -7.15 KCAL/MOL
REMARK 924 INTRA-LIGAND FREE ENERGY PREDICTED BY IDOCK:   -2.04 KCAL/MOL
REMARK 927      BINDING AFFINITY PREDICTED BY RF-SCORE:    0.00 PKD
ROOT
HETATM    1  O   UNL     1      -8.904   8.991  70.671  1.00  0.00    -0.178 OA 
HETATM    2  H   UNL     1      -8.852   9.516  71.460  1.00  0.00     0.000 HD 
HETATM    3  C   UNL     1     -10.206   8.426  70.540  1.00  0.00    -0.196 C  
ENDROOT
BRANCH   3   4
HETATM    4  C   UNL     1     -10.290   7.579  69.266  1.00  0.00    -0.209 C  
BRANCH   4   5
HETATM    5  N   UNL     1      -9.547   8.153  68.134  1.00  0.00    -0.147 NA 
HETATM    6  H   UNL     1      -8.694   7.626  67.946  1.00  0.00     0.000 HD 
BRANCH   5   7
HETATM    7  C   UNL     1     -10.382   8.265  66.930  1.00  0.00    -0.320 C  
BRANCH   7   8
HETATM    8  C   UNL     1     -10.777   9.726  66.682  1.00  0.00    -0.036 C  
BRANCH   8   9
HETATM    9  N   UNL     1      -9.634  10.504  66.241  1.00  0.00    -0.180 NA 
HETATM   10  H   UNL     1      -8.828  10.013  65.853  1.00  0.00     0.000 HD 
BRANCH   9  11
HETATM   11  C   UNL     1      -9.590  11.888  66.324  1.00  0.00    -0.229 A  
HETATM   12  C   UNL     1     -10.374  12.647  65.455  1.00  0.00    -0.305 A  
HETATM   13  C   UNL     1     -10.337  14.030  65.479  1.00  0.00    -0.354 A  
HETATM   14  C   UNL     1      -9.456  14.721  66.313  1.00  0.00    -0.303 A  
HETATM   15  H   UNL     1      -5.141  16.352  70.441  1.00  0.00     0.000 HD 
HETATM   16  C   UNL     1      -8.628  13.968  67.186  1.00  0.00    -0.220 A  
HETATM   17  C   UNL     1      -8.734  12.565  67.231  1.00  0.00    -0.193 A  
HETATM   18  C   UNL     1      -5.272  12.465  70.887  1.00  0.00    -0.159 A  
HETATM   19  O   UNL     1      -7.434  15.860  67.984  1.00  0.00    -0.120 OA 
HETATM   20  C   UNL     1      -6.158  11.788  70.046  1.00  0.00    -0.158 A  
HETATM   21  C   UNL     1      -7.987  11.802  68.276  1.00  0.00    -0.147 C  
HETATM   22  O   UNL     1      -8.278  10.630  68.495  1.00  0.00    -0.114 OA 
HETATM   23  C   UNL     1      -5.164  13.845  70.804  1.00  0.00    -0.126 A  
HETATM   24  C   UNL     1      -6.974  12.486  69.121  1.00  0.00    -0.025 A  
HETATM   25  O   UNL     1      -5.750  15.899  69.868  1.00  0.00    -0.138 OA 
HETATM   26  H   UNL     1      -5.683   9.961  70.774  1.00  0.00     0.000 HD 
HETATM   27  C   UNL     1      -6.838  13.872  69.029  1.00  0.00    -0.111 A  
HETATM   28  O   UNL     1      -6.229  10.429  70.154  1.00  0.00    -0.078 OA 
HETATM   29  C   UNL     1      -5.936  14.542  69.879  1.00  0.00    -0.132 A  
HETATM   30  C   UNL     1      -7.642  14.649  68.068  1.00  0.00    -0.128 C  
BRANCH  14  31
HETATM   31  N   UNL     1      -9.502  16.104  66.323  1.00  0.00    -0.291 NA 
HETATM   32  H   UNL     1      -8.692  16.620  65.980  1.00  0.00     0.000 HD 
BRANCH  31  33
HETATM   33  C   UNL     1     -10.654  16.856  66.802  1.00  0.00    -0.201 C  
BRANCH  33  34
HETATM   34  C   UNL     1     -10.876  16.614  68.304  1.00  0.00    -0.356 C  
BRANCH  34  35
HETATM   35  N   UNL     1     -12.009  15.706  68.538  1.00  0.00    -0.509 NA 
HETATM   36  H   UNL     1     -12.373  15.321  67.667  1.00  0.00     0.000 HD 
BRANCH  35  37
HETATM   37  C   UNL     1     -11.631  14.652  69.488  1.00  0.00    -0.310 C  
BRANCH  37  38
HETATM   38  C   UNL     1     -12.443  14.775  70.780  1.00  0.00    -0.337 C  
HETATM   39  O   UNL     1     -13.542  15.664  70.593  1.00  0.00    -0.841 OA 
HETATM   40  H   UNL     1     -14.046  15.741  71.394  1.00  0.00     0.000 HD 
ENDBRANCH  37  38
ENDBRANCH  35  37
ENDBRANCH  34  35
ENDBRANCH  33  34
ENDBRANCH  31  33
ENDBRANCH  14  31
ENDBRANCH   9  11
ENDBRANCH   8   9
ENDBRANCH   7   8
ENDBRANCH   5   7
ENDBRANCH   4   5
ENDBRANCH   3   4
TORSDOF 12
ENDMDL
MODEL      124
REMARK 921   NORMALIZED FREE ENERGY PREDICTED BY IDOCK:   -4.05 KCAL/MOL
REMARK 922        TOTAL FREE ENERGY PREDICTED BY IDOCK:   -9.15 KCAL/MOL
REMARK 923 INTER-LIGAND FREE ENERGY PREDICTED BY IDOCK:   -7.60 KCAL/MOL
REMARK 924 INTRA-LIGAND FREE ENERGY PREDICTED BY IDOCK:   -1.55 KCAL/MOL
REMARK 927      BINDING AFFINITY PREDICTED BY RF-SCORE:    0.00 PKD
ROOT
HETATM    1  O   UNL     1     -11.490  12.629  63.289  1.00  0.00    -0.650 OA 
HETATM    2  H   UNL     1     -11.898  12.003  62.702  1.00  0.00     0.000 HD 
HETATM    3  C   UNL     1     -12.378  13.713  63.547  1.00  0.00    -0.201 C  
ENDROOT
BRANCH   3   4
HETATM    4  C   UNL     1     -11.721  14.722  64.493  1.00  0.00    -0.391 C  
BRANCH   4   5
HETATM    5  N   UNL     1     -11.223  14.117  65.738  1.00  0.00    -0.307 NA 
HETATM    6  H   UNL     1     -10.205  14.160  65.790  1.00  0.00     0.000 HD 
BRANCH   5   7
HETATM    7  C   UNL     1     -11.844  14.717  66.927  1.00  0.00    -0.326 C  
BRANCH   7   8
HETATM    8  C   UNL     1     -11.851  13.720  68.092  1.00  0.00    -0.376 C  
BRANCH   8   9
HETATM    9  N   UNL     1     -12.059  12.365  67.614  1.00  0.00    -0.449 NA 
HETATM   10  H   UNL     1     -12.589  12.226  66.754  1.00  0.00     0.000 HD 
BRANCH   9  11
HETATM   11  C   UNL     1     -11.567  11.251  68.278  1.00  0.00    -0.300 A  
HETATM   12  C   UNL     1     -12.017  10.974  69.568  1.00  0.00    -0.413 A  
HETATM   13  C   UNL     1     -11.529   9.893  70.282  1.00  0.00    -0.349 A  
HETATM   14  C   UNL     1     -10.509   9.087  69.774  1.00  0.00    -0.218 A  
HETATM   15  H   UNL     1      -6.091   6.475  66.314  1.00  0.00     0.000 HD 
HETATM   16  C   UNL     1     -10.015   9.368  68.473  1.00  0.00    -0.190 A  
HETATM   17  C   UNL     1     -10.578  10.407  67.709  1.00  0.00    -0.294 A  
HETATM   18  C   UNL     1      -7.513   9.207  63.898  1.00  0.00    -0.110 A  
HETATM   19  O   UNL     1      -8.303   7.723  68.568  1.00  0.00    -0.126 OA 
HETATM   20  C   UNL     1      -8.533  10.006  64.420  1.00  0.00    -0.173 A  
HETATM   21  C   UNL     1     -10.172  10.576  66.281  1.00  0.00    -0.235 C  
HETATM   22  O   UNL     1     -10.842  11.290  65.541  1.00  0.00    -0.253 OA 
HETATM   23  C   UNL     1      -6.953   8.208  64.681  1.00  0.00    -0.075 A  
HETATM   24  C   UNL     1      -9.030   9.801  65.732  1.00  0.00    -0.195 A  
HETATM   25  O   UNL     1      -6.788   7.010  66.675  1.00  0.00    -0.063 OA 
HETATM   26  H   UNL     1      -8.718  11.121  62.742  1.00  0.00     0.000 HD 
HETATM   27  C   UNL     1      -8.443   8.809  66.517  1.00  0.00    -0.120 A  
HETATM   28  O   UNL     1      -9.051  10.983  63.621  1.00  0.00    -0.196 OA 
HETATM   29  C   UNL     1      -7.409   8.014  65.981  1.00  0.00    -0.073 A  
HETATM   30  C   UNL     1      -8.901   8.567  67.897  1.00  0.00    -0.137 C  
BRANCH  14  31
HETATM   31  N   UNL     1     -10.098   7.994  70.517  1.00  0.00    -0.191 NA 
HETATM   32  H   UNL     1      -9.439   7.338  70.095  1.00  0.00     0.000 HD 
BRANCH  31  33
HETATM   33  C   UNL     1     -10.562   7.737  71.873  1.00  0.00    -0.223 C  
BRANCH  33  34
HETATM   34  C   UNL     1      -9.708   6.648  72.544  1.00  0.00    -0.157 C  
BRANCH  34  35
HETATM   35  N   UNL     1     -10.424   5.365  72.599  1.00  0.00    -0.206 NA 
HETATM   36  H   UNL     1      -9.878   4.607  72.188  1.00  0.00     0.000 HD 
BRANCH  35  37
HETATM   37  C   UNL     1     -10.827   5.063  73.978  1.00  0.00    -0.220 C  
BRANCH  37  38
HETATM   38  C   UNL     1     -10.173   3.765  74.458  1.00  0.00    -0.203 C  
HETATM   39  O   UNL     1     -11.014   2.649  74.175  1.00  0.00    -0.174 OA 
HETATM   40  H   UNL     1     -10.608   1.844  74.473  1.00  0.00     0.000 HD 
ENDBRANCH  37  38
ENDBRANCH  35  37
ENDBRANCH  34  35
ENDBRANCH  33  34
ENDBRANCH  31  33
ENDBRANCH  14  31
ENDBRANCH   9  11
ENDBRANCH   8   9
ENDBRANCH   7   8
ENDBRANCH   5   7
ENDBRANCH   4   5
ENDBRANCH   3   4
TORSDOF 12
ENDMDL
MODEL      125
REMARK 921   NORMALIZED FREE ENERGY PREDICTED BY IDOCK:   -4.04 KCAL/MOL
REMARK 922        TOTAL FREE ENERGY PREDICTED BY IDOCK:   -9.14 KCAL/MOL
REMARK 923 INTER-LIGAND FREE ENERGY PREDICTED BY IDOCK:   -7.57 KCAL/MOL
REMARK 924 INTRA-LIGAND FREE ENERGY PREDICTED BY IDOCK:   -1.56 KCAL/MOL
REMARK 927      BINDING AFFINITY PREDICTED BY RF-SCORE:    0.00 PKD
ROOT
HETATM    1  O   UNL     1      -5.144   8.855  64.514  1.00  0.00    -0.047 OA 
HETATM    2  H   UNL     1      -4.244   9.042  64.750  1.00  0.00     0.000 HD 
HETATM    3  C   UNL     1      -5.612   9.809  63.564  1.00  0.00    -0.094 C  
ENDROOT
BRANCH   3   4
HETATM    4  C   UNL     1      -7.064   9.508  63.182  1.00  0.00    -0.101 C  
BRANCH   4   5
HETATM    5  N   UNL     1      -7.927  10.698  63.184  1.00  0.00    -0.328 NA 
HETATM    6  H   UNL     1      -7.481  11.481  62.707  1.00  0.00     0.000 HD 
BRANCH   5   7
HETATM    7  C   UNL     1      -9.254  10.415  62.621  1.00  0.00    -0.303 C  
BRANCH   7   8
HETATM    8  C   UNL     1     -10.265  11.483  63.057  1.00  0.00    -0.265 C  
BRANCH   8   9
HETATM    9  N   UNL     1     -10.658  11.288  64.441  1.00  0.00    -0.335 NA 
HETATM   10  H   UNL     1     -10.880  10.345  64.759  1.00  0.00     0.000 HD 
BRANCH   9  11
HETATM   11  C   UNL     1     -10.746  12.332  65.351  1.00  0.00    -0.284 A  
HETATM   12  C   UNL     1     -11.813  13.225  65.262  1.00  0.00    -0.386 A  
HETATM   13  C   UNL     1     -11.923  14.301  66.126  1.00  0.00    -0.422 A  
HETATM   14  C   UNL     1     -10.929  14.584  67.065  1.00  0.00    -0.312 A  
HETATM   15  H   UNL     1      -5.864  14.578  70.622  1.00  0.00     0.000 HD 
HETATM   16  C   UNL     1      -9.819  13.705  67.154  1.00  0.00    -0.242 A  
HETATM   17  C   UNL     1      -9.755  12.557  66.342  1.00  0.00    -0.253 A  
HETATM   18  C   UNL     1      -5.444  11.256  68.596  1.00  0.00    -0.043 A  
HETATM   19  O   UNL     1      -8.668  15.025  68.759  1.00  0.00    -0.170 OA 
HETATM   20  C   UNL     1      -6.445  10.986  67.660  1.00  0.00    -0.060 A  
HETATM   21  C   UNL     1      -8.674  11.551  66.571  1.00  0.00    -0.183 C  
HETATM   22  O   UNL     1      -8.766  10.437  66.063  1.00  0.00    -0.142 OA 
HETATM   23  C   UNL     1      -5.514  12.408  69.365  1.00  0.00    -0.075 A  
HETATM   24  C   UNL     1      -7.551  11.856  67.494  1.00  0.00    -0.140 A  
HETATM   25  O   UNL     1      -6.551  14.400  69.991  1.00  0.00    -0.153 OA 
HETATM   26  H   UNL     1      -5.594   9.262  67.029  1.00  0.00     0.000 HD 
HETATM   27  C   UNL     1      -7.598  13.024  68.256  1.00  0.00    -0.135 A  
HETATM   28  O   UNL     1      -6.335   9.845  66.918  1.00  0.00    -0.063 OA 
HETATM   29  C   UNL     1      -6.578  13.288  69.192  1.00  0.00    -0.105 A  
HETATM   30  C   UNL     1      -8.712  13.979  68.109  1.00  0.00    -0.180 C  
BRANCH  14  31
HETATM   31  N   UNL     1     -11.122  15.647  67.931  1.00  0.00    -0.322 NA 
HETATM   32  H   UNL     1     -10.513  16.461  67.844  1.00  0.00     0.000 HD 
BRANCH  31  33
HETATM   33  C   UNL     1     -12.153  15.655  68.959  1.00  0.00    -0.205 C  
BRANCH  33  34
HETATM   34  C   UNL     1     -12.175  14.318  69.719  1.00  0.00    -0.339 C  
BRANCH  34  35
HETATM   35  N   UNL     1     -13.004  14.405  70.930  1.00  0.00    -0.351 NA 
HETATM   36  H   UNL     1     -13.541  13.552  71.086  1.00  0.00     0.000 HD 
BRANCH  35  37
HETATM   37  C   UNL     1     -12.176  14.750  72.093  1.00  0.00    -0.316 C  
BRANCH  37  38
HETATM   38  C   UNL     1     -13.013  14.727  73.375  1.00  0.00    -0.429 C  
HETATM   39  O   UNL     1     -12.926  15.980  74.048  1.00  0.00    -0.791 OA 
HETATM   40  H   UNL     1     -13.445  15.966  74.844  1.00  0.00     0.000 HD 
ENDBRANCH  37  38
ENDBRANCH  35  37
ENDBRANCH  34  35
ENDBRANCH  33  34
ENDBRANCH  31  33
ENDBRANCH  14  31
ENDBRANCH   9  11
ENDBRANCH   8   9
ENDBRANCH   7   8
ENDBRANCH   5   7
ENDBRANCH   4   5
ENDBRANCH   3   4
TORSDOF 12
ENDMDL
MODEL      126
REMARK 921   NORMALIZED FREE ENERGY PREDICTED BY IDOCK:   -4.04 KCAL/MOL
REMARK 922        TOTAL FREE ENERGY PREDICTED BY IDOCK:   -9.13 KCAL/MOL
REMARK 923 INTER-LIGAND FREE ENERGY PREDICTED BY IDOCK:   -6.58 KCAL/MOL
REMARK 924 INTRA-LIGAND FREE ENERGY PREDICTED BY IDOCK:   -2.55 KCAL/MOL
REMARK 927      BINDING AFFINITY PREDICTED BY RF-SCORE:    0.00 PKD
ROOT
HETATM    1  O   UNL     1     -11.718  11.704  63.593  1.00  0.00    -0.475 OA 
HETATM    2  H   UNL     1     -11.808  10.903  63.090  1.00  0.00     0.000 HD 
HETATM    3  C   UNL     1     -12.992  12.133  64.067  1.00  0.00    -0.179 C  
ENDROOT
BRANCH   3   4
HETATM    4  C   UNL     1     -12.848  13.424  64.877  1.00  0.00    -0.227 C  
BRANCH   4   5
HETATM    5  N   UNL     1     -11.771  13.370  65.876  1.00  0.00    -0.340 NA 
HETATM    6  H   UNL     1     -10.878  13.655  65.474  1.00  0.00     0.000 HD 
BRANCH   5   7
HETATM    7  C   UNL     1     -12.093  14.157  67.074  1.00  0.00    -0.414 C  
BRANCH   7   8
HETATM    8  C   UNL     1     -11.808  13.346  68.345  1.00  0.00    -0.366 C  
BRANCH   8   9
HETATM    9  N   UNL     1     -11.984  11.926  68.103  1.00  0.00    -0.528 NA 
HETATM   10  H   UNL     1     -12.582  11.631  67.331  1.00  0.00     0.000 HD 
BRANCH   9  11
HETATM   11  C   UNL     1     -11.372  10.951  68.878  1.00  0.00    -0.288 A  
HETATM   12  C   UNL     1     -11.712  10.841  70.226  1.00  0.00    -0.442 A  
HETATM   13  C   UNL     1     -11.103   9.907  71.046  1.00  0.00    -0.401 A  
HETATM   14  C   UNL     1     -10.068   9.094  70.579  1.00  0.00    -0.235 A  
HETATM   15  H   UNL     1      -5.733   6.260  67.190  1.00  0.00     0.000 HD 
HETATM   16  C   UNL     1      -9.685   9.210  69.217  1.00  0.00    -0.164 A  
HETATM   17  C   UNL     1     -10.370  10.091  68.359  1.00  0.00    -0.218 A  
HETATM   18  C   UNL     1      -7.501   8.522  64.530  1.00  0.00    -0.105 A  
HETATM   19  O   UNL     1      -7.863   7.697  69.410  1.00  0.00    -0.117 OA 
HETATM   20  C   UNL     1      -8.534   9.329  65.011  1.00  0.00    -0.163 A  
HETATM   21  C   UNL     1     -10.076  10.071  66.894  1.00  0.00    -0.229 C  
HETATM   22  O   UNL     1     -10.843  10.629  66.115  1.00  0.00    -0.130 OA 
HETATM   23  C   UNL     1      -6.822   7.682  65.400  1.00  0.00    -0.045 A  
HETATM   24  C   UNL     1      -8.925   9.291  66.373  1.00  0.00    -0.185 A  
HETATM   25  O   UNL     1      -6.437   6.802  67.525  1.00  0.00    -0.042 OA 
HETATM   26  H   UNL     1      -8.911  10.172  63.211  1.00  0.00     0.000 HD 
HETATM   27  C   UNL     1      -8.218   8.460  67.243  1.00  0.00    -0.112 A  
HETATM   28  O   UNL     1      -9.173  10.147  64.124  1.00  0.00    -0.228 OA 
HETATM   29  C   UNL     1      -7.173   7.656  66.746  1.00  0.00    -0.088 A  
HETATM   30  C   UNL     1      -8.563   8.397  68.676  1.00  0.00    -0.132 C  
BRANCH  14  31
HETATM   31  N   UNL     1      -9.533   8.148  71.436  1.00  0.00    -0.157 NA 
HETATM   32  H   UNL     1      -8.578   8.278  71.769  1.00  0.00     0.000 HD 
BRANCH  31  33
HETATM   33  C   UNL     1     -10.271   6.975  71.882  1.00  0.00    -0.187 C  
BRANCH  33  34
HETATM   34  C   UNL     1      -9.311   5.890  72.398  1.00  0.00    -0.143 C  
BRANCH  34  35
HETATM   35  N   UNL     1      -8.074   5.850  71.604  1.00  0.00    -0.117 NA 
HETATM   36  H   UNL     1      -7.340   6.429  72.014  1.00  0.00     0.000 HD 
BRANCH  35  37
HETATM   37  C   UNL     1      -7.633   4.462  71.414  1.00  0.00    -0.072 C  
BRANCH  37  38
HETATM   38  C   UNL     1      -6.725   4.349  70.187  1.00  0.00    -0.033 C  
HETATM   39  O   UNL     1      -5.943   5.532  70.036  1.00  0.00    -0.019 OA 
HETATM   40  H   UNL     1      -5.380   5.463  69.274  1.00  0.00     0.000 HD 
ENDBRANCH  37  38
ENDBRANCH  35  37
ENDBRANCH  34  35
ENDBRANCH  33  34
ENDBRANCH  31  33
ENDBRANCH  14  31
ENDBRANCH   9  11
ENDBRANCH   8   9
ENDBRANCH   7   8
ENDBRANCH   5   7
ENDBRANCH   4   5
ENDBRANCH   3   4
TORSDOF 12
ENDMDL
MODEL      127
REMARK 921   NORMALIZED FREE ENERGY PREDICTED BY IDOCK:   -4.03 KCAL/MOL
REMARK 922        TOTAL FREE ENERGY PREDICTED BY IDOCK:   -9.12 KCAL/MOL
REMARK 923 INTER-LIGAND FREE ENERGY PREDICTED BY IDOCK:   -6.84 KCAL/MOL
REMARK 924 INTRA-LIGAND FREE ENERGY PREDICTED BY IDOCK:   -2.28 KCAL/MOL
REMARK 927      BINDING AFFINITY PREDICTED BY RF-SCORE:    0.00 PKD
ROOT
HETATM    1  O   UNL     1      -9.759   4.619  70.391  1.00  0.00    -0.184 OA 
HETATM    2  H   UNL     1     -10.278   4.214  71.076  1.00  0.00     0.000 HD 
HETATM    3  C   UNL     1      -8.386   4.655  70.771  1.00  0.00    -0.092 C  
ENDROOT
BRANCH   3   4
HETATM    4  C   UNL     1      -7.549   5.308  69.667  1.00  0.00    -0.069 C  
BRANCH   4   5
HETATM    5  N   UNL     1      -7.741   6.763  69.572  1.00  0.00    -0.102 NA 
HETATM    6  H   UNL     1      -7.463   7.231  70.435  1.00  0.00     0.000 HD 
BRANCH   5   7
HETATM    7  C   UNL     1      -7.048   7.333  68.409  1.00  0.00    -0.081 C  
BRANCH   7   8
HETATM    8  C   UNL     1      -7.650   6.795  67.105  1.00  0.00    -0.099 C  
BRANCH   8   9
HETATM    9  N   UNL     1      -9.072   7.078  67.036  1.00  0.00    -0.132 NA 
HETATM   10  H   UNL     1      -9.729   6.298  67.077  1.00  0.00     0.000 HD 
BRANCH   9  11
HETATM   11  C   UNL     1      -9.577   8.364  66.916  1.00  0.00    -0.202 A  
HETATM   12  C   UNL     1      -9.239   9.127  65.798  1.00  0.00    -0.294 A  
HETATM   13  C   UNL     1      -9.691  10.427  65.653  1.00  0.00    -0.294 A  
HETATM   14  C   UNL     1     -10.432  11.056  66.655  1.00  0.00    -0.256 A  
HETATM   15  H   UNL     1     -13.545  12.482  71.811  1.00  0.00     0.000 HD 
HETATM   16  C   UNL     1     -10.763  10.308  67.815  1.00  0.00    -0.324 A  
HETATM   17  C   UNL     1     -10.387   8.956  67.920  1.00  0.00    -0.286 A  
HETATM   18  C   UNL     1     -12.749   8.688  72.359  1.00  0.00    -0.423 A  
HETATM   19  O   UNL     1     -11.771  12.145  68.935  1.00  0.00    -0.288 OA 
HETATM   20  C   UNL     1     -12.007   8.073  71.349  1.00  0.00    -0.298 A  
HETATM   21  C   UNL     1     -10.894   8.136  69.062  1.00  0.00     0.010 C  
HETATM   22  O   UNL     1     -10.798   6.913  69.018  1.00  0.00    -0.227 OA 
HETATM   23  C   UNL     1     -13.084  10.030  72.247  1.00  0.00    -0.385 A  
HETATM   24  C   UNL     1     -11.607   8.786  70.191  1.00  0.00     0.058 A  
HETATM   25  O   UNL     1     -13.044  12.069  71.117  1.00  0.00    -0.225 OA 
HETATM   26  H   UNL     1     -11.960   6.275  72.277  1.00  0.00     0.000 HD 
HETATM   27  C   UNL     1     -11.929  10.140  70.101  1.00  0.00    -0.262 A  
HETATM   28  O   UNL     1     -11.692   6.753  71.501  1.00  0.00    -0.282 OA 
HETATM   29  C   UNL     1     -12.673  10.751  71.131  1.00  0.00    -0.431 A  
HETATM   30  C   UNL     1     -11.517  10.939  68.932  1.00  0.00    -0.300 C  
BRANCH  14  31
HETATM   31  N   UNL     1     -10.894  12.340  66.428  1.00  0.00    -0.255 NA 
HETATM   32  H   UNL     1     -11.902  12.499  66.407  1.00  0.00     0.000 HD 
BRANCH  31  33
HETATM   33  C   UNL     1     -10.008  13.476  66.217  1.00  0.00    -0.298 C  
BRANCH  33  34
HETATM   34  C   UNL     1      -9.061  13.658  67.416  1.00  0.00    -0.222 C  
BRANCH  34  35
HETATM   35  N   UNL     1      -7.680  13.292  67.067  1.00  0.00    -0.385 NA 
HETATM   36  H   UNL     1      -7.220  14.020  66.521  1.00  0.00     0.000 HD 
BRANCH  35  37
HETATM   37  C   UNL     1      -6.920  12.951  68.277  1.00  0.00    -0.099 C  
BRANCH  37  38
HETATM   38  C   UNL     1      -6.862  11.433  68.465  1.00  0.00    -0.073 C  
HETATM   39  O   UNL     1      -5.861  11.089  69.421  1.00  0.00    -0.042 OA 
HETATM   40  H   UNL     1      -5.825  10.147  69.538  1.00  0.00     0.000 HD 
ENDBRANCH  37  38
ENDBRANCH  35  37
ENDBRANCH  34  35
ENDBRANCH  33  34
ENDBRANCH  31  33
ENDBRANCH  14  31
ENDBRANCH   9  11
ENDBRANCH   8   9
ENDBRANCH   7   8
ENDBRANCH   5   7
ENDBRANCH   4   5
ENDBRANCH   3   4
TORSDOF 12
ENDMDL
MODEL      128
REMARK 921   NORMALIZED FREE ENERGY PREDICTED BY IDOCK:   -3.91 KCAL/MOL
REMARK 922        TOTAL FREE ENERGY PREDICTED BY IDOCK:   -8.92 KCAL/MOL
REMARK 923 INTER-LIGAND FREE ENERGY PREDICTED BY IDOCK:   -7.89 KCAL/MOL
REMARK 924 INTRA-LIGAND FREE ENERGY PREDICTED BY IDOCK:   -1.02 KCAL/MOL
REMARK 927      BINDING AFFINITY PREDICTED BY RF-SCORE:    0.00 PKD
ROOT
HETATM    1  O   UNL     1     -12.660  14.262  69.560  1.00  0.00    -0.519 OA 
HETATM    2  H   UNL     1     -12.947  14.999  69.034  1.00  0.00     0.000 HD 
HETATM    3  C   UNL     1     -12.904  14.518  70.941  1.00  0.00    -0.360 C  
ENDROOT
BRANCH   3   4
HETATM    4  C   UNL     1     -12.442  13.330  71.789  1.00  0.00     0.021 C  
BRANCH   4   5
HETATM    5  N   UNL     1     -13.551  12.513  72.304  1.00  0.00    -0.549 NA 
HETATM    6  H   UNL     1     -14.439  13.013  72.242  1.00  0.00     0.000 HD 
BRANCH   5   7
HETATM    7  C   UNL     1     -13.626  11.207  71.636  1.00  0.00     0.139 C  
BRANCH   7   8
HETATM    8  C   UNL     1     -12.224  10.613  71.454  1.00  0.00    -0.302 C  
BRANCH   8   9
HETATM    9  N   UNL     1     -11.761  10.786  70.089  1.00  0.00    -0.309 NA 
HETATM   10  H   UNL     1     -11.891  11.693  69.640  1.00  0.00     0.000 HD 
BRANCH   9  11
HETATM   11  C   UNL     1     -11.149   9.771  69.369  1.00  0.00    -0.170 A  
HETATM   12  C   UNL     1     -10.821   8.580  70.016  1.00  0.00    -0.225 A  
HETATM   13  C   UNL     1     -10.179   7.553  69.346  1.00  0.00    -0.204 A  
HETATM   14  C   UNL     1      -9.760   7.697  68.022  1.00  0.00    -0.152 A  
HETATM   15  H   UNL     1      -8.532   9.742  62.311  1.00  0.00     0.000 HD 
HETATM   16  C   UNL     1     -10.057   8.913  67.353  1.00  0.00    -0.288 A  
HETATM   17  C   UNL     1     -10.795   9.920  68.002  1.00  0.00    -0.294 A  
HETATM   18  C   UNL     1     -10.654  12.679  63.793  1.00  0.00    -0.432 A  
HETATM   19  O   UNL     1      -8.859   8.335  65.384  1.00  0.00    -0.157 OA 
HETATM   20  C   UNL     1     -11.065  12.521  65.118  1.00  0.00    -0.299 A  
HETATM   21  C   UNL     1     -11.252  11.114  67.230  1.00  0.00    -0.277 C  
HETATM   22  O   UNL     1     -12.110  11.851  67.706  1.00  0.00    -0.564 OA 
HETATM   23  C   UNL     1      -9.903  11.685  63.182  1.00  0.00    -0.407 A  
HETATM   24  C   UNL     1     -10.754  11.348  65.850  1.00  0.00    -0.311 A  
HETATM   25  O   UNL     1      -8.812   9.625  63.211  1.00  0.00    -0.220 OA 
HETATM   26  H   UNL     1     -12.006  14.311  65.193  1.00  0.00     0.000 HD 
HETATM   27  C   UNL     1      -9.978  10.367  65.234  1.00  0.00    -0.376 A  
HETATM   28  O   UNL     1     -11.796  13.525  65.684  1.00  0.00    -0.338 OA 
HETATM   29  C   UNL     1      -9.562  10.542  63.898  1.00  0.00    -0.309 A  
HETATM   30  C   UNL     1      -9.601   9.137  65.954  1.00  0.00    -0.273 C  
BRANCH  14  31
HETATM   31  N   UNL     1      -9.166   6.616  67.395  1.00  0.00    -0.121 NA 
HETATM   32  H   UNL     1      -8.260   6.752  66.946  1.00  0.00     0.000 HD 
BRANCH  31  33
HETATM   33  C   UNL     1      -9.774   5.294  67.348  1.00  0.00    -0.146 C  
BRANCH  33  34
HETATM   34  C   UNL     1      -9.070   4.335  68.324  1.00  0.00    -0.131 C  
BRANCH  34  35
HETATM   35  N   UNL     1      -7.718   4.807  68.655  1.00  0.00    -0.076 NA 
HETATM   36  H   UNL     1      -7.670   5.825  68.698  1.00  0.00     0.000 HD 
BRANCH  35  37
HETATM   37  C   UNL     1      -7.249   4.184  69.900  1.00  0.00    -0.046 C  
BRANCH  37  38
HETATM   38  C   UNL     1      -8.343   4.231  70.969  1.00  0.00    -0.084 C  
HETATM   39  O   UNL     1      -8.220   5.414  71.756  1.00  0.00    -0.115 OA 
HETATM   40  H   UNL     1      -8.898   5.443  72.420  1.00  0.00     0.000 HD 
ENDBRANCH  37  38
ENDBRANCH  35  37
ENDBRANCH  34  35
ENDBRANCH  33  34
ENDBRANCH  31  33
ENDBRANCH  14  31
ENDBRANCH   9  11
ENDBRANCH   8   9
ENDBRANCH   7   8
ENDBRANCH   5   7
ENDBRANCH   4   5
ENDBRANCH   3   4
TORSDOF 12
ENDMDL
MODEL      129
REMARK 921   NORMALIZED FREE ENERGY PREDICTED BY IDOCK:   -3.91 KCAL/MOL
REMARK 922        TOTAL FREE ENERGY PREDICTED BY IDOCK:   -8.91 KCAL/MOL
REMARK 923 INTER-LIGAND FREE ENERGY PREDICTED BY IDOCK:   -7.76 KCAL/MOL
REMARK 924 INTRA-LIGAND FREE ENERGY PREDICTED BY IDOCK:   -1.15 KCAL/MOL
REMARK 927      BINDING AFFINITY PREDICTED BY RF-SCORE:    0.00 PKD
ROOT
HETATM    1  O   UNL     1     -11.647   4.567  65.233  1.00  0.00    -1.061 OA 
HETATM    2  H   UNL     1     -12.436   4.463  65.750  1.00  0.00     0.000 HD 
HETATM    3  C   UNL     1     -10.551   4.925  66.072  1.00  0.00    -0.261 C  
ENDROOT
BRANCH   3   4
HETATM    4  C   UNL     1      -9.278   5.092  65.237  1.00  0.00    -0.118 C  
BRANCH   4   5
HETATM    5  N   UNL     1      -8.164   5.692  65.986  1.00  0.00    -0.109 NA 
HETATM    6  H   UNL     1      -7.672   4.992  66.541  1.00  0.00     0.000 HD 
BRANCH   5   7
HETATM    7  C   UNL     1      -7.241   6.421  65.105  1.00  0.00    -0.070 C  
BRANCH   7   8
HETATM    8  C   UNL     1      -6.279   7.285  65.930  1.00  0.00    -0.038 C  
BRANCH   8   9
HETATM    9  N   UNL     1      -6.737   7.405  67.302  1.00  0.00    -0.067 NA 
HETATM   10  H   UNL     1      -6.387   6.744  67.995  1.00  0.00     0.000 HD 
BRANCH   9  11
HETATM   11  C   UNL     1      -7.632   8.383  67.712  1.00  0.00    -0.102 A  
HETATM   12  C   UNL     1      -7.578   9.645  67.122  1.00  0.00    -0.091 A  
HETATM   13  C   UNL     1      -8.428  10.661  67.522  1.00  0.00    -0.121 A  
HETATM   14  C   UNL     1      -9.315  10.492  68.587  1.00  0.00    -0.172 A  
HETATM   15  H   UNL     1     -12.630   8.317  73.340  1.00  0.00     0.000 HD 
HETATM   16  C   UNL     1      -9.366   9.223  69.222  1.00  0.00    -0.160 A  
HETATM   17  C   UNL     1      -8.572   8.161  68.752  1.00  0.00    -0.127 A  
HETATM   18  C   UNL     1     -10.642   5.140  72.208  1.00  0.00    -0.278 A  
HETATM   19  O   UNL     1     -10.893   9.921  70.903  1.00  0.00    -0.319 OA 
HETATM   20  C   UNL     1      -9.759   5.326  71.143  1.00  0.00    -0.174 A  
HETATM   21  C   UNL     1      -8.766   6.789  69.313  1.00  0.00    -0.135 C  
HETATM   22  O   UNL     1      -8.282   5.823  68.732  1.00  0.00    -0.100 OA 
HETATM   23  C   UNL     1     -11.394   6.209  72.672  1.00  0.00    -0.298 A  
HETATM   24  C   UNL     1      -9.631   6.584  70.503  1.00  0.00    -0.180 A  
HETATM   25  O   UNL     1     -12.035   8.450  72.611  1.00  0.00    -0.396 OA 
HETATM   26  H   UNL     1      -9.117   3.407  71.149  1.00  0.00     0.000 HD 
HETATM   27  C   UNL     1     -10.374   7.658  70.995  1.00  0.00    -0.208 A  
HETATM   28  O   UNL     1      -9.032   4.250  70.720  1.00  0.00    -0.092 OA 
HETATM   29  C   UNL     1     -11.257   7.459  72.076  1.00  0.00    -0.251 A  
HETATM   30  C   UNL     1     -10.264   8.996  70.386  1.00  0.00    -0.209 C  
BRANCH  14  31
HETATM   31  N   UNL     1     -10.171  11.531  68.907  1.00  0.00    -0.339 NA 
HETATM   32  H   UNL     1     -10.668  11.495  69.797  1.00  0.00     0.000 HD 
BRANCH  31  33
HETATM   33  C   UNL     1     -10.395  12.672  68.031  1.00  0.00    -0.228 C  
BRANCH  33  34
HETATM   34  C   UNL     1     -11.773  12.579  67.355  1.00  0.00    -0.366 C  
BRANCH  34  35
HETATM   35  N   UNL     1     -11.825  13.391  66.131  1.00  0.00    -0.365 NA 
HETATM   36  H   UNL     1     -10.901  13.726  65.857  1.00  0.00     0.000 HD 
BRANCH  35  37
HETATM   37  C   UNL     1     -12.480  12.645  65.049  1.00  0.00    -0.487 C  
BRANCH  37  38
HETATM   38  C   UNL     1     -11.681  12.770  63.750  1.00  0.00    -0.493 C  
HETATM   39  O   UNL     1     -10.396  12.169  63.896  1.00  0.00    -0.348 OA 
HETATM   40  H   UNL     1      -9.900  12.247  63.090  1.00  0.00     0.000 HD 
ENDBRANCH  37  38
ENDBRANCH  35  37
ENDBRANCH  34  35
ENDBRANCH  33  34
ENDBRANCH  31  33
ENDBRANCH  14  31
ENDBRANCH   9  11
ENDBRANCH   8   9
ENDBRANCH   7   8
ENDBRANCH   5   7
ENDBRANCH   4   5
ENDBRANCH   3   4
TORSDOF 12
ENDMDL
MODEL      130
REMARK 921   NORMALIZED FREE ENERGY PREDICTED BY IDOCK:   -3.90 KCAL/MOL
REMARK 922        TOTAL FREE ENERGY PREDICTED BY IDOCK:   -8.90 KCAL/MOL
REMARK 923 INTER-LIGAND FREE ENERGY PREDICTED BY IDOCK:   -7.75 KCAL/MOL
REMARK 924 INTRA-LIGAND FREE ENERGY PREDICTED BY IDOCK:   -1.15 KCAL/MOL
REMARK 927      BINDING AFFINITY PREDICTED BY RF-SCORE:    0.00 PKD
ROOT
HETATM    1  O   UNL     1     -11.347   4.595  65.437  1.00  0.00    -0.960 OA 
HETATM    2  H   UNL     1     -12.168   4.374  65.860  1.00  0.00     0.000 HD 
HETATM    3  C   UNL     1     -10.420   5.102  66.394  1.00  0.00    -0.303 C  
ENDROOT
BRANCH   3   4
HETATM    4  C   UNL     1      -9.097   5.458  65.712  1.00  0.00    -0.154 C  
BRANCH   4   5
HETATM    5  N   UNL     1      -8.211   6.281  66.549  1.00  0.00    -0.110 NA 
HETATM    6  H   UNL     1      -7.697   5.708  67.219  1.00  0.00     0.000 HD 
BRANCH   5   7
HETATM    7  C   UNL     1      -7.301   7.105  65.741  1.00  0.00    -0.075 C  
BRANCH   7   8
HETATM    8  C   UNL     1      -6.598   8.149  66.617  1.00  0.00    -0.056 C  
BRANCH   8   9
HETATM    9  N   UNL     1      -7.370   8.425  67.816  1.00  0.00    -0.091 NA 
HETATM   10  H   UNL     1      -7.284   7.790  68.609  1.00  0.00     0.000 HD 
BRANCH   9  11
HETATM   11  C   UNL     1      -8.220   9.515  67.927  1.00  0.00    -0.114 A  
HETATM   12  C   UNL     1      -7.943  10.671  67.198  1.00  0.00    -0.121 A  
HETATM   13  C   UNL     1      -8.744  11.795  67.303  1.00  0.00    -0.163 A  
HETATM   14  C   UNL     1      -9.810  11.848  68.203  1.00  0.00    -0.192 A  
HETATM   15  H   UNL     1     -14.077  10.638  72.521  1.00  0.00     0.000 HD 
HETATM   16  C   UNL     1     -10.092  10.692  68.977  1.00  0.00    -0.226 A  
HETATM   17  C   UNL     1      -9.339   9.517  68.800  1.00  0.00    -0.146 A  
HETATM   18  C   UNL     1     -12.251   7.192  72.187  1.00  0.00    -0.256 A  
HETATM   19  O   UNL     1     -11.804  11.739  70.250  1.00  0.00    -0.329 OA 
HETATM   20  C   UNL     1     -11.187   7.155  71.283  1.00  0.00    -0.259 A  
HETATM   21  C   UNL     1      -9.760   8.260  69.490  1.00  0.00    -0.174 C  
HETATM   22  O   UNL     1      -9.283   7.186  69.136  1.00  0.00    -0.140 OA 
HETATM   23  C   UNL     1     -12.961   8.370  72.366  1.00  0.00    -0.297 A  
HETATM   24  C   UNL     1     -10.829   8.294  70.520  1.00  0.00    -0.245 A  
HETATM   25  O   UNL     1     -13.357  10.620  71.900  1.00  0.00    -0.424 OA 
HETATM   26  H   UNL     1     -10.749   5.214  71.653  1.00  0.00     0.000 HD 
HETATM   27  C   UNL     1     -11.535   9.480  70.727  1.00  0.00    -0.378 A  
HETATM   28  O   UNL     1     -10.509   5.978  71.142  1.00  0.00    -0.212 OA 
HETATM   29  C   UNL     1     -12.603   9.506  71.647  1.00  0.00    -0.388 A  
HETATM   30  C   UNL     1     -11.192  10.704  69.980  1.00  0.00    -0.309 C  
BRANCH  14  31
HETATM   31  N   UNL     1     -10.600  12.984  68.227  1.00  0.00    -0.241 NA 
HETATM   32  H   UNL     1     -11.572  12.907  67.924  1.00  0.00     0.000 HD 
BRANCH  31  33
HETATM   33  C   UNL     1     -10.109  14.283  68.663  1.00  0.00    -0.238 C  
BRANCH  33  34
HETATM   34  C   UNL     1      -9.989  15.248  67.471  1.00  0.00    -0.226 C  
BRANCH  34  35
HETATM   35  N   UNL     1      -9.018  16.318  67.745  1.00  0.00    -0.192 NA 
HETATM   36  H   UNL     1      -8.459  16.121  68.576  1.00  0.00     0.000 HD 
BRANCH  35  37
HETATM   37  C   UNL     1      -8.177  16.560  66.565  1.00  0.00    -0.300 C  
BRANCH  37  38
HETATM   38  C   UNL     1      -6.929  17.358  66.949  1.00  0.00    -0.192 C  
HETATM   39  O   UNL     1      -6.290  17.873  65.783  1.00  0.00    -0.240 OA 
HETATM   40  H   UNL     1      -5.515  18.368  66.021  1.00  0.00     0.000 HD 
ENDBRANCH  37  38
ENDBRANCH  35  37
ENDBRANCH  34  35
ENDBRANCH  33  34
ENDBRANCH  31  33
ENDBRANCH  14  31
ENDBRANCH   9  11
ENDBRANCH   8   9
ENDBRANCH   7   8
ENDBRANCH   5   7
ENDBRANCH   4   5
ENDBRANCH   3   4
TORSDOF 12
ENDMDL
MODEL      131
REMARK 921   NORMALIZED FREE ENERGY PREDICTED BY IDOCK:   -3.90 KCAL/MOL
REMARK 922        TOTAL FREE ENERGY PREDICTED BY IDOCK:   -8.89 KCAL/MOL
REMARK 923 INTER-LIGAND FREE ENERGY PREDICTED BY IDOCK:   -8.80 KCAL/MOL
REMARK 924 INTRA-LIGAND FREE ENERGY PREDICTED BY IDOCK:   -0.09 KCAL/MOL
REMARK 927      BINDING AFFINITY PREDICTED BY RF-SCORE:    0.00 PKD
ROOT
HETATM    1  O   UNL     1      -8.831  16.986  66.513  1.00  0.00    -0.232 OA 
HETATM    2  H   UNL     1      -8.218  17.048  65.791  1.00  0.00     0.000 HD 
HETATM    3  C   UNL     1      -8.128  16.803  67.740  1.00  0.00    -0.179 C  
ENDROOT
BRANCH   3   4
HETATM    4  C   UNL     1      -9.117  16.703  68.906  1.00  0.00    -0.238 C  
BRANCH   4   5
HETATM    5  N   UNL     1      -9.183  15.361  69.502  1.00  0.00    -0.343 NA 
HETATM    6  H   UNL     1      -9.552  15.395  70.453  1.00  0.00     0.000 HD 
BRANCH   5   7
HETATM    7  C   UNL     1      -9.948  14.426  68.666  1.00  0.00    -0.241 C  
BRANCH   7   8
HETATM    8  C   UNL     1     -11.425  14.837  68.610  1.00  0.00    -0.302 C  
BRANCH   8   9
HETATM    9  N   UNL     1     -12.290  13.674  68.684  1.00  0.00    -0.324 NA 
HETATM   10  H   UNL     1     -13.299  13.811  68.640  1.00  0.00     0.000 HD 
BRANCH   9  11
HETATM   11  C   UNL     1     -11.801  12.382  68.814  1.00  0.00    -0.311 A  
HETATM   12  C   UNL     1     -11.801  11.777  70.070  1.00  0.00    -0.422 A  
HETATM   13  C   UNL     1     -11.292  10.502  70.252  1.00  0.00    -0.407 A  
HETATM   14  C   UNL     1     -10.683   9.805  69.207  1.00  0.00    -0.224 A  
HETATM   15  H   UNL     1      -8.340   7.992  63.773  1.00  0.00     0.000 HD 
HETATM   16  C   UNL     1     -10.645  10.415  67.926  1.00  0.00    -0.273 A  
HETATM   17  C   UNL     1     -11.249  11.669  67.717  1.00  0.00    -0.333 A  
HETATM   18  C   UNL     1     -10.018  11.404  62.842  1.00  0.00    -0.278 A  
HETATM   19  O   UNL     1      -9.337   8.692  66.942  1.00  0.00    -0.152 OA 
HETATM   20  C   UNL     1     -10.623  12.089  63.898  1.00  0.00    -0.400 A  
HETATM   21  C   UNL     1     -11.357  12.214  66.331  1.00  0.00    -0.356 C  
HETATM   22  O   UNL     1     -12.108  13.159  66.108  1.00  0.00    -0.407 OA 
HETATM   23  C   UNL     1      -9.404  10.182  63.077  1.00  0.00    -0.330 A  
HETATM   24  C   UNL     1     -10.646  11.550  65.208  1.00  0.00    -0.339 A  
HETATM   25  O   UNL     1      -8.753   8.450  64.495  1.00  0.00    -0.060 OA 
HETATM   26  H   UNL     1     -11.194  13.653  62.747  1.00  0.00     0.000 HD 
HETATM   27  C   UNL     1     -10.005  10.333  65.437  1.00  0.00    -0.371 A  
HETATM   28  O   UNL     1     -11.210  13.292  63.626  1.00  0.00    -0.290 OA 
HETATM   29  C   UNL     1      -9.392   9.654  64.364  1.00  0.00    -0.148 A  
HETATM   30  C   UNL     1      -9.974   9.735  66.785  1.00  0.00    -0.218 C  
BRANCH  14  31
HETATM   31  N   UNL     1     -10.236   8.517  69.443  1.00  0.00    -0.206 NA 
HETATM   32  H   UNL     1     -10.854   7.738  69.214  1.00  0.00     0.000 HD 
BRANCH  31  33
HETATM   33  C   UNL     1      -8.925   8.223  70.003  1.00  0.00    -0.142 C  
BRANCH  33  34
HETATM   34  C   UNL     1      -8.867   6.776  70.524  1.00  0.00    -0.151 C  
BRANCH  34  35
HETATM   35  N   UNL     1      -9.859   6.549  71.585  1.00  0.00    -0.168 NA 
HETATM   36  H   UNL     1     -10.781   6.901  71.325  1.00  0.00     0.000 HD 
BRANCH  35  37
HETATM   37  C   UNL     1      -9.899   5.128  71.952  1.00  0.00    -0.177 C  
BRANCH  37  38
HETATM   38  C   UNL     1     -11.061   4.852  72.909  1.00  0.00    -0.256 C  
HETATM   39  O   UNL     1     -12.018   5.908  72.846  1.00  0.00    -0.526 OA 
HETATM   40  H   UNL     1     -12.739   5.737  73.441  1.00  0.00     0.000 HD 
ENDBRANCH  37  38
ENDBRANCH  35  37
ENDBRANCH  34  35
ENDBRANCH  33  34
ENDBRANCH  31  33
ENDBRANCH  14  31
ENDBRANCH   9  11
ENDBRANCH   8   9
ENDBRANCH   7   8
ENDBRANCH   5   7
ENDBRANCH   4   5
ENDBRANCH   3   4
TORSDOF 12
ENDMDL
MODEL      132
REMARK 921   NORMALIZED FREE ENERGY PREDICTED BY IDOCK:   -3.86 KCAL/MOL
REMARK 922        TOTAL FREE ENERGY PREDICTED BY IDOCK:   -8.82 KCAL/MOL
REMARK 923 INTER-LIGAND FREE ENERGY PREDICTED BY IDOCK:   -7.79 KCAL/MOL
REMARK 924 INTRA-LIGAND FREE ENERGY PREDICTED BY IDOCK:   -1.03 KCAL/MOL
REMARK 927      BINDING AFFINITY PREDICTED BY RF-SCORE:    0.00 PKD
ROOT
HETATM    1  O   UNL     1     -10.611  18.468  67.191  1.00  0.00    -0.402 OA 
HETATM    2  H   UNL     1     -10.593  19.398  67.384  1.00  0.00     0.000 HD 
HETATM    3  C   UNL     1     -10.624  18.259  65.781  1.00  0.00    -0.186 C  
ENDROOT
BRANCH   3   4
HETATM    4  C   UNL     1     -10.653  16.760  65.468  1.00  0.00    -0.230 C  
BRANCH   4   5
HETATM    5  N   UNL     1     -11.318  16.442  64.196  1.00  0.00    -1.422 NA 
HETATM    6  H   UNL     1     -10.673  16.526  63.409  1.00  0.00     0.000 HD 
BRANCH   5   7
HETATM    7  C   UNL     1     -11.954  15.118  64.225  1.00  0.00    -0.262 C  
BRANCH   7   8
HETATM    8  C   UNL     1     -11.450  14.304  65.424  1.00  0.00    -0.332 C  
BRANCH   8   9
HETATM    9  N   UNL     1     -10.111  13.798  65.179  1.00  0.00    -0.538 NA 
HETATM   10  H   UNL     1      -9.427  14.415  64.741  1.00  0.00     0.000 HD 
BRANCH   9  11
HETATM   11  C   UNL     1      -9.722  12.510  65.517  1.00  0.00    -0.119 A  
HETATM   12  C   UNL     1     -10.243  11.432  64.803  1.00  0.00    -0.338 A  
HETATM   13  C   UNL     1      -9.910  10.128  65.126  1.00  0.00    -0.394 A  
HETATM   14  C   UNL     1      -9.108   9.834  66.231  1.00  0.00    -0.157 A  
HETATM   15  H   UNL     1      -5.540  10.075  71.283  1.00  0.00     0.000 HD 
HETATM   16  C   UNL     1      -8.590  10.916  66.991  1.00  0.00    -0.136 A  
HETATM   17  C   UNL     1      -8.849  12.244  66.605  1.00  0.00    -0.167 A  
HETATM   18  C   UNL     1      -5.980  13.866  70.412  1.00  0.00    -0.160 A  
HETATM   19  O   UNL     1      -7.602   9.522  68.642  1.00  0.00    -0.078 OA 
HETATM   20  C   UNL     1      -6.784  14.143  69.305  1.00  0.00    -0.122 A  
HETATM   21  C   UNL     1      -8.154  13.365  67.306  1.00  0.00    -0.137 C  
HETATM   22  O   UNL     1      -8.162  14.488  66.810  1.00  0.00    -0.120 OA 
HETATM   23  C   UNL     1      -5.762  12.549  70.791  1.00  0.00    -0.103 A  
HETATM   24  C   UNL     1      -7.367  13.103  68.539  1.00  0.00    -0.111 A  
HETATM   25  O   UNL     1      -6.085  10.255  70.526  1.00  0.00    -0.092 OA 
HETATM   26  H   UNL     1      -6.589  16.150  69.482  1.00  0.00     0.000 HD 
HETATM   27  C   UNL     1      -7.161  11.784  68.944  1.00  0.00    -0.107 A  
HETATM   28  O   UNL     1      -6.979  15.452  68.969  1.00  0.00    -0.120 OA 
HETATM   29  C   UNL     1      -6.352  11.517  70.067  1.00  0.00    -0.116 A  
HETATM   30  C   UNL     1      -7.763  10.662  68.201  1.00  0.00    -0.101 C  
BRANCH  14  31
HETATM   31  N   UNL     1      -8.773   8.514  66.473  1.00  0.00    -0.126 NA 
HETATM   32  H   UNL     1      -7.804   8.291  66.700  1.00  0.00     0.000 HD 
BRANCH  31  33
HETATM   33  C   UNL     1      -9.742   7.428  66.419  1.00  0.00    -0.093 C  
BRANCH  33  34
HETATM   34  C   UNL     1     -10.626   7.423  67.678  1.00  0.00    -0.239 C  
BRANCH  34  35
HETATM   35  N   UNL     1      -9.813   7.372  68.902  1.00  0.00    -0.154 NA 
HETATM   36  H   UNL     1      -8.876   7.747  68.752  1.00  0.00     0.000 HD 
BRANCH  35  37
HETATM   37  C   UNL     1     -10.505   8.052  70.004  1.00  0.00    -0.228 C  
BRANCH  37  38
HETATM   38  C   UNL     1     -11.278   7.043  70.857  1.00  0.00    -0.282 C  
HETATM   39  O   UNL     1     -12.639   6.977  70.439  1.00  0.00    -0.618 OA 
HETATM   40  H   UNL     1     -13.120   6.352  70.969  1.00  0.00     0.000 HD 
ENDBRANCH  37  38
ENDBRANCH  35  37
ENDBRANCH  34  35
ENDBRANCH  33  34
ENDBRANCH  31  33
ENDBRANCH  14  31
ENDBRANCH   9  11
ENDBRANCH   8   9
ENDBRANCH   7   8
ENDBRANCH   5   7
ENDBRANCH   4   5
ENDBRANCH   3   4
TORSDOF 12
ENDMDL
MODEL      133
REMARK 921   NORMALIZED FREE ENERGY PREDICTED BY IDOCK:   -3.84 KCAL/MOL
REMARK 922        TOTAL FREE ENERGY PREDICTED BY IDOCK:   -8.79 KCAL/MOL
REMARK 923 INTER-LIGAND FREE ENERGY PREDICTED BY IDOCK:   -7.10 KCAL/MOL
REMARK 924 INTRA-LIGAND FREE ENERGY PREDICTED BY IDOCK:   -1.69 KCAL/MOL
REMARK 927      BINDING AFFINITY PREDICTED BY RF-SCORE:    0.00 PKD
ROOT
HETATM    1  O   UNL     1     -12.409  12.148  65.760  1.00  0.00    -0.564 OA 
HETATM    2  H   UNL     1     -13.047  11.497  65.494  1.00  0.00     0.000 HD 
HETATM    3  C   UNL     1     -11.842  12.779  64.615  1.00  0.00    -0.374 C  
ENDROOT
BRANCH   3   4
HETATM    4  C   UNL     1     -10.814  13.830  65.044  1.00  0.00    -0.371 C  
BRANCH   4   5
HETATM    5  N   UNL     1      -9.592  13.250  65.621  1.00  0.00    -0.490 NA 
HETATM    6  H   UNL     1      -8.761  13.555  65.113  1.00  0.00     0.000 HD 
BRANCH   5   7
HETATM    7  C   UNL     1      -9.474  13.535  67.057  1.00  0.00    -0.251 C  
BRANCH   7   8
HETATM    8  C   UNL     1      -9.134  12.258  67.835  1.00  0.00    -0.190 C  
BRANCH   8   9
HETATM    9  N   UNL     1     -10.027  11.174  67.468  1.00  0.00    -0.180 NA 
HETATM   10  H   UNL     1     -10.398  11.146  66.518  1.00  0.00     0.000 HD 
BRANCH   9  11
HETATM   11  C   UNL     1     -10.399  10.175  68.355  1.00  0.00    -0.183 A  
HETATM   12  C   UNL     1     -11.080  10.519  69.522  1.00  0.00    -0.320 A  
HETATM   13  C   UNL     1     -11.440   9.559  70.452  1.00  0.00    -0.297 A  
HETATM   14  C   UNL     1     -11.065   8.222  70.301  1.00  0.00    -0.219 A  
HETATM   15  H   UNL     1      -8.751   2.830  68.332  1.00  0.00     0.000 HD 
HETATM   16  C   UNL     1     -10.345   7.854  69.134  1.00  0.00    -0.225 A  
HETATM   17  C   UNL     1     -10.063   8.811  68.142  1.00  0.00    -0.228 A  
HETATM   18  C   UNL     1      -7.912   5.218  65.347  1.00  0.00    -0.108 A  
HETATM   19  O   UNL     1     -10.010   5.607  69.827  1.00  0.00    -0.169 OA 
HETATM   20  C   UNL     1      -8.293   6.551  65.512  1.00  0.00    -0.146 A  
HETATM   21  C   UNL     1      -9.465   8.375  66.844  1.00  0.00    -0.185 C  
HETATM   22  O   UNL     1      -9.467   9.144  65.887  1.00  0.00    -0.226 OA 
HETATM   23  C   UNL     1      -8.176   4.298  66.351  1.00  0.00    -0.102 A  
HETATM   24  C   UNL     1      -8.970   6.984  66.679  1.00  0.00    -0.157 A  
HETATM   25  O   UNL     1      -9.018   3.734  68.451  1.00  0.00    -0.104 OA 
HETATM   26  H   UNL     1      -7.555   7.137  63.721  1.00  0.00     0.000 HD 
HETATM   27  C   UNL     1      -9.208   6.055  67.693  1.00  0.00    -0.107 A  
HETATM   28  O   UNL     1      -8.009   7.427  64.503  1.00  0.00    -0.134 OA 
HETATM   29  C   UNL     1      -8.812   4.713  67.516  1.00  0.00    -0.105 A  
HETATM   30  C   UNL     1      -9.886   6.453  68.940  1.00  0.00    -0.137 C  
BRANCH  14  31
HETATM   31  N   UNL     1     -11.497   7.304  71.242  1.00  0.00    -0.267 NA 
HETATM   32  H   UNL     1     -11.719   6.358  70.932  1.00  0.00     0.000 HD 
BRANCH  31  33
HETATM   33  C   UNL     1     -11.648   7.627  72.654  1.00  0.00    -0.317 C  
BRANCH  33  34
HETATM   34  C   UNL     1     -10.364   7.291  73.431  1.00  0.00    -0.363 C  
BRANCH  34  35
HETATM   35  N   UNL     1      -9.481   6.413  72.649  1.00  0.00    -0.148 NA 
HETATM   36  H   UNL     1      -9.740   6.392  71.663  1.00  0.00     0.000 HD 
BRANCH  35  37
HETATM   37  C   UNL     1      -8.077   6.801  72.838  1.00  0.00    -0.105 C  
BRANCH  37  38
HETATM   38  C   UNL     1      -7.973   8.005  73.777  1.00  0.00    -0.202 C  
HETATM   39  O   UNL     1      -6.609   8.378  73.959  1.00  0.00    -0.122 OA 
HETATM   40  H   UNL     1      -6.545   9.125  74.543  1.00  0.00     0.000 HD 
ENDBRANCH  37  38
ENDBRANCH  35  37
ENDBRANCH  34  35
ENDBRANCH  33  34
ENDBRANCH  31  33
ENDBRANCH  14  31
ENDBRANCH   9  11
ENDBRANCH   8   9
ENDBRANCH   7   8
ENDBRANCH   5   7
ENDBRANCH   4   5
ENDBRANCH   3   4
TORSDOF 12
ENDMDL
MODEL      134
REMARK 921   NORMALIZED FREE ENERGY PREDICTED BY IDOCK:   -3.80 KCAL/MOL
REMARK 922        TOTAL FREE ENERGY PREDICTED BY IDOCK:   -8.73 KCAL/MOL
REMARK 923 INTER-LIGAND FREE ENERGY PREDICTED BY IDOCK:   -8.20 KCAL/MOL
REMARK 924 INTRA-LIGAND FREE ENERGY PREDICTED BY IDOCK:   -0.53 KCAL/MOL
REMARK 927      BINDING AFFINITY PREDICTED BY RF-SCORE:    0.00 PKD
ROOT
HETATM    1  O   UNL     1      -8.356   7.305  72.163  1.00  0.00    -0.104 OA 
HETATM    2  H   UNL     1      -8.232   8.030  72.764  1.00  0.00     0.000 HD 
HETATM    3  C   UNL     1      -8.525   6.089  72.887  1.00  0.00    -0.117 C  
ENDROOT
BRANCH   3   4
HETATM    4  C   UNL     1      -8.726   4.920  71.918  1.00  0.00    -0.128 C  
BRANCH   4   5
HETATM    5  N   UNL     1      -8.751   5.330  70.506  1.00  0.00    -0.119 NA 
HETATM    6  H   UNL     1      -7.981   4.911  69.984  1.00  0.00     0.000 HD 
BRANCH   5   7
HETATM    7  C   UNL     1     -10.045   5.040  69.873  1.00  0.00    -0.274 C  
BRANCH   7   8
HETATM    8  C   UNL     1     -10.922   6.298  69.839  1.00  0.00    -0.370 C  
BRANCH   8   9
HETATM    9  N   UNL     1     -10.109   7.499  69.905  1.00  0.00    -0.190 NA 
HETATM   10  H   UNL     1      -9.197   7.447  70.359  1.00  0.00     0.000 HD 
BRANCH   9  11
HETATM   11  C   UNL     1     -10.519   8.713  69.377  1.00  0.00    -0.218 A  
HETATM   12  C   UNL     1     -11.364   9.532  70.126  1.00  0.00    -0.241 A  
HETATM   13  C   UNL     1     -11.826  10.736  69.625  1.00  0.00    -0.392 A  
HETATM   14  C   UNL     1     -11.535  11.143  68.322  1.00  0.00    -0.303 A  
HETATM   15  H   UNL     1      -9.470  11.602  62.505  1.00  0.00     0.000 HD 
HETATM   16  C   UNL     1     -10.701  10.311  67.530  1.00  0.00    -0.348 A  
HETATM   17  C   UNL     1     -10.151   9.134  68.071  1.00  0.00    -0.238 A  
HETATM   18  C   UNL     1      -7.701   8.338  63.745  1.00  0.00    -0.145 A  
HETATM   19  O   UNL     1     -10.934  11.632  65.569  1.00  0.00    -0.297 OA 
HETATM   20  C   UNL     1      -8.002   7.945  65.051  1.00  0.00    -0.137 A  
HETATM   21  C   UNL     1      -9.137   8.365  67.289  1.00  0.00    -0.137 C  
HETATM   22  O   UNL     1      -8.463   7.507  67.850  1.00  0.00    -0.122 OA 
HETATM   23  C   UNL     1      -8.277   9.487  63.223  1.00  0.00    -0.162 A  
HETATM   24  C   UNL     1      -8.868   8.711  65.869  1.00  0.00    -0.221 A  
HETATM   25  O   UNL     1      -9.677  11.344  63.396  1.00  0.00    -0.304 OA 
HETATM   26  H   UNL     1      -6.839   6.290  64.976  1.00  0.00     0.000 HD 
HETATM   27  C   UNL     1      -9.460   9.851  65.325  1.00  0.00    -0.331 A  
HETATM   28  O   UNL     1      -7.420   6.804  65.524  1.00  0.00    -0.076 OA 
HETATM   29  C   UNL     1      -9.154  10.234  64.004  1.00  0.00    -0.251 A  
HETATM   30  C   UNL     1     -10.390  10.674  66.121  1.00  0.00    -0.227 C  
BRANCH  14  31
HETATM   31  N   UNL     1     -11.988  12.379  67.898  1.00  0.00    -0.440 NA 
HETATM   32  H   UNL     1     -12.643  12.416  67.116  1.00  0.00     0.000 HD 
BRANCH  31  33
HETATM   33  C   UNL     1     -11.574  13.630  68.517  1.00  0.00    -0.335 C  
BRANCH  33  34
HETATM   34  C   UNL     1     -11.752  13.569  70.043  1.00  0.00    -0.241 C  
BRANCH  34  35
HETATM   35  N   UNL     1     -11.160  14.744  70.699  1.00  0.00    -0.497 NA 
HETATM   36  H   UNL     1     -10.483  15.214  70.098  1.00  0.00     0.000 HD 
BRANCH  35  37
HETATM   37  C   UNL     1     -12.214  15.659  71.157  1.00  0.00    -0.413 C  
BRANCH  37  38
HETATM   38  C   UNL     1     -12.690  15.272  72.559  1.00  0.00    -0.362 C  
HETATM   39  O   UNL     1     -12.039  16.071  73.544  1.00  0.00    -0.457 OA 
HETATM   40  H   UNL     1     -12.334  15.830  74.414  1.00  0.00     0.000 HD 
ENDBRANCH  37  38
ENDBRANCH  35  37
ENDBRANCH  34  35
ENDBRANCH  33  34
ENDBRANCH  31  33
ENDBRANCH  14  31
ENDBRANCH   9  11
ENDBRANCH   8   9
ENDBRANCH   7   8
ENDBRANCH   5   7
ENDBRANCH   4   5
ENDBRANCH   3   4
TORSDOF 12
ENDMDL
MODEL      135
REMARK 921   NORMALIZED FREE ENERGY PREDICTED BY IDOCK:   -3.78 KCAL/MOL
REMARK 922        TOTAL FREE ENERGY PREDICTED BY IDOCK:   -8.70 KCAL/MOL
REMARK 923 INTER-LIGAND FREE ENERGY PREDICTED BY IDOCK:   -8.07 KCAL/MOL
REMARK 924 INTRA-LIGAND FREE ENERGY PREDICTED BY IDOCK:   -0.63 KCAL/MOL
REMARK 927      BINDING AFFINITY PREDICTED BY RF-SCORE:    0.00 PKD
ROOT
HETATM    1  O   UNL     1      -7.174   9.200  71.955  1.00  0.00    -0.324 OA 
HETATM    2  H   UNL     1      -7.557   8.363  72.192  1.00  0.00     0.000 HD 
HETATM    3  C   UNL     1      -5.762   9.071  71.806  1.00  0.00    -0.063 C  
ENDROOT
BRANCH   3   4
HETATM    4  C   UNL     1      -5.145  10.419  71.424  1.00  0.00    -0.085 C  
BRANCH   4   5
HETATM    5  N   UNL     1      -6.145  11.462  71.148  1.00  0.00    -0.380 NA 
HETATM    6  H   UNL     1      -6.948  11.379  71.771  1.00  0.00     0.000 HD 
BRANCH   5   7
HETATM    7  C   UNL     1      -5.562  12.810  71.205  1.00  0.00    -0.068 C  
BRANCH   7   8
HETATM    8  C   UNL     1      -5.318  13.351  69.791  1.00  0.00    -0.092 C  
BRANCH   8   9
HETATM    9  N   UNL     1      -6.409  14.214  69.372  1.00  0.00    -0.108 NA 
HETATM   10  H   UNL     1      -6.487  15.141  69.790  1.00  0.00     0.000 HD 
BRANCH   9  11
HETATM   11  C   UNL     1      -7.348  13.830  68.426  1.00  0.00    -0.117 A  
HETATM   12  C   UNL     1      -7.451  12.485  68.076  1.00  0.00    -0.117 A  
HETATM   13  C   UNL     1      -8.351  12.060  67.113  1.00  0.00    -0.181 A  
HETATM   14  C   UNL     1      -9.130  12.969  66.394  1.00  0.00    -0.061 A  
HETATM   15  H   UNL     1     -11.846  18.032  64.093  1.00  0.00     0.000 HD 
HETATM   16  C   UNL     1      -9.019  14.347  66.713  1.00  0.00    -0.256 A  
HETATM   17  C   UNL     1      -8.177  14.770  67.759  1.00  0.00    -0.167 A  
HETATM   18  C   UNL     1      -9.691  19.513  67.006  1.00  0.00    -0.450 A  
HETATM   19  O   UNL     1     -10.459  15.057  64.961  1.00  0.00    -0.388 OA 
HETATM   20  C   UNL     1      -8.916  18.592  67.715  1.00  0.00    -0.282 A  
HETATM   21  C   UNL     1      -8.206  16.197  68.199  1.00  0.00    -0.157 C  
HETATM   22  O   UNL     1      -7.689  16.513  69.267  1.00  0.00    -0.234 OA 
HETATM   23  C   UNL     1     -10.492  19.077  65.960  1.00  0.00    -0.530 A  
HETATM   24  C   UNL     1      -8.950  17.209  67.406  1.00  0.00    -0.223 A  
HETATM   25  O   UNL     1     -11.326  17.398  64.573  1.00  0.00    -0.947 OA 
HETATM   26  H   UNL     1      -8.114  19.989  68.939  1.00  0.00     0.000 HD 
HETATM   27  C   UNL     1      -9.741  16.787  66.337  1.00  0.00    -0.309 A  
HETATM   28  O   UNL     1      -8.136  19.063  68.732  1.00  0.00    -0.350 OA 
HETATM   29  C   UNL     1     -10.512  17.727  65.625  1.00  0.00    -0.128 A  
HETATM   30  C   UNL     1      -9.796  15.364  65.954  1.00  0.00    -0.356 C  
BRANCH  14  31
HETATM   31  N   UNL     1     -10.043  12.477  65.478  1.00  0.00    -0.269 NA 
HETATM   32  H   UNL     1     -10.903  13.003  65.318  1.00  0.00     0.000 HD 
BRANCH  31  33
HETATM   33  C   UNL     1      -9.833  11.244  64.733  1.00  0.00    -0.266 C  
BRANCH  33  34
HETATM   34  C   UNL     1     -10.361  10.034  65.521  1.00  0.00    -0.076 C  
BRANCH  34  35
HETATM   35  N   UNL     1      -9.410   8.913  65.481  1.00  0.00    -0.409 NA 
HETATM   36  H   UNL     1      -8.475   9.217  65.209  1.00  0.00     0.000 HD 
BRANCH  35  37
HETATM   37  C   UNL     1      -9.402   8.203  66.767  1.00  0.00    -0.183 C  
BRANCH  37  38
HETATM   38  C   UNL     1     -10.156   6.876  66.653  1.00  0.00    -0.141 C  
HETATM   39  O   UNL     1      -9.459   5.980  65.791  1.00  0.00    -0.355 OA 
HETATM   40  H   UNL     1      -9.927   5.156  65.719  1.00  0.00     0.000 HD 
ENDBRANCH  37  38
ENDBRANCH  35  37
ENDBRANCH  34  35
ENDBRANCH  33  34
ENDBRANCH  31  33
ENDBRANCH  14  31
ENDBRANCH   9  11
ENDBRANCH   8   9
ENDBRANCH   7   8
ENDBRANCH   5   7
ENDBRANCH   4   5
ENDBRANCH   3   4
TORSDOF 12
ENDMDL
MODEL      136
REMARK 921   NORMALIZED FREE ENERGY PREDICTED BY IDOCK:   -3.77 KCAL/MOL
REMARK 922        TOTAL FREE ENERGY PREDICTED BY IDOCK:   -8.67 KCAL/MOL
REMARK 923 INTER-LIGAND FREE ENERGY PREDICTED BY IDOCK:   -7.62 KCAL/MOL
REMARK 924 INTRA-LIGAND FREE ENERGY PREDICTED BY IDOCK:   -1.05 KCAL/MOL
REMARK 927      BINDING AFFINITY PREDICTED BY RF-SCORE:    0.00 PKD
ROOT
HETATM    1  O   UNL     1     -12.147  10.836  68.413  1.00  0.00    -0.805 OA 
HETATM    2  H   UNL     1     -12.600  10.637  67.603  1.00  0.00     0.000 HD 
HETATM    3  C   UNL     1     -11.338   9.730  68.808  1.00  0.00     0.072 C  
ENDROOT
BRANCH   3   4
HETATM    4  C   UNL     1     -10.606  10.050  70.115  1.00  0.00    -0.296 C  
BRANCH   4   5
HETATM    5  N   UNL     1      -9.225  10.511  69.913  1.00  0.00    -0.357 NA 
HETATM    6  H   UNL     1      -8.847  10.933  70.762  1.00  0.00     0.000 HD 
BRANCH   5   7
HETATM    7  C   UNL     1      -8.354   9.437  69.418  1.00  0.00    -0.125 C  
BRANCH   7   8
HETATM    8  C   UNL     1      -7.922   9.715  67.973  1.00  0.00    -0.097 C  
BRANCH   8   9
HETATM    9  N   UNL     1      -7.594  11.118  67.791  1.00  0.00    -0.097 NA 
HETATM   10  H   UNL     1      -6.749  11.483  68.230  1.00  0.00     0.000 HD 
BRANCH   9  11
HETATM   11  C   UNL     1      -8.382  11.982  67.045  1.00  0.00    -0.178 A  
HETATM   12  C   UNL     1      -9.222  11.461  66.062  1.00  0.00    -0.229 A  
HETATM   13  C   UNL     1     -10.000  12.288  65.271  1.00  0.00    -0.250 A  
HETATM   14  C   UNL     1      -9.915  13.678  65.366  1.00  0.00    -0.213 A  
HETATM   15  H   UNL     1      -8.495  19.507  66.888  1.00  0.00     0.000 HD 
HETATM   16  C   UNL     1      -9.044  14.231  66.341  1.00  0.00    -0.171 A  
HETATM   17  C   UNL     1      -8.326  13.391  67.211  1.00  0.00    -0.183 A  
HETATM   18  C   UNL     1      -6.454  17.454  69.523  1.00  0.00    -0.208 A  
HETATM   19  O   UNL     1      -9.403  16.477  65.653  1.00  0.00    -0.490 OA 
HETATM   20  C   UNL     1      -6.549  16.065  69.414  1.00  0.00    -0.182 A  
HETATM   21  C   UNL     1      -7.554  13.987  68.344  1.00  0.00    -0.129 C  
HETATM   22  O   UNL     1      -7.156  13.264  69.252  1.00  0.00    -0.047 OA 
HETATM   23  C   UNL     1      -7.149  18.263  68.635  1.00  0.00    -0.285 A  
HETATM   24  C   UNL     1      -7.365  15.458  68.427  1.00  0.00    -0.114 A  
HETATM   25  O   UNL     1      -8.569  18.563  66.810  1.00  0.00    -0.266 OA 
HETATM   26  H   UNL     1      -5.297  15.712  70.964  1.00  0.00     0.000 HD 
HETATM   27  C   UNL     1      -8.040  16.281  67.525  1.00  0.00    -0.165 A  
HETATM   28  O   UNL     1      -5.844  15.305  70.302  1.00  0.00    -0.140 OA 
HETATM   29  C   UNL     1      -7.930  17.682  67.641  1.00  0.00    -0.208 A  
HETATM   30  C   UNL     1      -8.884  15.706  66.461  1.00  0.00    -0.310 C  
BRANCH  14  31
HETATM   31  N   UNL     1     -10.754  14.448  64.580  1.00  0.00    -0.616 NA 
HETATM   32  H   UNL     1     -10.515  14.579  63.597  1.00  0.00     0.000 HD 
BRANCH  31  33
HETATM   33  C   UNL     1     -11.963  15.078  65.091  1.00  0.00    -0.135 C  
BRANCH  33  34
HETATM   34  C   UNL     1     -12.984  14.017  65.537  1.00  0.00    -0.316 C  
BRANCH  34  35
HETATM   35  N   UNL     1     -12.729  13.576  66.917  1.00  0.00    -0.141 NA 
HETATM   36  H   UNL     1     -12.146  12.740  66.947  1.00  0.00     0.000 HD 
BRANCH  35  37
HETATM   37  C   UNL     1     -12.154  14.673  67.706  1.00  0.00    -0.176 C  
BRANCH  37  38
HETATM   38  C   UNL     1     -11.999  14.257  69.171  1.00  0.00    -0.335 C  
HETATM   39  O   UNL     1     -10.807  13.495  69.348  1.00  0.00    -0.432 OA 
HETATM   40  H   UNL     1     -10.711  13.236  70.257  1.00  0.00     0.000 HD 
ENDBRANCH  37  38
ENDBRANCH  35  37
ENDBRANCH  34  35
ENDBRANCH  33  34
ENDBRANCH  31  33
ENDBRANCH  14  31
ENDBRANCH   9  11
ENDBRANCH   8   9
ENDBRANCH   7   8
ENDBRANCH   5   7
ENDBRANCH   4   5
ENDBRANCH   3   4
TORSDOF 12
ENDMDL
MODEL      137
REMARK 921   NORMALIZED FREE ENERGY PREDICTED BY IDOCK:   -3.72 KCAL/MOL
REMARK 922        TOTAL FREE ENERGY PREDICTED BY IDOCK:   -8.59 KCAL/MOL
REMARK 923 INTER-LIGAND FREE ENERGY PREDICTED BY IDOCK:   -7.80 KCAL/MOL
REMARK 924 INTRA-LIGAND FREE ENERGY PREDICTED BY IDOCK:   -0.80 KCAL/MOL
REMARK 927      BINDING AFFINITY PREDICTED BY RF-SCORE:    0.00 PKD
ROOT
HETATM    1  O   UNL     1     -12.104   7.816  72.543  1.00  0.00    -0.498 OA 
HETATM    2  H   UNL     1     -12.769   7.653  71.886  1.00  0.00     0.000 HD 
HETATM    3  C   UNL     1     -11.352   6.629  72.787  1.00  0.00    -0.186 C  
ENDROOT
BRANCH   3   4
HETATM    4  C   UNL     1     -10.278   6.892  73.847  1.00  0.00    -0.367 C  
BRANCH   4   5
HETATM    5  N   UNL     1      -8.907   6.818  73.320  1.00  0.00    -0.122 NA 
HETATM    6  H   UNL     1      -8.794   6.022  72.692  1.00  0.00     0.000 HD 
BRANCH   5   7
HETATM    7  C   UNL     1      -8.500   8.072  72.671  1.00  0.00    -0.174 C  
BRANCH   7   8
HETATM    8  C   UNL     1      -8.016   7.806  71.240  1.00  0.00    -0.094 C  
BRANCH   8   9
HETATM    9  N   UNL     1      -9.140   7.622  70.339  1.00  0.00    -0.152 NA 
HETATM   10  H   UNL     1      -9.580   6.704  70.287  1.00  0.00     0.000 HD 
BRANCH   9  11
HETATM   11  C   UNL     1      -9.641   8.644  69.546  1.00  0.00    -0.170 A  
HETATM   12  C   UNL     1     -10.498   9.587  70.111  1.00  0.00    -0.299 A  
HETATM   13  C   UNL     1     -11.049  10.604  69.351  1.00  0.00    -0.315 A  
HETATM   14  C   UNL     1     -10.837  10.679  67.973  1.00  0.00    -0.261 A  
HETATM   15  H   UNL     1      -9.047   9.740  62.122  1.00  0.00     0.000 HD 
HETATM   16  C   UNL     1      -9.990   9.711  67.371  1.00  0.00    -0.237 A  
HETATM   17  C   UNL     1      -9.352   8.736  68.159  1.00  0.00    -0.148 A  
HETATM   18  C   UNL     1      -7.044   6.979  64.043  1.00  0.00    -0.060 A  
HETATM   19  O   UNL     1     -10.380  10.480  65.156  1.00  0.00    -0.304 OA 
HETATM   20  C   UNL     1      -7.267   6.917  65.420  1.00  0.00    -0.073 A  
HETATM   21  C   UNL     1      -8.329   7.840  67.540  1.00  0.00    -0.120 C  
HETATM   22  O   UNL     1      -7.584   7.182  68.260  1.00  0.00    -0.109 OA 
HETATM   23  C   UNL     1      -7.706   7.932  63.282  1.00  0.00    -0.140 A  
HETATM   24  C   UNL     1      -8.141   7.826  66.067  1.00  0.00    -0.117 A  
HETATM   25  O   UNL     1      -9.201   9.707  63.059  1.00  0.00    -0.258 OA 
HETATM   26  H   UNL     1      -6.016   5.351  65.699  1.00  0.00     0.000 HD 
HETATM   27  C   UNL     1      -8.819   8.763  65.287  1.00  0.00    -0.205 A  
HETATM   28  O   UNL     1      -6.602   5.960  66.132  1.00  0.00    -0.045 OA 
HETATM   29  C   UNL     1      -8.590   8.812  63.897  1.00  0.00    -0.043 A  
HETATM   30  C   UNL     1      -9.760   9.719  65.901  1.00  0.00    -0.266 C  
BRANCH  14  31
HETATM   31  N   UNL     1     -11.377  11.746  67.278  1.00  0.00    -0.344 NA 
HETATM   32  H   UNL     1     -11.608  11.618  66.292  1.00  0.00     0.000 HD 
BRANCH  31  33
HETATM   33  C   UNL     1     -11.630  13.043  67.888  1.00  0.00    -0.342 C  
BRANCH  33  34
HETATM   34  C   UNL     1     -12.253  14.013  66.869  1.00  0.00    -0.380 C  
BRANCH  34  35
HETATM   35  N   UNL     1     -11.692  13.810  65.525  1.00  0.00    -0.334 NA 
HETATM   36  H   UNL     1     -10.896  13.173  65.538  1.00  0.00     0.000 HD 
BRANCH  35  37
HETATM   37  C   UNL     1     -12.738  13.359  64.598  1.00  0.00    -0.186 C  
BRANCH  37  38
HETATM   38  C   UNL     1     -12.115  12.739  63.345  1.00  0.00    -0.534 C  
HETATM   39  O   UNL     1     -12.766  11.513  63.020  1.00  0.00    -0.915 OA 
HETATM   40  H   UNL     1     -12.379  11.127  62.243  1.00  0.00     0.000 HD 
ENDBRANCH  37  38
ENDBRANCH  35  37
ENDBRANCH  34  35
ENDBRANCH  33  34
ENDBRANCH  31  33
ENDBRANCH  14  31
ENDBRANCH   9  11
ENDBRANCH   8   9
ENDBRANCH   7   8
ENDBRANCH   5   7
ENDBRANCH   4   5
ENDBRANCH   3   4
TORSDOF 12
ENDMDL
MODEL      138
REMARK 921   NORMALIZED FREE ENERGY PREDICTED BY IDOCK:   -3.72 KCAL/MOL
REMARK 922        TOTAL FREE ENERGY PREDICTED BY IDOCK:   -8.59 KCAL/MOL
REMARK 923 INTER-LIGAND FREE ENERGY PREDICTED BY IDOCK:   -6.98 KCAL/MOL
REMARK 924 INTRA-LIGAND FREE ENERGY PREDICTED BY IDOCK:   -1.61 KCAL/MOL
REMARK 927      BINDING AFFINITY PREDICTED BY RF-SCORE:    0.00 PKD
ROOT
HETATM    1  O   UNL     1      -5.778   8.645  64.793  1.00  0.00    -0.056 OA 
HETATM    2  H   UNL     1      -5.030   8.737  65.370  1.00  0.00     0.000 HD 
HETATM    3  C   UNL     1      -6.177   9.920  64.296  1.00  0.00    -0.124 C  
ENDROOT
BRANCH   3   4
HETATM    4  C   UNL     1      -7.383   9.771  63.364  1.00  0.00    -0.125 C  
BRANCH   4   5
HETATM    5  N   UNL     1      -8.283  10.934  63.383  1.00  0.00    -0.373 NA 
HETATM    6  H   UNL     1      -7.863  11.735  62.912  1.00  0.00     0.000 HD 
BRANCH   5   7
HETATM    7  C   UNL     1      -9.603  10.615  62.822  1.00  0.00    -0.301 C  
BRANCH   7   8
HETATM    8  C   UNL     1     -10.627  11.690  63.209  1.00  0.00    -0.356 C  
BRANCH   8   9
HETATM    9  N   UNL     1     -10.994  11.575  64.609  1.00  0.00    -0.310 NA 
HETATM   10  H   UNL     1     -11.502  10.746  64.915  1.00  0.00     0.000 HD 
BRANCH   9  11
HETATM   11  C   UNL     1     -10.681  12.547  65.549  1.00  0.00    -0.271 A  
HETATM   12  C   UNL     1     -11.304  13.792  65.474  1.00  0.00    -0.313 A  
HETATM   13  C   UNL     1     -10.998  14.802  66.369  1.00  0.00    -0.331 A  
HETATM   14  C   UNL     1      -9.997  14.646  67.329  1.00  0.00    -0.235 A  
HETATM   15  H   UNL     1      -5.435  12.547  70.948  1.00  0.00     0.000 HD 
HETATM   16  C   UNL     1      -9.329  13.396  67.405  1.00  0.00    -0.221 A  
HETATM   17  C   UNL     1      -9.706  12.336  66.559  1.00  0.00    -0.242 A  
HETATM   18  C   UNL     1      -6.321   9.378  68.827  1.00  0.00    -0.047 A  
HETATM   19  O   UNL     1      -7.787  14.113  69.064  1.00  0.00    -0.105 OA 
HETATM   20  C   UNL     1      -7.324   9.550  67.870  1.00  0.00    -0.083 A  
HETATM   21  C   UNL     1      -9.119  10.979  66.771  1.00  0.00    -0.162 C  
HETATM   22  O   UNL     1      -9.633  10.005  66.228  1.00  0.00    -0.179 OA 
HETATM   23  C   UNL     1      -5.946  10.445  69.630  1.00  0.00    -0.048 A  
HETATM   24  C   UNL     1      -7.990  10.791  67.717  1.00  0.00    -0.110 A  
HETATM   25  O   UNL     1      -6.122  12.671  70.303  1.00  0.00    -0.148 OA 
HETATM   26  H   UNL     1      -7.212   7.645  67.198  1.00  0.00     0.000 HD 
HETATM   27  C   UNL     1      -7.587  11.864  68.514  1.00  0.00    -0.127 A  
HETATM   28  O   UNL     1      -7.658   8.477  67.096  1.00  0.00    -0.094 OA 
HETATM   29  C   UNL     1      -6.569  11.679  69.471  1.00  0.00    -0.111 A  
HETATM   30  C   UNL     1      -8.227  13.186  68.382  1.00  0.00    -0.130 C  
BRANCH  14  31
HETATM   31  N   UNL     1      -9.772  15.677  68.224  1.00  0.00    -0.200 NA 
HETATM   32  H   UNL     1      -8.859  15.741  68.674  1.00  0.00     0.000 HD 
BRANCH  31  33
HETATM   33  C   UNL     1     -10.780  16.676  68.552  1.00  0.00    -0.351 C  
BRANCH  33  34
HETATM   34  C   UNL     1     -10.130  17.917  69.188  1.00  0.00    -0.217 C  
BRANCH  34  35
HETATM   35  N   UNL     1      -9.305  18.647  68.215  1.00  0.00    -0.316 NA 
HETATM   36  H   UNL     1      -8.931  18.030  67.494  1.00  0.00     0.000 HD 
BRANCH  35  37
HETATM   37  C   UNL     1     -10.062  19.766  67.640  1.00  0.00    -0.417 C  
BRANCH  37  38
HETATM   38  C   UNL     1     -10.610  19.391  66.261  1.00  0.00    -0.475 C  
HETATM   39  O   UNL     1     -10.399  20.455  65.336  1.00  0.00    -0.403 OA 
HETATM   40  H   UNL     1     -10.740  20.223  64.480  1.00  0.00     0.000 HD 
ENDBRANCH  37  38
ENDBRANCH  35  37
ENDBRANCH  34  35
ENDBRANCH  33  34
ENDBRANCH  31  33
ENDBRANCH  14  31
ENDBRANCH   9  11
ENDBRANCH   8   9
ENDBRANCH   7   8
ENDBRANCH   5   7
ENDBRANCH   4   5
ENDBRANCH   3   4
TORSDOF 12
ENDMDL
MODEL      139
REMARK 921   NORMALIZED FREE ENERGY PREDICTED BY IDOCK:   -3.70 KCAL/MOL
REMARK 922        TOTAL FREE ENERGY PREDICTED BY IDOCK:   -8.56 KCAL/MOL
REMARK 923 INTER-LIGAND FREE ENERGY PREDICTED BY IDOCK:   -7.60 KCAL/MOL
REMARK 924 INTRA-LIGAND FREE ENERGY PREDICTED BY IDOCK:   -0.96 KCAL/MOL
REMARK 927      BINDING AFFINITY PREDICTED BY RF-SCORE:    0.00 PKD
ROOT
HETATM    1  O   UNL     1     -12.523  14.050  62.745  1.00  0.00    -0.867 OA 
HETATM    2  H   UNL     1     -11.995  14.582  62.162  1.00  0.00     0.000 HD 
HETATM    3  C   UNL     1     -11.792  12.898  63.158  1.00  0.00    -0.208 C  
ENDROOT
BRANCH   3   4
HETATM    4  C   UNL     1     -12.643  12.040  64.099  1.00  0.00    -0.308 C  
BRANCH   4   5
HETATM    5  N   UNL     1     -12.890  12.671  65.403  1.00  0.00    -0.528 NA 
HETATM    6  H   UNL     1     -13.838  12.487  65.731  1.00  0.00     0.000 HD 
BRANCH   5   7
HETATM    7  C   UNL     1     -11.892  12.272  66.405  1.00  0.00    -0.311 C  
BRANCH   7   8
HETATM    8  C   UNL     1     -11.251  13.507  67.050  1.00  0.00    -0.312 C  
BRANCH   8   9
HETATM    9  N   UNL     1     -10.279  13.120  68.057  1.00  0.00    -0.227 NA 
HETATM   10  H   UNL     1     -10.095  13.759  68.830  1.00  0.00     0.000 HD 
BRANCH   9  11
HETATM   11  C   UNL     1      -9.591  11.916  68.012  1.00  0.00    -0.193 A  
HETATM   12  C   UNL     1      -8.520  11.777  67.131  1.00  0.00    -0.170 A  
HETATM   13  C   UNL     1      -7.826  10.584  67.028  1.00  0.00    -0.114 A  
HETATM   14  C   UNL     1      -8.220   9.449  67.738  1.00  0.00    -0.114 A  
HETATM   15  H   UNL     1     -11.071   5.367  71.416  1.00  0.00     0.000 HD 
HETATM   16  C   UNL     1      -9.327   9.559  68.619  1.00  0.00    -0.142 A  
HETATM   17  C   UNL     1      -9.973  10.797  68.798  1.00  0.00    -0.201 A  
HETATM   18  C   UNL     1     -13.001   8.678  72.217  1.00  0.00    -0.430 A  
HETATM   19  O   UNL     1      -9.358   7.247  69.166  1.00  0.00    -0.147 OA 
HETATM   20  C   UNL     1     -12.595   9.805  71.499  1.00  0.00    -0.398 A  
HETATM   21  C   UNL     1     -11.017  10.939  69.857  1.00  0.00    -0.199 C  
HETATM   22  O   UNL     1     -11.385  12.059  70.199  1.00  0.00    -0.103 OA 
HETATM   23  C   UNL     1     -12.369   7.462  72.004  1.00  0.00    -0.301 A  
HETATM   24  C   UNL     1     -11.528   9.740  70.569  1.00  0.00    -0.370 A  
HETATM   25  O   UNL     1     -10.786   6.130  70.927  1.00  0.00    -0.253 OA 
HETATM   26  H   UNL     1     -13.963  11.024  72.356  1.00  0.00     0.000 HD 
HETATM   27  C   UNL     1     -10.916   8.506  70.345  1.00  0.00    -0.254 A  
HETATM   28  O   UNL     1     -13.248  10.980  71.733  1.00  0.00    -0.446 OA 
HETATM   29  C   UNL     1     -11.339   7.375  71.072  1.00  0.00    -0.275 A  
HETATM   30  C   UNL     1      -9.817   8.372  69.372  1.00  0.00    -0.185 C  
BRANCH  14  31
HETATM   31  N   UNL     1      -7.456   8.300  67.627  1.00  0.00    -0.093 NA 
HETATM   32  H   UNL     1      -7.599   7.553  68.306  1.00  0.00     0.000 HD 
BRANCH  31  33
HETATM   33  C   UNL     1      -6.458   8.110  66.584  1.00  0.00    -0.055 C  
BRANCH  33  34
HETATM   34  C   UNL     1      -6.618   6.731  65.922  1.00  0.00    -0.051 C  
BRANCH  34  35
HETATM   35  N   UNL     1      -7.713   5.966  66.536  1.00  0.00    -0.098 NA 
HETATM   36  H   UNL     1      -8.625   6.372  66.327  1.00  0.00     0.000 HD 
BRANCH  35  37
HETATM   37  C   UNL     1      -7.637   4.555  66.137  1.00  0.00    -0.090 C  
BRANCH  37  38
HETATM   38  C   UNL     1      -7.172   4.431  64.684  1.00  0.00    -0.066 C  
HETATM   39  O   UNL     1      -8.160   3.767  63.900  1.00  0.00    -0.087 OA 
HETATM   40  H   UNL     1      -7.871   3.690  62.999  1.00  0.00     0.000 HD 
ENDBRANCH  37  38
ENDBRANCH  35  37
ENDBRANCH  34  35
ENDBRANCH  33  34
ENDBRANCH  31  33
ENDBRANCH  14  31
ENDBRANCH   9  11
ENDBRANCH   8   9
ENDBRANCH   7   8
ENDBRANCH   5   7
ENDBRANCH   4   5
ENDBRANCH   3   4
TORSDOF 12
ENDMDL
MODEL      140
REMARK 921   NORMALIZED FREE ENERGY PREDICTED BY IDOCK:   -3.69 KCAL/MOL
REMARK 922        TOTAL FREE ENERGY PREDICTED BY IDOCK:   -8.54 KCAL/MOL
REMARK 923 INTER-LIGAND FREE ENERGY PREDICTED BY IDOCK:   -7.51 KCAL/MOL
REMARK 924 INTRA-LIGAND FREE ENERGY PREDICTED BY IDOCK:   -1.03 KCAL/MOL
REMARK 927      BINDING AFFINITY PREDICTED BY RF-SCORE:    0.00 PKD
ROOT
HETATM    1  O   UNL     1      -7.660   1.857  67.380  1.00  0.00    -0.058 OA 
HETATM    2  H   UNL     1      -7.532   1.378  68.189  1.00  0.00     0.000 HD 
HETATM    3  C   UNL     1      -7.943   3.226  67.657  1.00  0.00    -0.076 C  
ENDROOT
BRANCH   3   4
HETATM    4  C   UNL     1      -8.150   3.999  66.351  1.00  0.00    -0.098 C  
BRANCH   4   5
HETATM    5  N   UNL     1      -9.222   5.003  66.430  1.00  0.00    -0.133 NA 
HETATM    6  H   UNL     1      -9.646   5.165  65.516  1.00  0.00     0.000 HD 
BRANCH   5   7
HETATM    7  C   UNL     1     -10.234   4.648  67.434  1.00  0.00    -0.039 C  
BRANCH   7   8
HETATM    8  C   UNL     1     -10.604   5.871  68.283  1.00  0.00    -0.244 C  
BRANCH   8   9
HETATM    9  N   UNL     1      -9.596   6.909  68.162  1.00  0.00    -0.125 NA 
HETATM   10  H   UNL     1      -8.641   6.639  67.929  1.00  0.00     0.000 HD 
BRANCH   9  11
HETATM   11  C   UNL     1      -9.878   8.254  68.350  1.00  0.00    -0.172 A  
HETATM   12  C   UNL     1     -10.275   8.697  69.611  1.00  0.00    -0.208 A  
HETATM   13  C   UNL     1     -10.599  10.023  69.837  1.00  0.00    -0.324 A  
HETATM   14  C   UNL     1     -10.624  10.954  68.797  1.00  0.00    -0.201 A  
HETATM   15  H   UNL     1     -10.302  13.855  63.339  1.00  0.00     0.000 HD 
HETATM   16  C   UNL     1     -10.252  10.519  67.498  1.00  0.00    -0.245 A  
HETATM   17  C   UNL     1      -9.828   9.194  67.286  1.00  0.00    -0.244 A  
HETATM   18  C   UNL     1      -8.975  10.283  62.445  1.00  0.00    -0.288 A  
HETATM   19  O   UNL     1     -10.765  12.592  66.456  1.00  0.00    -0.236 OA 
HETATM   20  C   UNL     1      -8.957   9.363  63.496  1.00  0.00    -0.115 A  
HETATM   21  C   UNL     1      -9.272   8.799  65.957  1.00  0.00    -0.222 C  
HETATM   22  O   UNL     1      -8.660   7.742  65.846  1.00  0.00    -0.142 OA 
HETATM   23  C   UNL     1      -9.423  11.576  62.671  1.00  0.00    -0.107 A  
HETATM   24  C   UNL     1      -9.364   9.730  64.802  1.00  0.00    -0.327 A  
HETATM   25  O   UNL     1     -10.288  13.237  64.060  1.00  0.00    -0.354 OA 
HETATM   26  H   UNL     1      -8.242   7.853  62.354  1.00  0.00     0.000 HD 
HETATM   27  C   UNL     1      -9.836  11.026  65.012  1.00  0.00    -0.321 A  
HETATM   28  O   UNL     1      -8.515   8.099  63.230  1.00  0.00    -0.058 OA 
HETATM   29  C   UNL     1      -9.856  11.943  63.941  1.00  0.00    -0.259 A  
HETATM   30  C   UNL     1     -10.297  11.457  66.344  1.00  0.00    -0.242 C  
BRANCH  14  31
HETATM   31  N   UNL     1     -10.910  12.274  69.097  1.00  0.00    -0.408 NA 
HETATM   32  H   UNL     1     -10.134  12.912  69.274  1.00  0.00     0.000 HD 
BRANCH  31  33
HETATM   33  C   UNL     1     -12.268  12.794  69.172  1.00  0.00    -0.018 C  
BRANCH  33  34
HETATM   34  C   UNL     1     -12.290  14.164  69.870  1.00  0.00    -0.327 C  
BRANCH  34  35
HETATM   35  N   UNL     1     -11.684  14.093  71.207  1.00  0.00    -0.447 NA 
HETATM   36  H   UNL     1     -10.785  14.575  71.244  1.00  0.00     0.000 HD 
BRANCH  35  37
HETATM   37  C   UNL     1     -12.618  14.599  72.220  1.00  0.00    -0.322 C  
BRANCH  37  38
HETATM   38  C   UNL     1     -13.960  13.868  72.127  1.00  0.00    -0.545 C  
HETATM   39  O   UNL     1     -13.828  12.525  72.586  1.00  0.00    -0.608 OA 
HETATM   40  H   UNL     1     -14.660  12.070  72.528  1.00  0.00     0.000 HD 
ENDBRANCH  37  38
ENDBRANCH  35  37
ENDBRANCH  34  35
ENDBRANCH  33  34
ENDBRANCH  31  33
ENDBRANCH  14  31
ENDBRANCH   9  11
ENDBRANCH   8   9
ENDBRANCH   7   8
ENDBRANCH   5   7
ENDBRANCH   4   5
ENDBRANCH   3   4
TORSDOF 12
ENDMDL
MODEL      141
REMARK 921   NORMALIZED FREE ENERGY PREDICTED BY IDOCK:   -3.68 KCAL/MOL
REMARK 922        TOTAL FREE ENERGY PREDICTED BY IDOCK:   -8.52 KCAL/MOL
REMARK 923 INTER-LIGAND FREE ENERGY PREDICTED BY IDOCK:   -6.40 KCAL/MOL
REMARK 924 INTRA-LIGAND FREE ENERGY PREDICTED BY IDOCK:   -2.12 KCAL/MOL
REMARK 927      BINDING AFFINITY PREDICTED BY RF-SCORE:    0.00 PKD
ROOT
HETATM    1  O   UNL     1     -10.256   8.419  70.902  1.00  0.00    -0.188 OA 
HETATM    2  H   UNL     1     -10.356   9.176  71.467  1.00  0.00     0.000 HD 
HETATM    3  C   UNL     1     -11.466   7.666  70.870  1.00  0.00    -0.282 C  
ENDROOT
BRANCH   3   4
HETATM    4  C   UNL     1     -11.306   6.445  69.960  1.00  0.00    -0.430 C  
BRANCH   4   5
HETATM    5  N   UNL     1     -10.153   6.541  69.051  1.00  0.00    -0.158 NA 
HETATM    6  H   UNL     1      -9.377   5.965  69.376  1.00  0.00     0.000 HD 
BRANCH   5   7
HETATM    7  C   UNL     1     -10.518   6.215  67.666  1.00  0.00    -0.234 C  
BRANCH   7   8
HETATM    8  C   UNL     1     -10.882   7.488  66.891  1.00  0.00    -0.104 C  
BRANCH   8   9
HETATM    9  N   UNL     1      -9.701   8.288  66.623  1.00  0.00    -0.230 NA 
HETATM   10  H   UNL     1      -8.794   7.822  66.581  1.00  0.00     0.000 HD 
BRANCH   9  11
HETATM   11  C   UNL     1      -9.753   9.659  66.423  1.00  0.00    -0.224 A  
HETATM   12  C   UNL     1     -10.580  10.171  65.424  1.00  0.00     0.097 A  
HETATM   13  C   UNL     1     -10.638  11.529  65.166  1.00  0.00    -0.350 A  
HETATM   14  C   UNL     1      -9.812  12.434  65.836  1.00  0.00    -0.252 A  
HETATM   15  H   UNL     1      -5.650  15.159  69.519  1.00  0.00     0.000 HD 
HETATM   16  C   UNL     1      -8.941  11.931  66.838  1.00  0.00    -0.196 A  
HETATM   17  C   UNL     1      -8.951  10.564  67.169  1.00  0.00    -0.147 A  
HETATM   18  C   UNL     1      -5.519  11.445  70.746  1.00  0.00    -0.126 A  
HETATM   19  O   UNL     1      -7.885  14.024  67.228  1.00  0.00    -0.179 OA 
HETATM   20  C   UNL     1      -6.350  10.552  70.066  1.00  0.00    -0.117 A  
HETATM   21  C   UNL     1      -8.162  10.082  68.342  1.00  0.00    -0.106 C  
HETATM   22  O   UNL     1      -8.374   8.961  68.796  1.00  0.00    -0.120 OA 
HETATM   23  C   UNL     1      -5.505  12.784  70.384  1.00  0.00    -0.149 A  
HETATM   24  C   UNL     1      -7.204  10.990  69.023  1.00  0.00    -0.111 A  
HETATM   25  O   UNL     1      -6.222  14.560  69.054  1.00  0.00    -0.087 OA 
HETATM   26  H   UNL     1      -5.757   8.948  71.147  1.00  0.00     0.000 HD 
HETATM   27  C   UNL     1      -7.163  12.334  68.652  1.00  0.00    -0.105 A  
HETATM   28  O   UNL     1      -6.329   9.242  70.448  1.00  0.00    -0.047 OA 
HETATM   29  C   UNL     1      -6.315  13.224  69.342  1.00  0.00    -0.111 A  
HETATM   30  C   UNL     1      -8.011  12.843  67.558  1.00  0.00    -0.178 C  
BRANCH  14  31
HETATM   31  N   UNL     1      -9.952  13.783  65.566  1.00  0.00    -0.467 NA 
HETATM   32  H   UNL     1      -9.158  14.286  65.170  1.00  0.00     0.000 HD 
BRANCH  31  33
HETATM   33  C   UNL     1     -11.183  14.519  65.821  1.00  0.00    -0.334 C  
BRANCH  33  34
HETATM   34  C   UNL     1     -11.454  14.621  67.331  1.00  0.00    -0.369 C  
BRANCH  34  35
HETATM   35  N   UNL     1     -11.695  16.012  67.740  1.00  0.00    -0.002 NA 
HETATM   36  H   UNL     1     -12.591  16.119  68.216  1.00  0.00     0.000 HD 
BRANCH  35  37
HETATM   37  C   UNL     1     -10.578  16.507  68.555  1.00  0.00    -0.318 C  
BRANCH  37  38
HETATM   38  C   UNL     1     -10.533  15.780  69.902  1.00  0.00    -0.320 C  
HETATM   39  O   UNL     1      -9.308  15.064  70.039  1.00  0.00    -0.455 OA 
HETATM   40  H   UNL     1      -9.280  14.612  70.874  1.00  0.00     0.000 HD 
ENDBRANCH  37  38
ENDBRANCH  35  37
ENDBRANCH  34  35
ENDBRANCH  33  34
ENDBRANCH  31  33
ENDBRANCH  14  31
ENDBRANCH   9  11
ENDBRANCH   8   9
ENDBRANCH   7   8
ENDBRANCH   5   7
ENDBRANCH   4   5
ENDBRANCH   3   4
TORSDOF 12
ENDMDL
MODEL      142
REMARK 921   NORMALIZED FREE ENERGY PREDICTED BY IDOCK:   -3.66 KCAL/MOL
REMARK 922        TOTAL FREE ENERGY PREDICTED BY IDOCK:   -8.49 KCAL/MOL
REMARK 923 INTER-LIGAND FREE ENERGY PREDICTED BY IDOCK:   -8.01 KCAL/MOL
REMARK 924 INTRA-LIGAND FREE ENERGY PREDICTED BY IDOCK:   -0.48 KCAL/MOL
REMARK 927      BINDING AFFINITY PREDICTED BY RF-SCORE:    0.00 PKD
ROOT
HETATM    1  O   UNL     1      -9.549  17.083  66.424  1.00  0.00    -0.260 OA 
HETATM    2  H   UNL     1      -8.939  17.155  65.699  1.00  0.00     0.000 HD 
HETATM    3  C   UNL     1      -8.844  17.095  67.663  1.00  0.00    -0.218 C  
ENDROOT
BRANCH   3   4
HETATM    4  C   UNL     1      -9.827  16.980  68.832  1.00  0.00    -0.272 C  
BRANCH   4   5
HETATM    5  N   UNL     1      -9.777  15.677  69.511  1.00  0.00    -0.278 NA 
HETATM    6  H   UNL     1     -10.307  15.693  70.383  1.00  0.00     0.000 HD 
BRANCH   5   7
HETATM    7  C   UNL     1     -10.220  14.584  68.636  1.00  0.00    -0.243 C  
BRANCH   7   8
HETATM    8  C   UNL     1     -11.663  14.817  68.171  1.00  0.00    -0.325 C  
BRANCH   8   9
HETATM    9  N   UNL     1     -12.445  13.598  68.277  1.00  0.00    -0.204 NA 
HETATM   10  H   UNL     1     -13.452  13.649  68.130  1.00  0.00     0.000 HD 
BRANCH   9  11
HETATM   11  C   UNL     1     -11.878  12.366  68.571  1.00  0.00    -0.304 A  
HETATM   12  C   UNL     1     -11.892  11.906  69.887  1.00  0.00    -0.418 A  
HETATM   13  C   UNL     1     -11.309  10.699  70.231  1.00  0.00    -0.401 A  
HETATM   14  C   UNL     1     -10.611   9.934  69.295  1.00  0.00    -0.224 A  
HETATM   15  H   UNL     1      -7.925   7.693  64.189  1.00  0.00     0.000 HD 
HETATM   16  C   UNL     1     -10.559  10.398  67.954  1.00  0.00    -0.273 A  
HETATM   17  C   UNL     1     -11.234  11.575  67.583  1.00  0.00    -0.343 A  
HETATM   18  C   UNL     1      -9.782  10.854  62.816  1.00  0.00    -0.307 A  
HETATM   19  O   UNL     1      -9.100   8.672  67.221  1.00  0.00    -0.131 OA 
HETATM   20  C   UNL     1     -10.475  11.609  63.764  1.00  0.00    -0.402 A  
HETATM   21  C   UNL     1     -11.319  11.954  66.140  1.00  0.00    -0.324 C  
HETATM   22  O   UNL     1     -12.120  12.812  65.785  1.00  0.00    -0.432 OA 
HETATM   23  C   UNL     1      -9.100   9.712  63.211  1.00  0.00    -0.223 A  
HETATM   24  C   UNL     1     -10.518  11.219  65.126  1.00  0.00    -0.351 A  
HETATM   25  O   UNL     1      -8.398   8.199  64.840  1.00  0.00    -0.160 OA 
HETATM   26  H   UNL     1     -11.098  12.991  62.424  1.00  0.00     0.000 HD 
HETATM   27  C   UNL     1      -9.809  10.083  65.515  1.00  0.00    -0.373 A  
HETATM   28  O   UNL     1     -11.127  12.729  63.336  1.00  0.00    -0.408 OA 
HETATM   29  C   UNL     1      -9.108   9.333  64.549  1.00  0.00    -0.089 A  
HETATM   30  C   UNL     1      -9.797   9.644  66.923  1.00  0.00    -0.200 C  
BRANCH  14  31
HETATM   31  N   UNL     1     -10.091   8.715  69.693  1.00  0.00    -0.196 NA 
HETATM   32  H   UNL     1      -9.939   7.997  68.984  1.00  0.00     0.000 HD 
BRANCH  31  33
HETATM   33  C   UNL     1      -9.752   8.410  71.075  1.00  0.00    -0.174 C  
BRANCH  33  34
HETATM   34  C   UNL     1      -8.309   7.889  71.180  1.00  0.00    -0.112 C  
BRANCH  34  35
HETATM   35  N   UNL     1      -7.416   8.898  71.768  1.00  0.00    -0.312 NA 
HETATM   36  H   UNL     1      -7.811   9.308  72.614  1.00  0.00     0.000 HD 
BRANCH  35  37
HETATM   37  C   UNL     1      -6.085   8.326  72.008  1.00  0.00    -0.052 C  
BRANCH  37  38
HETATM   38  C   UNL     1      -5.271   9.230  72.937  1.00  0.00    -0.080 C  
HETATM   39  O   UNL     1      -6.137  10.058  73.710  1.00  0.00     0.079 OA 
HETATM   40  H   UNL     1      -5.632  10.619  74.286  1.00  0.00     0.000 HD 
ENDBRANCH  37  38
ENDBRANCH  35  37
ENDBRANCH  34  35
ENDBRANCH  33  34
ENDBRANCH  31  33
ENDBRANCH  14  31
ENDBRANCH   9  11
ENDBRANCH   8   9
ENDBRANCH   7   8
ENDBRANCH   5   7
ENDBRANCH   4   5
ENDBRANCH   3   4
TORSDOF 12
ENDMDL
MODEL      143
REMARK 921   NORMALIZED FREE ENERGY PREDICTED BY IDOCK:   -3.63 KCAL/MOL
REMARK 922        TOTAL FREE ENERGY PREDICTED BY IDOCK:   -8.44 KCAL/MOL
REMARK 923 INTER-LIGAND FREE ENERGY PREDICTED BY IDOCK:   -7.42 KCAL/MOL
REMARK 924 INTRA-LIGAND FREE ENERGY PREDICTED BY IDOCK:   -1.02 KCAL/MOL
REMARK 927      BINDING AFFINITY PREDICTED BY RF-SCORE:    0.00 PKD
ROOT
HETATM    1  O   UNL     1     -11.273  11.420  66.916  1.00  0.00    -0.296 OA 
HETATM    2  H   UNL     1     -11.913  10.893  66.453  1.00  0.00     0.000 HD 
HETATM    3  C   UNL     1     -10.884  12.536  66.118  1.00  0.00    -0.272 C  
ENDROOT
BRANCH   3   4
HETATM    4  C   UNL     1      -9.853  13.386  66.865  1.00  0.00    -0.256 C  
BRANCH   4   5
HETATM    5  N   UNL     1      -8.486  12.851  66.784  1.00  0.00    -0.411 NA 
HETATM    6  H   UNL     1      -7.844  13.535  66.382  1.00  0.00     0.000 HD 
BRANCH   5   7
HETATM    7  C   UNL     1      -8.007  12.370  68.087  1.00  0.00    -0.153 C  
BRANCH   7   8
HETATM    8  C   UNL     1      -7.672  10.875  68.020  1.00  0.00    -0.101 C  
BRANCH   8   9
HETATM    9  N   UNL     1      -8.879  10.079  67.890  1.00  0.00    -0.125 NA 
HETATM   10  H   UNL     1      -9.435  10.170  67.040  1.00  0.00     0.000 HD 
BRANCH   9  11
HETATM   11  C   UNL     1      -9.307   9.199  68.873  1.00  0.00    -0.146 A  
HETATM   12  C   UNL     1      -9.636   9.695  70.134  1.00  0.00    -0.300 A  
HETATM   13  C   UNL     1     -10.036   8.851  71.155  1.00  0.00    -0.342 A  
HETATM   14  C   UNL     1     -10.045   7.464  70.992  1.00  0.00    -0.190 A  
HETATM   15  H   UNL     1      -9.593   1.677  68.844  1.00  0.00     0.000 HD 
HETATM   16  C   UNL     1      -9.685   6.935  69.725  1.00  0.00    -0.166 A  
HETATM   17  C   UNL     1      -9.373   7.797  68.658  1.00  0.00    -0.148 A  
HETATM   18  C   UNL     1      -8.785   3.798  65.655  1.00  0.00    -0.118 A  
HETATM   19  O   UNL     1      -9.794   4.670  70.435  1.00  0.00    -0.202 OA 
HETATM   20  C   UNL     1      -8.779   5.183  65.834  1.00  0.00    -0.135 A  
HETATM   21  C   UNL     1      -9.170   7.234  67.289  1.00  0.00    -0.131 C  
HETATM   22  O   UNL     1      -9.168   7.985  66.319  1.00  0.00    -0.178 OA 
HETATM   23  C   UNL     1      -9.068   2.967  66.729  1.00  0.00    -0.179 A  
HETATM   24  C   UNL     1      -9.083   5.764  67.091  1.00  0.00    -0.112 A  
HETATM   25  O   UNL     1      -9.595   2.618  68.974  1.00  0.00    -0.131 OA 
HETATM   26  H   UNL     1      -8.286   5.577  63.912  1.00  0.00     0.000 HD 
HETATM   27  C   UNL     1      -9.342   4.918  68.169  1.00  0.00    -0.164 A  
HETATM   28  O   UNL     1      -8.489   5.966  64.754  1.00  0.00    -0.128 OA 
HETATM   29  C   UNL     1      -9.338   3.521  67.977  1.00  0.00    -0.184 A  
HETATM   30  C   UNL     1      -9.639   5.464  69.506  1.00  0.00    -0.149 C  
BRANCH  14  31
HETATM   31  N   UNL     1     -10.499   6.679  72.037  1.00  0.00    -0.202 NA 
HETATM   32  H   UNL     1      -9.820   6.323  72.710  1.00  0.00     0.000 HD 
BRANCH  31  33
HETATM   33  C   UNL     1     -11.903   6.336  72.219  1.00  0.00    -0.278 C  
BRANCH  33  34
HETATM   34  C   UNL     1     -12.805   7.292  71.420  1.00  0.00    -0.382 C  
BRANCH  34  35
HETATM   35  N   UNL     1     -14.072   7.544  72.122  1.00  0.00    -0.577 NA 
HETATM   36  H   UNL     1     -14.216   6.891  72.893  1.00  0.00     0.000 HD 
BRANCH  35  37
HETATM   37  C   UNL     1     -14.140   8.941  72.569  1.00  0.00    -0.367 C  
BRANCH  37  38
HETATM   38  C   UNL     1     -13.438   9.861  71.568  1.00  0.00    -0.312 C  
HETATM   39  O   UNL     1     -13.242  11.155  72.133  1.00  0.00    -0.586 OA 
HETATM   40  H   UNL     1     -12.807  11.726  71.512  1.00  0.00     0.000 HD 
ENDBRANCH  37  38
ENDBRANCH  35  37
ENDBRANCH  34  35
ENDBRANCH  33  34
ENDBRANCH  31  33
ENDBRANCH  14  31
ENDBRANCH   9  11
ENDBRANCH   8   9
ENDBRANCH   7   8
ENDBRANCH   5   7
ENDBRANCH   4   5
ENDBRANCH   3   4
TORSDOF 12
ENDMDL
MODEL      144
REMARK 921   NORMALIZED FREE ENERGY PREDICTED BY IDOCK:   -3.62 KCAL/MOL
REMARK 922        TOTAL FREE ENERGY PREDICTED BY IDOCK:   -8.43 KCAL/MOL
REMARK 923 INTER-LIGAND FREE ENERGY PREDICTED BY IDOCK:   -7.79 KCAL/MOL
REMARK 924 INTRA-LIGAND FREE ENERGY PREDICTED BY IDOCK:   -0.64 KCAL/MOL
REMARK 927      BINDING AFFINITY PREDICTED BY RF-SCORE:    0.00 PKD
ROOT
HETATM    1  O   UNL     1     -12.882   5.216  73.086  1.00  0.00    -0.196 OA 
HETATM    2  H   UNL     1     -13.269   4.468  72.646  1.00  0.00     0.000 HD 
HETATM    3  C   UNL     1     -11.461   5.109  73.083  1.00  0.00    -0.272 C  
ENDROOT
BRANCH   3   4
HETATM    4  C   UNL     1     -10.838   6.315  73.791  1.00  0.00    -0.046 C  
BRANCH   4   5
HETATM    5  N   UNL     1     -10.736   7.506  72.935  1.00  0.00    -0.324 NA 
HETATM    6  H   UNL     1     -10.044   8.164  73.295  1.00  0.00     0.000 HD 
BRANCH   5   7
HETATM    7  C   UNL     1     -10.461   7.155  71.535  1.00  0.00    -0.203 C  
BRANCH   7   8
HETATM    8  C   UNL     1      -9.242   7.927  71.015  1.00  0.00    -0.151 C  
BRANCH   8   9
HETATM    9  N   UNL     1      -9.412   8.283  69.617  1.00  0.00    -0.162 NA 
HETATM   10  H   UNL     1      -9.056   7.646  68.904  1.00  0.00     0.000 HD 
BRANCH   9  11
HETATM   11  C   UNL     1     -10.040   9.451  69.211  1.00  0.00    -0.196 A  
HETATM   12  C   UNL     1     -10.731  10.215  70.150  1.00  0.00    -0.355 A  
HETATM   13  C   UNL     1     -11.400  11.370  69.784  1.00  0.00    -0.332 A  
HETATM   14  C   UNL     1     -11.482  11.772  68.450  1.00  0.00    -0.294 A  
HETATM   15  H   UNL     1     -10.995  12.279  62.300  1.00  0.00     0.000 HD 
HETATM   16  C   UNL     1     -10.809  10.993  67.472  1.00  0.00    -0.314 A  
HETATM   17  C   UNL     1     -10.048   9.874  67.855  1.00  0.00    -0.210 A  
HETATM   18  C   UNL     1      -8.712   9.188  63.049  1.00  0.00    -0.168 A  
HETATM   19  O   UNL     1     -11.636  12.253  65.635  1.00  0.00    -0.359 OA 
HETATM   20  C   UNL     1      -8.641   8.798  64.388  1.00  0.00    -0.084 A  
HETATM   21  C   UNL     1      -9.205   9.171  66.841  1.00  0.00    -0.148 C  
HETATM   22  O   UNL     1      -8.344   8.380  67.212  1.00  0.00    -0.121 OA 
HETATM   23  C   UNL     1      -9.492  10.278  62.691  1.00  0.00    -0.309 A  
HETATM   24  C   UNL     1      -9.332   9.510  65.400  1.00  0.00    -0.324 A  
HETATM   25  O   UNL     1     -10.948  12.023  63.214  1.00  0.00    -0.388 OA 
HETATM   26  H   UNL     1      -7.405   7.238  64.020  1.00  0.00     0.000 HD 
HETATM   27  C   UNL     1     -10.132  10.589  65.025  1.00  0.00    -0.390 A  
HETATM   28  O   UNL     1      -7.868   7.716  64.698  1.00  0.00    -0.114 OA 
HETATM   29  C   UNL     1     -10.201  10.969  63.669  1.00  0.00    -0.372 A  
HETATM   30  C   UNL     1     -10.894  11.352  66.030  1.00  0.00    -0.249 C  
BRANCH  14  31
HETATM   31  N   UNL     1     -12.125  12.961  68.156  1.00  0.00    -0.236 NA 
HETATM   32  H   UNL     1     -12.658  13.024  67.288  1.00  0.00     0.000 HD 
BRANCH  31  33
HETATM   33  C   UNL     1     -12.077  14.126  69.028  1.00  0.00    -0.313 C  
BRANCH  33  34
HETATM   34  C   UNL     1     -10.623  14.570  69.263  1.00  0.00    -0.212 C  
BRANCH  34  35
HETATM   35  N   UNL     1     -10.037  15.150  68.046  1.00  0.00    -0.221 NA 
HETATM   36  H   UNL     1     -10.397  14.706  67.202  1.00  0.00     0.000 HD 
BRANCH  35  37
HETATM   37  C   UNL     1     -10.233  16.605  68.026  1.00  0.00    -0.280 C  
BRANCH  37  38
HETATM   38  C   UNL     1      -9.040  17.318  68.668  1.00  0.00    -0.260 C  
HETATM   39  O   UNL     1      -7.836  16.600  68.411  1.00  0.00    -0.184 OA 
HETATM   40  H   UNL     1      -7.095  17.042  68.810  1.00  0.00     0.000 HD 
ENDBRANCH  37  38
ENDBRANCH  35  37
ENDBRANCH  34  35
ENDBRANCH  33  34
ENDBRANCH  31  33
ENDBRANCH  14  31
ENDBRANCH   9  11
ENDBRANCH   8   9
ENDBRANCH   7   8
ENDBRANCH   5   7
ENDBRANCH   4   5
ENDBRANCH   3   4
TORSDOF 12
ENDMDL
MODEL      145
REMARK 921   NORMALIZED FREE ENERGY PREDICTED BY IDOCK:   -3.62 KCAL/MOL
REMARK 922        TOTAL FREE ENERGY PREDICTED BY IDOCK:   -8.43 KCAL/MOL
REMARK 923 INTER-LIGAND FREE ENERGY PREDICTED BY IDOCK:   -7.51 KCAL/MOL
REMARK 924 INTRA-LIGAND FREE ENERGY PREDICTED BY IDOCK:   -0.91 KCAL/MOL
REMARK 927      BINDING AFFINITY PREDICTED BY RF-SCORE:    0.00 PKD
ROOT
HETATM    1  O   UNL     1      -7.670   6.617  66.946  1.00  0.00    -0.102 OA 
HETATM    2  H   UNL     1      -7.517   5.755  66.577  1.00  0.00     0.000 HD 
HETATM    3  C   UNL     1      -7.056   7.616  66.134  1.00  0.00    -0.070 C  
ENDROOT
BRANCH   3   4
HETATM    4  C   UNL     1      -7.304   9.005  66.728  1.00  0.00    -0.086 C  
BRANCH   4   5
HETATM    5  N   UNL     1      -7.560   8.985  68.176  1.00  0.00    -0.091 NA 
HETATM    6  H   UNL     1      -7.419   8.053  68.564  1.00  0.00     0.000 HD 
BRANCH   5   7
HETATM    7  C   UNL     1      -6.758   9.988  68.889  1.00  0.00    -0.053 C  
BRANCH   7   8
HETATM    8  C   UNL     1      -6.422  11.166  67.966  1.00  0.00    -0.057 C  
BRANCH   8   9
HETATM    9  N   UNL     1      -7.187  12.345  68.331  1.00  0.00    -0.102 NA 
HETATM   10  H   UNL     1      -7.047  12.752  69.255  1.00  0.00     0.000 HD 
BRANCH   9  11
HETATM   11  C   UNL     1      -8.101  12.941  67.475  1.00  0.00    -0.181 A  
HETATM   12  C   UNL     1      -8.871  12.138  66.635  1.00  0.00    -0.182 A  
HETATM   13  C   UNL     1      -9.771  12.690  65.740  1.00  0.00    -0.183 A  
HETATM   14  C   UNL     1      -9.885  14.073  65.582  1.00  0.00    -0.228 A  
HETATM   15  H   UNL     1      -9.295  20.221  65.980  1.00  0.00     0.000 HD 
HETATM   16  C   UNL     1      -9.089  14.910  66.407  1.00  0.00    -0.293 A  
HETATM   17  C   UNL     1      -8.245  14.350  67.384  1.00  0.00    -0.215 A  
HETATM   18  C   UNL     1      -6.943  18.987  68.855  1.00  0.00    -0.357 A  
HETATM   19  O   UNL     1      -9.776  16.921  65.343  1.00  0.00    -0.506 OA 
HETATM   20  C   UNL     1      -6.839  17.601  69.000  1.00  0.00    -0.240 A  
HETATM   21  C   UNL     1      -7.551  15.244  68.360  1.00  0.00    -0.116 C  
HETATM   22  O   UNL     1      -7.040  14.762  69.366  1.00  0.00    -0.149 OA 
HETATM   23  C   UNL     1      -7.760  19.515  67.866  1.00  0.00    -0.324 A  
HETATM   24  C   UNL     1      -7.574  16.717  68.171  1.00  0.00    -0.177 A  
HETATM   25  O   UNL     1      -9.233  19.278  66.075  1.00  0.00    -0.430 OA 
HETATM   26  H   UNL     1      -5.527  17.714  70.537  1.00  0.00     0.000 HD 
HETATM   27  C   UNL     1      -8.373  17.260  67.165  1.00  0.00    -0.220 A  
HETATM   28  O   UNL     1      -6.020  17.122  69.981  1.00  0.00    -0.237 OA 
HETATM   29  C   UNL     1      -8.464  18.660  67.024  1.00  0.00    -0.271 A  
HETATM   30  C   UNL     1      -9.140  16.389  66.255  1.00  0.00    -0.327 C  
BRANCH  14  31
HETATM   31  N   UNL     1     -10.837  14.562  64.705  1.00  0.00    -0.519 NA 
HETATM   32  H   UNL     1     -10.532  14.883  63.786  1.00  0.00     0.000 HD 
BRANCH  31  33
HETATM   33  C   UNL     1     -12.253  14.640  65.035  1.00  0.00    -0.322 C  
BRANCH  33  34
HETATM   34  C   UNL     1     -12.522  14.045  66.428  1.00  0.00    -0.355 C  
BRANCH  34  35
HETATM   35  N   UNL     1     -12.533  15.089  67.462  1.00  0.00    -0.122 NA 
HETATM   36  H   UNL     1     -13.482  15.367  67.712  1.00  0.00     0.000 HD 
BRANCH  35  37
HETATM   37  C   UNL     1     -11.763  14.655  68.635  1.00  0.00    -0.329 C  
BRANCH  37  38
HETATM   38  C   UNL     1     -11.853  15.697  69.753  1.00  0.00    -0.363 C  
HETATM   39  O   UNL     1     -11.055  16.835  69.437  1.00  0.00    -0.305 OA 
HETATM   40  H   UNL     1     -11.110  17.482  70.131  1.00  0.00     0.000 HD 
ENDBRANCH  37  38
ENDBRANCH  35  37
ENDBRANCH  34  35
ENDBRANCH  33  34
ENDBRANCH  31  33
ENDBRANCH  14  31
ENDBRANCH   9  11
ENDBRANCH   8   9
ENDBRANCH   7   8
ENDBRANCH   5   7
ENDBRANCH   4   5
ENDBRANCH   3   4
TORSDOF 12
ENDMDL
MODEL      146
REMARK 921   NORMALIZED FREE ENERGY PREDICTED BY IDOCK:   -3.62 KCAL/MOL
REMARK 922        TOTAL FREE ENERGY PREDICTED BY IDOCK:   -8.41 KCAL/MOL
REMARK 923 INTER-LIGAND FREE ENERGY PREDICTED BY IDOCK:   -7.46 KCAL/MOL
REMARK 924 INTRA-LIGAND FREE ENERGY PREDICTED BY IDOCK:   -0.96 KCAL/MOL
REMARK 927      BINDING AFFINITY PREDICTED BY RF-SCORE:    0.00 PKD
ROOT
HETATM    1  O   UNL     1     -12.746  10.379  71.616  1.00  0.00    -0.400 OA 
HETATM    2  H   UNL     1     -13.429  11.004  71.407  1.00  0.00     0.000 HD 
HETATM    3  C   UNL     1     -13.321   9.139  72.023  1.00  0.00    -0.445 C  
ENDROOT
BRANCH   3   4
HETATM    4  C   UNL     1     -12.219   8.130  72.359  1.00  0.00    -0.319 C  
BRANCH   4   5
HETATM    5  N   UNL     1     -12.581   6.741  72.037  1.00  0.00    -0.522 NA 
HETATM    6  H   UNL     1     -13.271   6.703  71.287  1.00  0.00     0.000 HD 
BRANCH   5   7
HETATM    7  C   UNL     1     -11.400   5.926  71.721  1.00  0.00    -0.227 C  
BRANCH   7   8
HETATM    8  C   UNL     1     -10.369   6.751  70.941  1.00  0.00    -0.199 C  
BRANCH   8   9
HETATM    9  N   UNL     1     -10.662   6.736  69.519  1.00  0.00    -0.240 NA 
HETATM   10  H   UNL     1     -11.315   6.040  69.162  1.00  0.00     0.000 HD 
BRANCH   9  11
HETATM   11  C   UNL     1     -10.090   7.630  68.626  1.00  0.00    -0.190 A  
HETATM   12  C   UNL     1     -10.198   8.999  68.869  1.00  0.00    -0.223 A  
HETATM   13  C   UNL     1      -9.673   9.928  67.988  1.00  0.00    -0.160 A  
HETATM   14  C   UNL     1      -9.089   9.538  66.781  1.00  0.00    -0.146 A  
HETATM   15  H   UNL     1      -6.851   6.390  61.945  1.00  0.00     0.000 HD 
HETATM   16  C   UNL     1      -8.994   8.151  66.499  1.00  0.00    -0.191 A  
HETATM   17  C   UNL     1      -9.440   7.202  67.438  1.00  0.00    -0.156 A  
HETATM   18  C   UNL     1      -7.890   3.511  64.385  1.00  0.00    -0.085 A  
HETATM   19  O   UNL     1      -8.117   8.468  64.314  1.00  0.00    -0.146 OA 
HETATM   20  C   UNL     1      -8.473   3.917  65.587  1.00  0.00    -0.110 A  
HETATM   21  C   UNL     1      -9.173   5.751  67.206  1.00  0.00    -0.110 C  
HETATM   22  O   UNL     1      -9.311   4.954  68.128  1.00  0.00    -0.118 OA 
HETATM   23  C   UNL     1      -7.484   4.463  63.461  1.00  0.00    -0.055 A  
HETATM   24  C   UNL     1      -8.637   5.289  65.899  1.00  0.00    -0.128 A  
HETATM   25  O   UNL     1      -7.242   6.675  62.762  1.00  0.00    -0.053 OA 
HETATM   26  H   UNL     1      -8.755   2.028  66.256  1.00  0.00     0.000 HD 
HETATM   27  C   UNL     1      -8.247   6.237  64.953  1.00  0.00    -0.119 A  
HETATM   28  O   UNL     1      -8.865   2.948  66.465  1.00  0.00    -0.131 OA 
HETATM   29  C   UNL     1      -7.666   5.814  63.740  1.00  0.00    -0.097 A  
HETATM   30  C   UNL     1      -8.417   7.679  65.211  1.00  0.00    -0.076 C  
BRANCH  14  31
HETATM   31  N   UNL     1      -8.541  10.513  65.966  1.00  0.00    -0.154 NA 
HETATM   32  H   UNL     1      -7.558  10.431  65.703  1.00  0.00     0.000 HD 
BRANCH  31  33
HETATM   33  C   UNL     1      -9.302  11.650  65.468  1.00  0.00    -0.156 C  
BRANCH  33  34
HETATM   34  C   UNL     1     -10.522  11.177  64.660  1.00  0.00    -0.335 C  
BRANCH  34  35
HETATM   35  N   UNL     1     -11.671  12.074  64.853  1.00  0.00    -0.298 NA 
HETATM   36  H   UNL     1     -11.803  12.318  65.834  1.00  0.00     0.000 HD 
BRANCH  35  37
HETATM   37  C   UNL     1     -11.538  13.266  64.005  1.00  0.00    -0.409 C  
BRANCH  37  38
HETATM   38  C   UNL     1     -12.099  14.498  64.718  1.00  0.00    -0.445 C  
HETATM   39  O   UNL     1     -12.183  15.599  63.817  1.00  0.00    -1.014 OA 
HETATM   40  H   UNL     1     -12.531  16.365  64.259  1.00  0.00     0.000 HD 
ENDBRANCH  37  38
ENDBRANCH  35  37
ENDBRANCH  34  35
ENDBRANCH  33  34
ENDBRANCH  31  33
ENDBRANCH  14  31
ENDBRANCH   9  11
ENDBRANCH   8   9
ENDBRANCH   7   8
ENDBRANCH   5   7
ENDBRANCH   4   5
ENDBRANCH   3   4
TORSDOF 12
ENDMDL
MODEL      147
REMARK 921   NORMALIZED FREE ENERGY PREDICTED BY IDOCK:   -3.57 KCAL/MOL
REMARK 922        TOTAL FREE ENERGY PREDICTED BY IDOCK:   -8.34 KCAL/MOL
REMARK 923 INTER-LIGAND FREE ENERGY PREDICTED BY IDOCK:   -7.56 KCAL/MOL
REMARK 924 INTRA-LIGAND FREE ENERGY PREDICTED BY IDOCK:   -0.78 KCAL/MOL
REMARK 927      BINDING AFFINITY PREDICTED BY RF-SCORE:    0.00 PKD
ROOT
HETATM    1  O   UNL     1      -8.848  16.791  65.778  1.00  0.00    -0.505 OA 
HETATM    2  H   UNL     1      -8.799  17.676  66.119  1.00  0.00     0.000 HD 
HETATM    3  C   UNL     1     -10.210  16.400  65.619  1.00  0.00    -0.324 C  
ENDROOT
BRANCH   3   4
HETATM    4  C   UNL     1     -10.290  14.972  65.070  1.00  0.00    -0.357 C  
BRANCH   4   5
HETATM    5  N   UNL     1     -10.794  13.998  66.049  1.00  0.00    -0.292 NA 
HETATM    6  H   UNL     1     -11.115  14.459  66.900  1.00  0.00     0.000 HD 
BRANCH   5   7
HETATM    7  C   UNL     1     -11.842  13.140  65.479  1.00  0.00    -0.380 C  
BRANCH   7   8
HETATM    8  C   UNL     1     -11.608  11.674  65.865  1.00  0.00    -0.020 C  
BRANCH   8   9
HETATM    9  N   UNL     1     -10.336  11.514  66.546  1.00  0.00    -0.224 NA 
HETATM   10  H   UNL     1      -9.804  12.350  66.791  1.00  0.00     0.000 HD 
BRANCH   9  11
HETATM   11  C   UNL     1      -9.813  10.274  66.879  1.00  0.00    -0.197 A  
HETATM   12  C   UNL     1      -8.947   9.639  65.989  1.00  0.00    -0.195 A  
HETATM   13  C   UNL     1      -8.428   8.385  66.264  1.00  0.00    -0.132 A  
HETATM   14  C   UNL     1      -8.814   7.670  67.399  1.00  0.00    -0.124 A  
HETATM   15  H   UNL     1     -11.387   5.762  72.695  1.00  0.00     0.000 HD 
HETATM   16  C   UNL     1      -9.717   8.286  68.305  1.00  0.00    -0.173 A  
HETATM   17  C   UNL     1     -10.169   9.598  68.076  1.00  0.00    -0.235 A  
HETATM   18  C   UNL     1     -12.735   9.425  72.405  1.00  0.00    -0.350 A  
HETATM   19  O   UNL     1      -9.915   6.370  69.696  1.00  0.00    -0.159 OA 
HETATM   20  C   UNL     1     -12.341  10.127  71.264  1.00  0.00    -0.400 A  
HETATM   21  C   UNL     1     -10.975  10.295  69.124  1.00  0.00    -0.238 C  
HETATM   22  O   UNL     1     -11.140  11.509  69.054  1.00  0.00    -0.215 OA 
HETATM   23  C   UNL     1     -12.299   8.122  72.596  1.00  0.00    -0.222 A  
HETATM   24  C   UNL     1     -11.480   9.543  70.301  1.00  0.00    -0.256 A  
HETATM   25  O   UNL     1     -11.111   6.234  71.918  1.00  0.00    -0.244 OA 
HETATM   26  H   UNL     1     -13.374  11.796  71.755  1.00  0.00     0.000 HD 
HETATM   27  C   UNL     1     -11.068   8.224  70.492  1.00  0.00    -0.259 A  
HETATM   28  O   UNL     1     -12.797  11.405  71.111  1.00  0.00    -0.380 OA 
HETATM   29  C   UNL     1     -11.478   7.524  71.645  1.00  0.00    -0.261 A  
HETATM   30  C   UNL     1     -10.193   7.556  69.511  1.00  0.00    -0.207 C  
BRANCH  14  31
HETATM   31  N   UNL     1      -8.223   6.443  67.640  1.00  0.00    -0.117 NA 
HETATM   32  H   UNL     1      -7.642   6.337  68.472  1.00  0.00     0.000 HD 
BRANCH  31  33
HETATM   33  C   UNL     1      -8.393   5.295  66.761  1.00  0.00    -0.108 C  
BRANCH  33  34
HETATM   34  C   UNL     1      -9.880   5.069  66.440  1.00  0.00    -0.201 C  
BRANCH  34  35
HETATM   35  N   UNL     1     -10.160   3.652  66.169  1.00  0.00    -0.390 NA 
HETATM   36  H   UNL     1     -10.924   3.535  65.504  1.00  0.00     0.000 HD 
BRANCH  35  37
HETATM   37  C   UNL     1      -8.940   2.965  65.726  1.00  0.00    -0.144 C  
BRANCH  37  38
HETATM   38  C   UNL     1      -9.279   1.856  64.727  1.00  0.00    -0.124 C  
HETATM   39  O   UNL     1     -10.013   2.387  63.626  1.00  0.00    -0.131 OA 
HETATM   40  H   UNL     1     -10.224   1.699  63.005  1.00  0.00     0.000 HD 
ENDBRANCH  37  38
ENDBRANCH  35  37
ENDBRANCH  34  35
ENDBRANCH  33  34
ENDBRANCH  31  33
ENDBRANCH  14  31
ENDBRANCH   9  11
ENDBRANCH   8   9
ENDBRANCH   7   8
ENDBRANCH   5   7
ENDBRANCH   4   5
ENDBRANCH   3   4
TORSDOF 12
ENDMDL
MODEL      148
REMARK 921   NORMALIZED FREE ENERGY PREDICTED BY IDOCK:   -3.54 KCAL/MOL
REMARK 922        TOTAL FREE ENERGY PREDICTED BY IDOCK:   -8.28 KCAL/MOL
REMARK 923 INTER-LIGAND FREE ENERGY PREDICTED BY IDOCK:   -6.90 KCAL/MOL
REMARK 924 INTRA-LIGAND FREE ENERGY PREDICTED BY IDOCK:   -1.38 KCAL/MOL
REMARK 927      BINDING AFFINITY PREDICTED BY RF-SCORE:    0.00 PKD
ROOT
HETATM    1  O   UNL     1      -6.022   6.362  65.014  1.00  0.00    -0.028 OA 
HETATM    2  H   UNL     1      -5.223   6.093  64.577  1.00  0.00     0.000 HD 
HETATM    3  C   UNL     1      -6.744   7.281  64.198  1.00  0.00    -0.047 C  
ENDROOT
BRANCH   3   4
HETATM    4  C   UNL     1      -8.033   7.715  64.903  1.00  0.00    -0.135 C  
BRANCH   4   5
HETATM    5  N   UNL     1      -8.190   9.175  64.985  1.00  0.00    -0.140 NA 
HETATM    6  H   UNL     1      -7.470   9.656  64.447  1.00  0.00     0.000 HD 
BRANCH   5   7
HETATM    7  C   UNL     1      -9.536   9.606  64.582  1.00  0.00    -0.152 C  
BRANCH   7   8
HETATM    8  C   UNL     1      -9.559  11.114  64.306  1.00  0.00    -0.252 C  
BRANCH   8   9
HETATM    9  N   UNL     1     -10.166  11.834  65.410  1.00  0.00    -0.251 NA 
HETATM   10  H   UNL     1     -11.183  11.899  65.451  1.00  0.00     0.000 HD 
BRANCH   9  11
HETATM   11  C   UNL     1      -9.421  12.437  66.413  1.00  0.00    -0.240 A  
HETATM   12  C   UNL     1      -8.673  11.640  67.279  1.00  0.00    -0.159 A  
HETATM   13  C   UNL     1      -7.942  12.195  68.315  1.00  0.00    -0.163 A  
HETATM   14  C   UNL     1      -7.989  13.564  68.587  1.00  0.00    -0.073 A  
HETATM   15  H   UNL     1      -9.157  19.642  68.577  1.00  0.00     0.000 HD 
HETATM   16  C   UNL     1      -8.768  14.391  67.736  1.00  0.00    -0.180 A  
HETATM   17  C   UNL     1      -9.433  13.841  66.625  1.00  0.00    -0.289 A  
HETATM   18  C   UNL     1     -11.027  18.445  65.354  1.00  0.00     0.458 A  
HETATM   19  O   UNL     1      -8.416  16.358  69.021  1.00  0.00    -0.239 OA 
HETATM   20  C   UNL     1     -10.972  17.074  65.095  1.00  0.00    -0.010 A  
HETATM   21  C   UNL     1     -10.100  14.746  65.641  1.00  0.00    -0.366 C  
HETATM   22  O   UNL     1     -10.441  14.307  64.547  1.00  0.00    -0.381 OA 
HETATM   23  C   UNL     1     -10.387  18.960  66.471  1.00  0.00    -0.493 A  
HETATM   24  C   UNL     1     -10.250  16.194  65.939  1.00  0.00    -0.381 A  
HETATM   25  O   UNL     1      -9.111  18.709  68.406  1.00  0.00    -0.307 OA 
HETATM   26  H   UNL     1     -12.105  17.195  63.423  1.00  0.00     0.000 HD 
HETATM   27  C   UNL     1      -9.630  16.721  67.073  1.00  0.00    -0.244 A  
HETATM   28  O   UNL     1     -11.621  16.606  63.989  1.00  0.00    -1.197 OA 
HETATM   29  C   UNL     1      -9.700  18.106  67.327  1.00  0.00    -0.297 A  
HETATM   30  C   UNL     1      -8.886  15.850  68.002  1.00  0.00    -0.178 C  
BRANCH  14  31
HETATM   31  N   UNL     1      -7.198  14.062  69.607  1.00  0.00    -0.344 NA 
HETATM   32  H   UNL     1      -7.646  14.327  70.485  1.00  0.00     0.000 HD 
BRANCH  31  33
HETATM   33  C   UNL     1      -5.757  14.227  69.484  1.00  0.00    -0.096 C  
BRANCH  33  34
HETATM   34  C   UNL     1      -5.392  14.843  68.123  1.00  0.00    -0.120 C  
BRANCH  34  35
HETATM   35  N   UNL     1      -5.466  16.311  68.163  1.00  0.00    -0.098 NA 
HETATM   36  H   UNL     1      -4.863  16.702  68.887  1.00  0.00     0.000 HD 
BRANCH  35  37
HETATM   37  C   UNL     1      -5.168  16.875  66.840  1.00  0.00    -0.127 C  
BRANCH  37  38
HETATM   38  C   UNL     1      -6.123  18.027  66.520  1.00  0.00    -0.179 C  
HETATM   39  O   UNL     1      -6.147  18.966  67.592  1.00  0.00    -0.195 OA 
HETATM   40  H   UNL     1      -6.740  19.681  67.394  1.00  0.00     0.000 HD 
ENDBRANCH  37  38
ENDBRANCH  35  37
ENDBRANCH  34  35
ENDBRANCH  33  34
ENDBRANCH  31  33
ENDBRANCH  14  31
ENDBRANCH   9  11
ENDBRANCH   8   9
ENDBRANCH   7   8
ENDBRANCH   5   7
ENDBRANCH   4   5
ENDBRANCH   3   4
TORSDOF 12
ENDMDL
MODEL      149
REMARK 921   NORMALIZED FREE ENERGY PREDICTED BY IDOCK:   -3.51 KCAL/MOL
REMARK 922        TOTAL FREE ENERGY PREDICTED BY IDOCK:   -8.24 KCAL/MOL
REMARK 923 INTER-LIGAND FREE ENERGY PREDICTED BY IDOCK:   -7.56 KCAL/MOL
REMARK 924 INTRA-LIGAND FREE ENERGY PREDICTED BY IDOCK:   -0.68 KCAL/MOL
REMARK 927      BINDING AFFINITY PREDICTED BY RF-SCORE:    0.00 PKD
ROOT
HETATM    1  O   UNL     1      -7.280   9.108  71.940  1.00  0.00    -0.324 OA 
HETATM    2  H   UNL     1      -6.546   8.562  72.193  1.00  0.00     0.000 HD 
HETATM    3  C   UNL     1      -7.621   8.875  70.576  1.00  0.00    -0.093 C  
ENDROOT
BRANCH   3   4
HETATM    4  C   UNL     1      -8.805   9.756  70.168  1.00  0.00    -0.188 C  
BRANCH   4   5
HETATM    5  N   UNL     1     -10.085   9.032  70.127  1.00  0.00    -0.183 NA 
HETATM    6  H   UNL     1     -10.856   9.626  70.431  1.00  0.00     0.000 HD 
BRANCH   5   7
HETATM    7  C   UNL     1     -10.346   8.454  68.802  1.00  0.00    -0.206 C  
BRANCH   7   8
HETATM    8  C   UNL     1      -9.750   9.339  67.700  1.00  0.00    -0.157 C  
BRANCH   8   9
HETATM    9  N   UNL     1     -10.640  10.441  67.382  1.00  0.00    -0.250 NA 
HETATM   10  H   UNL     1     -11.589  10.229  67.074  1.00  0.00     0.000 HD 
BRANCH   9  11
HETATM   11  C   UNL     1     -10.254  11.770  67.478  1.00  0.00    -0.195 A  
HETATM   12  C   UNL     1      -9.307  12.270  66.586  1.00  0.00    -0.228 A  
HETATM   13  C   UNL     1      -8.867  13.580  66.666  1.00  0.00    -0.080 A  
HETATM   14  C   UNL     1      -9.288  14.428  67.692  1.00  0.00    -0.200 A  
HETATM   15  H   UNL     1     -11.974  16.943  72.669  1.00  0.00     0.000 HD 
HETATM   16  C   UNL     1     -10.231  13.930  68.629  1.00  0.00    -0.218 A  
HETATM   17  C   UNL     1     -10.752  12.631  68.491  1.00  0.00    -0.271 A  
HETATM   18  C   UNL     1     -13.693  13.430  72.500  1.00  0.00    -0.636 A  
HETATM   19  O   UNL     1     -10.177  15.876  69.992  1.00  0.00    -0.279 OA 
HETATM   20  C   UNL     1     -13.260  12.593  71.469  1.00  0.00    -0.221 A  
HETATM   21  C   UNL     1     -11.871  12.186  69.377  1.00  0.00    -0.309 C  
HETATM   22  O   UNL     1     -12.504  11.174  69.091  1.00  0.00    -0.418 OA 
HETATM   23  C   UNL     1     -13.144  14.697  72.633  1.00  0.00    -0.549 A  
HETATM   24  C   UNL     1     -12.285  13.020  70.534  1.00  0.00    -0.392 A  
HETATM   25  O   UNL     1     -11.678  16.381  71.962  1.00  0.00    -0.499 OA 
HETATM   26  H   UNL     1     -14.474  11.064  72.003  1.00  0.00     0.000 HD 
HETATM   27  C   UNL     1     -11.723  14.287  70.693  1.00  0.00    -0.287 A  
HETATM   28  O   UNL     1     -13.820  11.351  71.377  1.00  0.00     0.520 OA 
HETATM   29  C   UNL     1     -12.163  15.120  71.741  1.00  0.00    -0.355 A  
HETATM   30  C   UNL     1     -10.686  14.776  69.765  1.00  0.00    -0.154 C  
BRANCH  14  31
HETATM   31  N   UNL     1      -8.848  15.740  67.688  1.00  0.00    -0.174 NA 
HETATM   32  H   UNL     1      -9.514  16.476  67.452  1.00  0.00     0.000 HD 
BRANCH  31  33
HETATM   33  C   UNL     1      -7.478  16.117  68.007  1.00  0.00    -0.132 C  
BRANCH  33  34
HETATM   34  C   UNL     1      -7.450  17.397  68.859  1.00  0.00    -0.235 C  
BRANCH  34  35
HETATM   35  N   UNL     1      -7.667  18.594  68.033  1.00  0.00    -0.256 NA 
HETATM   36  H   UNL     1      -8.627  18.933  68.100  1.00  0.00     0.000 HD 
BRANCH  35  37
HETATM   37  C   UNL     1      -6.693  19.638  68.378  1.00  0.00    -0.288 C  
BRANCH  37  38
HETATM   38  C   UNL     1      -5.285  19.225  67.942  1.00  0.00    -0.171 C  
HETATM   39  O   UNL     1      -5.353  18.236  66.917  1.00  0.00    -0.132 OA 
HETATM   40  H   UNL     1      -4.479  17.979  66.646  1.00  0.00     0.000 HD 
ENDBRANCH  37  38
ENDBRANCH  35  37
ENDBRANCH  34  35
ENDBRANCH  33  34
ENDBRANCH  31  33
ENDBRANCH  14  31
ENDBRANCH   9  11
ENDBRANCH   8   9
ENDBRANCH   7   8
ENDBRANCH   5   7
ENDBRANCH   4   5
ENDBRANCH   3   4
TORSDOF 12
ENDMDL
MODEL      150
REMARK 921   NORMALIZED FREE ENERGY PREDICTED BY IDOCK:   -3.51 KCAL/MOL
REMARK 922        TOTAL FREE ENERGY PREDICTED BY IDOCK:   -8.23 KCAL/MOL
REMARK 923 INTER-LIGAND FREE ENERGY PREDICTED BY IDOCK:   -6.69 KCAL/MOL
REMARK 924 INTRA-LIGAND FREE ENERGY PREDICTED BY IDOCK:   -1.54 KCAL/MOL
REMARK 927      BINDING AFFINITY PREDICTED BY RF-SCORE:    0.00 PKD
ROOT
HETATM    1  O   UNL     1      -5.881   8.313  69.544  1.00  0.00    -0.029 OA 
HETATM    2  H   UNL     1      -5.582   7.437  69.757  1.00  0.00     0.000 HD 
HETATM    3  C   UNL     1      -5.697   8.571  68.154  1.00  0.00    -0.035 C  
ENDROOT
BRANCH   3   4
HETATM    4  C   UNL     1      -6.179   9.984  67.811  1.00  0.00    -0.054 C  
BRANCH   4   5
HETATM    5  N   UNL     1      -7.143  10.018  66.700  1.00  0.00    -0.089 NA 
HETATM    6  H   UNL     1      -7.009  10.846  66.119  1.00  0.00     0.000 HD 
BRANCH   5   7
HETATM    7  C   UNL     1      -7.099   8.789  65.897  1.00  0.00    -0.084 C  
BRANCH   7   8
HETATM    8  C   UNL     1      -8.288   8.734  64.930  1.00  0.00    -0.170 C  
BRANCH   8   9
HETATM    9  N   UNL     1      -9.541   8.919  65.640  1.00  0.00    -0.453 NA 
HETATM   10  H   UNL     1     -10.221   9.581  65.266  1.00  0.00     0.000 HD 
BRANCH   9  11
HETATM   11  C   UNL     1      -9.853   8.232  66.804  1.00  0.00    -0.263 A  
HETATM   12  C   UNL     1      -9.622   6.858  66.866  1.00  0.00    -0.205 A  
HETATM   13  C   UNL     1      -9.950   6.126  67.995  1.00  0.00    -0.156 A  
HETATM   14  C   UNL     1     -10.599   6.715  69.081  1.00  0.00    -0.244 A  
HETATM   15  H   UNL     1     -13.377  10.597  73.021  1.00  0.00     0.000 HD 
HETATM   16  C   UNL     1     -10.870   8.107  69.027  1.00  0.00    -0.014 A  
HETATM   17  C   UNL     1     -10.451   8.870  67.922  1.00  0.00    -0.281 A  
HETATM   18  C   UNL     1     -12.247  13.011  70.154  1.00  0.00    -0.342 A  
HETATM   19  O   UNL     1     -12.078   8.137  71.073  1.00  0.00    -0.286 OA 
HETATM   20  C   UNL     1     -11.600  12.408  69.073  1.00  0.00    -0.311 A  
HETATM   21  C   UNL     1     -10.584  10.358  67.959  1.00  0.00    -0.221 C  
HETATM   22  O   UNL     1      -9.985  11.041  67.134  1.00  0.00    -0.181 OA 
HETATM   23  C   UNL     1     -12.677  12.234  71.219  1.00  0.00    -0.351 A  
HETATM   24  C   UNL     1     -11.347  11.013  69.052  1.00  0.00    -0.345 A  
HETATM   25  O   UNL     1     -12.933  10.179  72.292  1.00  0.00    -0.381 OA 
HETATM   26  H   UNL     1     -11.369  14.141  68.055  1.00  0.00     0.000 HD 
HETATM   27  C   UNL     1     -11.806  10.239  70.118  1.00  0.00    -0.343 A  
HETATM   28  O   UNL     1     -11.199  13.207  68.042  1.00  0.00    -0.251 OA 
HETATM   29  C   UNL     1     -12.464  10.859  71.200  1.00  0.00    -0.405 A  
HETATM   30  C   UNL     1     -11.594   8.780  70.139  1.00  0.00     0.065 C  
BRANCH  14  31
HETATM   31  N   UNL     1     -10.856   5.939  70.198  1.00  0.00    -0.318 NA 
HETATM   32  H   UNL     1     -11.686   6.146  70.754  1.00  0.00     0.000 HD 
BRANCH  31  33
HETATM   33  C   UNL     1      -9.996   4.840  70.615  1.00  0.00    -0.230 C  
BRANCH  33  34
HETATM   34  C   UNL     1      -9.070   5.278  71.762  1.00  0.00    -0.138 C  
BRANCH  34  35
HETATM   35  N   UNL     1      -8.027   6.198  71.287  1.00  0.00    -0.111 NA 
HETATM   36  H   UNL     1      -8.135   6.417  70.296  1.00  0.00     0.000 HD 
BRANCH  35  37
HETATM   37  C   UNL     1      -7.998   7.411  72.115  1.00  0.00    -0.093 C  
BRANCH  37  38
HETATM   38  C   UNL     1      -9.032   7.318  73.240  1.00  0.00    -0.152 C  
HETATM   39  O   UNL     1      -8.930   8.447  74.104  1.00  0.00    -0.219 OA 
HETATM   40  H   UNL     1      -9.571   8.390  74.803  1.00  0.00     0.000 HD 
ENDBRANCH  37  38
ENDBRANCH  35  37
ENDBRANCH  34  35
ENDBRANCH  33  34
ENDBRANCH  31  33
ENDBRANCH  14  31
ENDBRANCH   9  11
ENDBRANCH   8   9
ENDBRANCH   7   8
ENDBRANCH   5   7
ENDBRANCH   4   5
ENDBRANCH   3   4
TORSDOF 12
ENDMDL
MODEL      151
REMARK 921   NORMALIZED FREE ENERGY PREDICTED BY IDOCK:   -3.47 KCAL/MOL
REMARK 922        TOTAL FREE ENERGY PREDICTED BY IDOCK:   -8.17 KCAL/MOL
REMARK 923 INTER-LIGAND FREE ENERGY PREDICTED BY IDOCK:   -7.33 KCAL/MOL
REMARK 924 INTRA-LIGAND FREE ENERGY PREDICTED BY IDOCK:   -0.84 KCAL/MOL
REMARK 927      BINDING AFFINITY PREDICTED BY RF-SCORE:    0.00 PKD
ROOT
HETATM    1  O   UNL     1     -12.319  14.824  71.980  1.00  0.00    -0.329 OA 
HETATM    2  H   UNL     1     -12.014  15.655  72.326  1.00  0.00     0.000 HD 
HETATM    3  C   UNL     1     -13.427  14.350  72.740  1.00  0.00    -0.485 C  
ENDROOT
BRANCH   3   4
HETATM    4  C   UNL     1     -13.919  13.012  72.181  1.00  0.00    -0.243 C  
BRANCH   4   5
HETATM    5  N   UNL     1     -12.864  11.992  72.096  1.00  0.00    -0.161 NA 
HETATM    6  H   UNL     1     -12.288  11.982  72.938  1.00  0.00     0.000 HD 
BRANCH   5   7
HETATM    7  C   UNL     1     -13.411  10.659  71.807  1.00  0.00    -0.334 C  
BRANCH   7   8
HETATM    8  C   UNL     1     -12.592   9.966  70.711  1.00  0.00    -0.241 C  
BRANCH   8   9
HETATM    9  N   UNL     1     -11.312  10.625  70.525  1.00  0.00    -0.401 NA 
HETATM   10  H   UNL     1     -10.695  10.730  71.330  1.00  0.00     0.000 HD 
BRANCH   9  11
HETATM   11  C   UNL     1     -10.893  11.119  69.298  1.00  0.00    -0.229 A  
HETATM   12  C   UNL     1     -11.678  12.065  68.641  1.00  0.00    -0.380 A  
HETATM   13  C   UNL     1     -11.317  12.560  67.400  1.00  0.00    -0.371 A  
HETATM   14  C   UNL     1     -10.200  12.072  66.718  1.00  0.00    -0.202 A  
HETATM   15  H   UNL     1      -5.110   9.021  64.959  1.00  0.00     0.000 HD 
HETATM   16  C   UNL     1      -9.403  11.087  67.356  1.00  0.00    -0.165 A  
HETATM   17  C   UNL     1      -9.714  10.654  68.658  1.00  0.00    -0.178 A  
HETATM   18  C   UNL     1      -5.640   7.695  68.604  1.00  0.00    -0.027 A  
HETATM   19  O   UNL     1      -7.976  10.766  65.483  1.00  0.00    -0.145 OA 
HETATM   20  C   UNL     1      -6.761   8.192  69.273  1.00  0.00    -0.040 A  
HETATM   21  C   UNL     1      -8.768   9.752  69.383  1.00  0.00    -0.174 C  
HETATM   22  O   UNL     1      -8.891   9.590  70.593  1.00  0.00    -0.230 OA 
HETATM   23  C   UNL     1      -5.369   8.115  67.310  1.00  0.00    -0.037 A  
HETATM   24  C   UNL     1      -7.620   9.141  68.665  1.00  0.00    -0.084 A  
HETATM   25  O   UNL     1      -5.872   9.368  65.409  1.00  0.00    -0.056 OA 
HETATM   26  H   UNL     1      -6.420   7.112  70.950  1.00  0.00     0.000 HD 
HETATM   27  C   UNL     1      -7.351   9.537  67.354  1.00  0.00    -0.087 A  
HETATM   28  O   UNL     1      -6.996   7.748  70.542  1.00  0.00    -0.046 OA 
HETATM   29  C   UNL     1      -6.220   9.023  66.688  1.00  0.00    -0.061 A  
HETATM   30  C   UNL     1      -8.224  10.502  66.661  1.00  0.00    -0.129 C  
BRANCH  14  31
HETATM   31  N   UNL     1      -9.867  12.642  65.502  1.00  0.00    -0.396 NA 
HETATM   32  H   UNL     1      -8.934  12.472  65.125  1.00  0.00     0.000 HD 
BRANCH  31  33
HETATM   33  C   UNL     1     -10.786  13.473  64.737  1.00  0.00    -0.401 C  
BRANCH  33  34
HETATM   34  C   UNL     1     -10.538  14.964  65.022  1.00  0.00    -0.422 C  
BRANCH  34  35
HETATM   35  N   UNL     1      -9.317  15.161  65.818  1.00  0.00    -0.459 NA 
HETATM   36  H   UNL     1      -8.522  15.422  65.235  1.00  0.00     0.000 HD 
BRANCH  35  37
HETATM   37  C   UNL     1      -9.556  16.138  66.887  1.00  0.00    -0.230 C  
BRANCH  37  38
HETATM   38  C   UNL     1      -8.783  17.431  66.617  1.00  0.00    -0.260 C  
HETATM   39  O   UNL     1      -9.683  18.524  66.453  1.00  0.00    -0.325 OA 
HETATM   40  H   UNL     1      -9.204  19.327  66.285  1.00  0.00     0.000 HD 
ENDBRANCH  37  38
ENDBRANCH  35  37
ENDBRANCH  34  35
ENDBRANCH  33  34
ENDBRANCH  31  33
ENDBRANCH  14  31
ENDBRANCH   9  11
ENDBRANCH   8   9
ENDBRANCH   7   8
ENDBRANCH   5   7
ENDBRANCH   4   5
ENDBRANCH   3   4
TORSDOF 12
ENDMDL
MODEL      152
REMARK 921   NORMALIZED FREE ENERGY PREDICTED BY IDOCK:   -3.47 KCAL/MOL
REMARK 922        TOTAL FREE ENERGY PREDICTED BY IDOCK:   -8.16 KCAL/MOL
REMARK 923 INTER-LIGAND FREE ENERGY PREDICTED BY IDOCK:   -5.87 KCAL/MOL
REMARK 924 INTRA-LIGAND FREE ENERGY PREDICTED BY IDOCK:   -2.29 KCAL/MOL
REMARK 927      BINDING AFFINITY PREDICTED BY RF-SCORE:    0.00 PKD
ROOT
HETATM    1  O   UNL     1      -7.157   9.562  69.141  1.00  0.00    -0.059 OA 
HETATM    2  H   UNL     1      -6.941   8.710  69.499  1.00  0.00     0.000 HD 
HETATM    3  C   UNL     1      -6.430   9.790  67.936  1.00  0.00    -0.060 C  
ENDROOT
BRANCH   3   4
HETATM    4  C   UNL     1      -6.779  11.165  67.359  1.00  0.00    -0.084 C  
BRANCH   4   5
HETATM    5  N   UNL     1      -7.846  11.120  66.348  1.00  0.00    -0.210 NA 
HETATM    6  H   UNL     1      -8.050  12.051  65.984  1.00  0.00     0.000 HD 
BRANCH   5   7
HETATM    7  C   UNL     1      -7.536  10.179  65.264  1.00  0.00    -0.145 C  
BRANCH   7   8
HETATM    8  C   UNL     1      -8.814   9.773  64.520  1.00  0.00    -0.216 C  
BRANCH   8   9
HETATM    9  N   UNL     1      -9.747   9.114  65.416  1.00  0.00    -0.457 NA 
HETATM   10  H   UNL     1     -10.689   9.494  65.506  1.00  0.00     0.000 HD 
BRANCH   9  11
HETATM   11  C   UNL     1      -9.412   7.988  66.153  1.00  0.00    -0.122 A  
HETATM   12  C   UNL     1      -8.739   6.939  65.527  1.00  0.00    -0.041 A  
HETATM   13  C   UNL     1      -8.415   5.783  66.215  1.00  0.00    -0.126 A  
HETATM   14  C   UNL     1      -8.819   5.584  67.536  1.00  0.00    -0.105 A  
HETATM   15  H   UNL     1     -11.230   6.110  73.212  1.00  0.00     0.000 HD 
HETATM   16  C   UNL     1      -9.530   6.627  68.185  1.00  0.00    -0.115 A  
HETATM   17  C   UNL     1      -9.776   7.841  67.518  1.00  0.00    -0.201 A  
HETATM   18  C   UNL     1     -11.971   9.634  71.679  1.00  0.00    -0.470 A  
HETATM   19  O   UNL     1      -9.928   5.373  70.164  1.00  0.00    -0.194 OA 
HETATM   20  C   UNL     1     -11.562   9.818  70.357  1.00  0.00    -0.258 A  
HETATM   21  C   UNL     1     -10.366   8.990  68.269  1.00  0.00    -0.209 C  
HETATM   22  O   UNL     1     -10.333  10.115  67.780  1.00  0.00    -0.182 OA 
HETATM   23  C   UNL     1     -11.743   8.418  72.307  1.00  0.00    -0.453 A  
HETATM   24  C   UNL     1     -10.891   8.793  69.645  1.00  0.00    -0.175 A  
HETATM   25  O   UNL     1     -10.944   6.228  72.314  1.00  0.00    -0.234 OA 
HETATM   26  H   UNL     1     -12.260  11.714  70.250  1.00  0.00     0.000 HD 
HETATM   27  C   UNL     1     -10.689   7.566  70.279  1.00  0.00    -0.247 A  
HETATM   28  O   UNL     1     -11.811  11.027  69.773  1.00  0.00    -0.286 OA 
HETATM   29  C   UNL     1     -11.114   7.391  71.611  1.00  0.00    -0.236 A  
HETATM   30  C   UNL     1     -10.020   6.454  69.579  1.00  0.00    -0.162 C  
BRANCH  14  31
HETATM   31  N   UNL     1      -8.421   4.426  68.182  1.00  0.00    -0.093 NA 
HETATM   32  H   UNL     1      -7.902   4.510  69.056  1.00  0.00     0.000 HD 
BRANCH  31  33
HETATM   33  C   UNL     1      -8.711   3.094  67.671  1.00  0.00    -0.119 C  
BRANCH  33  34
HETATM   34  C   UNL     1      -9.314   2.207  68.774  1.00  0.00    -0.158 C  
BRANCH  34  35
HETATM   35  N   UNL     1      -8.755   2.538  70.092  1.00  0.00    -0.062 NA 
HETATM   36  H   UNL     1      -8.957   3.502  70.360  1.00  0.00     0.000 HD 
BRANCH  35  37
HETATM   37  C   UNL     1      -9.223   1.580  71.102  1.00  0.00    -0.090 C  
BRANCH  37  38
HETATM   38  C   UNL     1     -10.040   2.293  72.182  1.00  0.00    -0.153 C  
HETATM   39  O   UNL     1      -9.782   3.694  72.157  1.00  0.00    -0.144 OA 
HETATM   40  H   UNL     1     -10.289   4.137  72.828  1.00  0.00     0.000 HD 
ENDBRANCH  37  38
ENDBRANCH  35  37
ENDBRANCH  34  35
ENDBRANCH  33  34
ENDBRANCH  31  33
ENDBRANCH  14  31
ENDBRANCH   9  11
ENDBRANCH   8   9
ENDBRANCH   7   8
ENDBRANCH   5   7
ENDBRANCH   4   5
ENDBRANCH   3   4
TORSDOF 12
ENDMDL
MODEL      153
REMARK 921   NORMALIZED FREE ENERGY PREDICTED BY IDOCK:   -3.46 KCAL/MOL
REMARK 922        TOTAL FREE ENERGY PREDICTED BY IDOCK:   -8.15 KCAL/MOL
REMARK 923 INTER-LIGAND FREE ENERGY PREDICTED BY IDOCK:   -7.52 KCAL/MOL
REMARK 924 INTRA-LIGAND FREE ENERGY PREDICTED BY IDOCK:   -0.63 KCAL/MOL
REMARK 927      BINDING AFFINITY PREDICTED BY RF-SCORE:    0.00 PKD
ROOT
HETATM    1  O   UNL     1     -10.833   5.941  73.951  1.00  0.00    -0.387 OA 
HETATM    2  H   UNL     1     -10.510   5.627  74.787  1.00  0.00     0.000 HD 
HETATM    3  C   UNL     1     -10.593   4.970  72.935  1.00  0.00    -0.228 C  
ENDROOT
BRANCH   3   4
HETATM    4  C   UNL     1     -11.115   5.476  71.587  1.00  0.00    -0.122 C  
BRANCH   4   5
HETATM    5  N   UNL     1     -10.658   6.834  71.256  1.00  0.00    -0.217 NA 
HETATM    6  H   UNL     1     -10.272   6.875  70.312  1.00  0.00     0.000 HD 
BRANCH   5   7
HETATM    7  C   UNL     1     -11.721   7.831  71.442  1.00  0.00    -0.282 C  
BRANCH   7   8
HETATM    8  C   UNL     1     -11.123   9.238  71.571  1.00  0.00    -0.373 C  
BRANCH   8   9
HETATM    9  N   UNL     1     -11.795  10.169  70.683  1.00  0.00    -0.317 NA 
HETATM   10  H   UNL     1     -12.587  10.702  71.041  1.00  0.00     0.000 HD 
BRANCH   9  11
HETATM   11  C   UNL     1     -11.403  10.365  69.367  1.00  0.00    -0.250 A  
HETATM   12  C   UNL     1     -11.138   9.257  68.563  1.00  0.00     0.071 A  
HETATM   13  C   UNL     1     -10.712   9.405  67.254  1.00  0.00    -0.258 A  
HETATM   14  C   UNL     1     -10.450  10.665  66.712  1.00  0.00    -0.247 A  
HETATM   15  H   UNL     1      -9.725  16.730  65.715  1.00  0.00     0.000 HD 
HETATM   16  C   UNL     1     -10.685  11.806  67.522  1.00  0.00    -0.262 A  
HETATM   17  C   UNL     1     -11.211  11.661  68.819  1.00  0.00    -0.304 A  
HETATM   18  C   UNL     1     -11.281  16.672  69.307  1.00  0.00    -0.123 A  
HETATM   19  O   UNL     1      -9.823  13.343  65.928  1.00  0.00    -0.284 OA 
HETATM   20  C   UNL     1     -11.537  15.405  69.836  1.00  0.00    -0.323 A  
HETATM   21  C   UNL     1     -11.618  12.874  69.591  1.00  0.00    -0.248 C  
HETATM   22  O   UNL     1     -12.316  12.749  70.593  1.00  0.00    -0.360 OA 
HETATM   23  C   UNL     1     -10.736  16.790  68.036  1.00  0.00    -0.355 A  
HETATM   24  C   UNL     1     -11.275  14.229  69.089  1.00  0.00    -0.302 A  
HETATM   25  O   UNL     1      -9.901  15.865  66.066  1.00  0.00    -0.289 OA 
HETATM   26  H   UNL     1     -12.242  16.121  71.592  1.00  0.00     0.000 HD 
HETATM   27  C   UNL     1     -10.704  14.360  67.823  1.00  0.00    -0.248 A  
HETATM   28  O   UNL     1     -12.066  15.333  71.092  1.00  0.00    -0.292 OA 
HETATM   29  C   UNL     1     -10.444  15.644  67.303  1.00  0.00    -0.292 A  
HETATM   30  C   UNL     1     -10.386  13.171  67.010  1.00  0.00    -0.249 C  
BRANCH  14  31
HETATM   31  N   UNL     1     -10.072  10.747  65.383  1.00  0.00    -0.270 NA 
HETATM   32  H   UNL     1     -10.789  10.948  64.685  1.00  0.00     0.000 HD 
BRANCH  31  33
HETATM   33  C   UNL     1      -8.699  10.561  64.937  1.00  0.00    -0.181 C  
BRANCH  33  34
HETATM   34  C   UNL     1      -8.570   9.285  64.087  1.00  0.00    -0.188 C  
BRANCH  34  35
HETATM   35  N   UNL     1      -8.159   8.136  64.907  1.00  0.00    -0.148 NA 
HETATM   36  H   UNL     1      -7.809   7.367  64.336  1.00  0.00     0.000 HD 
BRANCH  35  37
HETATM   37  C   UNL     1      -7.183   8.554  65.921  1.00  0.00    -0.076 C  
BRANCH  37  38
HETATM   38  C   UNL     1      -7.289   7.671  67.166  1.00  0.00    -0.091 C  
HETATM   39  O   UNL     1      -6.015   7.123  67.498  1.00  0.00    -0.030 OA 
HETATM   40  H   UNL     1      -6.080   6.574  68.270  1.00  0.00     0.000 HD 
ENDBRANCH  37  38
ENDBRANCH  35  37
ENDBRANCH  34  35
ENDBRANCH  33  34
ENDBRANCH  31  33
ENDBRANCH  14  31
ENDBRANCH   9  11
ENDBRANCH   8   9
ENDBRANCH   7   8
ENDBRANCH   5   7
ENDBRANCH   4   5
ENDBRANCH   3   4
TORSDOF 12
ENDMDL
MODEL      154
REMARK 921   NORMALIZED FREE ENERGY PREDICTED BY IDOCK:   -3.45 KCAL/MOL
REMARK 922        TOTAL FREE ENERGY PREDICTED BY IDOCK:   -8.13 KCAL/MOL
REMARK 923 INTER-LIGAND FREE ENERGY PREDICTED BY IDOCK:   -8.37 KCAL/MOL
REMARK 924 INTRA-LIGAND FREE ENERGY PREDICTED BY IDOCK:    0.24 KCAL/MOL
REMARK 927      BINDING AFFINITY PREDICTED BY RF-SCORE:    0.00 PKD
ROOT
HETATM    1  O   UNL     1      -9.211   6.068  70.803  1.00  0.00    -0.151 OA 
HETATM    2  H   UNL     1      -9.568   5.453  71.432  1.00  0.00     0.000 HD 
HETATM    3  C   UNL     1      -8.796   7.262  71.461  1.00  0.00    -0.122 C  
ENDROOT
BRANCH   3   4
HETATM    4  C   UNL     1      -8.220   8.253  70.446  1.00  0.00    -0.114 C  
BRANCH   4   5
HETATM    5  N   UNL     1      -8.603   9.648  70.709  1.00  0.00    -0.364 NA 
HETATM    6  H   UNL     1      -7.990  10.076  71.403  1.00  0.00     0.000 HD 
BRANCH   5   7
HETATM    7  C   UNL     1      -8.653  10.445  69.476  1.00  0.00    -0.093 C  
BRANCH   7   8
HETATM    8  C   UNL     1      -7.425  10.163  68.601  1.00  0.00    -0.084 C  
BRANCH   8   9
HETATM    9  N   UNL     1      -6.866  11.398  68.080  1.00  0.00    -0.062 NA 
HETATM   10  H   UNL     1      -5.920  11.384  67.699  1.00  0.00     0.000 HD 
BRANCH   9  11
HETATM   11  C   UNL     1      -7.564  12.596  68.078  1.00  0.00    -0.132 A  
HETATM   12  C   UNL     1      -7.280  13.552  69.053  1.00  0.00    -0.031 A  
HETATM   13  C   UNL     1      -7.975  14.747  69.110  1.00  0.00    -0.133 A  
HETATM   14  C   UNL     1      -9.043  15.011  68.250  1.00  0.00    -0.182 A  
HETATM   15  H   UNL     1     -13.427  14.771  63.888  1.00  0.00     0.000 HD 
HETATM   16  C   UNL     1      -9.369  14.039  67.268  1.00  0.00    -0.230 A  
HETATM   17  C   UNL     1      -8.601  12.866  67.146  1.00  0.00    -0.198 A  
HETATM   18  C   UNL     1     -11.428  11.474  63.218  1.00  0.00    -0.180 A  
HETATM   19  O   UNL     1     -11.289  15.202  66.491  1.00  0.00    -0.324 OA 
HETATM   20  C   UNL     1     -10.363  11.224  64.087  1.00  0.00    -0.351 A  
HETATM   21  C   UNL     1      -8.844  11.940  65.999  1.00  0.00    -0.007 C  
HETATM   22  O   UNL     1      -8.017  11.074  65.734  1.00  0.00    -0.121 OA 
HETATM   23  C   UNL     1     -12.189  12.623  63.376  1.00  0.00    -0.610 A  
HETATM   24  C   UNL     1     -10.024  12.136  65.117  1.00  0.00    -0.251 A  
HETATM   25  O   UNL     1     -12.702  14.611  64.480  1.00  0.00    -0.619 OA 
HETATM   26  H   UNL     1      -9.871   9.467  63.213  1.00  0.00     0.000 HD 
HETATM   27  C   UNL     1     -10.811  13.276  65.281  1.00  0.00    -0.314 A  
HETATM   28  O   UNL     1      -9.643  10.078  63.903  1.00  0.00    -0.283 OA 
HETATM   29  C   UNL     1     -11.887  13.513  64.402  1.00  0.00    -0.414 A  
HETATM   30  C   UNL     1     -10.522  14.248  66.351  1.00  0.00    -0.282 C  
BRANCH  14  31
HETATM   31  N   UNL     1      -9.666  16.244  68.328  1.00  0.00    -0.219 NA 
HETATM   32  H   UNL     1      -9.225  17.041  67.869  1.00  0.00     0.000 HD 
BRANCH  31  33
HETATM   33  C   UNL     1     -10.922  16.454  69.033  1.00  0.00    -0.325 C  
BRANCH  33  34
HETATM   34  C   UNL     1     -10.981  15.597  70.309  1.00  0.00    -0.348 C  
BRANCH  34  35
HETATM   35  N   UNL     1     -12.060  16.042  71.203  1.00  0.00    -0.543 NA 
HETATM   36  H   UNL     1     -12.943  16.157  70.706  1.00  0.00     0.000 HD 
BRANCH  35  37
HETATM   37  C   UNL     1     -12.189  15.126  72.344  1.00  0.00    -0.374 C  
BRANCH  37  38
HETATM   38  C   UNL     1     -13.491  14.328  72.248  1.00  0.00    -0.457 C  
HETATM   39  O   UNL     1     -13.213  12.948  72.021  1.00  0.00    -0.452 OA 
HETATM   40  H   UNL     1     -14.021  12.452  71.961  1.00  0.00     0.000 HD 
ENDBRANCH  37  38
ENDBRANCH  35  37
ENDBRANCH  34  35
ENDBRANCH  33  34
ENDBRANCH  31  33
ENDBRANCH  14  31
ENDBRANCH   9  11
ENDBRANCH   8   9
ENDBRANCH   7   8
ENDBRANCH   5   7
ENDBRANCH   4   5
ENDBRANCH   3   4
TORSDOF 12
ENDMDL
MODEL      155
REMARK 921   NORMALIZED FREE ENERGY PREDICTED BY IDOCK:   -3.43 KCAL/MOL
REMARK 922        TOTAL FREE ENERGY PREDICTED BY IDOCK:   -8.10 KCAL/MOL
REMARK 923 INTER-LIGAND FREE ENERGY PREDICTED BY IDOCK:   -6.01 KCAL/MOL
REMARK 924 INTRA-LIGAND FREE ENERGY PREDICTED BY IDOCK:   -2.09 KCAL/MOL
REMARK 927      BINDING AFFINITY PREDICTED BY RF-SCORE:    0.00 PKD
ROOT
HETATM    1  O   UNL     1     -12.841  11.219  71.763  1.00  0.00    -0.416 OA 
HETATM    2  H   UNL     1     -12.630  10.347  71.452  1.00  0.00     0.000 HD 
HETATM    3  C   UNL     1     -12.477  12.192  70.787  1.00  0.00    -0.271 C  
ENDROOT
BRANCH   3   4
HETATM    4  C   UNL     1     -12.817  13.598  71.289  1.00  0.00    -0.344 C  
BRANCH   4   5
HETATM    5  N   UNL     1     -13.179  14.531  70.211  1.00  0.00    -0.463 NA 
HETATM    6  H   UNL     1     -14.157  14.424  69.941  1.00  0.00     0.000 HD 
BRANCH   5   7
HETATM    7  C   UNL     1     -12.873  15.924  70.565  1.00  0.00     0.081 C  
BRANCH   7   8
HETATM    8  C   UNL     1     -11.363  16.181  70.484  1.00  0.00    -0.373 C  
BRANCH   8   9
HETATM    9  N   UNL     1     -10.823  15.701  69.225  1.00  0.00    -0.232 NA 
HETATM   10  H   UNL     1     -11.327  15.912  68.364  1.00  0.00     0.000 HD 
BRANCH   9  11
HETATM   11  C   UNL     1      -9.649  14.967  69.144  1.00  0.00    -0.172 A  
HETATM   12  C   UNL     1      -8.592  15.276  69.999  1.00  0.00     0.362 A  
HETATM   13  C   UNL     1      -7.390  14.592  69.931  1.00  0.00     0.052 A  
HETATM   14  C   UNL     1      -7.157  13.626  68.951  1.00  0.00    -0.102 A  
HETATM   15  H   UNL     1      -7.572   9.696  64.187  1.00  0.00     0.000 HD 
HETATM   16  C   UNL     1      -8.210  13.315  68.051  1.00  0.00    -0.162 A  
HETATM   17  C   UNL     1      -9.464  13.940  68.181  1.00  0.00    -0.207 A  
HETATM   18  C   UNL     1     -11.196  11.166  64.352  1.00  0.00    -0.064 A  
HETATM   19  O   UNL     1      -6.896  11.833  66.738  1.00  0.00    -0.127 OA 
HETATM   20  C   UNL     1     -11.414  12.133  65.337  1.00  0.00    -0.336 A  
HETATM   21  C   UNL     1     -10.610  13.476  67.343  1.00  0.00    -0.251 C  
HETATM   22  O   UNL     1     -11.752  13.819  67.634  1.00  0.00    -0.325 OA 
HETATM   23  C   UNL     1      -9.943  10.585  64.224  1.00  0.00    -0.398 A  
HETATM   24  C   UNL     1     -10.384  12.517  66.231  1.00  0.00    -0.269 A  
HETATM   25  O   UNL     1      -7.713  10.349  64.862  1.00  0.00    -0.144 OA 
HETATM   26  H   UNL     1     -13.349  12.428  64.826  1.00  0.00     0.000 HD 
HETATM   27  C   UNL     1      -9.122  11.943  66.077  1.00  0.00    -0.120 A  
HETATM   28  O   UNL     1     -12.659  12.686  65.425  1.00  0.00    -0.641 OA 
HETATM   29  C   UNL     1      -8.913  10.974  65.075  1.00  0.00    -0.123 A  
HETATM   30  C   UNL     1      -8.005  12.322  66.962  1.00  0.00    -0.123 C  
BRANCH  14  31
HETATM   31  N   UNL     1      -5.952  12.946  68.966  1.00  0.00    -0.079 NA 
HETATM   32  H   UNL     1      -5.496  12.743  68.076  1.00  0.00     0.000 HD 
BRANCH  31  33
HETATM   33  C   UNL     1      -5.305  12.507  70.195  1.00  0.00    -0.113 C  
BRANCH  33  34
HETATM   34  C   UNL     1      -5.237  10.971  70.256  1.00  0.00    -0.069 C  
BRANCH  34  35
HETATM   35  N   UNL     1      -5.834  10.361  69.059  1.00  0.00    -0.041 NA 
HETATM   36  H   UNL     1      -5.126  10.101  68.372  1.00  0.00     0.000 HD 
BRANCH  35  37
HETATM   37  C   UNL     1      -6.678   9.220  69.434  1.00  0.00    -0.048 C  
BRANCH  37  38
HETATM   38  C   UNL     1      -7.959   9.702  70.120  1.00  0.00    -0.176 C  
HETATM   39  O   UNL     1      -8.067   9.138  71.424  1.00  0.00    -0.318 OA 
HETATM   40  H   UNL     1      -8.863   9.436  71.850  1.00  0.00     0.000 HD 
ENDBRANCH  37  38
ENDBRANCH  35  37
ENDBRANCH  34  35
ENDBRANCH  33  34
ENDBRANCH  31  33
ENDBRANCH  14  31
ENDBRANCH   9  11
ENDBRANCH   8   9
ENDBRANCH   7   8
ENDBRANCH   5   7
ENDBRANCH   4   5
ENDBRANCH   3   4
TORSDOF 12
ENDMDL
MODEL      156
REMARK 921   NORMALIZED FREE ENERGY PREDICTED BY IDOCK:   -3.39 KCAL/MOL
REMARK 922        TOTAL FREE ENERGY PREDICTED BY IDOCK:   -8.03 KCAL/MOL
REMARK 923 INTER-LIGAND FREE ENERGY PREDICTED BY IDOCK:   -7.45 KCAL/MOL
REMARK 924 INTRA-LIGAND FREE ENERGY PREDICTED BY IDOCK:   -0.58 KCAL/MOL
REMARK 927      BINDING AFFINITY PREDICTED BY RF-SCORE:    0.00 PKD
ROOT
HETATM    1  O   UNL     1      -9.832  13.327  64.082  1.00  0.00    -0.707 OA 
HETATM    2  H   UNL     1      -8.891  13.380  64.198  1.00  0.00     0.000 HD 
HETATM    3  C   UNL     1     -10.454  14.523  64.545  1.00  0.00    -0.028 C  
ENDROOT
BRANCH   3   4
HETATM    4  C   UNL     1     -11.971  14.438  64.357  1.00  0.00    -0.452 C  
BRANCH   4   5
HETATM    5  N   UNL     1     -12.523  13.108  64.655  1.00  0.00    -0.587 NA 
HETATM    6  H   UNL     1     -12.119  12.395  64.048  1.00  0.00     0.000 HD 
BRANCH   5   7
HETATM    7  C   UNL     1     -12.368  12.754  66.073  1.00  0.00    -0.182 C  
BRANCH   7   8
HETATM    8  C   UNL     1     -12.621  13.977  66.964  1.00  0.00     0.110 C  
BRANCH   8   9
HETATM    9  N   UNL     1     -11.859  13.886  68.196  1.00  0.00    -0.358 NA 
HETATM   10  H   UNL     1     -12.340  14.042  69.082  1.00  0.00     0.000 HD 
BRANCH   9  11
HETATM   11  C   UNL     1     -10.502  13.596  68.220  1.00  0.00    -0.249 A  
HETATM   12  C   UNL     1     -10.090  12.264  68.180  1.00  0.00    -0.211 A  
HETATM   13  C   UNL     1      -8.749  11.926  68.236  1.00  0.00    -0.170 A  
HETATM   14  C   UNL     1      -7.761  12.896  68.418  1.00  0.00    -0.133 A  
HETATM   15  H   UNL     1      -4.597  18.153  69.227  1.00  0.00     0.000 HD 
HETATM   16  C   UNL     1      -8.160  14.256  68.490  1.00  0.00    -0.147 A  
HETATM   17  C   UNL     1      -9.514  14.608  68.336  1.00  0.00    -0.209 A  
HETATM   18  C   UNL     1      -8.250  19.467  68.726  1.00  0.00    -0.382 A  
HETATM   19  O   UNL     1      -5.978  15.062  68.974  1.00  0.00    -0.094 OA 
HETATM   20  C   UNL     1      -9.227  18.485  68.546  1.00  0.00    -0.335 A  
HETATM   21  C   UNL     1      -9.895  16.050  68.237  1.00  0.00    -0.219 C  
HETATM   22  O   UNL     1     -11.014  16.354  67.837  1.00  0.00    -0.339 OA 
HETATM   23  C   UNL     1      -6.926  19.094  68.905  1.00  0.00    -0.371 A  
HETATM   24  C   UNL     1      -8.891  17.109  68.515  1.00  0.00    -0.265 A  
HETATM   25  O   UNL     1      -5.255  17.480  69.100  1.00  0.00    -0.166 OA 
HETATM   26  H   UNL     1     -10.745  19.816  68.402  1.00  0.00     0.000 HD 
HETATM   27  C   UNL     1      -7.560  16.745  68.720  1.00  0.00    -0.240 A  
HETATM   28  O   UNL     1     -10.519  18.894  68.381  1.00  0.00    -0.336 OA 
HETATM   29  C   UNL     1      -6.584  17.745  68.908  1.00  0.00    -0.229 A  
HETATM   30  C   UNL     1      -7.155  15.328  68.723  1.00  0.00    -0.117 C  
BRANCH  14  31
HETATM   31  N   UNL     1      -6.436  12.497  68.418  1.00  0.00    -0.061 NA 
HETATM   32  H   UNL     1      -5.991  12.286  69.311  1.00  0.00     0.000 HD 
BRANCH  31  33
HETATM   33  C   UNL     1      -5.647  12.366  67.201  1.00  0.00    -0.047 C  
BRANCH  33  34
HETATM   34  C   UNL     1      -5.639  10.908  66.712  1.00  0.00    -0.074 C  
BRANCH  34  35
HETATM   35  N   UNL     1      -6.193  10.796  65.354  1.00  0.00    -0.330 NA 
HETATM   36  H   UNL     1      -5.474  10.564  64.668  1.00  0.00     0.000 HD 
BRANCH  35  37
HETATM   37  C   UNL     1      -7.301   9.832  65.331  1.00  0.00    -0.118 C  
BRANCH  37  38
HETATM   38  C   UNL     1      -8.414  10.315  64.398  1.00  0.00    -0.179 C  
HETATM   39  O   UNL     1      -9.650  10.403  65.102  1.00  0.00    -0.225 OA 
HETATM   40  H   UNL     1     -10.341  10.702  64.522  1.00  0.00     0.000 HD 
ENDBRANCH  37  38
ENDBRANCH  35  37
ENDBRANCH  34  35
ENDBRANCH  33  34
ENDBRANCH  31  33
ENDBRANCH  14  31
ENDBRANCH   9  11
ENDBRANCH   8   9
ENDBRANCH   7   8
ENDBRANCH   5   7
ENDBRANCH   4   5
ENDBRANCH   3   4
TORSDOF 12
ENDMDL
MODEL      157
REMARK 921   NORMALIZED FREE ENERGY PREDICTED BY IDOCK:   -3.38 KCAL/MOL
REMARK 922        TOTAL FREE ENERGY PREDICTED BY IDOCK:   -8.01 KCAL/MOL
REMARK 923 INTER-LIGAND FREE ENERGY PREDICTED BY IDOCK:   -6.64 KCAL/MOL
REMARK 924 INTRA-LIGAND FREE ENERGY PREDICTED BY IDOCK:   -1.37 KCAL/MOL
REMARK 927      BINDING AFFINITY PREDICTED BY RF-SCORE:    0.00 PKD
ROOT
HETATM    1  O   UNL     1      -6.458  20.554  71.613  1.00  0.00    -0.675 OA 
HETATM    2  H   UNL     1      -5.748  20.986  72.072  1.00  0.00     0.000 HD 
HETATM    3  C   UNL     1      -6.135  20.409  70.232  1.00  0.00    -0.264 C  
ENDROOT
BRANCH   3   4
HETATM    4  C   UNL     1      -7.280  19.712  69.491  1.00  0.00    -0.179 C  
BRANCH   4   5
HETATM    5  N   UNL     1      -6.952  19.369  68.100  1.00  0.00    -0.262 NA 
HETATM    6  H   UNL     1      -6.320  20.056  67.688  1.00  0.00     0.000 HD 
BRANCH   5   7
HETATM    7  C   UNL     1      -6.410  18.008  67.983  1.00  0.00    -0.183 C  
BRANCH   7   8
HETATM    8  C   UNL     1      -7.516  17.019  67.592  1.00  0.00    -0.164 C  
BRANCH   8   9
HETATM    9  N   UNL     1      -7.559  15.899  68.513  1.00  0.00    -0.138 NA 
HETATM   10  H   UNL     1      -6.699  15.622  68.987  1.00  0.00     0.000 HD 
BRANCH   9  11
HETATM   11  C   UNL     1      -8.721  15.188  68.778  1.00  0.00    -0.194 A  
HETATM   12  C   UNL     1      -9.758  15.813  69.468  1.00  0.00    -0.276 A  
HETATM   13  C   UNL     1     -10.922  15.133  69.784  1.00  0.00    -0.293 A  
HETATM   14  C   UNL     1     -11.071  13.775  69.499  1.00  0.00    -0.103 A  
HETATM   15  H   UNL     1     -10.308   7.917  67.651  1.00  0.00     0.000 HD 
HETATM   16  C   UNL     1     -10.015  13.111  68.821  1.00  0.00    -0.038 A  
HETATM   17  C   UNL     1      -8.873  13.824  68.414  1.00  0.00    -0.165 A  
HETATM   18  C   UNL     1      -7.064   9.633  66.290  1.00  0.00    -0.093 A  
HETATM   19  O   UNL     1     -11.029  10.966  68.960  1.00  0.00    -0.201 OA 
HETATM   20  C   UNL     1      -6.928  10.992  66.583  1.00  0.00    -0.140 A  
HETATM   21  C   UNL     1      -7.854  13.156  67.550  1.00  0.00    -0.172 C  
HETATM   22  O   UNL     1      -7.008  13.834  66.975  1.00  0.00    -0.011 OA 
HETATM   23  C   UNL     1      -8.185   8.944  66.726  1.00  0.00    -0.111 A  
HETATM   24  C   UNL     1      -7.929  11.693  67.300  1.00  0.00    -0.157 A  
HETATM   25  O   UNL     1     -10.225   8.842  67.851  1.00  0.00    -0.198 OA 
HETATM   26  H   UNL     1      -5.135  11.162  65.661  1.00  0.00     0.000 HD 
HETATM   27  C   UNL     1      -9.041  10.984  67.755  1.00  0.00    -0.147 A  
HETATM   28  O   UNL     1      -5.806  11.632  66.142  1.00  0.00    -0.174 OA 
HETATM   29  C   UNL     1      -9.163   9.611  67.458  1.00  0.00    -0.133 A  
HETATM   30  C   UNL     1     -10.103  11.655  68.527  1.00  0.00    -0.206 C  
BRANCH  14  31
HETATM   31  N   UNL     1     -12.277  13.165  69.797  1.00  0.00    -0.249 NA 
HETATM   32  H   UNL     1     -12.740  12.620  69.069  1.00  0.00     0.000 HD 
BRANCH  31  33
HETATM   33  C   UNL     1     -12.914  13.265  71.103  1.00  0.00    -0.216 C  
BRANCH  33  34
HETATM   34  C   UNL     1     -12.682  11.985  71.922  1.00  0.00    -0.102 C  
BRANCH  34  35
HETATM   35  N   UNL     1     -12.760  10.785  71.075  1.00  0.00    -0.390 NA 
HETATM   36  H   UNL     1     -11.839  10.486  70.755  1.00  0.00     0.000 HD 
BRANCH  35  37
HETATM   37  C   UNL     1     -13.472   9.709  71.776  1.00  0.00    -0.394 C  
BRANCH  37  38
HETATM   38  C   UNL     1     -12.686   8.399  71.690  1.00  0.00    -0.331 C  
HETATM   39  O   UNL     1     -11.581   8.540  70.801  1.00  0.00    -0.277 OA 
HETATM   40  H   UNL     1     -11.092   7.726  70.747  1.00  0.00     0.000 HD 
ENDBRANCH  37  38
ENDBRANCH  35  37
ENDBRANCH  34  35
ENDBRANCH  33  34
ENDBRANCH  31  33
ENDBRANCH  14  31
ENDBRANCH   9  11
ENDBRANCH   8   9
ENDBRANCH   7   8
ENDBRANCH   5   7
ENDBRANCH   4   5
ENDBRANCH   3   4
TORSDOF 12
ENDMDL
MODEL      158
REMARK 921   NORMALIZED FREE ENERGY PREDICTED BY IDOCK:   -3.35 KCAL/MOL
REMARK 922        TOTAL FREE ENERGY PREDICTED BY IDOCK:   -7.96 KCAL/MOL
REMARK 923 INTER-LIGAND FREE ENERGY PREDICTED BY IDOCK:   -6.87 KCAL/MOL
REMARK 924 INTRA-LIGAND FREE ENERGY PREDICTED BY IDOCK:   -1.09 KCAL/MOL
REMARK 927      BINDING AFFINITY PREDICTED BY RF-SCORE:    0.00 PKD
ROOT
HETATM    1  O   UNL     1     -10.331  19.428  69.146  1.00  0.00    -0.573 OA 
HETATM    2  H   UNL     1      -9.798  20.060  69.612  1.00  0.00     0.000 HD 
HETATM    3  C   UNL     1      -9.546  18.748  68.169  1.00  0.00    -0.332 C  
ENDROOT
BRANCH   3   4
HETATM    4  C   UNL     1     -10.405  17.728  67.416  1.00  0.00    -0.369 C  
BRANCH   4   5
HETATM    5  N   UNL     1      -9.984  17.526  66.021  1.00  0.00    -0.516 NA 
HETATM    6  H   UNL     1      -9.050  17.119  65.972  1.00  0.00     0.000 HD 
BRANCH   5   7
HETATM    7  C   UNL     1     -10.957  16.725  65.266  1.00  0.00    -0.078 C  
BRANCH   7   8
HETATM    8  C   UNL     1     -11.046  15.304  65.837  1.00  0.00    -0.287 C  
BRANCH   8   9
HETATM    9  N   UNL     1      -9.888  14.518  65.453  1.00  0.00    -0.520 NA 
HETATM   10  H   UNL     1      -9.080  14.998  65.056  1.00  0.00     0.000 HD 
BRANCH   9  11
HETATM   11  C   UNL     1      -9.832  13.140  65.605  1.00  0.00    -0.160 A  
HETATM   12  C   UNL     1     -10.641  12.334  64.805  1.00  0.00    -0.332 A  
HETATM   13  C   UNL     1     -10.644  10.957  64.944  1.00  0.00    -0.304 A  
HETATM   14  C   UNL     1      -9.903  10.325  65.945  1.00  0.00    -0.237 A  
HETATM   15  H   UNL     1      -6.201   8.978  70.719  1.00  0.00     0.000 HD 
HETATM   16  C   UNL     1      -9.095  11.129  66.791  1.00  0.00    -0.174 A  
HETATM   17  C   UNL     1      -9.016  12.519  66.587  1.00  0.00    -0.174 A  
HETATM   18  C   UNL     1      -5.680  12.839  70.345  1.00  0.00    -0.173 A  
HETATM   19  O   UNL     1      -8.437   9.322  68.187  1.00  0.00    -0.119 OA 
HETATM   20  C   UNL     1      -6.428  13.457  69.340  1.00  0.00    -0.100 A  
HETATM   21  C   UNL     1      -8.028  13.325  67.367  1.00  0.00    -0.170 C  
HETATM   22  O   UNL     1      -7.765  14.469  67.011  1.00  0.00    -0.126 OA 
HETATM   23  C   UNL     1      -5.795  11.471  70.546  1.00  0.00    -0.129 A  
HETATM   24  C   UNL     1      -7.289  12.709  68.498  1.00  0.00    -0.115 A  
HETATM   25  O   UNL     1      -6.710   9.389  70.031  1.00  0.00    -0.051 OA 
HETATM   26  H   UNL     1      -5.713  15.307  69.743  1.00  0.00     0.000 HD 
HETATM   27  C   UNL     1      -7.415  11.339  68.726  1.00  0.00    -0.123 A  
HETATM   28  O   UNL     1      -6.291  14.806  69.179  1.00  0.00    -0.099 OA 
HETATM   29  C   UNL     1      -6.659  10.728  69.748  1.00  0.00    -0.128 A  
HETATM   30  C   UNL     1      -8.315  10.514  67.899  1.00  0.00    -0.115 C  
BRANCH  14  31
HETATM   31  N   UNL     1      -9.912   8.943  66.001  1.00  0.00    -0.431 NA 
HETATM   32  H   UNL     1     -10.575   8.485  66.628  1.00  0.00     0.000 HD 
BRANCH  31  33
HETATM   33  C   UNL     1      -9.018   8.111  65.208  1.00  0.00     0.092 C  
BRANCH  33  34
HETATM   34  C   UNL     1      -8.755   6.769  65.912  1.00  0.00    -0.137 C  
BRANCH  34  35
HETATM   35  N   UNL     1      -9.501   6.671  67.175  1.00  0.00    -0.132 NA 
HETATM   36  H   UNL     1      -9.971   7.547  67.408  1.00  0.00     0.000 HD 
BRANCH  35  37
HETATM   37  C   UNL     1     -10.440   5.543  67.129  1.00  0.00    -0.257 C  
BRANCH  37  38
HETATM   38  C   UNL     1      -9.681   4.216  67.050  1.00  0.00    -0.197 C  
HETATM   39  O   UNL     1     -10.220   3.396  66.015  1.00  0.00    -0.303 OA 
HETATM   40  H   UNL     1      -9.749   2.572  65.966  1.00  0.00     0.000 HD 
ENDBRANCH  37  38
ENDBRANCH  35  37
ENDBRANCH  34  35
ENDBRANCH  33  34
ENDBRANCH  31  33
ENDBRANCH  14  31
ENDBRANCH   9  11
ENDBRANCH   8   9
ENDBRANCH   7   8
ENDBRANCH   5   7
ENDBRANCH   4   5
ENDBRANCH   3   4
TORSDOF 12
ENDMDL
MODEL      159
REMARK 921   NORMALIZED FREE ENERGY PREDICTED BY IDOCK:   -3.31 KCAL/MOL
REMARK 922        TOTAL FREE ENERGY PREDICTED BY IDOCK:   -7.90 KCAL/MOL
REMARK 923 INTER-LIGAND FREE ENERGY PREDICTED BY IDOCK:   -7.91 KCAL/MOL
REMARK 924 INTRA-LIGAND FREE ENERGY PREDICTED BY IDOCK:    0.01 KCAL/MOL
REMARK 927      BINDING AFFINITY PREDICTED BY RF-SCORE:    0.00 PKD
ROOT
HETATM    1  O   UNL     1     -10.823   5.913  65.854  1.00  0.00    -0.390 OA 
HETATM    2  H   UNL     1     -11.417   6.539  65.458  1.00  0.00     0.000 HD 
HETATM    3  C   UNL     1     -10.623   6.226  67.230  1.00  0.00    -0.302 C  
ENDROOT
BRANCH   3   4
HETATM    4  C   UNL     1      -9.665   5.216  67.868  1.00  0.00    -0.145 C  
BRANCH   4   5
HETATM    5  N   UNL     1      -8.289   5.313  67.359  1.00  0.00    -0.107 NA 
HETATM    6  H   UNL     1      -8.270   5.692  66.412  1.00  0.00     0.000 HD 
BRANCH   5   7
HETATM    7  C   UNL     1      -7.423   6.085  68.261  1.00  0.00    -0.086 C  
BRANCH   7   8
HETATM    8  C   UNL     1      -6.982   7.394  67.594  1.00  0.00    -0.079 C  
BRANCH   8   9
HETATM    9  N   UNL     1      -7.156   8.519  68.496  1.00  0.00    -0.072 NA 
HETATM   10  H   UNL     1      -6.718   8.480  69.416  1.00  0.00     0.000 HD 
BRANCH   9  11
HETATM   11  C   UNL     1      -7.892   9.644  68.158  1.00  0.00    -0.086 A  
HETATM   12  C   UNL     1      -7.411  10.501  67.169  1.00  0.00    -0.093 A  
HETATM   13  C   UNL     1      -8.095  11.654  66.823  1.00  0.00    -0.150 A  
HETATM   14  C   UNL     1      -9.247  12.049  67.505  1.00  0.00    -0.180 A  
HETATM   15  H   UNL     1     -14.094  12.501  71.328  1.00  0.00     0.000 HD 
HETATM   16  C   UNL     1      -9.739  11.207  68.535  1.00  0.00    -0.196 A  
HETATM   17  C   UNL     1      -9.099   9.987  68.822  1.00  0.00    -0.148 A  
HETATM   18  C   UNL     1     -12.617   9.005  72.289  1.00  0.00    -0.445 A  
HETATM   19  O   UNL     1     -11.467  12.703  69.185  1.00  0.00    -0.271 OA 
HETATM   20  C   UNL     1     -11.464   8.624  71.599  1.00  0.00    -0.305 A  
HETATM   21  C   UNL     1      -9.729   9.031  69.783  1.00  0.00    -0.175 C  
HETATM   22  O   UNL     1      -9.330   7.872  69.834  1.00  0.00    -0.156 OA 
HETATM   23  C   UNL     1     -13.214  10.226  72.009  1.00  0.00    -0.516 A  
HETATM   24  C   UNL     1     -10.901   9.449  70.594  1.00  0.00    -0.346 A  
HETATM   25  O   UNL     1     -13.312  12.247  70.850  1.00  0.00     0.189 OA 
HETATM   26  H   UNL     1     -11.281   6.865  72.582  1.00  0.00     0.000 HD 
HETATM   27  C   UNL     1     -11.496  10.685  70.338  1.00  0.00    -0.422 A  
HETATM   28  O   UNL     1     -10.904   7.419  71.909  1.00  0.00    -0.224 OA 
HETATM   29  C   UNL     1     -12.656  11.061  71.047  1.00  0.00    -0.411 A  
HETATM   30  C   UNL     1     -10.940  11.597  69.322  1.00  0.00    -0.192 C  
BRANCH  14  31
HETATM   31  N   UNL     1      -9.910  13.187  67.079  1.00  0.00    -0.238 NA 
HETATM   32  H   UNL     1      -9.436  14.087  67.164  1.00  0.00     0.000 HD 
BRANCH  31  33
HETATM   33  C   UNL     1     -11.252  13.158  66.514  1.00  0.00    -0.310 C  
BRANCH  33  34
HETATM   34  C   UNL     1     -11.272  13.817  65.125  1.00  0.00    -0.316 C  
BRANCH  34  35
HETATM   35  N   UNL     1     -10.243  13.243  64.245  1.00  0.00    -0.640 NA 
HETATM   36  H   UNL     1      -9.307  13.346  64.637  1.00  0.00     0.000 HD 
BRANCH  35  37
HETATM   37  C   UNL     1     -10.557  11.842  63.937  1.00  0.00    -0.394 C  
BRANCH  37  38
HETATM   38  C   UNL     1      -9.634  11.314  62.837  1.00  0.00    -0.352 C  
HETATM   39  O   UNL     1      -8.409  10.846  63.397  1.00  0.00    -0.353 OA 
HETATM   40  H   UNL     1      -7.836  10.518  62.714  1.00  0.00     0.000 HD 
ENDBRANCH  37  38
ENDBRANCH  35  37
ENDBRANCH  34  35
ENDBRANCH  33  34
ENDBRANCH  31  33
ENDBRANCH  14  31
ENDBRANCH   9  11
ENDBRANCH   8   9
ENDBRANCH   7   8
ENDBRANCH   5   7
ENDBRANCH   4   5
ENDBRANCH   3   4
TORSDOF 12
ENDMDL
MODEL      160
REMARK 921   NORMALIZED FREE ENERGY PREDICTED BY IDOCK:   -3.27 KCAL/MOL
REMARK 922        TOTAL FREE ENERGY PREDICTED BY IDOCK:   -7.83 KCAL/MOL
REMARK 923 INTER-LIGAND FREE ENERGY PREDICTED BY IDOCK:   -6.53 KCAL/MOL
REMARK 924 INTRA-LIGAND FREE ENERGY PREDICTED BY IDOCK:   -1.31 KCAL/MOL
REMARK 927      BINDING AFFINITY PREDICTED BY RF-SCORE:    0.00 PKD
ROOT
HETATM    1  O   UNL     1     -14.208   8.004  71.955  1.00  0.00    -0.396 OA 
HETATM    2  H   UNL     1     -15.021   7.646  71.619  1.00  0.00     0.000 HD 
HETATM    3  C   UNL     1     -13.098   7.276  71.436  1.00  0.00    -0.361 C  
ENDROOT
BRANCH   3   4
HETATM    4  C   UNL     1     -11.787   7.854  71.976  1.00  0.00    -0.318 C  
BRANCH   4   5
HETATM    5  N   UNL     1     -11.245   7.104  73.120  1.00  0.00    -0.547 NA 
HETATM    6  H   UNL     1     -11.875   6.353  73.402  1.00  0.00     0.000 HD 
BRANCH   5   7
HETATM    7  C   UNL     1      -9.893   6.595  72.852  1.00  0.00    -0.164 C  
BRANCH   7   8
HETATM    8  C   UNL     1      -9.712   6.308  71.356  1.00  0.00    -0.173 C  
BRANCH   8   9
HETATM    9  N   UNL     1      -8.531   6.977  70.840  1.00  0.00    -0.133 NA 
HETATM   10  H   UNL     1      -7.615   6.679  71.175  1.00  0.00     0.000 HD 
BRANCH   9  11
HETATM   11  C   UNL     1      -8.596   8.004  69.910  1.00  0.00    -0.135 A  
HETATM   12  C   UNL     1      -9.005   9.271  70.324  1.00  0.00    -0.261 A  
HETATM   13  C   UNL     1      -9.117  10.318  69.424  1.00  0.00    -0.203 A  
HETATM   14  C   UNL     1      -8.908  10.129  68.057  1.00  0.00    -0.125 A  
HETATM   15  H   UNL     1      -7.699   7.831  62.438  1.00  0.00     0.000 HD 
HETATM   16  C   UNL     1      -8.519   8.839  67.610  1.00  0.00    -0.125 A  
HETATM   17  C   UNL     1      -8.310   7.799  68.535  1.00  0.00    -0.129 A  
HETATM   18  C   UNL     1      -6.929   4.772  64.756  1.00  0.00    -0.050 A  
HETATM   19  O   UNL     1      -8.598   9.413  65.306  1.00  0.00    -0.142 OA 
HETATM   20  C   UNL     1      -7.143   4.976  66.121  1.00  0.00    -0.072 A  
HETATM   21  C   UNL     1      -7.731   6.502  68.070  1.00  0.00    -0.105 C  
HETATM   22  O   UNL     1      -7.299   5.702  68.893  1.00  0.00    -0.078 OA 
HETATM   23  C   UNL     1      -7.169   5.803  63.860  1.00  0.00    -0.055 A  
HETATM   24  C   UNL     1      -7.579   6.230  66.617  1.00  0.00    -0.095 A  
HETATM   25  O   UNL     1      -7.843   7.980  63.366  1.00  0.00    -0.136 OA 
HETATM   26  H   UNL     1      -6.610   3.093  66.636  1.00  0.00     0.000 HD 
HETATM   27  C   UNL     1      -7.840   7.252  65.704  1.00  0.00    -0.112 A  
HETATM   28  O   UNL     1      -6.902   3.934  66.968  1.00  0.00    -0.049 OA 
HETATM   29  C   UNL     1      -7.626   7.030  64.329  1.00  0.00    -0.112 A  
HETATM   30  C   UNL     1      -8.320   8.569  66.160  1.00  0.00    -0.119 C  
BRANCH  14  31
HETATM   31  N   UNL     1      -8.990  11.225  67.218  1.00  0.00    -0.148 NA 
HETATM   32  H   UNL     1      -8.276  11.341  66.497  1.00  0.00     0.000 HD 
BRANCH  31  33
HETATM   33  C   UNL     1     -10.047  12.221  67.315  1.00  0.00    -0.204 C  
BRANCH  33  34
HETATM   34  C   UNL     1     -10.360  12.821  65.934  1.00  0.00    -0.283 C  
BRANCH  34  35
HETATM   35  N   UNL     1      -9.614  12.133  64.870  1.00  0.00    -0.454 NA 
HETATM   36  H   UNL     1      -9.270  11.222  65.175  1.00  0.00     0.000 HD 
BRANCH  35  37
HETATM   37  C   UNL     1     -10.432  12.031  63.655  1.00  0.00    -0.454 C  
BRANCH  37  38
HETATM   38  C   UNL     1      -9.701  11.221  62.581  1.00  0.00    -0.149 C  
HETATM   39  O   UNL     1      -8.327  11.598  62.524  1.00  0.00    -0.644 OA 
HETATM   40  H   UNL     1      -7.874  11.096  61.857  1.00  0.00     0.000 HD 
ENDBRANCH  37  38
ENDBRANCH  35  37
ENDBRANCH  34  35
ENDBRANCH  33  34
ENDBRANCH  31  33
ENDBRANCH  14  31
ENDBRANCH   9  11
ENDBRANCH   8   9
ENDBRANCH   7   8
ENDBRANCH   5   7
ENDBRANCH   4   5
ENDBRANCH   3   4
TORSDOF 12
ENDMDL
MODEL      161
REMARK 921   NORMALIZED FREE ENERGY PREDICTED BY IDOCK:   -3.27 KCAL/MOL
REMARK 922        TOTAL FREE ENERGY PREDICTED BY IDOCK:   -7.82 KCAL/MOL
REMARK 923 INTER-LIGAND FREE ENERGY PREDICTED BY IDOCK:   -7.06 KCAL/MOL
REMARK 924 INTRA-LIGAND FREE ENERGY PREDICTED BY IDOCK:   -0.75 KCAL/MOL
REMARK 927      BINDING AFFINITY PREDICTED BY RF-SCORE:    0.00 PKD
ROOT
HETATM    1  O   UNL     1      -9.488   6.336  70.642  1.00  0.00    -0.166 OA 
HETATM    2  H   UNL     1     -10.118   5.793  71.101  1.00  0.00     0.000 HD 
HETATM    3  C   UNL     1      -8.477   6.784  71.542  1.00  0.00    -0.119 C  
ENDROOT
BRANCH   3   4
HETATM    4  C   UNL     1      -7.461   7.659  70.802  1.00  0.00    -0.071 C  
BRANCH   4   5
HETATM    5  N   UNL     1      -7.726   9.100  70.933  1.00  0.00    -0.160 NA 
HETATM    6  H   UNL     1      -6.959   9.576  71.409  1.00  0.00     0.000 HD 
BRANCH   5   7
HETATM    7  C   UNL     1      -8.018   9.724  69.636  1.00  0.00    -0.150 C  
BRANCH   7   8
HETATM    8  C   UNL     1      -6.990   9.289  68.584  1.00  0.00    -0.062 C  
BRANCH   8   9
HETATM    9  N   UNL     1      -6.450  10.439  67.880  1.00  0.00    -0.060 NA 
HETATM   10  H   UNL     1      -5.670  10.297  67.239  1.00  0.00     0.000 HD 
BRANCH   9  11
HETATM   11  C   UNL     1      -6.952  11.721  68.043  1.00  0.00    -0.076 A  
HETATM   12  C   UNL     1      -6.464  12.517  69.078  1.00  0.00    -0.097 A  
HETATM   13  C   UNL     1      -6.960  13.791  69.299  1.00  0.00    -0.042 A  
HETATM   14  C   UNL     1      -8.023  14.298  68.550  1.00  0.00    -0.145 A  
HETATM   15  H   UNL     1     -12.646  15.170  64.527  1.00  0.00     0.000 HD 
HETATM   16  C   UNL     1      -8.555  13.493  67.509  1.00  0.00    -0.193 A  
HETATM   17  C   UNL     1      -7.988  12.238  67.221  1.00  0.00    -0.177 A  
HETATM   18  C   UNL     1     -11.228  11.698  63.404  1.00  0.00    -0.401 A  
HETATM   19  O   UNL     1     -10.314  15.005  66.990  1.00  0.00    -0.261 OA 
HETATM   20  C   UNL     1     -10.165  11.204  64.163  1.00  0.00    -0.347 A  
HETATM   21  C   UNL     1      -8.441  11.483  66.013  1.00  0.00    -0.005 C  
HETATM   22  O   UNL     1      -7.777  10.535  65.607  1.00  0.00    -0.148 OA 
HETATM   23  C   UNL     1     -11.790  12.925  63.725  1.00  0.00    -0.571 A  
HETATM   24  C   UNL     1      -9.627  11.943  65.245  1.00  0.00    -0.156 A  
HETATM   25  O   UNL     1     -11.920  14.843  65.045  1.00  0.00    -0.336 OA 
HETATM   26  H   UNL     1     -10.006   9.493  63.094  1.00  0.00     0.000 HD 
HETATM   27  C   UNL     1     -10.215  13.165  65.573  1.00  0.00    -0.297 A  
HETATM   28  O   UNL     1      -9.646   9.989  63.819  1.00  0.00    -0.280 OA 
HETATM   29  C   UNL     1     -11.292  13.650  64.804  1.00  0.00    -0.354 A  
HETATM   30  C   UNL     1      -9.714  13.967  66.705  1.00  0.00    -0.289 C  
BRANCH  14  31
HETATM   31  N   UNL     1      -8.441  15.596  68.789  1.00  0.00    -0.176 NA 
HETATM   32  H   UNL     1      -9.363  15.742  69.200  1.00  0.00     0.000 HD 
BRANCH  31  33
HETATM   33  C   UNL     1      -7.624  16.761  68.481  1.00  0.00    -0.217 C  
BRANCH  33  34
HETATM   34  C   UNL     1      -8.106  17.437  67.186  1.00  0.00    -0.208 C  
BRANCH  34  35
HETATM   35  N   UNL     1      -9.124  18.461  67.464  1.00  0.00    -0.270 NA 
HETATM   36  H   UNL     1      -8.903  19.349  67.012  1.00  0.00     0.000 HD 
BRANCH  35  37
HETATM   37  C   UNL     1     -10.457  17.972  67.089  1.00  0.00    -0.367 C  
BRANCH  37  38
HETATM   38  C   UNL     1     -10.800  18.391  65.657  1.00  0.00     0.086 C  
HETATM   39  O   UNL     1     -10.942  17.243  64.824  1.00  0.00    -0.950 OA 
HETATM   40  H   UNL     1     -11.154  17.502  63.935  1.00  0.00     0.000 HD 
ENDBRANCH  37  38
ENDBRANCH  35  37
ENDBRANCH  34  35
ENDBRANCH  33  34
ENDBRANCH  31  33
ENDBRANCH  14  31
ENDBRANCH   9  11
ENDBRANCH   8   9
ENDBRANCH   7   8
ENDBRANCH   5   7
ENDBRANCH   4   5
ENDBRANCH   3   4
TORSDOF 12
ENDMDL
MODEL      162
REMARK 921   NORMALIZED FREE ENERGY PREDICTED BY IDOCK:   -3.26 KCAL/MOL
REMARK 922        TOTAL FREE ENERGY PREDICTED BY IDOCK:   -7.81 KCAL/MOL
REMARK 923 INTER-LIGAND FREE ENERGY PREDICTED BY IDOCK:   -7.49 KCAL/MOL
REMARK 924 INTRA-LIGAND FREE ENERGY PREDICTED BY IDOCK:   -0.32 KCAL/MOL
REMARK 927      BINDING AFFINITY PREDICTED BY RF-SCORE:    0.00 PKD
ROOT
HETATM    1  O   UNL     1     -10.821   5.865  67.442  1.00  0.00    -0.276 OA 
HETATM    2  H   UNL     1     -11.295   6.428  66.842  1.00  0.00     0.000 HD 
HETATM    3  C   UNL     1     -10.969   6.335  68.780  1.00  0.00    -0.352 C  
ENDROOT
BRANCH   3   4
HETATM    4  C   UNL     1     -10.206   5.426  69.747  1.00  0.00    -0.278 C  
BRANCH   4   5
HETATM    5  N   UNL     1      -8.926   4.942  69.207  1.00  0.00    -0.091 NA 
HETATM    6  H   UNL     1      -8.997   4.744  68.209  1.00  0.00     0.000 HD 
BRANCH   5   7
HETATM    7  C   UNL     1      -7.824   5.870  69.492  1.00  0.00    -0.098 C  
BRANCH   7   8
HETATM    8  C   UNL     1      -7.626   6.846  68.325  1.00  0.00    -0.107 C  
BRANCH   8   9
HETATM    9  N   UNL     1      -7.594   8.219  68.797  1.00  0.00    -0.099 NA 
HETATM   10  H   UNL     1      -6.767   8.545  69.296  1.00  0.00     0.000 HD 
BRANCH   9  11
HETATM   11  C   UNL     1      -8.642   9.105  68.598  1.00  0.00    -0.128 A  
HETATM   12  C   UNL     1      -9.515   9.375  69.651  1.00  0.00    -0.200 A  
HETATM   13  C   UNL     1     -10.594  10.226  69.489  1.00  0.00    -0.270 A  
HETATM   14  C   UNL     1     -10.902  10.783  68.246  1.00  0.00    -0.229 A  
HETATM   15  H   UNL     1     -11.011  12.457  62.288  1.00  0.00     0.000 HD 
HETATM   16  C   UNL     1     -10.043  10.498  67.152  1.00  0.00    -0.253 A  
HETATM   17  C   UNL     1      -8.891   9.711  67.339  1.00  0.00    -0.134 A  
HETATM   18  C   UNL     1      -7.683  10.406  62.500  1.00  0.00    -0.167 A  
HETATM   19  O   UNL     1     -11.395  11.630  65.559  1.00  0.00    -0.265 OA 
HETATM   20  C   UNL     1      -7.389   9.856  63.750  1.00  0.00    -0.130 A  
HETATM   21  C   UNL     1      -7.906   9.568  66.224  1.00  0.00    -0.100 C  
HETATM   22  O   UNL     1      -6.788   9.120  66.458  1.00  0.00    -0.077 OA 
HETATM   23  C   UNL     1      -8.839  11.155  62.333  1.00  0.00    -0.333 A  
HETATM   24  C   UNL     1      -8.238  10.067  64.865  1.00  0.00    -0.154 A  
HETATM   25  O   UNL     1     -10.816  12.089  63.142  1.00  0.00    -0.356 OA 
HETATM   26  H   UNL     1      -5.677   8.978  63.123  1.00  0.00     0.000 HD 
HETATM   27  C   UNL     1      -9.410  10.801  64.679  1.00  0.00    -0.271 A  
HETATM   28  O   UNL     1      -6.246   9.120  63.870  1.00  0.00    -0.085 OA 
HETATM   29  C   UNL     1      -9.698  11.345  63.411  1.00  0.00    -0.365 A  
HETATM   30  C   UNL     1     -10.344  11.032  65.796  1.00  0.00    -0.257 C  
BRANCH  14  31
HETATM   31  N   UNL     1     -11.966  11.663  68.160  1.00  0.00    -0.590 NA 
HETATM   32  H   UNL     1     -12.889  11.290  67.935  1.00  0.00     0.000 HD 
BRANCH  31  33
HETATM   33  C   UNL     1     -11.829  13.096  68.377  1.00  0.00    -0.351 C  
BRANCH  33  34
HETATM   34  C   UNL     1     -11.445  13.392  69.837  1.00  0.00    -0.111 C  
BRANCH  34  35
HETATM   35  N   UNL     1     -10.585  14.581  69.933  1.00  0.00    -0.451 NA 
HETATM   36  H   UNL     1      -9.697  14.448  69.449  1.00  0.00     0.000 HD 
BRANCH  35  37
HETATM   37  C   UNL     1     -11.299  15.769  69.449  1.00  0.00    -0.348 C  
BRANCH  37  38
HETATM   38  C   UNL     1     -10.310  16.815  68.926  1.00  0.00    -0.317 C  
HETATM   39  O   UNL     1      -8.969  16.378  69.134  1.00  0.00    -0.250 OA 
HETATM   40  H   UNL     1      -8.355  17.027  68.810  1.00  0.00     0.000 HD 
ENDBRANCH  37  38
ENDBRANCH  35  37
ENDBRANCH  34  35
ENDBRANCH  33  34
ENDBRANCH  31  33
ENDBRANCH  14  31
ENDBRANCH   9  11
ENDBRANCH   8   9
ENDBRANCH   7   8
ENDBRANCH   5   7
ENDBRANCH   4   5
ENDBRANCH   3   4
TORSDOF 12
ENDMDL
MODEL      163
REMARK 921   NORMALIZED FREE ENERGY PREDICTED BY IDOCK:   -3.25 KCAL/MOL
REMARK 922        TOTAL FREE ENERGY PREDICTED BY IDOCK:   -7.79 KCAL/MOL
REMARK 923 INTER-LIGAND FREE ENERGY PREDICTED BY IDOCK:   -6.70 KCAL/MOL
REMARK 924 INTRA-LIGAND FREE ENERGY PREDICTED BY IDOCK:   -1.09 KCAL/MOL
REMARK 927      BINDING AFFINITY PREDICTED BY RF-SCORE:    0.00 PKD
ROOT
HETATM    1  O   UNL     1     -10.540  20.205  69.791  1.00  0.00    -0.527 OA 
HETATM    2  H   UNL     1     -10.154  20.897  70.315  1.00  0.00     0.000 HD 
HETATM    3  C   UNL     1      -9.535  19.553  69.019  1.00  0.00    -0.320 C  
ENDROOT
BRANCH   3   4
HETATM    4  C   UNL     1     -10.157  18.437  68.175  1.00  0.00    -0.382 C  
BRANCH   4   5
HETATM    5  N   UNL     1      -9.563  18.319  66.835  1.00  0.00    -0.285 NA 
HETATM    6  H   UNL     1      -8.681  17.806  66.864  1.00  0.00     0.000 HD 
BRANCH   5   7
HETATM    7  C   UNL     1     -10.497  17.720  65.871  1.00  0.00    -0.251 C  
BRANCH   7   8
HETATM    8  C   UNL     1     -10.909  16.314  66.323  1.00  0.00    -0.098 C  
BRANCH   8   9
HETATM    9  N   UNL     1     -10.180  15.298  65.585  1.00  0.00    -0.341 NA 
HETATM   10  H   UNL     1      -9.701  15.567  64.726  1.00  0.00     0.000 HD 
BRANCH   9  11
HETATM   11  C   UNL     1     -10.106  13.977  66.000  1.00  0.00    -0.315 A  
HETATM   12  C   UNL     1     -11.020  13.053  65.495  1.00  0.00    -0.296 A  
HETATM   13  C   UNL     1     -11.005  11.731  65.906  1.00  0.00    -0.354 A  
HETATM   14  C   UNL     1     -10.134  11.288  66.902  1.00  0.00    -0.212 A  
HETATM   15  H   UNL     1      -5.805  10.803  71.300  1.00  0.00     0.000 HD 
HETATM   16  C   UNL     1      -9.214  12.219  67.452  1.00  0.00    -0.182 A  
HETATM   17  C   UNL     1      -9.162  13.538  66.966  1.00  0.00    -0.248 A  
HETATM   18  C   UNL     1      -5.334  14.497  70.094  1.00  0.00    -0.101 A  
HETATM   19  O   UNL     1      -8.371  10.705  69.078  1.00  0.00    -0.144 OA 
HETATM   20  C   UNL     1      -6.214  14.925  69.097  1.00  0.00    -0.105 A  
HETATM   21  C   UNL     1      -8.074  14.453  67.427  1.00  0.00    -0.199 C  
HETATM   22  O   UNL     1      -7.861  15.496  66.817  1.00  0.00    -0.217 OA 
HETATM   23  C   UNL     1      -5.423  13.200  70.578  1.00  0.00    -0.159 A  
HETATM   24  C   UNL     1      -7.185  14.052  68.547  1.00  0.00    -0.109 A  
HETATM   25  O   UNL     1      -6.404  11.085  70.619  1.00  0.00    -0.333 OA 
HETATM   26  H   UNL     1      -5.447  16.797  69.021  1.00  0.00     0.000 HD 
HETATM   27  C   UNL     1      -7.281  12.758  69.059  1.00  0.00     0.016 A  
HETATM   28  O   UNL     1      -6.098  16.211  68.653  1.00  0.00    -0.109 OA 
HETATM   29  C   UNL     1      -6.391  12.339  70.070  1.00  0.00    -0.019 A  
HETATM   30  C   UNL     1      -8.288  11.813  68.544  1.00  0.00    -0.131 C  
BRANCH  14  31
HETATM   31  N   UNL     1     -10.137   9.945  67.235  1.00  0.00    -0.199 NA 
HETATM   32  H   UNL     1     -10.328   9.683  68.202  1.00  0.00     0.000 HD 
BRANCH  31  33
HETATM   33  C   UNL     1      -9.881   8.888  66.267  1.00  0.00    -0.285 C  
BRANCH  33  34
HETATM   34  C   UNL     1      -8.556   9.137  65.526  1.00  0.00    -0.170 C  
BRANCH  34  35
HETATM   35  N   UNL     1      -8.624   8.665  64.135  1.00  0.00    -0.387 NA 
HETATM   36  H   UNL     1      -8.603   9.438  63.470  1.00  0.00     0.000 HD 
BRANCH  35  37
HETATM   37  C   UNL     1      -7.559   7.689  63.873  1.00  0.00    -0.118 C  
BRANCH  37  38
HETATM   38  C   UNL     1      -6.268   8.098  64.584  1.00  0.00    -0.056 C  
HETATM   39  O   UNL     1      -5.356   8.687  63.660  1.00  0.00    -0.060 OA 
HETATM   40  H   UNL     1      -4.554   8.941  64.101  1.00  0.00     0.000 HD 
ENDBRANCH  37  38
ENDBRANCH  35  37
ENDBRANCH  34  35
ENDBRANCH  33  34
ENDBRANCH  31  33
ENDBRANCH  14  31
ENDBRANCH   9  11
ENDBRANCH   8   9
ENDBRANCH   7   8
ENDBRANCH   5   7
ENDBRANCH   4   5
ENDBRANCH   3   4
TORSDOF 12
ENDMDL
MODEL      164
REMARK 921   NORMALIZED FREE ENERGY PREDICTED BY IDOCK:   -3.17 KCAL/MOL
REMARK 922        TOTAL FREE ENERGY PREDICTED BY IDOCK:   -7.65 KCAL/MOL
REMARK 923 INTER-LIGAND FREE ENERGY PREDICTED BY IDOCK:   -7.10 KCAL/MOL
REMARK 924 INTRA-LIGAND FREE ENERGY PREDICTED BY IDOCK:   -0.55 KCAL/MOL
REMARK 927      BINDING AFFINITY PREDICTED BY RF-SCORE:    0.00 PKD
ROOT
HETATM    1  O   UNL     1     -12.770  10.282  71.717  1.00  0.00    -0.408 OA 
HETATM    2  H   UNL     1     -13.447  10.891  71.449  1.00  0.00     0.000 HD 
HETATM    3  C   UNL     1     -13.357   9.084  72.221  1.00  0.00    -0.467 C  
ENDROOT
BRANCH   3   4
HETATM    4  C   UNL     1     -12.265   8.102  72.654  1.00  0.00    -0.212 C  
BRANCH   4   5
HETATM    5  N   UNL     1     -12.595   6.698  72.366  1.00  0.00    -0.527 NA 
HETATM    6  H   UNL     1     -13.333   6.627  71.666  1.00  0.00     0.000 HD 
BRANCH   5   7
HETATM    7  C   UNL     1     -11.409   5.925  71.973  1.00  0.00    -0.267 C  
BRANCH   7   8
HETATM    8  C   UNL     1     -10.387   6.826  71.269  1.00  0.00    -0.204 C  
BRANCH   8   9
HETATM    9  N   UNL     1     -10.752   7.035  69.880  1.00  0.00    -0.232 NA 
HETATM   10  H   UNL     1     -11.340   6.341  69.419  1.00  0.00     0.000 HD 
BRANCH   9  11
HETATM   11  C   UNL     1     -10.334   8.140  69.152  1.00  0.00    -0.220 A  
HETATM   12  C   UNL     1     -10.575   9.418  69.656  1.00  0.00    -0.239 A  
HETATM   13  C   UNL     1     -10.207  10.549  68.950  1.00  0.00    -0.223 A  
HETATM   14  C   UNL     1      -9.656  10.461  67.670  1.00  0.00    -0.149 A  
HETATM   15  H   UNL     1      -7.381   8.549  62.240  1.00  0.00     0.000 HD 
HETATM   16  C   UNL     1      -9.429   9.170  67.124  1.00  0.00    -0.197 A  
HETATM   17  C   UNL     1      -9.713   8.019  67.881  1.00  0.00    -0.189 A  
HETATM   18  C   UNL     1      -7.956   5.165  64.123  1.00  0.00    -0.109 A  
HETATM   19  O   UNL     1      -8.722   9.988  65.008  1.00  0.00    -0.151 OA 
HETATM   20  C   UNL     1      -8.507   5.270  65.402  1.00  0.00    -0.145 A  
HETATM   21  C   UNL     1      -9.304   6.677  67.366  1.00  0.00    -0.129 C  
HETATM   22  O   UNL     1      -9.301   5.712  68.125  1.00  0.00    -0.110 OA 
HETATM   23  C   UNL     1      -7.710   6.313  63.384  1.00  0.00    -0.098 A  
HETATM   24  C   UNL     1      -8.800   6.532  65.977  1.00  0.00    -0.154 A  
HETATM   25  O   UNL     1      -7.752   8.629  63.112  1.00  0.00    -0.114 OA 
HETATM   26  H   UNL     1      -8.543   3.270  65.709  1.00  0.00     0.000 HD 
HETATM   27  C   UNL     1      -8.572   7.678  65.214  1.00  0.00    -0.044 A  
HETATM   28  O   UNL     1      -8.740   4.116  66.094  1.00  0.00    -0.112 OA 
HETATM   29  C   UNL     1      -8.022   7.558  63.922  1.00  0.00    -0.089 A  
HETATM   30  C   UNL     1      -8.881   9.016  65.749  1.00  0.00    -0.179 C  
BRANCH  14  31
HETATM   31  N   UNL     1      -9.266  11.628  67.036  1.00  0.00    -0.179 NA 
HETATM   32  H   UNL     1      -8.624  11.561  66.246  1.00  0.00     0.000 HD 
BRANCH  31  33
HETATM   33  C   UNL     1      -9.730  12.946  67.444  1.00  0.00    -0.201 C  
BRANCH  33  34
HETATM   34  C   UNL     1     -11.252  13.071  67.254  1.00  0.00    -0.289 C  
BRANCH  34  35
HETATM   35  N   UNL     1     -11.870  13.814  68.362  1.00  0.00    -0.361 NA 
HETATM   36  H   UNL     1     -11.542  13.485  69.270  1.00  0.00     0.000 HD 
BRANCH  35  37
HETATM   37  C   UNL     1     -11.656  15.257  68.192  1.00  0.00    -0.330 C  
BRANCH  37  38
HETATM   38  C   UNL     1     -11.532  15.945  69.554  1.00  0.00    -0.342 C  
HETATM   39  O   UNL     1     -10.722  15.168  70.433  1.00  0.00    -0.430 OA 
HETATM   40  H   UNL     1     -10.646  15.595  71.278  1.00  0.00     0.000 HD 
ENDBRANCH  37  38
ENDBRANCH  35  37
ENDBRANCH  34  35
ENDBRANCH  33  34
ENDBRANCH  31  33
ENDBRANCH  14  31
ENDBRANCH   9  11
ENDBRANCH   8   9
ENDBRANCH   7   8
ENDBRANCH   5   7
ENDBRANCH   4   5
ENDBRANCH   3   4
TORSDOF 12
ENDMDL
MODEL      165
REMARK 921   NORMALIZED FREE ENERGY PREDICTED BY IDOCK:   -3.12 KCAL/MOL
REMARK 922        TOTAL FREE ENERGY PREDICTED BY IDOCK:   -7.57 KCAL/MOL
REMARK 923 INTER-LIGAND FREE ENERGY PREDICTED BY IDOCK:   -6.42 KCAL/MOL
REMARK 924 INTRA-LIGAND FREE ENERGY PREDICTED BY IDOCK:   -1.15 KCAL/MOL
REMARK 927      BINDING AFFINITY PREDICTED BY RF-SCORE:    0.00 PKD
ROOT
HETATM    1  O   UNL     1     -11.014   6.580  72.050  1.00  0.00    -0.230 OA 
HETATM    2  H   UNL     1     -11.140   6.825  72.958  1.00  0.00     0.000 HD 
HETATM    3  C   UNL     1      -9.622   6.493  71.752  1.00  0.00    -0.152 C  
ENDROOT
BRANCH   3   4
HETATM    4  C   UNL     1      -9.418   6.097  70.287  1.00  0.00    -0.160 C  
BRANCH   4   5
HETATM    5  N   UNL     1      -8.012   6.150  69.858  1.00  0.00    -0.112 NA 
HETATM    6  H   UNL     1      -7.513   5.300  70.121  1.00  0.00     0.000 HD 
BRANCH   5   7
HETATM    7  C   UNL     1      -7.888   6.420  68.419  1.00  0.00    -0.105 C  
BRANCH   7   8
HETATM    8  C   UNL     1      -7.813   7.929  68.159  1.00  0.00    -0.127 C  
BRANCH   8   9
HETATM    9  N   UNL     1      -9.142   8.506  68.071  1.00  0.00    -0.140 NA 
HETATM   10  H   UNL     1      -9.950   7.890  68.159  1.00  0.00     0.000 HD 
BRANCH   9  11
HETATM   11  C   UNL     1      -9.360   9.862  67.872  1.00  0.00    -0.137 A  
HETATM   12  C   UNL     1      -8.640  10.529  66.883  1.00  0.00    -0.125 A  
HETATM   13  C   UNL     1      -8.800  11.888  66.672  1.00  0.00    -0.191 A  
HETATM   14  C   UNL     1      -9.624  12.660  67.492  1.00  0.00    -0.184 A  
HETATM   15  H   UNL     1     -13.529  14.722  71.829  1.00  0.00     0.000 HD 
HETATM   16  C   UNL     1     -10.346  12.006  68.525  1.00  0.00    -0.228 A  
HETATM   17  C   UNL     1     -10.258  10.610  68.678  1.00  0.00    -0.196 A  
HETATM   18  C   UNL     1     -13.591  10.857  72.445  1.00  0.00     0.256 A  
HETATM   19  O   UNL     1     -11.231  14.016  69.431  1.00  0.00    -0.252 OA 
HETATM   20  C   UNL     1     -12.761  10.098  71.617  1.00  0.00    -0.447 A  
HETATM   21  C   UNL     1     -11.157   9.916  69.650  1.00  0.00    -0.241 C  
HETATM   22  O   UNL     1     -11.279   8.696  69.597  1.00  0.00    -0.095 OA 
HETATM   23  C   UNL     1     -13.639  12.235  72.294  1.00  0.00    -0.299 A  
HETATM   24  C   UNL     1     -11.980  10.706  70.601  1.00  0.00    -0.466 A  
HETATM   25  O   UNL     1     -12.965  14.213  71.258  1.00  0.00    -0.326 OA 
HETATM   26  H   UNL     1     -13.260   8.339  72.483  1.00  0.00     0.000 HD 
HETATM   27  C   UNL     1     -12.018  12.094  70.475  1.00  0.00    -0.308 A  
HETATM   28  O   UNL     1     -12.737   8.746  71.802  1.00  0.00    -0.322 OA 
HETATM   29  C   UNL     1     -12.855  12.850  71.322  1.00  0.00    -0.270 A  
HETATM   30  C   UNL     1     -11.209  12.784  69.454  1.00  0.00    -0.132 C  
BRANCH  14  31
HETATM   31  N   UNL     1      -9.777  14.004  67.199  1.00  0.00    -0.236 NA 
HETATM   32  H   UNL     1     -10.698  14.427  67.322  1.00  0.00     0.000 HD 
BRANCH  31  33
HETATM   33  C   UNL     1      -8.685  14.841  66.723  1.00  0.00    -0.224 C  
BRANCH  33  34
HETATM   34  C   UNL     1      -7.956  15.508  67.902  1.00  0.00    -0.136 C  
BRANCH  34  35
HETATM   35  N   UNL     1      -6.611  15.956  67.514  1.00  0.00    -0.168 NA 
HETATM   36  H   UNL     1      -6.172  15.316  66.853  1.00  0.00     0.000 HD 
BRANCH  35  37
HETATM   37  C   UNL     1      -6.659  17.330  66.996  1.00  0.00    -0.177 C  
BRANCH  37  38
HETATM   38  C   UNL     1      -6.418  18.338  68.122  1.00  0.00    -0.189 C  
HETATM   39  O   UNL     1      -7.649  18.923  68.539  1.00  0.00    -0.300 OA 
HETATM   40  H   UNL     1      -7.500  19.549  69.237  1.00  0.00     0.000 HD 
ENDBRANCH  37  38
ENDBRANCH  35  37
ENDBRANCH  34  35
ENDBRANCH  33  34
ENDBRANCH  31  33
ENDBRANCH  14  31
ENDBRANCH   9  11
ENDBRANCH   8   9
ENDBRANCH   7   8
ENDBRANCH   5   7
ENDBRANCH   4   5
ENDBRANCH   3   4
TORSDOF 12
ENDMDL
MODEL      166
REMARK 921   NORMALIZED FREE ENERGY PREDICTED BY IDOCK:   -3.11 KCAL/MOL
REMARK 922        TOTAL FREE ENERGY PREDICTED BY IDOCK:   -7.56 KCAL/MOL
REMARK 923 INTER-LIGAND FREE ENERGY PREDICTED BY IDOCK:   -5.83 KCAL/MOL
REMARK 924 INTRA-LIGAND FREE ENERGY PREDICTED BY IDOCK:   -1.73 KCAL/MOL
REMARK 927      BINDING AFFINITY PREDICTED BY RF-SCORE:    0.00 PKD
ROOT
HETATM    1  O   UNL     1      -8.209   6.515  63.687  1.00  0.00    -0.282 OA 
HETATM    2  H   UNL     1      -8.077   7.411  63.400  1.00  0.00     0.000 HD 
HETATM    3  C   UNL     1      -7.672   5.607  62.728  1.00  0.00    -0.078 C  
ENDROOT
BRANCH   3   4
HETATM    4  C   UNL     1      -7.885   4.163  63.190  1.00  0.00    -0.070 C  
BRANCH   4   5
HETATM    5  N   UNL     1      -8.969   4.017  64.172  1.00  0.00    -0.129 NA 
HETATM    6  H   UNL     1      -9.842   3.742  63.722  1.00  0.00     0.000 HD 
BRANCH   5   7
HETATM    7  C   UNL     1      -8.610   3.088  65.253  1.00  0.00    -0.107 C  
BRANCH   7   8
HETATM    8  C   UNL     1      -9.357   3.448  66.543  1.00  0.00    -0.155 C  
BRANCH   8   9
HETATM    9  N   UNL     1      -8.481   4.137  67.473  1.00  0.00    -0.098 NA 
HETATM   10  H   UNL     1      -7.474   3.995  67.394  1.00  0.00     0.000 HD 
BRANCH   9  11
HETATM   11  C   UNL     1      -8.955   4.983  68.465  1.00  0.00    -0.107 A  
HETATM   12  C   UNL     1      -9.608   4.437  69.570  1.00  0.00    -0.271 A  
HETATM   13  C   UNL     1     -10.128   5.244  70.567  1.00  0.00    -0.315 A  
HETATM   14  C   UNL     1     -10.095   6.636  70.468  1.00  0.00    -0.187 A  
HETATM   15  H   UNL     1      -9.233  12.502  68.690  1.00  0.00     0.000 HD 
HETATM   16  C   UNL     1      -9.461   7.214  69.337  1.00  0.00    -0.153 A  
HETATM   17  C   UNL     1      -8.847   6.395  68.372  1.00  0.00    -0.119 A  
HETATM   18  C   UNL     1      -7.341  10.515  65.898  1.00  0.00    -0.142 A  
HETATM   19  O   UNL     1     -10.048   9.442  69.917  1.00  0.00    -0.191 OA 
HETATM   20  C   UNL     1      -7.384   9.123  66.010  1.00  0.00    -0.094 A  
HETATM   21  C   UNL     1      -8.032   7.019  67.285  1.00  0.00    -0.111 C  
HETATM   22  O   UNL     1      -7.283   6.319  66.611  1.00  0.00    -0.071 OA 
HETATM   23  C   UNL     1      -7.978  11.301  66.847  1.00  0.00    -0.155 A  
HETATM   24  C   UNL     1      -8.046   8.492  67.092  1.00  0.00    -0.104 A  
HETATM   25  O   UNL     1      -9.263  11.556  68.776  1.00  0.00    -0.161 OA 
HETATM   26  H   UNL     1      -6.307   8.808  64.326  1.00  0.00     0.000 HD 
HETATM   27  C   UNL     1      -8.703   9.292  68.027  1.00  0.00    -0.125 A  
HETATM   28  O   UNL     1      -6.750   8.386  65.052  1.00  0.00    -0.062 OA 
HETATM   29  C   UNL     1      -8.659  10.696  67.899  1.00  0.00    -0.124 A  
HETATM   30  C   UNL     1      -9.430   8.691  69.160  1.00  0.00    -0.157 C  
BRANCH  14  31
HETATM   31  N   UNL     1     -10.590   7.386  71.521  1.00  0.00    -0.207 NA 
HETATM   32  H   UNL     1     -10.052   8.194  71.838  1.00  0.00     0.000 HD 
BRANCH  31  33
HETATM   33  C   UNL     1     -11.841   7.075  72.197  1.00  0.00    -0.275 C  
BRANCH  33  34
HETATM   34  C   UNL     1     -13.020   7.123  71.209  1.00  0.00    -0.324 C  
BRANCH  34  35
HETATM   35  N   UNL     1     -14.254   7.571  71.870  1.00  0.00    -0.561 NA 
HETATM   36  H   UNL     1     -14.522   6.952  72.636  1.00  0.00     0.000 HD 
BRANCH  35  37
HETATM   37  C   UNL     1     -14.120   8.964  72.314  1.00  0.00    -0.442 C  
BRANCH  37  38
HETATM   38  C   UNL     1     -13.754   9.871  71.137  1.00  0.00    -0.054 C  
HETATM   39  O   UNL     1     -12.665  10.723  71.484  1.00  0.00    -0.395 OA 
HETATM   40  H   UNL     1     -12.438  11.286  70.753  1.00  0.00     0.000 HD 
ENDBRANCH  37  38
ENDBRANCH  35  37
ENDBRANCH  34  35
ENDBRANCH  33  34
ENDBRANCH  31  33
ENDBRANCH  14  31
ENDBRANCH   9  11
ENDBRANCH   8   9
ENDBRANCH   7   8
ENDBRANCH   5   7
ENDBRANCH   4   5
ENDBRANCH   3   4
TORSDOF 12
ENDMDL
MODEL      167
REMARK 921   NORMALIZED FREE ENERGY PREDICTED BY IDOCK:   -3.09 KCAL/MOL
REMARK 922        TOTAL FREE ENERGY PREDICTED BY IDOCK:   -7.52 KCAL/MOL
REMARK 923 INTER-LIGAND FREE ENERGY PREDICTED BY IDOCK:   -6.82 KCAL/MOL
REMARK 924 INTRA-LIGAND FREE ENERGY PREDICTED BY IDOCK:   -0.69 KCAL/MOL
REMARK 927      BINDING AFFINITY PREDICTED BY RF-SCORE:    0.00 PKD
ROOT
HETATM    1  O   UNL     1      -6.940  10.006  69.081  1.00  0.00    -0.053 OA 
HETATM    2  H   UNL     1      -6.605   9.171  69.384  1.00  0.00     0.000 HD 
HETATM    3  C   UNL     1      -6.545  10.235  67.730  1.00  0.00    -0.066 C  
ENDROOT
BRANCH   3   4
HETATM    4  C   UNL     1      -7.086  11.582  67.241  1.00  0.00    -0.128 C  
BRANCH   4   5
HETATM    5  N   UNL     1      -8.077  11.456  66.163  1.00  0.00    -0.356 NA 
HETATM    6  H   UNL     1      -8.246  12.354  65.709  1.00  0.00     0.000 HD 
BRANCH   5   7
HETATM    7  C   UNL     1      -7.698  10.427  65.186  1.00  0.00    -0.110 C  
BRANCH   7   8
HETATM    8  C   UNL     1      -8.938   9.892  64.458  1.00  0.00    -0.234 C  
BRANCH   8   9
HETATM    9  N   UNL     1      -9.768   9.109  65.355  1.00  0.00    -0.457 NA 
HETATM   10  H   UNL     1     -10.775   9.271  65.356  1.00  0.00     0.000 HD 
BRANCH   9  11
HETATM   11  C   UNL     1      -9.250   8.149  66.212  1.00  0.00    -0.191 A  
HETATM   12  C   UNL     1      -8.409   7.162  65.699  1.00  0.00    -0.138 A  
HETATM   13  C   UNL     1      -7.896   6.164  66.510  1.00  0.00    -0.104 A  
HETATM   14  C   UNL     1      -8.263   6.056  67.852  1.00  0.00    -0.112 A  
HETATM   15  H   UNL     1     -10.738   6.832  73.472  1.00  0.00     0.000 HD 
HETATM   16  C   UNL     1      -9.141   7.034  68.389  1.00  0.00    -0.127 A  
HETATM   17  C   UNL     1      -9.586   8.104  67.590  1.00  0.00    -0.186 A  
HETATM   18  C   UNL     1     -12.059   9.979  71.555  1.00  0.00    -0.475 A  
HETATM   19  O   UNL     1      -9.326   5.972  70.506  1.00  0.00    -0.157 OA 
HETATM   20  C   UNL     1     -11.684  10.073  70.213  1.00  0.00    -0.251 A  
HETATM   21  C   UNL     1     -10.363   9.218  68.214  1.00  0.00    -0.217 C  
HETATM   22  O   UNL     1     -10.518  10.267  67.598  1.00  0.00    -0.204 OA 
HETATM   23  C   UNL     1     -11.631   8.901  72.315  1.00  0.00    -0.332 A  
HETATM   24  C   UNL     1     -10.849   9.098  69.613  1.00  0.00    -0.210 A  
HETATM   25  O   UNL     1     -10.475   6.891  72.561  1.00  0.00    -0.201 OA 
HETATM   26  H   UNL     1     -12.691  11.800  69.901  1.00  0.00     0.000 HD 
HETATM   27  C   UNL     1     -10.445   8.005  70.380  1.00  0.00    -0.218 A  
HETATM   28  O   UNL     1     -12.132  11.146  69.499  1.00  0.00    -0.322 OA 
HETATM   29  C   UNL     1     -10.837   7.919  71.732  1.00  0.00    -0.237 A  
HETATM   30  C   UNL     1      -9.597   6.947  69.802  1.00  0.00    -0.154 C  
BRANCH  14  31
HETATM   31  N   UNL     1      -7.678   5.065  68.620  1.00  0.00    -0.078 NA 
HETATM   32  H   UNL     1      -7.366   5.300  69.563  1.00  0.00     0.000 HD 
BRANCH  31  33
HETATM   33  C   UNL     1      -7.488   3.702  68.145  1.00  0.00    -0.061 C  
BRANCH  33  34
HETATM   34  C   UNL     1      -8.023   3.545  66.711  1.00  0.00    -0.084 C  
BRANCH  34  35
HETATM   35  N   UNL     1      -9.379   2.979  66.706  1.00  0.00    -0.334 NA 
HETATM   36  H   UNL     1     -10.036   3.559  67.228  1.00  0.00     0.000 HD 
BRANCH  35  37
HETATM   37  C   UNL     1      -9.830   2.746  65.328  1.00  0.00     0.256 C  
BRANCH  37  38
HETATM   38  C   UNL     1     -10.274   4.059  64.678  1.00  0.00    -0.214 C  
HETATM   39  O   UNL     1     -11.472   4.535  65.286  1.00  0.00    -1.068 OA 
HETATM   40  H   UNL     1     -11.748   5.350  64.882  1.00  0.00     0.000 HD 
ENDBRANCH  37  38
ENDBRANCH  35  37
ENDBRANCH  34  35
ENDBRANCH  33  34
ENDBRANCH  31  33
ENDBRANCH  14  31
ENDBRANCH   9  11
ENDBRANCH   8   9
ENDBRANCH   7   8
ENDBRANCH   5   7
ENDBRANCH   4   5
ENDBRANCH   3   4
TORSDOF 12
ENDMDL
MODEL      168
REMARK 921   NORMALIZED FREE ENERGY PREDICTED BY IDOCK:   -3.07 KCAL/MOL
REMARK 922        TOTAL FREE ENERGY PREDICTED BY IDOCK:   -7.49 KCAL/MOL
REMARK 923 INTER-LIGAND FREE ENERGY PREDICTED BY IDOCK:   -6.57 KCAL/MOL
REMARK 924 INTRA-LIGAND FREE ENERGY PREDICTED BY IDOCK:   -0.92 KCAL/MOL
REMARK 927      BINDING AFFINITY PREDICTED BY RF-SCORE:    0.00 PKD
ROOT
HETATM    1  O   UNL     1     -14.112   7.391  71.080  1.00  0.00    -0.640 OA 
HETATM    2  H   UNL     1     -14.855   7.300  71.663  1.00  0.00     0.000 HD 
HETATM    3  C   UNL     1     -12.896   7.188  71.795  1.00  0.00    -0.330 C  
ENDROOT
BRANCH   3   4
HETATM    4  C   UNL     1     -11.697   7.335  70.854  1.00  0.00    -0.315 C  
BRANCH   4   5
HETATM    5  N   UNL     1     -11.488   8.713  70.384  1.00  0.00    -0.426 NA 
HETATM    6  H   UNL     1     -12.376   9.196  70.244  1.00  0.00     0.000 HD 
BRANCH   5   7
HETATM    7  C   UNL     1     -10.604   9.470  71.281  1.00  0.00    -0.288 C  
BRANCH   7   8
HETATM    8  C   UNL     1      -9.657   8.524  72.029  1.00  0.00    -0.301 C  
BRANCH   8   9
HETATM    9  N   UNL     1      -8.331   8.544  71.437  1.00  0.00    -0.147 NA 
HETATM   10  H   UNL     1      -7.522   8.420  72.046  1.00  0.00     0.000 HD 
BRANCH   9  11
HETATM   11  C   UNL     1      -8.118   8.725  70.079  1.00  0.00    -0.111 A  
HETATM   12  C   UNL     1      -7.802   9.996  69.602  1.00  0.00    -0.171 A  
HETATM   13  C   UNL     1      -7.614  10.230  68.251  1.00  0.00    -0.091 A  
HETATM   14  C   UNL     1      -7.816   9.224  67.303  1.00  0.00    -0.099 A  
HETATM   15  H   UNL     1      -9.037   3.919  64.358  1.00  0.00     0.000 HD 
HETATM   16  C   UNL     1      -8.167   7.929  67.764  1.00  0.00    -0.129 A  
HETATM   17  C   UNL     1      -8.263   7.666  69.143  1.00  0.00    -0.130 A  
HETATM   18  C   UNL     1      -9.272   2.842  68.114  1.00  0.00    -0.254 A  
HETATM   19  O   UNL     1      -8.470   7.035  65.583  1.00  0.00    -0.146 OA 
HETATM   20  C   UNL     1      -9.069   3.859  69.049  1.00  0.00    -0.137 A  
HETATM   21  C   UNL     1      -8.457   6.262  69.616  1.00  0.00    -0.129 C  
HETATM   22  O   UNL     1      -8.272   5.990  70.798  1.00  0.00    -0.120 OA 
HETATM   23  C   UNL     1      -9.201   3.130  66.759  1.00  0.00    -0.175 A  
HETATM   24  C   UNL     1      -8.764   5.182  68.644  1.00  0.00    -0.098 A  
HETATM   25  O   UNL     1      -8.893   4.616  64.988  1.00  0.00    -0.139 OA 
HETATM   26  H   UNL     1      -9.359   2.648  70.645  1.00  0.00     0.000 HD 
HETATM   27  C   UNL     1      -8.719   5.465  67.279  1.00  0.00    -0.107 A  
HETATM   28  O   UNL     1      -9.154   3.535  70.373  1.00  0.00    -0.100 OA 
HETATM   29  C   UNL     1      -8.933   4.431  66.344  1.00  0.00    -0.117 A  
HETATM   30  C   UNL     1      -8.432   6.829  66.798  1.00  0.00    -0.117 C  
BRANCH  14  31
HETATM   31  N   UNL     1      -7.566   9.510  65.973  1.00  0.00    -0.099 NA 
HETATM   32  H   UNL     1      -6.933   8.901  65.454  1.00  0.00     0.000 HD 
BRANCH  31  33
HETATM   33  C   UNL     1      -8.166  10.641  65.278  1.00  0.00    -0.105 C  
BRANCH  33  34
HETATM   34  C   UNL     1      -9.285  10.169  64.334  1.00  0.00    -0.258 C  
BRANCH  34  35
HETATM   35  N   UNL     1     -10.607  10.306  64.962  1.00  0.00     0.011 NA 
HETATM   36  H   UNL     1     -10.825   9.513  65.566  1.00  0.00     0.000 HD 
BRANCH  35  37
HETATM   37  C   UNL     1     -10.704  11.583  65.679  1.00  0.00    -0.267 C  
BRANCH  37  38
HETATM   38  C   UNL     1     -11.407  12.633  64.815  1.00  0.00    -0.312 C  
HETATM   39  O   UNL     1     -12.801  12.667  65.110  1.00  0.00    -0.721 OA 
HETATM   40  H   UNL     1     -13.238  13.318  64.574  1.00  0.00     0.000 HD 
ENDBRANCH  37  38
ENDBRANCH  35  37
ENDBRANCH  34  35
ENDBRANCH  33  34
ENDBRANCH  31  33
ENDBRANCH  14  31
ENDBRANCH   9  11
ENDBRANCH   8   9
ENDBRANCH   7   8
ENDBRANCH   5   7
ENDBRANCH   4   5
ENDBRANCH   3   4
TORSDOF 12
ENDMDL
MODEL      169
REMARK 921   NORMALIZED FREE ENERGY PREDICTED BY IDOCK:   -3.06 KCAL/MOL
REMARK 922        TOTAL FREE ENERGY PREDICTED BY IDOCK:   -7.47 KCAL/MOL
REMARK 923 INTER-LIGAND FREE ENERGY PREDICTED BY IDOCK:   -6.13 KCAL/MOL
REMARK 924 INTRA-LIGAND FREE ENERGY PREDICTED BY IDOCK:   -1.35 KCAL/MOL
REMARK 927      BINDING AFFINITY PREDICTED BY RF-SCORE:    0.00 PKD
ROOT
HETATM    1  O   UNL     1     -10.025   4.450  68.052  1.00  0.00    -0.110 OA 
HETATM    2  H   UNL     1     -10.961   4.356  67.919  1.00  0.00     0.000 HD 
HETATM    3  C   UNL     1      -9.510   5.482  67.214  1.00  0.00    -0.117 C  
ENDROOT
BRANCH   3   4
HETATM    4  C   UNL     1      -8.001   5.633  67.428  1.00  0.00    -0.102 C  
BRANCH   4   5
HETATM    5  N   UNL     1      -7.654   6.277  68.704  1.00  0.00    -0.091 NA 
HETATM    6  H   UNL     1      -7.748   5.626  69.484  1.00  0.00     0.000 HD 
BRANCH   5   7
HETATM    7  C   UNL     1      -6.314   6.879  68.669  1.00  0.00    -0.032 C  
BRANCH   7   8
HETATM    8  C   UNL     1      -6.236   7.958  67.581  1.00  0.00    -0.051 C  
BRANCH   8   9
HETATM    9  N   UNL     1      -6.623   9.254  68.109  1.00  0.00    -0.059 NA 
HETATM   10  H   UNL     1      -6.190   9.579  68.973  1.00  0.00     0.000 HD 
BRANCH   9  11
HETATM   11  C   UNL     1      -7.558  10.069  67.487  1.00  0.00    -0.091 A  
HETATM   12  C   UNL     1      -8.411   9.520  66.531  1.00  0.00    -0.119 A  
HETATM   13  C   UNL     1      -9.335  10.302  65.860  1.00  0.00    -0.226 A  
HETATM   14  C   UNL     1      -9.395  11.683  66.051  1.00  0.00    -0.227 A  
HETATM   15  H   UNL     1      -8.505  17.526  67.891  1.00  0.00     0.000 HD 
HETATM   16  C   UNL     1      -8.516  12.268  66.999  1.00  0.00    -0.181 A  
HETATM   17  C   UNL     1      -7.643  11.461  67.752  1.00  0.00    -0.105 A  
HETATM   18  C   UNL     1      -6.049  15.553  70.215  1.00  0.00    -0.085 A  
HETATM   19  O   UNL     1      -9.171  14.498  66.505  1.00  0.00    -0.265 OA 
HETATM   20  C   UNL     1      -5.999  14.172  70.012  1.00  0.00    -0.141 A  
HETATM   21  C   UNL     1      -6.853  12.067  68.867  1.00  0.00    -0.103 C  
HETATM   22  O   UNL     1      -6.307  11.337  69.688  1.00  0.00    -0.094 OA 
HETATM   23  C   UNL     1      -6.896  16.333  69.442  1.00  0.00    -0.213 A  
HETATM   24  C   UNL     1      -6.820  13.541  69.044  1.00  0.00    -0.107 A  
HETATM   25  O   UNL     1      -8.481  16.586  67.750  1.00  0.00    -0.172 OA 
HETATM   26  H   UNL     1      -4.597  13.865  71.438  1.00  0.00     0.000 HD 
HETATM   27  C   UNL     1      -7.651  14.338  68.256  1.00  0.00    -0.130 A  
HETATM   28  O   UNL     1      -5.147  13.442  70.789  1.00  0.00    -0.100 OA 
HETATM   29  C   UNL     1      -7.686  15.732  68.466  1.00  0.00    -0.137 A  
HETATM   30  C   UNL     1      -8.508  13.740  67.216  1.00  0.00    -0.194 C  
BRANCH  14  31
HETATM   31  N   UNL     1     -10.373  12.401  65.386  1.00  0.00    -0.272 NA 
HETATM   32  H   UNL     1     -10.101  12.962  64.578  1.00  0.00     0.000 HD 
BRANCH  31  33
HETATM   33  C   UNL     1     -11.773  12.392  65.786  1.00  0.00    -0.414 C  
BRANCH  33  34
HETATM   34  C   UNL     1     -12.362  13.812  65.738  1.00  0.00    -0.486 C  
BRANCH  34  35
HETATM   35  N   UNL     1     -12.171  14.514  67.016  1.00  0.00    -0.531 NA 
HETATM   36  H   UNL     1     -12.916  15.188  67.195  1.00  0.00     0.000 HD 
BRANCH  35  37
HETATM   37  C   UNL     1     -12.030  13.549  68.113  1.00  0.00    -0.341 C  
BRANCH  37  38
HETATM   38  C   UNL     1     -11.788  14.274  69.439  1.00  0.00    -0.326 C  
HETATM   39  O   UNL     1     -11.434  13.342  70.458  1.00  0.00    -0.505 OA 
HETATM   40  H   UNL     1     -11.284  13.792  71.282  1.00  0.00     0.000 HD 
ENDBRANCH  37  38
ENDBRANCH  35  37
ENDBRANCH  34  35
ENDBRANCH  33  34
ENDBRANCH  31  33
ENDBRANCH  14  31
ENDBRANCH   9  11
ENDBRANCH   8   9
ENDBRANCH   7   8
ENDBRANCH   5   7
ENDBRANCH   4   5
ENDBRANCH   3   4
TORSDOF 12
ENDMDL
MODEL      170
REMARK 921   NORMALIZED FREE ENERGY PREDICTED BY IDOCK:   -3.05 KCAL/MOL
REMARK 922        TOTAL FREE ENERGY PREDICTED BY IDOCK:   -7.45 KCAL/MOL
REMARK 923 INTER-LIGAND FREE ENERGY PREDICTED BY IDOCK:   -5.72 KCAL/MOL
REMARK 924 INTRA-LIGAND FREE ENERGY PREDICTED BY IDOCK:   -1.72 KCAL/MOL
REMARK 927      BINDING AFFINITY PREDICTED BY RF-SCORE:    0.00 PKD
ROOT
HETATM    1  O   UNL     1      -5.825  10.798  71.240  1.00  0.00    -0.335 OA 
HETATM    2  H   UNL     1      -5.075  11.268  71.586  1.00  0.00     0.000 HD 
HETATM    3  C   UNL     1      -6.108  11.234  69.913  1.00  0.00    -0.130 C  
ENDROOT
BRANCH   3   4
HETATM    4  C   UNL     1      -7.316  10.476  69.354  1.00  0.00    -0.133 C  
BRANCH   4   5
HETATM    5  N   UNL     1      -7.765  10.975  68.046  1.00  0.00    -0.102 NA 
HETATM    6  H   UNL     1      -8.322  10.276  67.554  1.00  0.00     0.000 HD 
BRANCH   5   7
HETATM    7  C   UNL     1      -8.487  12.249  68.162  1.00  0.00    -0.176 C  
BRANCH   7   8
HETATM    8  C   UNL     1      -9.794  12.058  68.942  1.00  0.00     0.057 C  
BRANCH   8   9
HETATM    9  N   UNL     1     -10.591  10.990  68.365  1.00  0.00    -0.182 NA 
HETATM   10  H   UNL     1     -10.937  11.099  67.412  1.00  0.00     0.000 HD 
BRANCH   9  11
HETATM   11  C   UNL     1     -10.900   9.827  69.055  1.00  0.00    -0.199 A  
HETATM   12  C   UNL     1     -11.585   9.916  70.266  1.00  0.00    -0.319 A  
HETATM   13  C   UNL     1     -11.885   8.785  71.006  1.00  0.00    -0.315 A  
HETATM   14  C   UNL     1     -11.442   7.521  70.614  1.00  0.00    -0.269 A  
HETATM   15  H   UNL     1      -8.874   2.707  67.691  1.00  0.00     0.000 HD 
HETATM   16  C   UNL     1     -10.718   7.410  69.399  1.00  0.00    -0.220 A  
HETATM   17  C   UNL     1     -10.496   8.545  68.597  1.00  0.00    -0.200 A  
HETATM   18  C   UNL     1      -8.193   5.640  65.191  1.00  0.00    -0.136 A  
HETATM   19  O   UNL     1     -10.258   5.095  69.670  1.00  0.00    -0.241 OA 
HETATM   20  C   UNL     1      -8.640   6.899  65.597  1.00  0.00    -0.110 A  
HETATM   21  C   UNL     1      -9.891   8.385  67.241  1.00  0.00    -0.203 C  
HETATM   22  O   UNL     1      -9.943   9.313  66.440  1.00  0.00    -0.255 OA 
HETATM   23  C   UNL     1      -8.397   4.540  66.010  1.00  0.00    -0.113 A  
HETATM   24  C   UNL     1      -9.326   7.075  66.824  1.00  0.00    -0.191 A  
HETATM   25  O   UNL     1      -9.186   3.559  67.973  1.00  0.00    -0.145 OA 
HETATM   26  H   UNL     1      -7.954   7.839  63.942  1.00  0.00     0.000 HD 
HETATM   27  C   UNL     1      -9.504   5.966  67.651  1.00  0.00    -0.110 A  
HETATM   28  O   UNL     1      -8.413   7.957  64.764  1.00  0.00    -0.108 OA 
HETATM   29  C   UNL     1      -9.041   4.702  67.233  1.00  0.00    -0.123 A  
HETATM   30  C   UNL     1     -10.188   6.093  68.951  1.00  0.00    -0.188 C  
BRANCH  14  31
HETATM   31  N   UNL     1     -11.816   6.425  71.372  1.00  0.00    -0.314 NA 
HETATM   32  H   UNL     1     -12.349   5.681  70.922  1.00  0.00     0.000 HD 
BRANCH  31  33
HETATM   33  C   UNL     1     -11.483   6.286  72.783  1.00  0.00    -0.164 C  
BRANCH  33  34
HETATM   34  C   UNL     1     -10.049   5.757  72.955  1.00  0.00    -0.184 C  
BRANCH  34  35
HETATM   35  N   UNL     1      -9.958   4.334  72.594  1.00  0.00    -0.149 NA 
HETATM   36  H   UNL     1      -9.465   4.197  71.712  1.00  0.00     0.000 HD 
BRANCH  35  37
HETATM   37  C   UNL     1      -9.346   3.568  73.688  1.00  0.00    -0.096 C  
BRANCH  37  38
HETATM   38  C   UNL     1     -10.393   2.691  74.380  1.00  0.00    -0.152 C  
HETATM   39  O   UNL     1     -11.569   2.595  73.581  1.00  0.00    -0.217 OA 
HETATM   40  H   UNL     1     -12.219   2.051  74.010  1.00  0.00     0.000 HD 
ENDBRANCH  37  38
ENDBRANCH  35  37
ENDBRANCH  34  35
ENDBRANCH  33  34
ENDBRANCH  31  33
ENDBRANCH  14  31
ENDBRANCH   9  11
ENDBRANCH   8   9
ENDBRANCH   7   8
ENDBRANCH   5   7
ENDBRANCH   4   5
ENDBRANCH   3   4
TORSDOF 12
ENDMDL
MODEL      171
REMARK 921   NORMALIZED FREE ENERGY PREDICTED BY IDOCK:   -2.99 KCAL/MOL
REMARK 922        TOTAL FREE ENERGY PREDICTED BY IDOCK:   -7.35 KCAL/MOL
REMARK 923 INTER-LIGAND FREE ENERGY PREDICTED BY IDOCK:   -6.64 KCAL/MOL
REMARK 924 INTRA-LIGAND FREE ENERGY PREDICTED BY IDOCK:   -0.71 KCAL/MOL
REMARK 927      BINDING AFFINITY PREDICTED BY RF-SCORE:    0.00 PKD
ROOT
HETATM    1  O   UNL     1     -10.798  12.162  62.942  1.00  0.00    -0.602 OA 
HETATM    2  H   UNL     1     -10.513  11.338  62.565  1.00  0.00     0.000 HD 
HETATM    3  C   UNL     1     -12.018  11.979  63.657  1.00  0.00    -0.515 C  
ENDROOT
BRANCH   3   4
HETATM    4  C   UNL     1     -12.477  13.307  64.267  1.00  0.00    -0.269 C  
BRANCH   4   5
HETATM    5  N   UNL     1     -12.274  13.383  65.721  1.00  0.00    -0.437 NA 
HETATM    6  H   UNL     1     -13.163  13.450  66.217  1.00  0.00     0.000 HD 
BRANCH   5   7
HETATM    7  C   UNL     1     -11.466  12.263  66.222  1.00  0.00    -0.380 C  
BRANCH   7   8
HETATM    8  C   UNL     1     -10.521  12.735  67.334  1.00  0.00    -0.228 C  
BRANCH   8   9
HETATM    9  N   UNL     1      -9.610  11.674  67.725  1.00  0.00    -0.173 NA 
HETATM   10  H   UNL     1      -8.614  11.794  67.544  1.00  0.00     0.000 HD 
BRANCH   9  11
HETATM   11  C   UNL     1     -10.038  10.504  68.334  1.00  0.00    -0.164 A  
HETATM   12  C   UNL     1     -10.670  10.574  69.575  1.00  0.00    -0.291 A  
HETATM   13  C   UNL     1     -11.083   9.430  70.236  1.00  0.00    -0.299 A  
HETATM   14  C   UNL     1     -10.812   8.158  69.729  1.00  0.00    -0.190 A  
HETATM   15  H   UNL     1      -8.944   3.329  66.337  1.00  0.00     0.000 HD 
HETATM   16  C   UNL     1     -10.144   8.062  68.480  1.00  0.00    -0.218 A  
HETATM   17  C   UNL     1      -9.809   9.225  67.761  1.00  0.00    -0.210 A  
HETATM   18  C   UNL     1      -7.985   6.356  64.048  1.00  0.00    -0.090 A  
HETATM   19  O   UNL     1      -9.964   5.694  68.550  1.00  0.00    -0.138 OA 
HETATM   20  C   UNL     1      -8.262   7.622  64.569  1.00  0.00    -0.049 A  
HETATM   21  C   UNL     1      -9.270   9.106  66.373  1.00  0.00    -0.183 C  
HETATM   22  O   UNL     1      -9.232  10.097  65.650  1.00  0.00    -0.166 OA 
HETATM   23  C   UNL     1      -8.298   5.224  64.787  1.00  0.00    -0.145 A  
HETATM   24  C   UNL     1      -8.883   7.777  65.833  1.00  0.00    -0.176 A  
HETATM   25  O   UNL     1      -9.140   4.186  66.697  1.00  0.00    -0.119 OA 
HETATM   26  H   UNL     1      -7.517   8.606  62.966  1.00  0.00     0.000 HD 
HETATM   27  C   UNL     1      -9.171   6.633  66.577  1.00  0.00    -0.183 A  
HETATM   28  O   UNL     1      -7.933   8.710  63.813  1.00  0.00    -0.144 OA 
HETATM   29  C   UNL     1      -8.879   5.361  66.043  1.00  0.00    -0.144 A  
HETATM   30  C   UNL     1      -9.793   6.733  67.910  1.00  0.00    -0.129 C  
BRANCH  14  31
HETATM   31  N   UNL     1     -11.293   7.057  70.414  1.00  0.00    -0.300 NA 
HETATM   32  H   UNL     1     -12.110   6.571  70.041  1.00  0.00     0.000 HD 
BRANCH  31  33
HETATM   33  C   UNL     1     -10.687   6.559  71.640  1.00  0.00    -0.230 C  
BRANCH  33  34
HETATM   34  C   UNL     1     -11.152   5.122  71.933  1.00  0.00     0.033 C  
BRANCH  34  35
HETATM   35  N   UNL     1     -10.322   4.492  72.971  1.00  0.00    -0.169 NA 
HETATM   36  H   UNL     1     -10.874   4.212  73.781  1.00  0.00     0.000 HD 
BRANCH  35  37
HETATM   37  C   UNL     1      -9.565   3.366  72.408  1.00  0.00    -0.133 C  
BRANCH  37  38
HETATM   38  C   UNL     1      -9.140   2.397  73.514  1.00  0.00    -0.083 C  
HETATM   39  O   UNL     1     -10.186   2.246  74.471  1.00  0.00    -0.115 OA 
HETATM   40  H   UNL     1      -9.922   1.646  75.158  1.00  0.00     0.000 HD 
ENDBRANCH  37  38
ENDBRANCH  35  37
ENDBRANCH  34  35
ENDBRANCH  33  34
ENDBRANCH  31  33
ENDBRANCH  14  31
ENDBRANCH   9  11
ENDBRANCH   8   9
ENDBRANCH   7   8
ENDBRANCH   5   7
ENDBRANCH   4   5
ENDBRANCH   3   4
TORSDOF 12
ENDMDL
MODEL      172
REMARK 921   NORMALIZED FREE ENERGY PREDICTED BY IDOCK:   -2.99 KCAL/MOL
REMARK 922        TOTAL FREE ENERGY PREDICTED BY IDOCK:   -7.34 KCAL/MOL
REMARK 923 INTER-LIGAND FREE ENERGY PREDICTED BY IDOCK:   -6.47 KCAL/MOL
REMARK 924 INTRA-LIGAND FREE ENERGY PREDICTED BY IDOCK:   -0.87 KCAL/MOL
REMARK 927      BINDING AFFINITY PREDICTED BY RF-SCORE:    0.00 PKD
ROOT
HETATM    1  O   UNL     1      -7.265   8.893  72.417  1.00  0.00    -0.329 OA 
HETATM    2  H   UNL     1      -7.584   8.210  72.994  1.00  0.00     0.000 HD 
HETATM    3  C   UNL     1      -5.966   8.563  71.932  1.00  0.00    -0.054 C  
ENDROOT
BRANCH   3   4
HETATM    4  C   UNL     1      -5.452   9.665  71.001  1.00  0.00    -0.059 C  
BRANCH   4   5
HETATM    5  N   UNL     1      -6.443  10.720  70.742  1.00  0.00    -0.427 NA 
HETATM    6  H   UNL     1      -7.091  10.820  71.524  1.00  0.00     0.000 HD 
BRANCH   5   7
HETATM    7  C   UNL     1      -5.806  12.001  70.410  1.00  0.00    -0.157 C  
BRANCH   7   8
HETATM    8  C   UNL     1      -5.379  12.025  68.937  1.00  0.00    -0.050 C  
BRANCH   8   9
HETATM    9  N   UNL     1      -6.506  12.334  68.075  1.00  0.00    -0.068 NA 
HETATM   10  H   UNL     1      -6.891  13.278  68.094  1.00  0.00     0.000 HD 
BRANCH   9  11
HETATM   11  C   UNL     1      -7.081  11.398  67.228  1.00  0.00    -0.119 A  
HETATM   12  C   UNL     1      -6.446  10.172  67.037  1.00  0.00    -0.069 A  
HETATM   13  C   UNL     1      -6.965   9.222  66.174  1.00  0.00    -0.086 A  
HETATM   14  C   UNL     1      -8.096   9.483  65.399  1.00  0.00    -0.125 A  
HETATM   15  H   UNL     1     -13.054  12.010  62.688  1.00  0.00     0.000 HD 
HETATM   16  C   UNL     1      -8.742  10.737  65.556  1.00  0.00    -0.196 A  
HETATM   17  C   UNL     1      -8.272  11.665  66.503  1.00  0.00    -0.101 A  
HETATM   18  C   UNL     1     -12.066  14.750  65.303  1.00  0.00    -0.198 A  
HETATM   19  O   UNL     1     -10.309  10.355  63.811  1.00  0.00    -0.128 OA 
HETATM   20  C   UNL     1     -10.932  14.475  66.070  1.00  0.00    -0.324 A  
HETATM   21  C   UNL     1      -9.064  12.901  66.782  1.00  0.00    -0.211 C  
HETATM   22  O   UNL     1      -8.812  13.570  67.780  1.00  0.00    -0.175 OA 
HETATM   23  C   UNL     1     -12.495  13.832  64.355  1.00  0.00    -0.317 A  
HETATM   24  C   UNL     1     -10.220  13.259  65.920  1.00  0.00    -0.295 A  
HETATM   25  O   UNL     1     -12.284  11.812  63.209  1.00  0.00    -0.489 OA 
HETATM   26  H   UNL     1     -11.017  16.222  67.088  1.00  0.00     0.000 HD 
HETATM   27  C   UNL     1     -10.646  12.355  64.947  1.00  0.00    -0.326 A  
HETATM   28  O   UNL     1     -10.540  15.407  66.987  1.00  0.00    -0.296 OA 
HETATM   29  C   UNL     1     -11.788  12.648  64.174  1.00  0.00    -0.410 A  
HETATM   30  C   UNL     1      -9.929  11.085  64.728  1.00  0.00    -0.294 C  
BRANCH  14  31
HETATM   31  N   UNL     1      -8.592   8.475  64.592  1.00  0.00    -0.365 NA 
HETATM   32  H   UNL     1      -9.510   8.600  64.164  1.00  0.00     0.000 HD 
BRANCH  31  33
HETATM   33  C   UNL     1      -7.864   7.242  64.325  1.00  0.00    -0.125 C  
BRANCH  33  34
HETATM   34  C   UNL     1      -8.680   6.019  64.775  1.00  0.00     0.123 C  
BRANCH  34  35
HETATM   35  N   UNL     1      -8.175   4.783  64.158  1.00  0.00    -0.111 NA 
HETATM   36  H   UNL     1      -7.199   4.869  63.877  1.00  0.00     0.000 HD 
BRANCH  35  37
HETATM   37  C   UNL     1      -8.388   3.640  65.056  1.00  0.00    -0.097 C  
BRANCH  37  38
HETATM   38  C   UNL     1      -9.472   3.961  66.088  1.00  0.00    -0.184 C  
HETATM   39  O   UNL     1      -9.732   2.823  66.906  1.00  0.00    -0.406 OA 
HETATM   40  H   UNL     1     -10.405   3.022  67.546  1.00  0.00     0.000 HD 
ENDBRANCH  37  38
ENDBRANCH  35  37
ENDBRANCH  34  35
ENDBRANCH  33  34
ENDBRANCH  31  33
ENDBRANCH  14  31
ENDBRANCH   9  11
ENDBRANCH   8   9
ENDBRANCH   7   8
ENDBRANCH   5   7
ENDBRANCH   4   5
ENDBRANCH   3   4
TORSDOF 12
ENDMDL
MODEL      173
REMARK 921   NORMALIZED FREE ENERGY PREDICTED BY IDOCK:   -2.97 KCAL/MOL
REMARK 922        TOTAL FREE ENERGY PREDICTED BY IDOCK:   -7.32 KCAL/MOL
REMARK 923 INTER-LIGAND FREE ENERGY PREDICTED BY IDOCK:   -5.80 KCAL/MOL
REMARK 924 INTRA-LIGAND FREE ENERGY PREDICTED BY IDOCK:   -1.52 KCAL/MOL
REMARK 927      BINDING AFFINITY PREDICTED BY RF-SCORE:    0.00 PKD
ROOT
HETATM    1  O   UNL     1      -5.932  10.935  71.270  1.00  0.00    -0.351 OA 
HETATM    2  H   UNL     1      -5.264  11.363  71.791  1.00  0.00     0.000 HD 
HETATM    3  C   UNL     1      -5.909  11.431  69.933  1.00  0.00    -0.109 C  
ENDROOT
BRANCH   3   4
HETATM    4  C   UNL     1      -6.987  10.741  69.093  1.00  0.00    -0.091 C  
BRANCH   4   5
HETATM    5  N   UNL     1      -7.009  11.185  67.692  1.00  0.00    -0.081 NA 
HETATM    6  H   UNL     1      -7.535  10.537  67.106  1.00  0.00     0.000 HD 
BRANCH   5   7
HETATM    7  C   UNL     1      -7.516  12.558  67.559  1.00  0.00    -0.151 C  
BRANCH   7   8
HETATM    8  C   UNL     1      -8.954  12.654  68.083  1.00  0.00    -0.199 C  
BRANCH   8   9
HETATM    9  N   UNL     1      -9.812  11.686  67.423  1.00  0.00    -0.183 NA 
HETATM   10  H   UNL     1     -10.063  11.840  66.447  1.00  0.00     0.000 HD 
BRANCH   9  11
HETATM   11  C   UNL     1     -10.304  10.559  68.065  1.00  0.00    -0.181 A  
HETATM   12  C   UNL     1     -11.075  10.714  69.217  1.00  0.00    -0.306 A  
HETATM   13  C   UNL     1     -11.559   9.617  69.909  1.00  0.00    -0.077 A  
HETATM   14  C   UNL     1     -11.226   8.314  69.534  1.00  0.00     0.166 A  
HETATM   15  H   UNL     1      -8.964   3.269  66.753  1.00  0.00     0.000 HD 
HETATM   16  C   UNL     1     -10.418   8.134  68.381  1.00  0.00    -0.205 A  
HETATM   17  C   UNL     1     -10.007   9.244  67.621  1.00  0.00    -0.245 A  
HETATM   18  C   UNL     1      -7.756   6.128  64.368  1.00  0.00    -0.106 A  
HETATM   19  O   UNL     1     -10.240   5.780  68.650  1.00  0.00    -0.164 OA 
HETATM   20  C   UNL     1      -8.095   7.426  64.757  1.00  0.00    -0.104 A  
HETATM   21  C   UNL     1      -9.309   9.028  66.317  1.00  0.00    -0.225 C  
HETATM   22  O   UNL     1      -9.192   9.963  65.531  1.00  0.00    -0.172 OA 
HETATM   23  C   UNL     1      -8.148   5.051  65.149  1.00  0.00    -0.112 A  
HETATM   24  C   UNL     1      -8.859   7.667  65.926  1.00  0.00    -0.163 A  
HETATM   25  O   UNL     1      -9.203   4.148  67.022  1.00  0.00    -0.133 OA 
HETATM   26  H   UNL     1      -7.172   8.297  63.181  1.00  0.00     0.000 HD 
HETATM   27  C   UNL     1      -9.227   6.578  66.716  1.00  0.00    -0.163 A  
HETATM   28  O   UNL     1      -7.684   8.458  63.965  1.00  0.00    -0.122 OA 
HETATM   29  C   UNL     1      -8.872   5.274  66.316  1.00  0.00    -0.130 A  
HETATM   30  C   UNL     1     -10.000   6.770  67.957  1.00  0.00    -0.144 C  
BRANCH  14  31
HETATM   31  N   UNL     1     -11.780   7.261  70.240  1.00  0.00    -0.516 NA 
HETATM   32  H   UNL     1     -11.738   6.327  69.832  1.00  0.00     0.000 HD 
BRANCH  31  33
HETATM   33  C   UNL     1     -12.421   7.425  71.537  1.00  0.00    -0.361 C  
BRANCH  33  34
HETATM   34  C   UNL     1     -11.489   6.958  72.668  1.00  0.00    -0.196 C  
BRANCH  34  35
HETATM   35  N   UNL     1     -10.605   8.045  73.116  1.00  0.00    -0.271 NA 
HETATM   36  H   UNL     1     -11.090   8.701  73.729  1.00  0.00     0.000 HD 
BRANCH  35  37
HETATM   37  C   UNL     1      -9.398   7.495  73.747  1.00  0.00    -0.279 C  
BRANCH  37  38
HETATM   38  C   UNL     1      -8.165   7.781  72.887  1.00  0.00    -0.133 C  
HETATM   39  O   UNL     1      -8.479   8.722  71.864  1.00  0.00    -0.293 OA 
HETATM   40  H   UNL     1      -7.713   8.900  71.330  1.00  0.00     0.000 HD 
ENDBRANCH  37  38
ENDBRANCH  35  37
ENDBRANCH  34  35
ENDBRANCH  33  34
ENDBRANCH  31  33
ENDBRANCH  14  31
ENDBRANCH   9  11
ENDBRANCH   8   9
ENDBRANCH   7   8
ENDBRANCH   5   7
ENDBRANCH   4   5
ENDBRANCH   3   4
TORSDOF 12
ENDMDL
MODEL      174
REMARK 921   NORMALIZED FREE ENERGY PREDICTED BY IDOCK:   -2.92 KCAL/MOL
REMARK 922        TOTAL FREE ENERGY PREDICTED BY IDOCK:   -7.23 KCAL/MOL
REMARK 923 INTER-LIGAND FREE ENERGY PREDICTED BY IDOCK:   -7.15 KCAL/MOL
REMARK 924 INTRA-LIGAND FREE ENERGY PREDICTED BY IDOCK:   -0.08 KCAL/MOL
REMARK 927      BINDING AFFINITY PREDICTED BY RF-SCORE:    0.00 PKD
ROOT
HETATM    1  O   UNL     1      -9.744  15.880  69.870  1.00  0.00    -0.207 OA 
HETATM    2  H   UNL     1      -8.893  16.154  70.188  1.00  0.00     0.000 HD 
HETATM    3  C   UNL     1     -10.443  16.990  69.313  1.00  0.00    -0.293 C  
ENDROOT
BRANCH   3   4
HETATM    4  C   UNL     1     -11.816  16.547  68.800  1.00  0.00     0.243 C  
BRANCH   4   5
HETATM    5  N   UNL     1     -12.338  15.353  69.482  1.00  0.00    -0.586 NA 
HETATM    6  H   UNL     1     -11.820  14.517  69.212  1.00  0.00     0.000 HD 
BRANCH   5   7
HETATM    7  C   UNL     1     -12.360  15.520  70.941  1.00  0.00    -0.422 C  
BRANCH   7   8
HETATM    8  C   UNL     1     -12.495  14.160  71.637  1.00  0.00    -0.311 C  
BRANCH   8   9
HETATM    9  N   UNL     1     -12.907  13.135  70.696  1.00  0.00    -0.102 NA 
HETATM   10  H   UNL     1     -13.524  13.397  69.927  1.00  0.00     0.000 HD 
BRANCH   9  11
HETATM   11  C   UNL     1     -12.497  11.814  70.798  1.00  0.00    -0.312 A  
HETATM   12  C   UNL     1     -13.128  10.974  71.714  1.00  0.00    -0.554 A  
HETATM   13  C   UNL     1     -12.730   9.658  71.874  1.00  0.00    -0.499 A  
HETATM   14  C   UNL     1     -11.629   9.142  71.188  1.00  0.00    -0.317 A  
HETATM   15  H   UNL     1      -6.693   8.286  67.552  1.00  0.00     0.000 HD 
HETATM   16  C   UNL     1     -10.953   9.989  70.271  1.00  0.00    -0.377 A  
HETATM   17  C   UNL     1     -11.417  11.296  70.035  1.00  0.00    -0.359 A  
HETATM   18  C   UNL     1      -7.795  11.917  66.593  1.00  0.00    -0.006 A  
HETATM   19  O   UNL     1      -9.241   8.411  69.794  1.00  0.00    -0.155 OA 
HETATM   20  C   UNL     1      -8.897  12.420  67.288  1.00  0.00    -0.192 A  
HETATM   21  C   UNL     1     -10.807  12.110  68.942  1.00  0.00    -0.200 C  
HETATM   22  O   UNL     1     -11.373  13.128  68.555  1.00  0.00    -0.248 OA 
HETATM   23  C   UNL     1      -7.338  10.636  66.862  1.00  0.00    -0.114 A  
HETATM   24  C   UNL     1      -9.580  11.635  68.251  1.00  0.00    -0.198 A  
HETATM   25  O   UNL     1      -7.447   8.618  68.026  1.00  0.00    -0.093 OA 
HETATM   26  H   UNL     1      -8.854  14.214  66.353  1.00  0.00     0.000 HD 
HETATM   27  C   UNL     1      -9.096  10.357  68.531  1.00  0.00    -0.145 A  
HETATM   28  O   UNL     1      -9.311  13.688  66.999  1.00  0.00    -0.230 OA 
HETATM   29  C   UNL     1      -7.979   9.864  67.827  1.00  0.00    -0.105 A  
HETATM   30  C   UNL     1      -9.750   9.505  69.541  1.00  0.00    -0.190 C  
BRANCH  14  31
HETATM   31  N   UNL     1     -11.311   7.806  71.357  1.00  0.00    -0.247 NA 
HETATM   32  H   UNL     1     -11.819   7.112  70.808  1.00  0.00     0.000 HD 
BRANCH  31  33
HETATM   33  C   UNL     1     -10.285   7.346  72.282  1.00  0.00    -0.200 C  
BRANCH  33  34
HETATM   34  C   UNL     1     -10.910   6.929  73.625  1.00  0.00    -0.166 C  
BRANCH  34  35
HETATM   35  N   UNL     1      -9.965   6.145  74.434  1.00  0.00    -0.277 NA 
HETATM   36  H   UNL     1     -10.427   5.374  74.917  1.00  0.00     0.000 HD 
BRANCH  35  37
HETATM   37  C   UNL     1      -8.846   5.680  73.606  1.00  0.00    -0.121 C  
BRANCH  37  38
HETATM   38  C   UNL     1      -8.840   4.152  73.518  1.00  0.00    -0.093 C  
HETATM   39  O   UNL     1      -7.932   3.603  74.470  1.00  0.00    -0.072 OA 
HETATM   40  H   UNL     1      -7.927   2.654  74.415  1.00  0.00     0.000 HD 
ENDBRANCH  37  38
ENDBRANCH  35  37
ENDBRANCH  34  35
ENDBRANCH  33  34
ENDBRANCH  31  33
ENDBRANCH  14  31
ENDBRANCH   9  11
ENDBRANCH   8   9
ENDBRANCH   7   8
ENDBRANCH   5   7
ENDBRANCH   4   5
ENDBRANCH   3   4
TORSDOF 12
ENDMDL
MODEL      175
REMARK 921   NORMALIZED FREE ENERGY PREDICTED BY IDOCK:   -2.89 KCAL/MOL
REMARK 922        TOTAL FREE ENERGY PREDICTED BY IDOCK:   -7.18 KCAL/MOL
REMARK 923 INTER-LIGAND FREE ENERGY PREDICTED BY IDOCK:   -6.39 KCAL/MOL
REMARK 924 INTRA-LIGAND FREE ENERGY PREDICTED BY IDOCK:   -0.79 KCAL/MOL
REMARK 927      BINDING AFFINITY PREDICTED BY RF-SCORE:    0.00 PKD
ROOT
HETATM    1  O   UNL     1     -13.318  10.692  72.364  1.00  0.00    -0.612 OA 
HETATM    2  H   UNL     1     -14.114  11.207  72.312  1.00  0.00     0.000 HD 
HETATM    3  C   UNL     1     -13.623   9.302  72.273  1.00  0.00    -0.480 C  
ENDROOT
BRANCH   3   4
HETATM    4  C   UNL     1     -12.339   8.472  72.356  1.00  0.00    -0.359 C  
BRANCH   4   5
HETATM    5  N   UNL     1     -12.530   7.062  71.983  1.00  0.00    -0.483 NA 
HETATM    6  H   UNL     1     -13.217   6.967  71.235  1.00  0.00     0.000 HD 
BRANCH   5   7
HETATM    7  C   UNL     1     -11.261   6.412  71.629  1.00  0.00    -0.278 C  
BRANCH   7   8
HETATM    8  C   UNL     1     -10.285   7.427  71.023  1.00  0.00    -0.191 C  
BRANCH   8   9
HETATM    9  N   UNL     1     -10.451   7.510  69.583  1.00  0.00    -0.229 NA 
HETATM   10  H   UNL     1     -10.938   6.753  69.103  1.00  0.00     0.000 HD 
BRANCH   9  11
HETATM   11  C   UNL     1      -9.977   8.576  68.833  1.00  0.00    -0.190 A  
HETATM   12  C   UNL     1     -10.110   9.872  69.331  1.00  0.00    -0.227 A  
HETATM   13  C   UNL     1      -9.682  10.968  68.602  1.00  0.00    -0.198 A  
HETATM   14  C   UNL     1      -9.177  10.830  67.308  1.00  0.00    -0.147 A  
HETATM   15  H   UNL     1      -7.207   8.714  61.835  1.00  0.00     0.000 HD 
HETATM   16  C   UNL     1      -9.060   9.522  66.769  1.00  0.00    -0.173 A  
HETATM   17  C   UNL     1      -9.404   8.400  67.546  1.00  0.00    -0.172 A  
HETATM   18  C   UNL     1      -7.968   5.396  63.768  1.00  0.00    -0.107 A  
HETATM   19  O   UNL     1      -8.359  10.269  64.625  1.00  0.00    -0.162 OA 
HETATM   20  C   UNL     1      -8.473   5.551  65.061  1.00  0.00    -0.147 A  
HETATM   21  C   UNL     1      -9.108   7.028  67.033  1.00  0.00    -0.137 C  
HETATM   22  O   UNL     1      -9.152   6.072  67.801  1.00  0.00    -0.112 OA 
HETATM   23  C   UNL     1      -7.663   6.518  63.010  1.00  0.00    -0.094 A  
HETATM   24  C   UNL     1      -8.657   6.835  65.631  1.00  0.00    -0.126 A  
HETATM   25  O   UNL     1      -7.545   8.828  62.715  1.00  0.00    -0.106 OA 
HETATM   26  H   UNL     1      -8.644   3.561  65.389  1.00  0.00     0.000 HD 
HETATM   27  C   UNL     1      -8.370   7.955  64.851  1.00  0.00    -0.087 A  
HETATM   28  O   UNL     1      -8.767   4.422  65.771  1.00  0.00    -0.117 OA 
HETATM   29  C   UNL     1      -7.867   7.786  63.544  1.00  0.00    -0.129 A  
HETATM   30  C   UNL     1      -8.566   9.317  65.381  1.00  0.00    -0.157 C  
BRANCH  14  31
HETATM   31  N   UNL     1      -8.723  11.960  66.651  1.00  0.00    -0.210 NA 
HETATM   32  H   UNL     1      -9.213  12.263  65.809  1.00  0.00     0.000 HD 
BRANCH  31  33
HETATM   33  C   UNL     1      -7.578  12.735  67.107  1.00  0.00    -0.043 C  
BRANCH  33  34
HETATM   34  C   UNL     1      -8.033  14.073  67.714  1.00  0.00    -0.171 C  
BRANCH  34  35
HETATM   35  N   UNL     1      -6.930  14.744  68.418  1.00  0.00    -0.107 NA 
HETATM   36  H   UNL     1      -7.247  15.203  69.272  1.00  0.00     0.000 HD 
BRANCH  35  37
HETATM   37  C   UNL     1      -5.839  13.796  68.680  1.00  0.00    -0.087 C  
BRANCH  37  38
HETATM   38  C   UNL     1      -5.939  13.240  70.102  1.00  0.00    -0.139 C  
HETATM   39  O   UNL     1      -6.605  14.170  70.954  1.00  0.00    -0.412 OA 
HETATM   40  H   UNL     1      -6.667  13.826  71.837  1.00  0.00     0.000 HD 
ENDBRANCH  37  38
ENDBRANCH  35  37
ENDBRANCH  34  35
ENDBRANCH  33  34
ENDBRANCH  31  33
ENDBRANCH  14  31
ENDBRANCH   9  11
ENDBRANCH   8   9
ENDBRANCH   7   8
ENDBRANCH   5   7
ENDBRANCH   4   5
ENDBRANCH   3   4
TORSDOF 12
ENDMDL
MODEL      176
REMARK 921   NORMALIZED FREE ENERGY PREDICTED BY IDOCK:   -2.89 KCAL/MOL
REMARK 922        TOTAL FREE ENERGY PREDICTED BY IDOCK:   -7.18 KCAL/MOL
REMARK 923 INTER-LIGAND FREE ENERGY PREDICTED BY IDOCK:   -6.33 KCAL/MOL
REMARK 924 INTRA-LIGAND FREE ENERGY PREDICTED BY IDOCK:   -0.85 KCAL/MOL
REMARK 927      BINDING AFFINITY PREDICTED BY RF-SCORE:    0.00 PKD
ROOT
HETATM    1  O   UNL     1     -10.761  18.649  65.049  1.00  0.00    -0.449 OA 
HETATM    2  H   UNL     1     -10.255  19.452  65.081  1.00  0.00     0.000 HD 
HETATM    3  C   UNL     1     -10.378  17.782  66.113  1.00  0.00    -0.340 C  
ENDROOT
BRANCH   3   4
HETATM    4  C   UNL     1     -11.194  16.487  66.062  1.00  0.00     0.372 C  
BRANCH   4   5
HETATM    5  N   UNL     1     -11.220  15.761  67.340  1.00  0.00    -0.240 NA 
HETATM    6  H   UNL     1     -12.055  15.991  67.880  1.00  0.00     0.000 HD 
BRANCH   5   7
HETATM    7  C   UNL     1     -11.088  14.311  67.151  1.00  0.00    -0.311 C  
BRANCH   7   8
HETATM    8  C   UNL     1     -10.154  13.711  68.209  1.00  0.00    -0.240 C  
BRANCH   8   9
HETATM    9  N   UNL     1      -9.757  12.362  67.846  1.00  0.00    -0.198 NA 
HETATM   10  H   UNL     1      -9.020  12.240  67.151  1.00  0.00     0.000 HD 
BRANCH   9  11
HETATM   11  C   UNL     1     -10.338  11.233  68.404  1.00  0.00    -0.192 A  
HETATM   12  C   UNL     1     -11.145  11.370  69.533  1.00  0.00    -0.274 A  
HETATM   13  C   UNL     1     -11.717  10.268  70.144  1.00  0.00    -0.364 A  
HETATM   14  C   UNL     1     -11.445   8.970  69.707  1.00  0.00     0.159 A  
HETATM   15  H   UNL     1      -9.364   3.960  66.729  1.00  0.00     0.000 HD 
HETATM   16  C   UNL     1     -10.602   8.806  68.577  1.00  0.00    -0.171 A  
HETATM   17  C   UNL     1     -10.098   9.929  67.896  1.00  0.00    -0.210 A  
HETATM   18  C   UNL     1      -7.900   6.869  64.557  1.00  0.00    -0.115 A  
HETATM   19  O   UNL     1     -10.570   6.434  68.717  1.00  0.00    -0.199 OA 
HETATM   20  C   UNL     1      -8.181   8.161  65.006  1.00  0.00    -0.154 A  
HETATM   21  C   UNL     1      -9.363   9.744  66.609  1.00  0.00    -0.158 C  
HETATM   22  O   UNL     1      -9.161  10.712  65.882  1.00  0.00    -0.167 OA 
HETATM   23  C   UNL     1      -8.384   5.775  65.260  1.00  0.00    -0.146 A  
HETATM   24  C   UNL     1      -8.976   8.383  66.158  1.00  0.00    -0.218 A  
HETATM   25  O   UNL     1      -9.563   4.835  67.039  1.00  0.00    -0.147 OA 
HETATM   26  H   UNL     1      -7.147   9.061  63.517  1.00  0.00     0.000 HD 
HETATM   27  C   UNL     1      -9.436   7.276  66.871  1.00  0.00    -0.208 A  
HETATM   28  O   UNL     1      -7.680   9.209  64.290  1.00  0.00    -0.111 OA 
HETATM   29  C   UNL     1      -9.140   5.976  66.411  1.00  0.00    -0.150 A  
HETATM   30  C   UNL     1     -10.246   7.445  68.091  1.00  0.00    -0.187 C  
BRANCH  14  31
HETATM   31  N   UNL     1     -12.086   7.915  70.331  1.00  0.00    -0.465 NA 
HETATM   32  H   UNL     1     -12.527   7.202  69.750  1.00  0.00     0.000 HD 
BRANCH  31  33
HETATM   33  C   UNL     1     -12.159   7.775  71.778  1.00  0.00    -0.298 C  
BRANCH  33  34
HETATM   34  C   UNL     1     -12.018   6.299  72.191  1.00  0.00    -0.287 C  
BRANCH  34  35
HETATM   35  N   UNL     1     -11.143   6.153  73.363  1.00  0.00    -0.458 NA 
HETATM   36  H   UNL     1     -11.066   5.180  73.661  1.00  0.00     0.000 HD 
BRANCH  35  37
HETATM   37  C   UNL     1      -9.828   6.750  73.098  1.00  0.00    -0.179 C  
BRANCH  37  38
HETATM   38  C   UNL     1      -8.890   5.722  72.459  1.00  0.00    -0.130 C  
HETATM   39  O   UNL     1      -7.690   6.351  72.017  1.00  0.00    -0.094 OA 
HETATM   40  H   UNL     1      -7.108   5.714  71.620  1.00  0.00     0.000 HD 
ENDBRANCH  37  38
ENDBRANCH  35  37
ENDBRANCH  34  35
ENDBRANCH  33  34
ENDBRANCH  31  33
ENDBRANCH  14  31
ENDBRANCH   9  11
ENDBRANCH   8   9
ENDBRANCH   7   8
ENDBRANCH   5   7
ENDBRANCH   4   5
ENDBRANCH   3   4
TORSDOF 12
ENDMDL
MODEL      177
REMARK 921   NORMALIZED FREE ENERGY PREDICTED BY IDOCK:   -2.84 KCAL/MOL
REMARK 922        TOTAL FREE ENERGY PREDICTED BY IDOCK:   -7.09 KCAL/MOL
REMARK 923 INTER-LIGAND FREE ENERGY PREDICTED BY IDOCK:   -6.26 KCAL/MOL
REMARK 924 INTRA-LIGAND FREE ENERGY PREDICTED BY IDOCK:   -0.83 KCAL/MOL
REMARK 927      BINDING AFFINITY PREDICTED BY RF-SCORE:    0.00 PKD
ROOT
HETATM    1  O   UNL     1     -13.852   7.920  71.110  1.00  0.00    -0.582 OA 
HETATM    2  H   UNL     1     -14.404   8.163  71.843  1.00  0.00     0.000 HD 
HETATM    3  C   UNL     1     -12.777   7.097  71.554  1.00  0.00    -0.393 C  
ENDROOT
BRANCH   3   4
HETATM    4  C   UNL     1     -11.886   6.706  70.371  1.00  0.00    -0.346 C  
BRANCH   4   5
HETATM    5  N   UNL     1     -11.146   7.839  69.797  1.00  0.00    -0.427 NA 
HETATM    6  H   UNL     1     -11.747   8.656  69.687  1.00  0.00     0.000 HD 
BRANCH   5   7
HETATM    7  C   UNL     1      -9.943   8.161  70.577  1.00  0.00    -0.187 C  
BRANCH   7   8
HETATM    8  C   UNL     1      -8.920   7.022  70.484  1.00  0.00    -0.155 C  
BRANCH   8   9
HETATM    9  N   UNL     1      -7.679   7.488  69.891  1.00  0.00    -0.096 NA 
HETATM   10  H   UNL     1      -6.831   6.940  70.038  1.00  0.00     0.000 HD 
BRANCH   9  11
HETATM   11  C   UNL     1      -7.598   8.647  69.134  1.00  0.00    -0.089 A  
HETATM   12  C   UNL     1      -7.501   9.878  69.782  1.00  0.00    -0.140 A  
HETATM   13  C   UNL     1      -7.452  11.063  69.069  1.00  0.00    -0.129 A  
HETATM   14  C   UNL     1      -7.581  11.082  67.679  1.00  0.00    -0.104 A  
HETATM   15  H   UNL     1      -8.261   9.628  61.701  1.00  0.00     0.000 HD 
HETATM   16  C   UNL     1      -7.709   9.841  67.000  1.00  0.00    -0.095 A  
HETATM   17  C   UNL     1      -7.662   8.631  67.716  1.00  0.00    -0.102 A  
HETATM   18  C   UNL     1      -8.055   6.099  63.382  1.00  0.00    -0.068 A  
HETATM   19  O   UNL     1      -8.048  10.834  64.868  1.00  0.00    -0.075 OA 
HETATM   20  C   UNL     1      -7.927   6.097  64.772  1.00  0.00    -0.124 A  
HETATM   21  C   UNL     1      -7.619   7.335  66.974  1.00  0.00    -0.106 C  
HETATM   22  O   UNL     1      -7.308   6.307  67.567  1.00  0.00    -0.077 OA 
HETATM   23  C   UNL     1      -8.128   7.305  62.699  1.00  0.00    -0.083 A  
HETATM   24  C   UNL     1      -7.844   7.307  65.506  1.00  0.00    -0.115 A  
HETATM   25  O   UNL     1      -8.169   9.636  62.646  1.00  0.00    -0.124 OA 
HETATM   26  H   UNL     1      -7.920   4.079  64.915  1.00  0.00     0.000 HD 
HETATM   27  C   UNL     1      -7.943   8.513  64.811  1.00  0.00    -0.143 A  
HETATM   28  O   UNL     1      -7.865   4.890  65.406  1.00  0.00    -0.088 OA 
HETATM   29  C   UNL     1      -8.079   8.501  63.408  1.00  0.00    -0.160 A  
HETATM   30  C   UNL     1      -7.889   9.803  65.523  1.00  0.00    -0.120 C  
BRANCH  14  31
HETATM   31  N   UNL     1      -7.476  12.294  67.021  1.00  0.00    -0.336 NA 
HETATM   32  H   UNL     1      -6.913  12.340  66.171  1.00  0.00     0.000 HD 
BRANCH  31  33
HETATM   33  C   UNL     1      -8.132  13.508  67.486  1.00  0.00    -0.186 C  
BRANCH  33  34
HETATM   34  C   UNL     1      -9.413  13.778  66.679  1.00  0.00    -0.279 C  
BRANCH  34  35
HETATM   35  N   UNL     1     -10.525  12.935  67.141  1.00  0.00    -0.237 NA 
HETATM   36  H   UNL     1     -10.365  11.949  66.934  1.00  0.00     0.000 HD 
BRANCH  35  37
HETATM   37  C   UNL     1     -10.779  13.161  68.569  1.00  0.00    -0.259 C  
BRANCH  37  38
HETATM   38  C   UNL     1     -11.242  14.599  68.812  1.00  0.00    -0.267 C  
HETATM   39  O   UNL     1     -12.635  14.630  69.110  1.00  0.00    -0.569 OA 
HETATM   40  H   UNL     1     -12.923  15.523  69.261  1.00  0.00     0.000 HD 
ENDBRANCH  37  38
ENDBRANCH  35  37
ENDBRANCH  34  35
ENDBRANCH  33  34
ENDBRANCH  31  33
ENDBRANCH  14  31
ENDBRANCH   9  11
ENDBRANCH   8   9
ENDBRANCH   7   8
ENDBRANCH   5   7
ENDBRANCH   4   5
ENDBRANCH   3   4
TORSDOF 12
ENDMDL
MODEL      178
REMARK 921   NORMALIZED FREE ENERGY PREDICTED BY IDOCK:   -2.83 KCAL/MOL
REMARK 922        TOTAL FREE ENERGY PREDICTED BY IDOCK:   -7.08 KCAL/MOL
REMARK 923 INTER-LIGAND FREE ENERGY PREDICTED BY IDOCK:   -6.52 KCAL/MOL
REMARK 924 INTRA-LIGAND FREE ENERGY PREDICTED BY IDOCK:   -0.57 KCAL/MOL
REMARK 927      BINDING AFFINITY PREDICTED BY RF-SCORE:    0.00 PKD
ROOT
HETATM    1  O   UNL     1      -8.670   6.669  63.842  1.00  0.00    -0.236 OA 
HETATM    2  H   UNL     1      -9.287   7.269  63.439  1.00  0.00     0.000 HD 
HETATM    3  C   UNL     1      -7.984   7.313  64.912  1.00  0.00    -0.127 C  
ENDROOT
BRANCH   3   4
HETATM    4  C   UNL     1      -6.991   6.345  65.562  1.00  0.00    -0.053 C  
BRANCH   4   5
HETATM    5  N   UNL     1      -7.059   6.336  67.031  1.00  0.00    -0.071 NA 
HETATM    6  H   UNL     1      -6.999   5.387  67.399  1.00  0.00     0.000 HD 
BRANCH   5   7
HETATM    7  C   UNL     1      -6.041   7.208  67.633  1.00  0.00    -0.037 C  
BRANCH   7   8
HETATM    8  C   UNL     1      -5.694   6.732  69.049  1.00  0.00    -0.018 C  
BRANCH   8   9
HETATM    9  N   UNL     1      -6.406   7.511  70.046  1.00  0.00    -0.031 NA 
HETATM   10  H   UNL     1      -6.338   7.232  71.025  1.00  0.00     0.000 HD 
BRANCH   9  11
HETATM   11  C   UNL     1      -7.174   8.620  69.724  1.00  0.00    -0.051 A  
HETATM   12  C   UNL     1      -6.560   9.729  69.144  1.00  0.00    -0.052 A  
HETATM   13  C   UNL     1      -7.280  10.871  68.837  1.00  0.00    -0.095 A  
HETATM   14  C   UNL     1      -8.631  10.990  69.171  1.00  0.00     0.003 A  
HETATM   15  H   UNL     1     -14.406  10.091  71.208  1.00  0.00     0.000 HD 
HETATM   16  C   UNL     1      -9.270   9.884  69.789  1.00  0.00    -0.252 A  
HETATM   17  C   UNL     1      -8.563   8.688  70.013  1.00  0.00    -0.132 A  
HETATM   18  C   UNL     1     -12.756   6.603  71.862  1.00  0.00    -0.260 A  
HETATM   19  O   UNL     1     -11.325  11.027  70.130  1.00  0.00    -0.290 OA 
HETATM   20  C   UNL     1     -11.405   6.498  71.523  1.00  0.00    -0.291 A  
HETATM   21  C   UNL     1      -9.293   7.479  70.499  1.00  0.00    -0.160 C  
HETATM   22  O   UNL     1      -8.751   6.379  70.438  1.00  0.00    -0.143 OA 
HETATM   23  C   UNL     1     -13.426   7.800  71.658  1.00  0.00    -0.401 A  
HETATM   24  C   UNL     1     -10.704   7.588  70.949  1.00  0.00    -0.244 A  
HETATM   25  O   UNL     1     -13.488  10.027  70.971  1.00  0.00    -0.367 OA 
HETATM   26  H   UNL     1     -11.251   4.574  72.131  1.00  0.00     0.000 HD 
HETATM   27  C   UNL     1     -11.381   8.794  70.772  1.00  0.00    -0.313 A  
HETATM   28  O   UNL     1     -10.781   5.305  71.746  1.00  0.00    -0.223 OA 
HETATM   29  C   UNL     1     -12.743   8.889  71.124  1.00  0.00    -0.159 A  
HETATM   30  C   UNL     1     -10.697   9.970  70.202  1.00  0.00    -0.307 C  
BRANCH  14  31
HETATM   31  N   UNL     1      -9.305  12.138  68.794  1.00  0.00    -0.399 NA 
HETATM   32  H   UNL     1     -10.173  12.373  69.277  1.00  0.00     0.000 HD 
BRANCH  31  33
HETATM   33  C   UNL     1      -8.834  13.026  67.741  1.00  0.00    -0.188 C  
BRANCH  33  34
HETATM   34  C   UNL     1      -9.134  12.433  66.354  1.00  0.00    -0.149 C  
BRANCH  34  35
HETATM   35  N   UNL     1     -10.532  11.990  66.252  1.00  0.00    -0.232 NA 
HETATM   36  H   UNL     1     -11.186  12.758  66.407  1.00  0.00     0.000 HD 
BRANCH  35  37
HETATM   37  C   UNL     1     -10.765  11.324  64.964  1.00  0.00    -0.256 C  
BRANCH  37  38
HETATM   38  C   UNL     1     -10.696  12.334  63.816  1.00  0.00    -0.449 C  
HETATM   39  O   UNL     1      -9.643  11.994  62.918  1.00  0.00    -0.532 OA 
HETATM   40  H   UNL     1      -9.599  12.621  62.205  1.00  0.00     0.000 HD 
ENDBRANCH  37  38
ENDBRANCH  35  37
ENDBRANCH  34  35
ENDBRANCH  33  34
ENDBRANCH  31  33
ENDBRANCH  14  31
ENDBRANCH   9  11
ENDBRANCH   8   9
ENDBRANCH   7   8
ENDBRANCH   5   7
ENDBRANCH   4   5
ENDBRANCH   3   4
TORSDOF 12
ENDMDL
MODEL      179
REMARK 921   NORMALIZED FREE ENERGY PREDICTED BY IDOCK:   -2.83 KCAL/MOL
REMARK 922        TOTAL FREE ENERGY PREDICTED BY IDOCK:   -7.07 KCAL/MOL
REMARK 923 INTER-LIGAND FREE ENERGY PREDICTED BY IDOCK:   -5.62 KCAL/MOL
REMARK 924 INTRA-LIGAND FREE ENERGY PREDICTED BY IDOCK:   -1.45 KCAL/MOL
REMARK 927      BINDING AFFINITY PREDICTED BY RF-SCORE:    0.00 PKD
ROOT
HETATM    1  O   UNL     1     -14.364   8.582  71.239  1.00  0.00    -0.595 OA 
HETATM    2  H   UNL     1     -15.128   9.095  71.473  1.00  0.00     0.000 HD 
HETATM    3  C   UNL     1     -13.345   8.741  72.223  1.00  0.00    -0.419 C  
ENDROOT
BRANCH   3   4
HETATM    4  C   UNL     1     -12.113   7.913  71.846  1.00  0.00    -0.312 C  
BRANCH   4   5
HETATM    5  N   UNL     1     -12.026   7.615  70.409  1.00  0.00    -0.491 NA 
HETATM    6  H   UNL     1     -11.480   8.322  69.916  1.00  0.00     0.000 HD 
BRANCH   5   7
HETATM    7  C   UNL     1     -11.502   6.266  70.158  1.00  0.00    -0.382 C  
BRANCH   7   8
HETATM    8  C   UNL     1     -10.288   5.984  71.052  1.00  0.00    -0.216 C  
BRANCH   8   9
HETATM    9  N   UNL     1      -9.067   5.943  70.268  1.00  0.00    -0.145 NA 
HETATM   10  H   UNL     1      -8.460   5.127  70.350  1.00  0.00     0.000 HD 
BRANCH   9  11
HETATM   11  C   UNL     1      -8.690   6.967  69.412  1.00  0.00    -0.133 A  
HETATM   12  C   UNL     1      -8.436   8.234  69.935  1.00  0.00    -0.127 A  
HETATM   13  C   UNL     1      -8.090   9.294  69.115  1.00  0.00    -0.106 A  
HETATM   14  C   UNL     1      -8.063   9.160  67.726  1.00  0.00    -0.105 A  
HETATM   15  H   UNL     1      -8.357   7.110  61.893  1.00  0.00     0.000 HD 
HETATM   16  C   UNL     1      -8.347   7.886  67.168  1.00  0.00    -0.117 A  
HETATM   17  C   UNL     1      -8.603   6.785  68.006  1.00  0.00    -0.122 A  
HETATM   18  C   UNL     1      -8.994   3.837  63.943  1.00  0.00    -0.109 A  
HETATM   19  O   UNL     1      -8.265   8.648  64.919  1.00  0.00    -0.141 OA 
HETATM   20  C   UNL     1      -9.019   3.987  65.331  1.00  0.00    -0.132 A  
HETATM   21  C   UNL     1      -8.724   5.419  67.414  1.00  0.00    -0.107 C  
HETATM   22  O   UNL     1      -8.675   4.434  68.145  1.00  0.00    -0.097 OA 
HETATM   23  C   UNL     1      -8.768   4.942  63.136  1.00  0.00    -0.115 A  
HETATM   24  C   UNL     1      -8.791   5.246  65.940  1.00  0.00    -0.145 A  
HETATM   25  O   UNL     1      -8.368   7.220  62.836  1.00  0.00    -0.032 OA 
HETATM   26  H   UNL     1      -9.404   2.031  65.682  1.00  0.00     0.000 HD 
HETATM   27  C   UNL     1      -8.589   6.355  65.117  1.00  0.00    -0.011 A  
HETATM   28  O   UNL     1      -9.251   2.876  66.089  1.00  0.00    -0.147 OA 
HETATM   29  C   UNL     1      -8.573   6.191  63.717  1.00  0.00     0.312 A  
HETATM   30  C   UNL     1      -8.372   7.695  65.693  1.00  0.00    -0.140 C  
BRANCH  14  31
HETATM   31  N   UNL     1      -7.664  10.245  66.964  1.00  0.00    -0.099 NA 
HETATM   32  H   UNL     1      -6.827  10.154  66.389  1.00  0.00     0.000 HD 
BRANCH  31  33
HETATM   33  C   UNL     1      -8.385  11.510  66.948  1.00  0.00    -0.166 C  
BRANCH  33  34
HETATM   34  C   UNL     1      -9.899  11.273  66.810  1.00  0.00    -0.199 C  
BRANCH  34  35
HETATM   35  N   UNL     1     -10.665  12.464  67.204  1.00  0.00    -0.231 NA 
HETATM   36  H   UNL     1     -10.940  13.024  66.396  1.00  0.00     0.000 HD 
BRANCH  35  37
HETATM   37  C   UNL     1     -11.822  12.081  68.023  1.00  0.00    -0.269 C  
BRANCH  37  38
HETATM   38  C   UNL     1     -11.410  11.907  69.487  1.00  0.00    -0.236 C  
HETATM   39  O   UNL     1     -11.948  10.697  70.015  1.00  0.00    -0.289 OA 
HETATM   40  H   UNL     1     -11.693  10.589  70.924  1.00  0.00     0.000 HD 
ENDBRANCH  37  38
ENDBRANCH  35  37
ENDBRANCH  34  35
ENDBRANCH  33  34
ENDBRANCH  31  33
ENDBRANCH  14  31
ENDBRANCH   9  11
ENDBRANCH   8   9
ENDBRANCH   7   8
ENDBRANCH   5   7
ENDBRANCH   4   5
ENDBRANCH   3   4
TORSDOF 12
ENDMDL
MODEL      180
REMARK 921   NORMALIZED FREE ENERGY PREDICTED BY IDOCK:   -2.80 KCAL/MOL
REMARK 922        TOTAL FREE ENERGY PREDICTED BY IDOCK:   -7.03 KCAL/MOL
REMARK 923 INTER-LIGAND FREE ENERGY PREDICTED BY IDOCK:   -6.82 KCAL/MOL
REMARK 924 INTRA-LIGAND FREE ENERGY PREDICTED BY IDOCK:   -0.22 KCAL/MOL
REMARK 927      BINDING AFFINITY PREDICTED BY RF-SCORE:    0.00 PKD
ROOT
HETATM    1  O   UNL     1      -5.439  10.554  71.621  1.00  0.00    -0.268 OA 
HETATM    2  H   UNL     1      -4.553  10.856  71.463  1.00  0.00     0.000 HD 
HETATM    3  C   UNL     1      -6.177  10.534  70.402  1.00  0.00    -0.128 C  
ENDROOT
BRANCH   3   4
HETATM    4  C   UNL     1      -7.606  10.046  70.656  1.00  0.00     0.275 C  
BRANCH   4   5
HETATM    5  N   UNL     1      -7.947   8.823  69.913  1.00  0.00    -0.101 NA 
HETATM    6  H   UNL     1      -8.953   8.652  69.922  1.00  0.00     0.000 HD 
BRANCH   5   7
HETATM    7  C   UNL     1      -7.423   8.851  68.541  1.00  0.00    -0.085 C  
BRANCH   7   8
HETATM    8  C   UNL     1      -7.281  10.296  68.047  1.00  0.00    -0.085 C  
BRANCH   8   9
HETATM    9  N   UNL     1      -8.419  10.679  67.231  1.00  0.00    -0.126 NA 
HETATM   10  H   UNL     1      -8.818   9.989  66.593  1.00  0.00     0.000 HD 
BRANCH   9  11
HETATM   11  C   UNL     1      -8.988  11.943  67.281  1.00  0.00    -0.176 A  
HETATM   12  C   UNL     1      -8.486  12.949  66.457  1.00  0.00     0.181 A  
HETATM   13  C   UNL     1      -9.000  14.233  66.498  1.00  0.00    -0.161 A  
HETATM   14  C   UNL     1      -9.981  14.596  67.422  1.00  0.00    -0.231 A  
HETATM   15  H   UNL     1     -14.206  14.718  71.944  1.00  0.00     0.000 HD 
HETATM   16  C   UNL     1     -10.487  13.594  68.291  1.00  0.00    -0.253 A  
HETATM   17  C   UNL     1     -10.035  12.266  68.185  1.00  0.00    -0.210 A  
HETATM   18  C   UNL     1     -13.243  10.925  71.826  1.00  0.00    -0.513 A  
HETATM   19  O   UNL     1     -11.849  15.097  69.529  1.00  0.00    -0.300 OA 
HETATM   20  C   UNL     1     -12.259  10.578  70.898  1.00  0.00    -0.388 A  
HETATM   21  C   UNL     1     -10.702  11.193  68.982  1.00  0.00    -0.225 C  
HETATM   22  O   UNL     1     -10.502  10.015  68.699  1.00  0.00    -0.187 OA 
HETATM   23  C   UNL     1     -13.652  12.246  71.933  1.00  0.00    -0.195 A  
HETATM   24  C   UNL     1     -11.684  11.547  70.038  1.00  0.00    -0.414 A  
HETATM   25  O   UNL     1     -13.539  14.489  71.306  1.00  0.00    -0.371 OA 
HETATM   26  H   UNL     1     -12.265   8.619  71.405  1.00  0.00     0.000 HD 
HETATM   27  C   UNL     1     -12.087  12.876  70.172  1.00  0.00    -0.373 A  
HETATM   28  O   UNL     1     -11.879   9.269  70.829  1.00  0.00    -0.281 OA 
HETATM   29  C   UNL     1     -13.075  13.215  71.118  1.00  0.00    -0.122 A  
HETATM   30  C   UNL     1     -11.505  13.932  69.322  1.00  0.00    -0.297 C  
BRANCH  14  31
HETATM   31  N   UNL     1     -10.486  15.883  67.380  1.00  0.00    -0.300 NA 
HETATM   32  H   UNL     1     -11.037  16.216  68.171  1.00  0.00     0.000 HD 
BRANCH  31  33
HETATM   33  C   UNL     1     -10.267  16.785  66.257  1.00  0.00    -0.332 C  
BRANCH  33  34
HETATM   34  C   UNL     1      -9.204  17.841  66.605  1.00  0.00    -0.269 C  
BRANCH  34  35
HETATM   35  N   UNL     1      -9.388  18.355  67.970  1.00  0.00    -0.283 NA 
HETATM   36  H   UNL     1     -10.130  17.860  68.466  1.00  0.00     0.000 HD 
BRANCH  35  37
HETATM   37  C   UNL     1      -8.118  18.319  68.706  1.00  0.00    -0.241 C  
BRANCH  37  38
HETATM   38  C   UNL     1      -7.293  17.096  68.295  1.00  0.00    -0.214 C  
HETATM   39  O   UNL     1      -5.911  17.434  68.215  1.00  0.00    -0.144 OA 
HETATM   40  H   UNL     1      -5.398  16.675  67.959  1.00  0.00     0.000 HD 
ENDBRANCH  37  38
ENDBRANCH  35  37
ENDBRANCH  34  35
ENDBRANCH  33  34
ENDBRANCH  31  33
ENDBRANCH  14  31
ENDBRANCH   9  11
ENDBRANCH   8   9
ENDBRANCH   7   8
ENDBRANCH   5   7
ENDBRANCH   4   5
ENDBRANCH   3   4
TORSDOF 12
ENDMDL
MODEL      181
REMARK 921   NORMALIZED FREE ENERGY PREDICTED BY IDOCK:   -2.68 KCAL/MOL
REMARK 922        TOTAL FREE ENERGY PREDICTED BY IDOCK:   -6.82 KCAL/MOL
REMARK 923 INTER-LIGAND FREE ENERGY PREDICTED BY IDOCK:   -5.45 KCAL/MOL
REMARK 924 INTRA-LIGAND FREE ENERGY PREDICTED BY IDOCK:   -1.38 KCAL/MOL
REMARK 927      BINDING AFFINITY PREDICTED BY RF-SCORE:    0.00 PKD
ROOT
HETATM    1  O   UNL     1      -9.578  12.461  64.822  1.00  0.00    -0.464 OA 
HETATM    2  H   UNL     1      -8.885  11.889  64.514  1.00  0.00     0.000 HD 
HETATM    3  C   UNL     1     -10.826  11.772  64.811  1.00  0.00    -0.302 C  
ENDROOT
BRANCH   3   4
HETATM    4  C   UNL     1     -11.944  12.693  65.308  1.00  0.00    -0.439 C  
BRANCH   4   5
HETATM    5  N   UNL     1     -12.156  12.623  66.761  1.00  0.00    -0.518 NA 
HETATM    6  H   UNL     1     -13.125  12.396  66.984  1.00  0.00     0.000 HD 
BRANCH   5   7
HETATM    7  C   UNL     1     -11.226  11.687  67.407  1.00  0.00    -0.298 C  
BRANCH   7   8
HETATM    8  C   UNL     1     -10.583  12.332  68.642  1.00  0.00    -0.224 C  
BRANCH   8   9
HETATM    9  N   UNL     1      -9.348  11.655  68.995  1.00  0.00    -0.408 NA 
HETATM   10  H   UNL     1      -8.483  12.195  69.015  1.00  0.00     0.000 HD 
BRANCH   9  11
HETATM   11  C   UNL     1      -9.295  10.305  69.308  1.00  0.00    -0.207 A  
HETATM   12  C   UNL     1     -10.006   9.834  70.411  1.00  0.00    -0.294 A  
HETATM   13  C   UNL     1      -9.956   8.501  70.781  1.00  0.00    -0.230 A  
HETATM   14  C   UNL     1      -9.128   7.592  70.119  1.00  0.00    -0.150 A  
HETATM   15  H   UNL     1      -5.100   4.808  66.333  1.00  0.00     0.000 HD 
HETATM   16  C   UNL     1      -8.373   8.057  69.011  1.00  0.00    -0.129 A  
HETATM   17  C   UNL     1      -8.497   9.388  68.574  1.00  0.00    -0.119 A  
HETATM   18  C   UNL     1      -5.306   8.406  64.805  1.00  0.00    -0.036 A  
HETATM   19  O   UNL     1      -7.217   6.003  68.703  1.00  0.00    -0.079 OA 
HETATM   20  C   UNL     1      -6.137   9.304  65.478  1.00  0.00    -0.063 A  
HETATM   21  C   UNL     1      -7.835   9.814  67.304  1.00  0.00    -0.098 C  
HETATM   22  O   UNL     1      -8.154  10.877  66.780  1.00  0.00    -0.130 OA 
HETATM   23  C   UNL     1      -5.177   7.106  65.271  1.00  0.00    -0.028 A  
HETATM   24  C   UNL     1      -6.877   8.907  66.620  1.00  0.00    -0.076 A  
HETATM   25  O   UNL     1      -5.671   5.411  66.794  1.00  0.00    -0.016 OA 
HETATM   26  H   UNL     1      -5.736  10.842  64.226  1.00  0.00     0.000 HD 
HETATM   27  C   UNL     1      -6.720   7.604  67.094  1.00  0.00    -0.067 A  
HETATM   28  O   UNL     1      -6.231  10.576  64.992  1.00  0.00    -0.123 OA 
HETATM   29  C   UNL     1      -5.872   6.710  66.409  1.00  0.00    -0.021 A  
HETATM   30  C   UNL     1      -7.444   7.142  68.292  1.00  0.00    -0.102 C  
BRANCH  14  31
HETATM   31  N   UNL     1      -9.159   6.264  70.508  1.00  0.00    -0.154 NA 
HETATM   32  H   UNL     1      -8.362   5.889  71.023  1.00  0.00     0.000 HD 
BRANCH  31  33
HETATM   33  C   UNL     1     -10.277   5.379  70.216  1.00  0.00    -0.267 C  
BRANCH  33  34
HETATM   34  C   UNL     1      -9.777   4.031  69.668  1.00  0.00    -0.175 C  
BRANCH  34  35
HETATM   35  N   UNL     1      -8.432   3.715  70.172  1.00  0.00    -0.058 NA 
HETATM   36  H   UNL     1      -7.934   4.552  70.477  1.00  0.00     0.000 HD 
BRANCH  35  37
HETATM   37  C   UNL     1      -8.509   2.706  71.236  1.00  0.00    -0.062 C  
BRANCH  37  38
HETATM   38  C   UNL     1      -8.182   3.331  72.595  1.00  0.00    -0.076 C  
HETATM   39  O   UNL     1      -6.798   3.169  72.896  1.00  0.00    -0.031 OA 
HETATM   40  H   UNL     1      -6.595   3.556  73.740  1.00  0.00     0.000 HD 
ENDBRANCH  37  38
ENDBRANCH  35  37
ENDBRANCH  34  35
ENDBRANCH  33  34
ENDBRANCH  31  33
ENDBRANCH  14  31
ENDBRANCH   9  11
ENDBRANCH   8   9
ENDBRANCH   7   8
ENDBRANCH   5   7
ENDBRANCH   4   5
ENDBRANCH   3   4
TORSDOF 12
ENDMDL
MODEL      182
REMARK 921   NORMALIZED FREE ENERGY PREDICTED BY IDOCK:   -2.68 KCAL/MOL
REMARK 922        TOTAL FREE ENERGY PREDICTED BY IDOCK:   -6.82 KCAL/MOL
REMARK 923 INTER-LIGAND FREE ENERGY PREDICTED BY IDOCK:   -5.55 KCAL/MOL
REMARK 924 INTRA-LIGAND FREE ENERGY PREDICTED BY IDOCK:   -1.26 KCAL/MOL
REMARK 927      BINDING AFFINITY PREDICTED BY RF-SCORE:    0.00 PKD
ROOT
HETATM    1  O   UNL     1      -8.054   7.384  63.402  1.00  0.00    -0.262 OA 
HETATM    2  H   UNL     1      -7.751   8.273  63.258  1.00  0.00     0.000 HD 
HETATM    3  C   UNL     1      -7.545   6.519  62.390  1.00  0.00    -0.084 C  
ENDROOT
BRANCH   3   4
HETATM    4  C   UNL     1      -8.034   5.087  62.623  1.00  0.00    -0.082 C  
BRANCH   4   5
HETATM    5  N   UNL     1      -9.331   5.017  63.313  1.00  0.00    -0.348 NA 
HETATM    6  H   UNL     1     -10.096   4.884  62.651  1.00  0.00     0.000 HD 
BRANCH   5   7
HETATM    7  C   UNL     1      -9.342   3.983  64.356  1.00  0.00    -0.159 C  
BRANCH   7   8
HETATM    8  C   UNL     1     -10.134   4.461  65.580  1.00  0.00    -0.236 C  
BRANCH   8   9
HETATM    9  N   UNL     1      -9.242   4.942  66.619  1.00  0.00    -0.122 NA 
HETATM   10  H   UNL     1      -8.303   4.549  66.678  1.00  0.00     0.000 HD 
BRANCH   9  11
HETATM   11  C   UNL     1      -9.613   5.914  67.536  1.00  0.00    -0.112 A  
HETATM   12  C   UNL     1     -10.657   5.651  68.423  1.00  0.00    -0.249 A  
HETATM   13  C   UNL     1     -11.083   6.603  69.332  1.00  0.00    -0.365 A  
HETATM   14  C   UNL     1     -10.546   7.891  69.343  1.00  0.00    -0.205 A  
HETATM   15  H   UNL     1      -7.303  13.045  68.231  1.00  0.00     0.000 HD 
HETATM   16  C   UNL     1      -9.502   8.191  68.429  1.00  0.00    -0.146 A  
HETATM   17  C   UNL     1      -9.001   7.195  67.571  1.00  0.00    -0.121 A  
HETATM   18  C   UNL     1      -5.618  10.478  65.803  1.00  0.00    -0.104 A  
HETATM   19  O   UNL     1      -9.397  10.490  69.019  1.00  0.00    -0.183 OA 
HETATM   20  C   UNL     1      -6.167   9.194  65.802  1.00  0.00    -0.056 A  
HETATM   21  C   UNL     1      -7.789   7.474  66.744  1.00  0.00    -0.110 C  
HETATM   22  O   UNL     1      -7.193   6.544  66.209  1.00  0.00    -0.069 OA 
HETATM   23  C   UNL     1      -6.147  11.452  66.637  1.00  0.00    -0.140 A  
HETATM   24  C   UNL     1      -7.243   8.853  66.659  1.00  0.00    -0.085 A  
HETATM   25  O   UNL     1      -7.679  12.172  68.240  1.00  0.00    -0.120 OA 
HETATM   26  H   UNL     1      -4.901   8.494  64.387  1.00  0.00     0.000 HD 
HETATM   27  C   UNL     1      -7.782   9.847  67.476  1.00  0.00    -0.091 A  
HETATM   28  O   UNL     1      -5.622   8.266  64.962  1.00  0.00    -0.043 OA 
HETATM   29  C   UNL     1      -7.223  11.142  67.462  1.00  0.00    -0.101 A  
HETATM   30  C   UNL     1      -8.919   9.558  68.370  1.00  0.00    -0.127 C  
BRANCH  14  31
HETATM   31  N   UNL     1     -10.983   8.782  70.308  1.00  0.00    -0.239 NA 
HETATM   32  H   UNL     1     -10.369   9.553  70.572  1.00  0.00     0.000 HD 
BRANCH  31  33
HETATM   33  C   UNL     1     -12.278   8.669  70.963  1.00  0.00    -0.179 C  
BRANCH  33  34
HETATM   34  C   UNL     1     -12.119   8.146  72.400  1.00  0.00    -0.348 C  
BRANCH  34  35
HETATM   35  N   UNL     1     -12.581   6.755  72.518  1.00  0.00    -0.421 NA 
HETATM   36  H   UNL     1     -13.361   6.560  71.890  1.00  0.00     0.000 HD 
BRANCH  35  37
HETATM   37  C   UNL     1     -11.464   5.825  72.310  1.00  0.00    -0.262 C  
BRANCH  37  38
HETATM   38  C   UNL     1     -10.458   5.928  73.459  1.00  0.00    -0.258 C  
HETATM   39  O   UNL     1      -9.132   5.717  72.979  1.00  0.00    -0.126 OA 
HETATM   40  H   UNL     1      -8.507   5.780  73.692  1.00  0.00     0.000 HD 
ENDBRANCH  37  38
ENDBRANCH  35  37
ENDBRANCH  34  35
ENDBRANCH  33  34
ENDBRANCH  31  33
ENDBRANCH  14  31
ENDBRANCH   9  11
ENDBRANCH   8   9
ENDBRANCH   7   8
ENDBRANCH   5   7
ENDBRANCH   4   5
ENDBRANCH   3   4
TORSDOF 12
ENDMDL
MODEL      183
REMARK 921   NORMALIZED FREE ENERGY PREDICTED BY IDOCK:   -2.63 KCAL/MOL
REMARK 922        TOTAL FREE ENERGY PREDICTED BY IDOCK:   -6.73 KCAL/MOL
REMARK 923 INTER-LIGAND FREE ENERGY PREDICTED BY IDOCK:   -5.68 KCAL/MOL
REMARK 924 INTRA-LIGAND FREE ENERGY PREDICTED BY IDOCK:   -1.05 KCAL/MOL
REMARK 927      BINDING AFFINITY PREDICTED BY RF-SCORE:    0.00 PKD
ROOT
HETATM    1  O   UNL     1     -11.845   9.618  71.914  1.00  0.00    -0.367 OA 
HETATM    2  H   UNL     1     -12.715   9.999  71.920  1.00  0.00     0.000 HD 
HETATM    3  C   UNL     1     -11.931   8.196  71.854  1.00  0.00    -0.320 C  
ENDROOT
BRANCH   3   4
HETATM    4  C   UNL     1     -10.528   7.582  71.842  1.00  0.00    -0.202 C  
BRANCH   4   5
HETATM    5  N   UNL     1     -10.467   6.278  71.165  1.00  0.00    -0.216 NA 
HETATM    6  H   UNL     1     -11.288   6.126  70.579  1.00  0.00     0.000 HD 
BRANCH   5   7
HETATM    7  C   UNL     1      -9.225   6.116  70.397  1.00  0.00    -0.153 C  
BRANCH   7   8
HETATM    8  C   UNL     1      -8.826   7.439  69.732  1.00  0.00    -0.141 C  
BRANCH   8   9
HETATM    9  N   UNL     1      -9.441   7.568  68.424  1.00  0.00    -0.148 NA 
HETATM   10  H   UNL     1      -9.567   6.728  67.858  1.00  0.00     0.000 HD 
BRANCH   9  11
HETATM   11  C   UNL     1      -9.865   8.784  67.910  1.00  0.00    -0.169 A  
HETATM   12  C   UNL     1     -10.902   9.467  68.543  1.00  0.00    -0.149 A  
HETATM   13  C   UNL     1     -11.381  10.667  68.047  1.00  0.00    -0.350 A  
HETATM   14  C   UNL     1     -10.903  11.201  66.849  1.00  0.00    -0.279 A  
HETATM   15  H   UNL     1      -7.891  12.304  61.555  1.00  0.00     0.000 HD 
HETATM   16  C   UNL     1      -9.866  10.508  66.171  1.00  0.00    -0.271 A  
HETATM   17  C   UNL     1      -9.312   9.339  66.725  1.00  0.00    -0.202 A  
HETATM   18  C   UNL     1      -6.068   9.104  62.882  1.00  0.00    -0.090 A  
HETATM   19  O   UNL     1      -9.872  11.962  64.292  1.00  0.00    -0.250 OA 
HETATM   20  C   UNL     1      -6.557   8.581  64.081  1.00  0.00    -0.071 A  
HETATM   21  C   UNL     1      -8.107   8.722  66.094  1.00  0.00    -0.107 C  
HETATM   22  O   UNL     1      -7.464   7.879  66.712  1.00  0.00    -0.087 OA 
HETATM   23  C   UNL     1      -6.648  10.241  62.340  1.00  0.00    -0.137 A  
HETATM   24  C   UNL     1      -7.624   9.205  64.775  1.00  0.00    -0.108 A  
HETATM   25  O   UNL     1      -8.227  11.957  62.374  1.00  0.00     0.117 OA 
HETATM   26  H   UNL     1      -5.248   7.039  64.112  1.00  0.00     0.000 HD 
HETATM   27  C   UNL     1      -8.216  10.333  64.207  1.00  0.00    -0.157 A  
HETATM   28  O   UNL     1      -5.963   7.457  64.577  1.00  0.00    -0.037 OA 
HETATM   29  C   UNL     1      -7.717  10.847  62.993  1.00  0.00     0.184 A  
HETATM   30  C   UNL     1      -9.346  11.010  64.871  1.00  0.00    -0.214 C  
BRANCH  14  31
HETATM   31  N   UNL     1     -11.389  12.428  66.431  1.00  0.00    -0.323 NA 
HETATM   32  H   UNL     1     -11.063  12.802  65.540  1.00  0.00     0.000 HD 
BRANCH  31  33
HETATM   33  C   UNL     1     -12.345  13.207  67.205  1.00  0.00    -0.008 C  
BRANCH  33  34
HETATM   34  C   UNL     1     -11.665  14.436  67.832  1.00  0.00    -0.356 C  
BRANCH  34  35
HETATM   35  N   UNL     1     -10.705  15.049  66.902  1.00  0.00    -0.302 NA 
HETATM   36  H   UNL     1     -11.141  15.772  66.329  1.00  0.00     0.000 HD 
BRANCH  35  37
HETATM   37  C   UNL     1      -9.539  15.560  67.634  1.00  0.00    -0.210 C  
BRANCH  37  38
HETATM   38  C   UNL     1      -9.226  16.997  67.210  1.00  0.00    -0.221 C  
HETATM   39  O   UNL     1     -10.399  17.803  67.279  1.00  0.00    -0.340 OA 
HETATM   40  H   UNL     1     -10.205  18.695  67.015  1.00  0.00     0.000 HD 
ENDBRANCH  37  38
ENDBRANCH  35  37
ENDBRANCH  34  35
ENDBRANCH  33  34
ENDBRANCH  31  33
ENDBRANCH  14  31
ENDBRANCH   9  11
ENDBRANCH   8   9
ENDBRANCH   7   8
ENDBRANCH   5   7
ENDBRANCH   4   5
ENDBRANCH   3   4
TORSDOF 12
ENDMDL
MODEL      184
REMARK 921   NORMALIZED FREE ENERGY PREDICTED BY IDOCK:   -2.59 KCAL/MOL
REMARK 922        TOTAL FREE ENERGY PREDICTED BY IDOCK:   -6.67 KCAL/MOL
REMARK 923 INTER-LIGAND FREE ENERGY PREDICTED BY IDOCK:   -5.66 KCAL/MOL
REMARK 924 INTRA-LIGAND FREE ENERGY PREDICTED BY IDOCK:   -1.01 KCAL/MOL
REMARK 927      BINDING AFFINITY PREDICTED BY RF-SCORE:    0.00 PKD
ROOT
HETATM    1  O   UNL     1     -12.827  11.909  69.270  1.00  0.00     0.405 OA 
HETATM    2  H   UNL     1     -12.696  11.022  68.958  1.00  0.00     0.000 HD 
HETATM    3  C   UNL     1     -11.576  12.584  69.375  1.00  0.00    -0.305 C  
ENDROOT
BRANCH   3   4
HETATM    4  C   UNL     1     -11.787  14.015  69.877  1.00  0.00    -0.329 C  
BRANCH   4   5
HETATM    5  N   UNL     1     -12.045  14.980  68.797  1.00  0.00    -0.575 NA 
HETATM    6  H   UNL     1     -13.044  15.079  68.619  1.00  0.00     0.000 HD 
BRANCH   5   7
HETATM    7  C   UNL     1     -11.419  16.283  69.065  1.00  0.00    -0.268 C  
BRANCH   7   8
HETATM    8  C   UNL     1      -9.931  16.109  69.391  1.00  0.00    -0.243 C  
BRANCH   8   9
HETATM    9  N   UNL     1      -9.209  15.575  68.250  1.00  0.00    -0.185 NA 
HETATM   10  H   UNL     1      -9.188  16.117  67.387  1.00  0.00     0.000 HD 
BRANCH   9  11
HETATM   11  C   UNL     1      -8.546  14.357  68.285  1.00  0.00    -0.170 A  
HETATM   12  C   UNL     1      -7.612  14.118  69.293  1.00  0.00     0.058 A  
HETATM   13  C   UNL     1      -6.903  12.931  69.347  1.00  0.00     0.040 A  
HETATM   14  C   UNL     1      -7.030  11.960  68.352  1.00  0.00    -0.078 A  
HETATM   15  H   UNL     1      -8.606   8.674  63.349  1.00  0.00     0.000 HD 
HETATM   16  C   UNL     1      -7.955  12.195  67.300  1.00  0.00    -0.176 A  
HETATM   17  C   UNL     1      -8.747  13.357  67.296  1.00  0.00    -0.219 A  
HETATM   18  C   UNL     1     -11.028  11.739  63.110  1.00  0.00    -0.275 A  
HETATM   19  O   UNL     1      -7.356  10.238  66.092  1.00  0.00    -0.109 OA 
HETATM   20  C   UNL     1     -10.888  12.702  64.112  1.00  0.00    -0.396 A  
HETATM   21  C   UNL     1      -9.837  13.505  66.285  1.00  0.00    -0.299 C  
HETATM   22  O   UNL     1     -10.693  14.370  66.439  1.00  0.00    -0.297 OA 
HETATM   23  C   UNL     1     -10.216  10.614  63.118  1.00  0.00    -0.072 A  
HETATM   24  C   UNL     1      -9.947  12.542  65.159  1.00  0.00    -0.212 A  
HETATM   25  O   UNL     1      -8.507   9.321  64.037  1.00  0.00    -0.175 OA 
HETATM   26  H   UNL     1     -12.333  13.904  63.362  1.00  0.00     0.000 HD 
HETATM   27  C   UNL     1      -9.119  11.420  65.143  1.00  0.00    -0.058 A  
HETATM   28  O   UNL     1     -11.702  13.797  64.063  1.00  0.00    -0.389 OA 
HETATM   29  C   UNL     1      -9.266  10.458  64.122  1.00  0.00    -0.259 A  
HETATM   30  C   UNL     1      -8.104  11.213  66.192  1.00  0.00    -0.111 C  
BRANCH  14  31
HETATM   31  N   UNL     1      -6.328  10.776  68.489  1.00  0.00    -0.050 NA 
HETATM   32  H   UNL     1      -5.381  10.725  68.114  1.00  0.00     0.000 HD 
BRANCH  31  33
HETATM   33  C   UNL     1      -6.880   9.599  69.145  1.00  0.00    -0.050 C  
BRANCH  33  34
HETATM   34  C   UNL     1      -8.073   9.981  70.038  1.00  0.00    -0.136 C  
BRANCH  34  35
HETATM   35  N   UNL     1      -8.294   8.980  71.092  1.00  0.00    -0.246 NA 
HETATM   36  H   UNL     1      -9.086   9.225  71.688  1.00  0.00     0.000 HD 
BRANCH  35  37
HETATM   37  C   UNL     1      -8.444   7.643  70.504  1.00  0.00    -0.128 C  
BRANCH  37  38
HETATM   38  C   UNL     1      -9.731   6.979  71.001  1.00  0.00    -0.173 C  
HETATM   39  O   UNL     1      -9.989   5.784  70.267  1.00  0.00    -0.178 OA 
HETATM   40  H   UNL     1     -10.788   5.372  70.574  1.00  0.00     0.000 HD 
ENDBRANCH  37  38
ENDBRANCH  35  37
ENDBRANCH  34  35
ENDBRANCH  33  34
ENDBRANCH  31  33
ENDBRANCH  14  31
ENDBRANCH   9  11
ENDBRANCH   8   9
ENDBRANCH   7   8
ENDBRANCH   5   7
ENDBRANCH   4   5
ENDBRANCH   3   4
TORSDOF 12
ENDMDL
MODEL      185
REMARK 921   NORMALIZED FREE ENERGY PREDICTED BY IDOCK:   -2.56 KCAL/MOL
REMARK 922        TOTAL FREE ENERGY PREDICTED BY IDOCK:   -6.62 KCAL/MOL
REMARK 923 INTER-LIGAND FREE ENERGY PREDICTED BY IDOCK:   -6.28 KCAL/MOL
REMARK 924 INTRA-LIGAND FREE ENERGY PREDICTED BY IDOCK:   -0.33 KCAL/MOL
REMARK 927      BINDING AFFINITY PREDICTED BY RF-SCORE:    0.00 PKD
ROOT
HETATM    1  O   UNL     1      -9.586  11.795  62.958  1.00  0.00    -0.464 OA 
HETATM    2  H   UNL     1      -9.955  12.450  62.378  1.00  0.00     0.000 HD 
HETATM    3  C   UNL     1     -10.478  11.535  64.039  1.00  0.00    -0.370 C  
ENDROOT
BRANCH   3   4
HETATM    4  C   UNL     1      -9.883  10.478  64.973  1.00  0.00    -0.306 C  
BRANCH   4   5
HETATM    5  N   UNL     1     -10.603  10.355  66.250  1.00  0.00    -0.159 NA 
HETATM    6  H   UNL     1     -10.259   9.564  66.794  1.00  0.00     0.000 HD 
BRANCH   5   7
HETATM    7  C   UNL     1     -10.558  11.600  67.028  1.00  0.00    -0.237 C  
BRANCH   7   8
HETATM    8  C   UNL     1     -10.862  11.323  68.506  1.00  0.00    -0.205 C  
BRANCH   8   9
HETATM    9  N   UNL     1      -9.639  11.082  69.250  1.00  0.00    -0.421 NA 
HETATM   10  H   UNL     1      -9.366  11.749  69.972  1.00  0.00     0.000 HD 
BRANCH   9  11
HETATM   11  C   UNL     1      -8.825   9.983  69.021  1.00  0.00    -0.159 A  
HETATM   12  C   UNL     1      -7.798  10.080  68.082  1.00  0.00    -0.089 A  
HETATM   13  C   UNL     1      -6.983   8.998  67.796  1.00  0.00    -0.078 A  
HETATM   14  C   UNL     1      -7.206   7.746  68.371  1.00  0.00    -0.093 A  
HETATM   15  H   UNL     1      -9.362   2.939  71.621  1.00  0.00     0.000 HD 
HETATM   16  C   UNL     1      -8.264   7.617  69.309  1.00  0.00    -0.133 A  
HETATM   17  C   UNL     1      -9.032   8.739  69.673  1.00  0.00    -0.145 A  
HETATM   18  C   UNL     1     -11.597   5.876  72.925  1.00  0.00    -0.164 A  
HETATM   19  O   UNL     1      -8.005   5.268  69.555  1.00  0.00    -0.085 OA 
HETATM   20  C   UNL     1     -11.363   7.122  72.340  1.00  0.00    -0.274 A  
HETATM   21  C   UNL     1     -10.021   8.626  70.787  1.00  0.00    -0.197 C  
HETATM   22  O   UNL     1     -10.490   9.645  71.286  1.00  0.00    -0.301 OA 
HETATM   23  C   UNL     1     -10.847   4.778  72.529  1.00  0.00    -0.208 A  
HETATM   24  C   UNL     1     -10.351   7.297  71.362  1.00  0.00    -0.212 A  
HETATM   25  O   UNL     1      -9.193   3.784  71.221  1.00  0.00    -0.109 OA 
HETATM   26  H   UNL     1     -12.805   8.058  73.407  1.00  0.00     0.000 HD 
HETATM   27  C   UNL     1      -9.620   6.181  70.955  1.00  0.00    -0.194 A  
HETATM   28  O   UNL     1     -12.127   8.175  72.752  1.00  0.00    -0.337 OA 
HETATM   29  C   UNL     1      -9.872   4.927  71.549  1.00  0.00    -0.183 A  
HETATM   30  C   UNL     1      -8.573   6.298  69.924  1.00  0.00    -0.134 C  
BRANCH  14  31
HETATM   31  N   UNL     1      -6.327   6.718  68.080  1.00  0.00    -0.036 NA 
HETATM   32  H   UNL     1      -5.510   6.592  68.679  1.00  0.00     0.000 HD 
BRANCH  31  33
HETATM   33  C   UNL     1      -6.514   5.809  66.958  1.00  0.00    -0.047 C  
BRANCH  33  34
HETATM   34  C   UNL     1      -6.826   6.589  65.670  1.00  0.00    -0.049 C  
BRANCH  34  35
HETATM   35  N   UNL     1      -8.117   6.182  65.097  1.00  0.00    -0.128 NA 
HETATM   36  H   UNL     1      -8.028   5.900  64.121  1.00  0.00     0.000 HD 
BRANCH  35  37
HETATM   37  C   UNL     1      -8.731   5.130  65.917  1.00  0.00    -0.135 C  
BRANCH  37  38
HETATM   38  C   UNL     1     -10.237   5.370  66.059  1.00  0.00    -0.069 C  
HETATM   39  O   UNL     1     -10.952   4.644  65.063  1.00  0.00    -0.565 OA 
HETATM   40  H   UNL     1     -11.886   4.793  65.150  1.00  0.00     0.000 HD 
ENDBRANCH  37  38
ENDBRANCH  35  37
ENDBRANCH  34  35
ENDBRANCH  33  34
ENDBRANCH  31  33
ENDBRANCH  14  31
ENDBRANCH   9  11
ENDBRANCH   8   9
ENDBRANCH   7   8
ENDBRANCH   5   7
ENDBRANCH   4   5
ENDBRANCH   3   4
TORSDOF 12
ENDMDL
MODEL      186
REMARK 921   NORMALIZED FREE ENERGY PREDICTED BY IDOCK:   -2.50 KCAL/MOL
REMARK 922        TOTAL FREE ENERGY PREDICTED BY IDOCK:   -6.51 KCAL/MOL
REMARK 923 INTER-LIGAND FREE ENERGY PREDICTED BY IDOCK:   -7.85 KCAL/MOL
REMARK 924 INTRA-LIGAND FREE ENERGY PREDICTED BY IDOCK:    1.34 KCAL/MOL
REMARK 927      BINDING AFFINITY PREDICTED BY RF-SCORE:    0.00 PKD
ROOT
HETATM    1  O   UNL     1     -11.182  11.114  63.296  1.00  0.00    -0.775 OA 
HETATM    2  H   UNL     1     -10.946  10.890  62.404  1.00  0.00     0.000 HD 
HETATM    3  C   UNL     1     -12.328  11.961  63.305  1.00  0.00    -0.391 C  
ENDROOT
BRANCH   3   4
HETATM    4  C   UNL     1     -12.709  12.322  64.744  1.00  0.00    -0.106 C  
BRANCH   4   5
HETATM    5  N   UNL     1     -13.151  13.715  64.900  1.00  0.00    -0.650 NA 
HETATM    6  H   UNL     1     -13.908  13.790  65.580  1.00  0.00     0.000 HD 
BRANCH   5   7
HETATM    7  C   UNL     1     -12.037  14.610  65.239  1.00  0.00    -0.276 C  
BRANCH   7   8
HETATM    8  C   UNL     1     -12.018  14.901  66.745  1.00  0.00    -0.090 C  
BRANCH   8   9
HETATM    9  N   UNL     1     -10.744  14.525  67.329  1.00  0.00    -0.283 NA 
HETATM   10  H   UNL     1     -10.240  15.213  67.889  1.00  0.00     0.000 HD 
BRANCH   9  11
HETATM   11  C   UNL     1     -10.182  13.268  67.159  1.00  0.00    -0.246 A  
HETATM   12  C   UNL     1      -9.336  13.042  66.074  1.00  0.00    -0.024 A  
HETATM   13  C   UNL     1      -8.780  11.796  65.845  1.00  0.00     0.065 A  
HETATM   14  C   UNL     1      -9.107  10.695  66.639  1.00  0.00    -0.160 A  
HETATM   15  H   UNL     1     -11.440   6.857  70.898  1.00  0.00     0.000 HD 
HETATM   16  C   UNL     1      -9.990  10.896  67.733  1.00  0.00    -0.198 A  
HETATM   17  C   UNL     1     -10.479  12.183  68.024  1.00  0.00    -0.227 A  
HETATM   18  C   UNL     1     -12.878  10.315  72.038  1.00  0.00    -0.457 A  
HETATM   19  O   UNL     1     -10.093   8.593  68.309  1.00  0.00    -0.178 OA 
HETATM   20  C   UNL     1     -12.542  11.406  71.233  1.00  0.00    -0.374 A  
HETATM   21  C   UNL     1     -11.260  12.409  69.278  1.00  0.00    -0.201 C  
HETATM   22  O   UNL     1     -11.454  13.555  69.672  1.00  0.00    -0.264 OA 
HETATM   23  C   UNL     1     -12.407   9.051  71.715  1.00  0.00    -0.438 A  
HETATM   24  C   UNL     1     -11.705  11.254  70.100  1.00  0.00    -0.429 A  
HETATM   25  O   UNL     1     -11.203   7.595  70.348  1.00  0.00    -0.266 OA 
HETATM   26  H   UNL     1     -13.593  12.733  72.342  1.00  0.00     0.000 HD 
HETATM   27  C   UNL     1     -11.257   9.975  69.771  1.00  0.00    -0.307 A  
HETATM   28  O   UNL     1     -13.032  12.632  71.582  1.00  0.00    -0.374 OA 
HETATM   29  C   UNL     1     -11.609   8.881  70.588  1.00  0.00    -0.215 A  
HETATM   30  C   UNL     1     -10.404   9.752  68.589  1.00  0.00    -0.201 C  
BRANCH  14  31
HETATM   31  N   UNL     1      -8.481   9.488  66.387  1.00  0.00    -0.125 NA 
HETATM   32  H   UNL     1      -9.050   8.699  66.080  1.00  0.00     0.000 HD 
BRANCH  31  33
HETATM   33  C   UNL     1      -7.046   9.292  66.538  1.00  0.00    -0.085 C  
BRANCH  33  34
HETATM   34  C   UNL     1      -6.278  10.565  66.146  1.00  0.00    -0.111 C  
BRANCH  34  35
HETATM   35  N   UNL     1      -6.481  11.638  67.131  1.00  0.00    -0.122 NA 
HETATM   36  H   UNL     1      -7.437  11.650  67.487  1.00  0.00     0.000 HD 
BRANCH  35  37
HETATM   37  C   UNL     1      -5.495  11.532  68.214  1.00  0.00    -0.042 C  
BRANCH  37  38
HETATM   38  C   UNL     1      -5.126  12.920  68.742  1.00  0.00    -0.061 C  
HETATM   39  O   UNL     1      -5.300  13.902  67.723  1.00  0.00    -0.236 OA 
HETATM   40  H   UNL     1      -5.070  14.764  68.051  1.00  0.00     0.000 HD 
ENDBRANCH  37  38
ENDBRANCH  35  37
ENDBRANCH  34  35
ENDBRANCH  33  34
ENDBRANCH  31  33
ENDBRANCH  14  31
ENDBRANCH   9  11
ENDBRANCH   8   9
ENDBRANCH   7   8
ENDBRANCH   5   7
ENDBRANCH   4   5
ENDBRANCH   3   4
TORSDOF 12
ENDMDL
MODEL      187
REMARK 921   NORMALIZED FREE ENERGY PREDICTED BY IDOCK:   -2.49 KCAL/MOL
REMARK 922        TOTAL FREE ENERGY PREDICTED BY IDOCK:   -6.51 KCAL/MOL
REMARK 923 INTER-LIGAND FREE ENERGY PREDICTED BY IDOCK:   -6.16 KCAL/MOL
REMARK 924 INTRA-LIGAND FREE ENERGY PREDICTED BY IDOCK:   -0.35 KCAL/MOL
REMARK 927      BINDING AFFINITY PREDICTED BY RF-SCORE:    0.00 PKD
ROOT
HETATM    1  O   UNL     1     -10.320  16.649  67.012  1.00  0.00    -0.296 OA 
HETATM    2  H   UNL     1     -10.739  17.481  66.827  1.00  0.00     0.000 HD 
HETATM    3  C   UNL     1     -11.292  15.607  67.050  1.00  0.00    -0.051 C  
ENDROOT
BRANCH   3   4
HETATM    4  C   UNL     1     -10.616  14.265  67.348  1.00  0.00    -0.276 C  
BRANCH   4   5
HETATM    5  N   UNL     1     -10.069  14.176  68.710  1.00  0.00    -0.297 NA 
HETATM    6  H   UNL     1     -10.254  15.027  69.240  1.00  0.00     0.000 HD 
BRANCH   5   7
HETATM    7  C   UNL     1     -10.558  12.987  69.421  1.00  0.00     0.276 C  
BRANCH   7   8
HETATM    8  C   UNL     1     -11.970  12.618  68.947  1.00  0.00    -0.242 C  
BRANCH   8   9
HETATM    9  N   UNL     1     -11.984  11.300  68.339  1.00  0.00    -0.603 NA 
HETATM   10  H   UNL     1     -12.838  10.982  67.881  1.00  0.00     0.000 HD 
BRANCH   9  11
HETATM   11  C   UNL     1     -10.885  10.454  68.354  1.00  0.00    -0.245 A  
HETATM   12  C   UNL     1     -10.538   9.810  69.540  1.00  0.00    -0.253 A  
HETATM   13  C   UNL     1      -9.430   8.984  69.610  1.00  0.00    -0.174 A  
HETATM   14  C   UNL     1      -8.568   8.828  68.524  1.00  0.00    -0.134 A  
HETATM   15  H   UNL     1      -5.741   9.112  63.024  1.00  0.00     0.000 HD 
HETATM   16  C   UNL     1      -8.885   9.499  67.313  1.00  0.00    -0.136 A  
HETATM   17  C   UNL     1     -10.064  10.260  67.211  1.00  0.00    -0.249 A  
HETATM   18  C   UNL     1      -8.986  11.205  62.385  1.00  0.00    -0.321 A  
HETATM   19  O   UNL     1      -6.887   8.840  66.209  1.00  0.00    -0.072 OA 
HETATM   20  C   UNL     1      -9.838  11.353  63.481  1.00  0.00    -0.375 A  
HETATM   21  C   UNL     1     -10.474  10.812  65.885  1.00  0.00    -0.204 C  
HETATM   22  O   UNL     1     -11.615  11.237  65.732  1.00  0.00    -0.078 OA 
HETATM   23  C   UNL     1      -7.815  10.473  62.517  1.00  0.00    -0.178 A  
HETATM   24  C   UNL     1      -9.545  10.746  64.728  1.00  0.00    -0.314 A  
HETATM   25  O   UNL     1      -6.317   9.203  63.774  1.00  0.00    -0.087 OA 
HETATM   26  H   UNL     1     -11.173  12.494  62.476  1.00  0.00     0.000 HD 
HETATM   27  C   UNL     1      -8.353  10.033  64.855  1.00  0.00    -0.160 A  
HETATM   28  O   UNL     1     -10.976  12.087  63.312  1.00  0.00    -0.388 OA 
HETATM   29  C   UNL     1      -7.498   9.897  63.743  1.00  0.00    -0.136 A  
HETATM   30  C   UNL     1      -7.982   9.401  66.135  1.00  0.00    -0.110 C  
BRANCH  14  31
HETATM   31  N   UNL     1      -7.504   7.951  68.643  1.00  0.00    -0.097 NA 
HETATM   32  H   UNL     1      -6.645   8.286  69.081  1.00  0.00     0.000 HD 
BRANCH  31  33
HETATM   33  C   UNL     1      -7.555   6.574  68.175  1.00  0.00    -0.103 C  
BRANCH  33  34
HETATM   34  C   UNL     1      -8.587   5.763  68.977  1.00  0.00    -0.106 C  
BRANCH  34  35
HETATM   35  N   UNL     1      -8.698   4.388  68.469  1.00  0.00    -0.093 NA 
HETATM   36  H   UNL     1      -9.610   3.980  68.672  1.00  0.00     0.000 HD 
BRANCH  35  37
HETATM   37  C   UNL     1      -8.386   4.345  67.035  1.00  0.00    -0.101 C  
BRANCH  37  38
HETATM   38  C   UNL     1      -8.884   3.037  66.415  1.00  0.00    -0.145 C  
HETATM   39  O   UNL     1      -9.537   2.237  67.399  1.00  0.00    -0.408 OA 
HETATM   40  H   UNL     1      -9.845   1.425  67.014  1.00  0.00     0.000 HD 
ENDBRANCH  37  38
ENDBRANCH  35  37
ENDBRANCH  34  35
ENDBRANCH  33  34
ENDBRANCH  31  33
ENDBRANCH  14  31
ENDBRANCH   9  11
ENDBRANCH   8   9
ENDBRANCH   7   8
ENDBRANCH   5   7
ENDBRANCH   4   5
ENDBRANCH   3   4
TORSDOF 12
ENDMDL
MODEL      188
REMARK 921   NORMALIZED FREE ENERGY PREDICTED BY IDOCK:   -2.41 KCAL/MOL
REMARK 922        TOTAL FREE ENERGY PREDICTED BY IDOCK:   -6.37 KCAL/MOL
REMARK 923 INTER-LIGAND FREE ENERGY PREDICTED BY IDOCK:   -6.72 KCAL/MOL
REMARK 924 INTRA-LIGAND FREE ENERGY PREDICTED BY IDOCK:    0.35 KCAL/MOL
REMARK 927      BINDING AFFINITY PREDICTED BY RF-SCORE:    0.00 PKD
ROOT
HETATM    1  O   UNL     1      -9.526  17.596  66.072  1.00  0.00    -0.490 OA 
HETATM    2  H   UNL     1      -9.253  18.453  65.766  1.00  0.00     0.000 HD 
HETATM    3  C   UNL     1      -8.409  16.711  66.114  1.00  0.00    -0.270 C  
ENDROOT
BRANCH   3   4
HETATM    4  C   UNL     1      -8.848  15.329  66.607  1.00  0.00    -0.293 C  
BRANCH   4   5
HETATM    5  N   UNL     1      -7.725  14.465  66.998  1.00  0.00    -0.329 NA 
HETATM    6  H   UNL     1      -7.204  14.865  67.779  1.00  0.00     0.000 HD 
BRANCH   5   7
HETATM    7  C   UNL     1      -8.164  13.094  67.294  1.00  0.00    -0.168 C  
BRANCH   7   8
HETATM    8  C   UNL     1      -6.958  12.153  67.403  1.00  0.00    -0.146 C  
BRANCH   8   9
HETATM    9  N   UNL     1      -7.308  10.810  66.978  1.00  0.00    -0.104 NA 
HETATM   10  H   UNL     1      -7.052  10.513  66.036  1.00  0.00     0.000 HD 
BRANCH   9  11
HETATM   11  C   UNL     1      -7.977   9.914  67.798  1.00  0.00    -0.105 A  
HETATM   12  C   UNL     1      -8.271  10.280  69.111  1.00  0.00    -0.152 A  
HETATM   13  C   UNL     1      -8.906   9.406  69.975  1.00  0.00    -0.231 A  
HETATM   14  C   UNL     1      -9.203   8.095  69.597  1.00  0.00    -0.155 A  
HETATM   15  H   UNL     1      -9.870   2.730  66.583  1.00  0.00     0.000 HD 
HETATM   16  C   UNL     1      -8.886   7.690  68.274  1.00  0.00    -0.125 A  
HETATM   17  C   UNL     1      -8.329   8.608  67.364  1.00  0.00    -0.116 A  
HETATM   18  C   UNL     1      -8.426   5.062  63.791  1.00  0.00    -0.128 A  
HETATM   19  O   UNL     1      -9.524   5.428  68.617  1.00  0.00    -0.114 OA 
HETATM   20  C   UNL     1      -8.134   6.370  64.185  1.00  0.00    -0.052 A  
HETATM   21  C   UNL     1      -8.166   8.221  65.930  1.00  0.00    -0.119 C  
HETATM   22  O   UNL     1      -7.941   9.086  65.090  1.00  0.00    -0.109 OA 
HETATM   23  C   UNL     1      -8.948   4.166  64.713  1.00  0.00    -0.140 A  
HETATM   24  C   UNL     1      -8.384   6.813  65.507  1.00  0.00    -0.143 A  
HETATM   25  O   UNL     1      -9.678   3.619  66.858  1.00  0.00    -0.196 OA 
HETATM   26  H   UNL     1      -7.447   6.920  62.363  1.00  0.00     0.000 HD 
HETATM   27  C   UNL     1      -8.887   5.897  66.431  1.00  0.00    -0.134 A  
HETATM   28  O   UNL     1      -7.615   7.217  63.249  1.00  0.00    -0.099 OA 
HETATM   29  C   UNL     1      -9.171   4.578  66.023  1.00  0.00    -0.141 A  
HETATM   30  C   UNL     1      -9.143   6.294  67.828  1.00  0.00    -0.114 C  
BRANCH  14  31
HETATM   31  N   UNL     1      -9.881   7.286  70.491  1.00  0.00    -0.183 NA 
HETATM   32  H   UNL     1      -9.930   6.285  70.301  1.00  0.00     0.000 HD 
BRANCH  31  33
HETATM   33  C   UNL     1     -10.527   7.798  71.691  1.00  0.00    -0.202 C  
BRANCH  33  34
HETATM   34  C   UNL     1     -11.215   9.144  71.408  1.00  0.00    -0.349 C  
BRANCH  34  35
HETATM   35  N   UNL     1     -12.625   8.956  71.037  1.00  0.00    -0.489 NA 
HETATM   36  H   UNL     1     -12.941   8.002  71.212  1.00  0.00     0.000 HD 
BRANCH  35  37
HETATM   37  C   UNL     1     -13.469   9.946  71.719  1.00  0.00    -0.353 C  
BRANCH  37  38
HETATM   38  C   UNL     1     -12.974  11.365  71.431  1.00  0.00    -0.365 C  
HETATM   39  O   UNL     1     -13.574  12.294  72.331  1.00  0.00    -0.602 OA 
HETATM   40  H   UNL     1     -13.267  13.175  72.152  1.00  0.00     0.000 HD 
ENDBRANCH  37  38
ENDBRANCH  35  37
ENDBRANCH  34  35
ENDBRANCH  33  34
ENDBRANCH  31  33
ENDBRANCH  14  31
ENDBRANCH   9  11
ENDBRANCH   8   9
ENDBRANCH   7   8
ENDBRANCH   5   7
ENDBRANCH   4   5
ENDBRANCH   3   4
TORSDOF 12
ENDMDL
MODEL      189
REMARK 921   NORMALIZED FREE ENERGY PREDICTED BY IDOCK:   -2.41 KCAL/MOL
REMARK 922        TOTAL FREE ENERGY PREDICTED BY IDOCK:   -6.37 KCAL/MOL
REMARK 923 INTER-LIGAND FREE ENERGY PREDICTED BY IDOCK:   -6.57 KCAL/MOL
REMARK 924 INTRA-LIGAND FREE ENERGY PREDICTED BY IDOCK:    0.20 KCAL/MOL
REMARK 927      BINDING AFFINITY PREDICTED BY RF-SCORE:    0.00 PKD
ROOT
HETATM    1  O   UNL     1      -9.928  12.753  64.402  1.00  0.00    -0.555 OA 
HETATM    2  H   UNL     1      -9.020  12.892  64.643  1.00  0.00     0.000 HD 
HETATM    3  C   UNL     1     -10.585  14.004  64.216  1.00  0.00     0.029 C  
ENDROOT
BRANCH   3   4
HETATM    4  C   UNL     1     -12.049  13.780  63.827  1.00  0.00    -0.336 C  
BRANCH   4   5
HETATM    5  N   UNL     1     -12.639  12.580  64.439  1.00  0.00    -0.649 NA 
HETATM    6  H   UNL     1     -12.119  11.740  64.185  1.00  0.00     0.000 HD 
BRANCH   5   7
HETATM    7  C   UNL     1     -12.763  12.712  65.897  1.00  0.00     0.516 C  
BRANCH   7   8
HETATM    8  C   UNL     1     -12.721  14.188  66.311  1.00  0.00    -0.125 C  
BRANCH   8   9
HETATM    9  N   UNL     1     -12.068  14.347  67.598  1.00  0.00    -0.590 NA 
HETATM   10  H   UNL     1     -12.602  14.746  68.370  1.00  0.00     0.000 HD 
BRANCH   9  11
HETATM   11  C   UNL     1     -10.749  13.980  67.821  1.00  0.00    -0.243 A  
HETATM   12  C   UNL     1     -10.416  12.626  67.855  1.00  0.00    -0.225 A  
HETATM   13  C   UNL     1      -9.120  12.212  68.109  1.00  0.00    -0.196 A  
HETATM   14  C   UNL     1      -8.112  13.126  68.423  1.00  0.00    -0.130 A  
HETATM   15  H   UNL     1      -4.789  18.206  69.630  1.00  0.00     0.000 HD 
HETATM   16  C   UNL     1      -8.436  14.508  68.423  1.00  0.00    -0.163 A  
HETATM   17  C   UNL     1      -9.729  14.935  68.070  1.00  0.00    -0.212 A  
HETATM   18  C   UNL     1      -8.246  19.719  68.591  1.00  0.00    -0.235 A  
HETATM   19  O   UNL     1      -6.302  15.195  69.211  1.00  0.00    -0.105 OA 
HETATM   20  C   UNL     1      -9.244  18.793  68.280  1.00  0.00    -0.331 A  
HETATM   21  C   UNL     1     -10.005  16.394  67.902  1.00  0.00    -0.243 C  
HETATM   22  O   UNL     1     -11.034  16.756  67.340  1.00  0.00    -0.232 OA 
HETATM   23  C   UNL     1      -6.986  19.273  68.963  1.00  0.00    -0.381 A  
HETATM   24  C   UNL     1      -8.990  17.399  68.312  1.00  0.00    -0.268 A  
HETATM   25  O   UNL     1      -5.461  17.569  69.416  1.00  0.00    -0.180 OA 
HETATM   26  H   UNL     1     -10.642  20.206  67.903  1.00  0.00     0.000 HD 
HETATM   27  C   UNL     1      -7.727  16.962  68.711  1.00  0.00    -0.247 A  
HETATM   28  O   UNL     1     -10.472  19.272  67.925  1.00  0.00    -0.403 OA 
HETATM   29  C   UNL     1      -6.730  17.908  69.029  1.00  0.00    -0.248 A  
HETATM   30  C   UNL     1      -7.412  15.524  68.788  1.00  0.00    -0.141 C  
BRANCH  14  31
HETATM   31  N   UNL     1      -6.827  12.652  68.619  1.00  0.00    -0.086 NA 
HETATM   32  H   UNL     1      -6.061  13.324  68.659  1.00  0.00     0.000 HD 
BRANCH  31  33
HETATM   33  C   UNL     1      -6.519  11.237  68.772  1.00  0.00    -0.058 C  
BRANCH  33  34
HETATM   34  C   UNL     1      -6.953  10.731  70.158  1.00  0.00     0.002 C  
BRANCH  34  35
HETATM   35  N   UNL     1      -7.482   9.361  70.087  1.00  0.00    -0.102 NA 
HETATM   36  H   UNL     1      -6.741   8.663  70.152  1.00  0.00     0.000 HD 
BRANCH  35  37
HETATM   37  C   UNL     1      -8.517   9.158  71.109  1.00  0.00    -0.113 C  
BRANCH  37  38
HETATM   38  C   UNL     1      -9.693   8.366  70.534  1.00  0.00    -0.173 C  
HETATM   39  O   UNL     1      -9.243   7.122  70.004  1.00  0.00    -0.146 OA 
HETATM   40  H   UNL     1      -9.973   6.630  69.646  1.00  0.00     0.000 HD 
ENDBRANCH  37  38
ENDBRANCH  35  37
ENDBRANCH  34  35
ENDBRANCH  33  34
ENDBRANCH  31  33
ENDBRANCH  14  31
ENDBRANCH   9  11
ENDBRANCH   8   9
ENDBRANCH   7   8
ENDBRANCH   5   7
ENDBRANCH   4   5
ENDBRANCH   3   4
TORSDOF 12
ENDMDL
MODEL      190
REMARK 921   NORMALIZED FREE ENERGY PREDICTED BY IDOCK:   -2.37 KCAL/MOL
REMARK 922        TOTAL FREE ENERGY PREDICTED BY IDOCK:   -6.29 KCAL/MOL
REMARK 923 INTER-LIGAND FREE ENERGY PREDICTED BY IDOCK:   -7.70 KCAL/MOL
REMARK 924 INTRA-LIGAND FREE ENERGY PREDICTED BY IDOCK:    1.40 KCAL/MOL
REMARK 927      BINDING AFFINITY PREDICTED BY RF-SCORE:    0.00 PKD
ROOT
HETATM    1  O   UNL     1      -7.793   8.025  69.828  1.00  0.00    -0.101 OA 
HETATM    2  H   UNL     1      -7.667   7.090  69.934  1.00  0.00     0.000 HD 
HETATM    3  C   UNL     1      -6.548   8.662  69.552  1.00  0.00    -0.040 C  
ENDROOT
BRANCH   3   4
HETATM    4  C   UNL     1      -6.752  10.170  69.380  1.00  0.00    -0.065 C  
BRANCH   4   5
HETATM    5  N   UNL     1      -6.708  10.914  70.648  1.00  0.00    -0.462 NA 
HETATM    6  H   UNL     1      -6.275  10.360  71.387  1.00  0.00     0.000 HD 
BRANCH   5   7
HETATM    7  C   UNL     1      -6.044  12.216  70.498  1.00  0.00     0.072 C  
BRANCH   7   8
HETATM    8  C   UNL     1      -5.878  12.568  69.014  1.00  0.00    -0.071 C  
BRANCH   8   9
HETATM    9  N   UNL     1      -6.429  13.881  68.728  1.00  0.00    -0.088 NA 
HETATM   10  H   UNL     1      -5.984  14.699  69.144  1.00  0.00     0.000 HD 
BRANCH   9  11
HETATM   11  C   UNL     1      -7.536  14.068  67.914  1.00  0.00    -0.155 A  
HETATM   12  C   UNL     1      -8.160  12.958  67.346  1.00  0.00    -0.181 A  
HETATM   13  C   UNL     1      -9.246  13.100  66.500  1.00  0.00    -0.185 A  
HETATM   14  C   UNL     1      -9.710  14.359  66.115  1.00  0.00    -0.312 A  
HETATM   15  H   UNL     1     -10.613  20.431  65.322  1.00  0.00     0.000 HD 
HETATM   16  C   UNL     1      -9.071  15.504  66.659  1.00  0.00    -0.310 A  
HETATM   17  C   UNL     1      -8.030  15.361  67.594  1.00  0.00    -0.172 A  
HETATM   18  C   UNL     1      -7.776  20.371  68.019  1.00  0.00    -0.157 A  
HETATM   19  O   UNL     1     -10.326  17.047  65.358  1.00  0.00    -0.617 OA 
HETATM   20  C   UNL     1      -7.323  19.105  68.393  1.00  0.00    -0.298 A  
HETATM   21  C   UNL     1      -7.490  16.568  68.289  1.00  0.00    -0.171 C  
HETATM   22  O   UNL     1      -6.786  16.430  69.285  1.00  0.00    -0.192 OA 
HETATM   23  C   UNL     1      -8.785  20.489  67.074  1.00  0.00    -0.340 A  
HETATM   24  C   UNL     1      -7.891  17.928  67.845  1.00  0.00    -0.230 A  
HETATM   25  O   UNL     1     -10.313  19.565  65.575  1.00  0.00    -0.442 OA 
HETATM   26  H   UNL     1      -5.943  19.821  69.689  1.00  0.00     0.000 HD 
HETATM   27  C   UNL     1      -8.887  18.059  66.878  1.00  0.00    -0.266 A  
HETATM   28  O   UNL     1      -6.324  19.033  69.321  1.00  0.00    -0.268 OA 
HETATM   29  C   UNL     1      -9.332  19.344  66.504  1.00  0.00    -0.359 A  
HETATM   30  C   UNL     1      -9.498  16.871  66.254  1.00  0.00    -0.271 C  
BRANCH  14  31
HETATM   31  N   UNL     1     -10.829  14.432  65.305  1.00  0.00    -0.338 NA 
HETATM   32  H   UNL     1     -10.807  15.060  64.501  1.00  0.00     0.000 HD 
BRANCH  31  33
HETATM   33  C   UNL     1     -12.036  13.655  65.548  1.00  0.00    -0.411 C  
BRANCH  33  34
HETATM   34  C   UNL     1     -11.785  12.578  66.616  1.00  0.00    -0.387 C  
BRANCH  34  35
HETATM   35  N   UNL     1     -11.525  11.267  66.003  1.00  0.00    -0.140 NA 
HETATM   36  H   UNL     1     -11.274  11.351  65.018  1.00  0.00     0.000 HD 
BRANCH  35  37
HETATM   37  C   UNL     1     -10.505  10.537  66.767  1.00  0.00    -0.242 C  
BRANCH  37  38
HETATM   38  C   UNL     1     -10.503   9.056  66.383  1.00  0.00    -0.040 C  
HETATM   39  O   UNL     1     -11.151   8.280  67.389  1.00  0.00    -0.456 OA 
HETATM   40  H   UNL     1     -11.149   7.360  67.151  1.00  0.00     0.000 HD 
ENDBRANCH  37  38
ENDBRANCH  35  37
ENDBRANCH  34  35
ENDBRANCH  33  34
ENDBRANCH  31  33
ENDBRANCH  14  31
ENDBRANCH   9  11
ENDBRANCH   8   9
ENDBRANCH   7   8
ENDBRANCH   5   7
ENDBRANCH   4   5
ENDBRANCH   3   4
TORSDOF 12
ENDMDL
MODEL      191
REMARK 921   NORMALIZED FREE ENERGY PREDICTED BY IDOCK:   -2.33 KCAL/MOL
REMARK 922        TOTAL FREE ENERGY PREDICTED BY IDOCK:   -6.24 KCAL/MOL
REMARK 923 INTER-LIGAND FREE ENERGY PREDICTED BY IDOCK:   -4.56 KCAL/MOL
REMARK 924 INTRA-LIGAND FREE ENERGY PREDICTED BY IDOCK:   -1.67 KCAL/MOL
REMARK 927      BINDING AFFINITY PREDICTED BY RF-SCORE:    0.00 PKD
ROOT
HETATM    1  O   UNL     1      -5.496  10.679  72.409  1.00  0.00    -0.295 OA 
HETATM    2  H   UNL     1      -4.850  11.158  72.913  1.00  0.00     0.000 HD 
HETATM    3  C   UNL     1      -5.207  10.778  71.017  1.00  0.00    -0.103 C  
ENDROOT
BRANCH   3   4
HETATM    4  C   UNL     1      -6.249  10.006  70.203  1.00  0.00    -0.077 C  
BRANCH   4   5
HETATM    5  N   UNL     1      -6.097  10.173  68.750  1.00  0.00    -0.047 NA 
HETATM    6  H   UNL     1      -6.526   9.400  68.241  1.00  0.00     0.000 HD 
BRANCH   5   7
HETATM    7  C   UNL     1      -6.616  11.468  68.290  1.00  0.00    -0.061 C  
BRANCH   7   8
HETATM    8  C   UNL     1      -8.144  11.514  68.417  1.00  0.00    -0.149 C  
BRANCH   8   9
HETATM    9  N   UNL     1      -8.737  10.261  67.986  1.00  0.00    -0.122 NA 
HETATM   10  H   UNL     1      -8.600   9.961  67.021  1.00  0.00     0.000 HD 
BRANCH   9  11
HETATM   11  C   UNL     1      -9.482   9.453  68.832  1.00  0.00    -0.154 A  
HETATM   12  C   UNL     1     -10.182  10.036  69.887  1.00  0.00    -0.304 A  
HETATM   13  C   UNL     1     -10.912   9.265  70.777  1.00  0.00    -0.349 A  
HETATM   14  C   UNL     1     -10.909   7.871  70.705  1.00  0.00    -0.237 A  
HETATM   15  H   UNL     1      -9.965   1.949  69.174  1.00  0.00     0.000 HD 
HETATM   16  C   UNL     1     -10.179   7.255  69.655  1.00  0.00    -0.214 A  
HETATM   17  C   UNL     1      -9.517   8.040  68.693  1.00  0.00    -0.147 A  
HETATM   18  C   UNL     1      -8.119   3.843  66.288  1.00  0.00    -0.097 A  
HETATM   19  O   UNL     1     -10.576   5.044  70.429  1.00  0.00    -0.215 OA 
HETATM   20  C   UNL     1      -8.130   5.237  66.374  1.00  0.00    -0.108 A  
HETATM   21  C   UNL     1      -8.905   7.384  67.498  1.00  0.00    -0.127 C  
HETATM   22  O   UNL     1      -8.571   8.069  66.536  1.00  0.00    -0.128 OA 
HETATM   23  C   UNL     1      -8.755   3.089  67.263  1.00  0.00    -0.141 A  
HETATM   24  C   UNL     1      -8.802   5.904  67.429  1.00  0.00    -0.106 A  
HETATM   25  O   UNL     1      -9.981   2.897  69.237  1.00  0.00     0.237 OA 
HETATM   26  H   UNL     1      -7.037   5.496  64.691  1.00  0.00     0.000 HD 
HETATM   27  C   UNL     1      -9.416   5.134  68.417  1.00  0.00    -0.168 A  
HETATM   28  O   UNL     1      -7.487   5.942  65.398  1.00  0.00    -0.077 OA 
HETATM   29  C   UNL     1      -9.392   3.728  68.322  1.00  0.00    -0.167 A  
HETATM   30  C   UNL     1     -10.109   5.772  69.552  1.00  0.00    -0.214 C  
BRANCH  14  31
HETATM   31  N   UNL     1     -11.696   7.161  71.594  1.00  0.00    -0.276 NA 
HETATM   32  H   UNL     1     -12.219   6.357  71.247  1.00  0.00     0.000 HD 
BRANCH  31  33
HETATM   33  C   UNL     1     -11.812   7.510  73.003  1.00  0.00     0.127 C  
BRANCH  33  34
HETATM   34  C   UNL     1     -10.705   6.828  73.825  1.00  0.00    -0.201 C  
BRANCH  34  35
HETATM   35  N   UNL     1      -9.594   7.753  74.097  1.00  0.00    -0.289 NA 
HETATM   36  H   UNL     1      -9.467   7.911  75.097  1.00  0.00     0.000 HD 
BRANCH  35  37
HETATM   37  C   UNL     1      -8.362   7.275  73.457  1.00  0.00    -0.129 C  
BRANCH  37  38
HETATM   38  C   UNL     1      -8.325   5.744  73.438  1.00  0.00    -0.115 C  
HETATM   39  O   UNL     1      -8.006   5.271  72.132  1.00  0.00    -0.106 OA 
HETATM   40  H   UNL     1      -7.984   4.321  72.120  1.00  0.00     0.000 HD 
ENDBRANCH  37  38
ENDBRANCH  35  37
ENDBRANCH  34  35
ENDBRANCH  33  34
ENDBRANCH  31  33
ENDBRANCH  14  31
ENDBRANCH   9  11
ENDBRANCH   8   9
ENDBRANCH   7   8
ENDBRANCH   5   7
ENDBRANCH   4   5
ENDBRANCH   3   4
TORSDOF 12
ENDMDL
MODEL      192
REMARK 921   NORMALIZED FREE ENERGY PREDICTED BY IDOCK:   -2.09 KCAL/MOL
REMARK 922        TOTAL FREE ENERGY PREDICTED BY IDOCK:   -5.82 KCAL/MOL
REMARK 923 INTER-LIGAND FREE ENERGY PREDICTED BY IDOCK:   -4.97 KCAL/MOL
REMARK 924 INTRA-LIGAND FREE ENERGY PREDICTED BY IDOCK:   -0.84 KCAL/MOL
REMARK 927      BINDING AFFINITY PREDICTED BY RF-SCORE:    0.00 PKD
ROOT
HETATM    1  O   UNL     1     -13.786   7.946  71.073  1.00  0.00    -0.577 OA 
HETATM    2  H   UNL     1     -14.186   8.383  71.815  1.00  0.00     0.000 HD 
HETATM    3  C   UNL     1     -12.803   7.016  71.520  1.00  0.00    -0.372 C  
ENDROOT
BRANCH   3   4
HETATM    4  C   UNL     1     -12.158   6.311  70.324  1.00  0.00     0.281 C  
BRANCH   4   5
HETATM    5  N   UNL     1     -11.250   7.177  69.556  1.00  0.00    -0.463 NA 
HETATM    6  H   UNL     1     -11.733   8.005  69.207  1.00  0.00     0.000 HD 
BRANCH   5   7
HETATM    7  C   UNL     1     -10.055   7.543  70.330  1.00  0.00    -0.194 C  
BRANCH   7   8
HETATM    8  C   UNL     1      -9.327   6.286  70.823  1.00  0.00    -0.158 C  
BRANCH   8   9
HETATM    9  N   UNL     1      -8.062   6.116  70.132  1.00  0.00    -0.114 NA 
HETATM   10  H   UNL     1      -7.318   5.595  70.596  1.00  0.00     0.000 HD 
BRANCH   9  11
HETATM   11  C   UNL     1      -7.823   6.631  68.866  1.00  0.00    -0.111 A  
HETATM   12  C   UNL     1      -7.414   7.957  68.737  1.00  0.00    -0.095 A  
HETATM   13  C   UNL     1      -7.197   8.523  67.493  1.00  0.00    -0.084 A  
HETATM   14  C   UNL     1      -7.458   7.818  66.317  1.00  0.00    -0.079 A  
HETATM   15  H   UNL     1      -9.014   3.570  62.093  1.00  0.00     0.000 HD 
HETATM   16  C   UNL     1      -7.903   6.475  66.424  1.00  0.00    -0.104 A  
HETATM   17  C   UNL     1      -8.031   5.867  67.687  1.00  0.00    -0.102 A  
HETATM   18  C   UNL     1      -9.362   1.564  65.437  1.00  0.00     0.026 A  
HETATM   19  O   UNL     1      -8.245   6.208  64.088  1.00  0.00    -0.112 OA 
HETATM   20  C   UNL     1      -9.099   2.283  66.605  1.00  0.00    -0.074 A  
HETATM   21  C   UNL     1      -8.327   4.406  67.777  1.00  0.00    -0.098 C  
HETATM   22  O   UNL     1      -8.174   3.821  68.845  1.00  0.00    -0.071 OA 
HETATM   23  C   UNL     1      -9.257   2.192  64.204  1.00  0.00    -0.118 A  
HETATM   24  C   UNL     1      -8.699   3.642  66.558  1.00  0.00    -0.121 A  
HETATM   25  O   UNL     1      -8.829   4.065  62.883  1.00  0.00    -0.097 OA 
HETATM   26  H   UNL     1      -9.489   0.720  67.829  1.00  0.00     0.000 HD 
HETATM   27  C   UNL     1      -8.620   4.269  65.314  1.00  0.00    -0.121 A  
HETATM   28  O   UNL     1      -9.221   1.631  67.798  1.00  0.00    -0.138 OA 
HETATM   29  C   UNL     1      -8.896   3.534  64.143  1.00  0.00    -0.101 A  
HETATM   30  C   UNL     1      -8.234   5.688  65.205  1.00  0.00    -0.134 C  
BRANCH  14  31
HETATM   31  N   UNL     1      -7.175   8.425  65.105  1.00  0.00    -0.078 NA 
HETATM   32  H   UNL     1      -6.695   7.880  64.388  1.00  0.00     0.000 HD 
BRANCH  31  33
HETATM   33  C   UNL     1      -7.530   9.805  64.808  1.00  0.00    -0.130 C  
BRANCH  33  34
HETATM   34  C   UNL     1      -8.787   9.865  63.922  1.00  0.00    -0.227 C  
BRANCH  34  35
HETATM   35  N   UNL     1     -10.010   9.675  64.715  1.00  0.00    -0.329 NA 
HETATM   36  H   UNL     1     -10.068   8.734  65.106  1.00  0.00     0.000 HD 
BRANCH  35  37
HETATM   37  C   UNL     1     -10.111  10.707  65.755  1.00  0.00    -0.266 C  
BRANCH  37  38
HETATM   38  C   UNL     1     -10.239  12.095  65.123  1.00  0.00    -0.278 C  
HETATM   39  O   UNL     1     -11.578  12.571  65.235  1.00  0.00    -0.333 OA 
HETATM   40  H   UNL     1     -11.658  13.433  64.843  1.00  0.00     0.000 HD 
ENDBRANCH  37  38
ENDBRANCH  35  37
ENDBRANCH  34  35
ENDBRANCH  33  34
ENDBRANCH  31  33
ENDBRANCH  14  31
ENDBRANCH   9  11
ENDBRANCH   8   9
ENDBRANCH   7   8
ENDBRANCH   5   7
ENDBRANCH   4   5
ENDBRANCH   3   4
TORSDOF 12
ENDMDL
MODEL      193
REMARK 921   NORMALIZED FREE ENERGY PREDICTED BY IDOCK:   -2.05 KCAL/MOL
REMARK 922        TOTAL FREE ENERGY PREDICTED BY IDOCK:   -5.74 KCAL/MOL
REMARK 923 INTER-LIGAND FREE ENERGY PREDICTED BY IDOCK:   -4.61 KCAL/MOL
REMARK 924 INTRA-LIGAND FREE ENERGY PREDICTED BY IDOCK:   -1.13 KCAL/MOL
REMARK 927      BINDING AFFINITY PREDICTED BY RF-SCORE:    0.00 PKD
ROOT
HETATM    1  O   UNL     1      -9.156  10.724  67.260  1.00  0.00    -0.143 OA 
HETATM    2  H   UNL     1      -9.541  10.220  66.554  1.00  0.00     0.000 HD 
HETATM    3  C   UNL     1      -8.371  11.791  66.733  1.00  0.00    -0.165 C  
ENDROOT
BRANCH   3   4
HETATM    4  C   UNL     1      -7.751  12.605  67.873  1.00  0.00    -0.141 C  
BRANCH   4   5
HETATM    5  N   UNL     1      -6.430  12.112  68.291  1.00  0.00    -0.052 NA 
HETATM    6  H   UNL     1      -5.683  12.711  67.939  1.00  0.00     0.000 HD 
BRANCH   5   7
HETATM    7  C   UNL     1      -6.342  11.947  69.748  1.00  0.00    -0.118 C  
BRANCH   7   8
HETATM    8  C   UNL     1      -6.312  10.460  70.122  1.00  0.00    -0.123 C  
BRANCH   8   9
HETATM    9  N   UNL     1      -7.538   9.798  69.711  1.00  0.00    -0.119 NA 
HETATM   10  H   UNL     1      -8.090  10.214  68.962  1.00  0.00     0.000 HD 
BRANCH   9  11
HETATM   11  C   UNL     1      -7.989   8.624  70.296  1.00  0.00    -0.106 A  
HETATM   12  C   UNL     1      -8.429   8.648  71.619  1.00  0.00    -0.230 A  
HETATM   13  C   UNL     1      -8.856   7.494  72.254  1.00  0.00    -0.161 A  
HETATM   14  C   UNL     1      -8.785   6.249  71.626  1.00  0.00    -0.134 A  
HETATM   15  H   UNL     1      -7.898   1.569  67.674  1.00  0.00     0.000 HD 
HETATM   16  C   UNL     1      -8.312   6.197  70.289  1.00  0.00    -0.125 A  
HETATM   17  C   UNL     1      -7.970   7.381  69.610  1.00  0.00    -0.126 A  
HETATM   18  C   UNL     1      -6.978   4.677  65.480  1.00  0.00    -0.062 A  
HETATM   19  O   UNL     1      -8.358   3.825  70.170  1.00  0.00    -0.059 OA 
HETATM   20  C   UNL     1      -7.053   5.915  66.121  1.00  0.00    -0.071 A  
HETATM   21  C   UNL     1      -7.646   7.329  68.152  1.00  0.00    -0.115 C  
HETATM   22  O   UNL     1      -7.613   8.369  67.501  1.00  0.00    -0.095 OA 
HETATM   23  C   UNL     1      -7.293   3.520  66.178  1.00  0.00    -0.072 A  
HETATM   24  C   UNL     1      -7.472   6.020  67.471  1.00  0.00    -0.082 A  
HETATM   25  O   UNL     1      -7.956   2.407  68.117  1.00  0.00    -0.058 OA 
HETATM   26  H   UNL     1      -6.448   6.958  64.497  1.00  0.00     0.000 HD 
HETATM   27  C   UNL     1      -7.762   4.848  68.170  1.00  0.00    -0.082 A  
HETATM   28  O   UNL     1      -6.728   7.028  65.401  1.00  0.00    -0.049 OA 
HETATM   29  C   UNL     1      -7.675   3.604  67.513  1.00  0.00    -0.078 A  
HETATM   30  C   UNL     1      -8.178   4.894  69.584  1.00  0.00    -0.080 C  
BRANCH  14  31
HETATM   31  N   UNL     1      -9.271   5.141  72.298  1.00  0.00    -0.138 NA 
HETATM   32  H   UNL     1      -8.628   4.607  72.883  1.00  0.00     0.000 HD 
BRANCH  31  33
HETATM   33  C   UNL     1     -10.657   4.704  72.207  1.00  0.00    -0.132 C  
BRANCH  33  34
HETATM   34  C   UNL     1     -11.616   5.864  72.525  1.00  0.00    -0.277 C  
BRANCH  34  35
HETATM   35  N   UNL     1     -12.141   6.476  71.295  1.00  0.00    -0.323 NA 
HETATM   36  H   UNL     1     -12.629   5.796  70.711  1.00  0.00     0.000 HD 
BRANCH  35  37
HETATM   37  C   UNL     1     -12.989   7.629  71.619  1.00  0.00    -0.350 C  
BRANCH  37  38
HETATM   38  C   UNL     1     -12.171   8.719  72.316  1.00  0.00    -0.358 C  
HETATM   39  O   UNL     1     -12.417   9.988  71.713  1.00  0.00    -0.389 OA 
HETATM   40  H   UNL     1     -11.909  10.664  72.145  1.00  0.00     0.000 HD 
ENDBRANCH  37  38
ENDBRANCH  35  37
ENDBRANCH  34  35
ENDBRANCH  33  34
ENDBRANCH  31  33
ENDBRANCH  14  31
ENDBRANCH   9  11
ENDBRANCH   8   9
ENDBRANCH   7   8
ENDBRANCH   5   7
ENDBRANCH   4   5
ENDBRANCH   3   4
TORSDOF 12
ENDMDL
MODEL      194
REMARK 921   NORMALIZED FREE ENERGY PREDICTED BY IDOCK:   -2.02 KCAL/MOL
REMARK 922        TOTAL FREE ENERGY PREDICTED BY IDOCK:   -5.70 KCAL/MOL
REMARK 923 INTER-LIGAND FREE ENERGY PREDICTED BY IDOCK:   -5.94 KCAL/MOL
REMARK 924 INTRA-LIGAND FREE ENERGY PREDICTED BY IDOCK:    0.23 KCAL/MOL
REMARK 927      BINDING AFFINITY PREDICTED BY RF-SCORE:    0.00 PKD
ROOT
HETATM    1  O   UNL     1      -8.990   5.607  70.762  1.00  0.00    -0.139 OA 
HETATM    2  H   UNL     1      -9.403   5.019  71.382  1.00  0.00     0.000 HD 
HETATM    3  C   UNL     1      -8.018   6.416  71.421  1.00  0.00    -0.105 C  
ENDROOT
BRANCH   3   4
HETATM    4  C   UNL     1      -7.352   7.364  70.420  1.00  0.00    -0.077 C  
BRANCH   4   5
HETATM    5  N   UNL     1      -7.106   8.709  70.962  1.00  0.00    -0.067 NA 
HETATM    6  H   UNL     1      -6.158   8.793  71.329  1.00  0.00     0.000 HD 
BRANCH   5   7
HETATM    7  C   UNL     1      -7.393   9.759  69.976  1.00  0.00    -0.144 C  
BRANCH   7   8
HETATM    8  C   UNL     1      -6.225   9.909  68.993  1.00  0.00    -0.040 C  
BRANCH   8   9
HETATM    9  N   UNL     1      -6.088  11.288  68.559  1.00  0.00    -0.042 NA 
HETATM   10  H   UNL     1      -5.154  11.696  68.513  1.00  0.00     0.000 HD 
BRANCH   9  11
HETATM   11  C   UNL     1      -7.174  12.074  68.202  1.00  0.00    -0.090 A  
HETATM   12  C   UNL     1      -7.612  13.067  69.077  1.00  0.00     0.142 A  
HETATM   13  C   UNL     1      -8.712  13.852  68.779  1.00  0.00     0.006 A  
HETATM   14  C   UNL     1      -9.476  13.629  67.632  1.00  0.00    -0.221 A  
HETATM   15  H   UNL     1     -11.828  11.510  62.313  1.00  0.00     0.000 HD 
HETATM   16  C   UNL     1      -9.065  12.603  66.741  1.00  0.00    -0.214 A  
HETATM   17  C   UNL     1      -7.892  11.869  66.995  1.00  0.00    -0.152 A  
HETATM   18  C   UNL     1      -8.567   9.375  62.673  1.00  0.00    -0.220 A  
HETATM   19  O   UNL     1     -10.954  12.831  65.317  1.00  0.00    -0.276 OA 
HETATM   20  C   UNL     1      -7.814   9.609  63.825  1.00  0.00    -0.139 A  
HETATM   21  C   UNL     1      -7.377  10.920  65.962  1.00  0.00    -0.081 C  
HETATM   22  O   UNL     1      -6.233  10.486  66.054  1.00  0.00    -0.101 OA 
HETATM   23  C   UNL     1      -9.736  10.091  62.458  1.00  0.00     0.052 A  
HETATM   24  C   UNL     1      -8.204  10.587  64.774  1.00  0.00    -0.100 A  
HETATM   25  O   UNL     1     -11.319  11.679  63.097  1.00  0.00    -0.272 OA 
HETATM   26  H   UNL     1      -6.412   8.224  63.367  1.00  0.00     0.000 HD 
HETATM   27  C   UNL     1      -9.394  11.284  64.559  1.00  0.00    -0.149 A  
HETATM   28  O   UNL     1      -6.674   8.879  64.003  1.00  0.00    -0.086 OA 
HETATM   29  C   UNL     1     -10.149  11.033  63.395  1.00  0.00    -0.370 A  
HETATM   30  C   UNL     1      -9.864  12.295  65.524  1.00  0.00    -0.206 C  
BRANCH  14  31
HETATM   31  N   UNL     1     -10.535  14.479  67.367  1.00  0.00    -0.263 NA 
HETATM   32  H   UNL     1     -10.347  15.351  66.871  1.00  0.00     0.000 HD 
BRANCH  31  33
HETATM   33  C   UNL     1     -11.906  14.186  67.763  1.00  0.00    -0.379 C  
BRANCH  33  34
HETATM   34  C   UNL     1     -11.998  13.967  69.283  1.00  0.00    -0.353 C  
BRANCH  34  35
HETATM   35  N   UNL     1     -12.414  15.196  69.976  1.00  0.00    -0.526 NA 
HETATM   36  H   UNL     1     -13.397  15.166  70.246  1.00  0.00     0.000 HD 
BRANCH  35  37
HETATM   37  C   UNL     1     -11.538  15.455  71.126  1.00  0.00    -0.377 C  
BRANCH  37  38
HETATM   38  C   UNL     1     -12.342  16.030  72.295  1.00  0.00    -0.490 C  
HETATM   39  O   UNL     1     -12.155  15.236  73.464  1.00  0.00    -0.456 OA 
HETATM   40  H   UNL     1     -12.654  15.592  74.190  1.00  0.00     0.000 HD 
ENDBRANCH  37  38
ENDBRANCH  35  37
ENDBRANCH  34  35
ENDBRANCH  33  34
ENDBRANCH  31  33
ENDBRANCH  14  31
ENDBRANCH   9  11
ENDBRANCH   8   9
ENDBRANCH   7   8
ENDBRANCH   5   7
ENDBRANCH   4   5
ENDBRANCH   3   4
TORSDOF 12
ENDMDL
MODEL      195
REMARK 921   NORMALIZED FREE ENERGY PREDICTED BY IDOCK:   -2.01 KCAL/MOL
REMARK 922        TOTAL FREE ENERGY PREDICTED BY IDOCK:   -5.68 KCAL/MOL
REMARK 923 INTER-LIGAND FREE ENERGY PREDICTED BY IDOCK:   -5.02 KCAL/MOL
REMARK 924 INTRA-LIGAND FREE ENERGY PREDICTED BY IDOCK:   -0.66 KCAL/MOL
REMARK 927      BINDING AFFINITY PREDICTED BY RF-SCORE:    0.00 PKD
ROOT
HETATM    1  O   UNL     1     -11.437   2.774  64.451  1.00  0.00     0.042 OA 
HETATM    2  H   UNL     1     -12.266   2.828  63.990  1.00  0.00     0.000 HD 
HETATM    3  C   UNL     1     -10.525   3.743  63.940  1.00  0.00    -0.256 C  
ENDROOT
BRANCH   3   4
HETATM    4  C   UNL     1      -9.190   3.657  64.684  1.00  0.00    -0.143 C  
BRANCH   4   5
HETATM    5  N   UNL     1      -9.340   3.469  66.135  1.00  0.00    -0.203 NA 
HETATM    6  H   UNL     1      -8.444   3.261  66.576  1.00  0.00     0.000 HD 
BRANCH   5   7
HETATM    7  C   UNL     1      -9.997   4.618  66.772  1.00  0.00    -0.225 C  
BRANCH   7   8
HETATM    8  C   UNL     1      -9.292   4.982  68.085  1.00  0.00    -0.126 C  
BRANCH   8   9
HETATM    9  N   UNL     1      -8.278   5.997  67.865  1.00  0.00    -0.112 NA 
HETATM   10  H   UNL     1      -7.301   5.756  68.030  1.00  0.00     0.000 HD 
BRANCH   9  11
HETATM   11  C   UNL     1      -8.582   7.281  67.438  1.00  0.00    -0.121 A  
HETATM   12  C   UNL     1      -9.412   7.452  66.330  1.00  0.00    -0.194 A  
HETATM   13  C   UNL     1      -9.715   8.714  65.848  1.00  0.00    -0.154 A  
HETATM   14  C   UNL     1      -9.139   9.860  66.397  1.00  0.00    -0.150 A  
HETATM   15  H   UNL     1      -5.897  13.917  69.765  1.00  0.00     0.000 HD 
HETATM   16  C   UNL     1      -8.268   9.708  67.507  1.00  0.00    -0.114 A  
HETATM   17  C   UNL     1      -8.035   8.435  68.059  1.00  0.00    -0.119 A  
HETATM   18  C   UNL     1      -5.136  10.542  71.596  1.00  0.00    -0.058 A  
HETATM   19  O   UNL     1      -7.677  12.008  67.593  1.00  0.00    -0.125 OA 
HETATM   20  C   UNL     1      -5.719   9.404  71.035  1.00  0.00    -0.060 A  
HETATM   21  C   UNL     1      -7.262   8.311  69.331  1.00  0.00    -0.059 C  
HETATM   22  O   UNL     1      -7.285   7.255  69.955  1.00  0.00    -0.077 OA 
HETATM   23  C   UNL     1      -5.357  11.784  71.018  1.00  0.00    -0.101 A  
HETATM   24  C   UNL     1      -6.558   9.492  69.896  1.00  0.00    -0.059 A  
HETATM   25  O   UNL     1      -6.301  13.149  69.380  1.00  0.00    -0.105 OA 
HETATM   26  H   UNL     1      -4.910   8.141  72.393  1.00  0.00     0.000 HD 
HETATM   27  C   UNL     1      -6.752  10.742  69.309  1.00  0.00    -0.081 A  
HETATM   28  O   UNL     1      -5.472   8.200  71.630  1.00  0.00    -0.034 OA 
HETATM   29  C   UNL     1      -6.152  11.883  69.881  1.00  0.00    -0.153 A  
HETATM   30  C   UNL     1      -7.594  10.892  68.108  1.00  0.00    -0.094 C  
BRANCH  14  31
HETATM   31  N   UNL     1      -9.519  11.094  65.900  1.00  0.00    -0.207 NA 
HETATM   32  H   UNL     1      -9.480  11.903  66.522  1.00  0.00     0.000 HD 
BRANCH  31  33
HETATM   33  C   UNL     1      -9.974  11.292  64.531  1.00  0.00    -0.284 C  
BRANCH  33  34
HETATM   34  C   UNL     1     -11.501  11.472  64.484  1.00  0.00    -0.131 C  
BRANCH  34  35
HETATM   35  N   UNL     1     -11.995  12.163  65.684  1.00  0.00    -0.523 NA 
HETATM   36  H   UNL     1     -11.467  11.904  66.518  1.00  0.00     0.000 HD 
BRANCH  35  37
HETATM   37  C   UNL     1     -12.002  13.616  65.472  1.00  0.00    -0.384 C  
BRANCH  37  38
HETATM   38  C   UNL     1     -11.501  14.345  66.721  1.00  0.00    -0.370 C  
HETATM   39  O   UNL     1     -10.645  13.496  67.482  1.00  0.00    -0.242 OA 
HETATM   40  H   UNL     1     -10.334  13.948  68.258  1.00  0.00     0.000 HD 
ENDBRANCH  37  38
ENDBRANCH  35  37
ENDBRANCH  34  35
ENDBRANCH  33  34
ENDBRANCH  31  33
ENDBRANCH  14  31
ENDBRANCH   9  11
ENDBRANCH   8   9
ENDBRANCH   7   8
ENDBRANCH   5   7
ENDBRANCH   4   5
ENDBRANCH   3   4
TORSDOF 12
ENDMDL
MODEL      196
REMARK 921   NORMALIZED FREE ENERGY PREDICTED BY IDOCK:   -1.97 KCAL/MOL
REMARK 922        TOTAL FREE ENERGY PREDICTED BY IDOCK:   -5.61 KCAL/MOL
REMARK 923 INTER-LIGAND FREE ENERGY PREDICTED BY IDOCK:   -4.72 KCAL/MOL
REMARK 924 INTRA-LIGAND FREE ENERGY PREDICTED BY IDOCK:   -0.89 KCAL/MOL
REMARK 927      BINDING AFFINITY PREDICTED BY RF-SCORE:    0.00 PKD
ROOT
HETATM    1  O   UNL     1     -13.516   7.163  71.843  1.00  0.00    -0.503 OA 
HETATM    2  H   UNL     1     -14.386   6.886  72.102  1.00  0.00     0.000 HD 
HETATM    3  C   UNL     1     -12.533   6.322  72.442  1.00  0.00     0.046 C  
ENDROOT
BRANCH   3   4
HETATM    4  C   UNL     1     -11.129   6.768  72.023  1.00  0.00    -0.250 C  
BRANCH   4   5
HETATM    5  N   UNL     1     -10.560   7.804  72.898  1.00  0.00    -0.338 NA 
HETATM    6  H   UNL     1     -11.293   8.338  73.366  1.00  0.00     0.000 HD 
BRANCH   5   7
HETATM    7  C   UNL     1      -9.608   7.242  73.866  1.00  0.00    -0.276 C  
BRANCH   7   8
HETATM    8  C   UNL     1      -9.135   5.854  73.414  1.00  0.00    -0.132 C  
BRANCH   8   9
HETATM    9  N   UNL     1      -7.874   5.943  72.700  1.00  0.00    -0.101 NA 
HETATM   10  H   UNL     1      -7.154   5.247  72.891  1.00  0.00     0.000 HD 
BRANCH   9  11
HETATM   11  C   UNL     1      -7.608   6.936  71.769  1.00  0.00    -0.093 A  
HETATM   12  C   UNL     1      -7.072   8.148  72.200  1.00  0.00    -0.095 A  
HETATM   13  C   UNL     1      -6.822   9.179  71.311  1.00  0.00    -0.070 A  
HETATM   14  C   UNL     1      -7.172   9.080  69.964  1.00  0.00    -0.058 A  
HETATM   15  H   UNL     1      -9.215   7.233  64.421  1.00  0.00     0.000 HD 
HETATM   16  C   UNL     1      -7.746   7.864  69.507  1.00  0.00    -0.104 A  
HETATM   17  C   UNL     1      -7.911   6.781  70.390  1.00  0.00    -0.109 A  
HETATM   18  C   UNL     1      -9.701   4.009  66.587  1.00  0.00    -0.215 A  
HETATM   19  O   UNL     1      -8.153   8.668  67.309  1.00  0.00    -0.101 OA 
HETATM   20  C   UNL     1      -9.348   4.124  67.933  1.00  0.00    -0.164 A  
HETATM   21  C   UNL     1      -8.349   5.455  69.858  1.00  0.00    -0.100 C  
HETATM   22  O   UNL     1      -8.236   4.454  70.559  1.00  0.00    -0.066 OA 
HETATM   23  C   UNL     1      -9.556   5.099  65.742  1.00  0.00    -0.138 A  
HETATM   24  C   UNL     1      -8.816   5.331  68.454  1.00  0.00    -0.105 A  
HETATM   25  O   UNL     1      -8.968   7.318  65.334  1.00  0.00     0.019 OA 
HETATM   26  H   UNL     1      -9.869   2.222  68.385  1.00  0.00     0.000 HD 
HETATM   27  C   UNL     1      -8.697   6.427  67.599  1.00  0.00    -0.114 A  
HETATM   28  O   UNL     1      -9.512   3.030  68.733  1.00  0.00    -0.175 OA 
HETATM   29  C   UNL     1      -9.065   6.300  66.244  1.00  0.00    -0.153 A  
HETATM   30  C   UNL     1      -8.174   7.715  68.090  1.00  0.00    -0.124 C  
BRANCH  14  31
HETATM   31  N   UNL     1      -6.851  10.127  69.118  1.00  0.00    -0.055 NA 
HETATM   32  H   UNL     1      -6.490   9.909  68.189  1.00  0.00     0.000 HD 
BRANCH  31  33
HETATM   33  C   UNL     1      -7.007  11.525  69.493  1.00  0.00    -0.034 C  
BRANCH  33  34
HETATM   34  C   UNL     1      -7.345  12.385  68.263  1.00  0.00    -0.113 C  
BRANCH  34  35
HETATM   35  N   UNL     1      -8.172  11.642  67.301  1.00  0.00    -0.152 NA 
HETATM   36  H   UNL     1      -8.010  10.636  67.358  1.00  0.00     0.000 HD 
BRANCH  35  37
HETATM   37  C   UNL     1      -9.590  11.978  67.479  1.00  0.00    -0.177 C  
BRANCH  37  38
HETATM   38  C   UNL     1      -9.840  13.450  67.140  1.00  0.00    -0.237 C  
HETATM   39  O   UNL     1      -9.771  13.655  65.731  1.00  0.00    -0.434 OA 
HETATM   40  H   UNL     1      -9.926  14.568  65.521  1.00  0.00     0.000 HD 
ENDBRANCH  37  38
ENDBRANCH  35  37
ENDBRANCH  34  35
ENDBRANCH  33  34
ENDBRANCH  31  33
ENDBRANCH  14  31
ENDBRANCH   9  11
ENDBRANCH   8   9
ENDBRANCH   7   8
ENDBRANCH   5   7
ENDBRANCH   4   5
ENDBRANCH   3   4
TORSDOF 12
ENDMDL
MODEL      197
REMARK 921   NORMALIZED FREE ENERGY PREDICTED BY IDOCK:   -1.93 KCAL/MOL
REMARK 922        TOTAL FREE ENERGY PREDICTED BY IDOCK:   -5.55 KCAL/MOL
REMARK 923 INTER-LIGAND FREE ENERGY PREDICTED BY IDOCK:   -4.63 KCAL/MOL
REMARK 924 INTRA-LIGAND FREE ENERGY PREDICTED BY IDOCK:   -0.92 KCAL/MOL
REMARK 927      BINDING AFFINITY PREDICTED BY RF-SCORE:    0.00 PKD
ROOT
HETATM    1  O   UNL     1     -11.518   6.398  66.760  1.00  0.00    -0.733 OA 
HETATM    2  H   UNL     1     -12.241   6.388  67.376  1.00  0.00     0.000 HD 
HETATM    3  C   UNL     1     -10.302   6.062  67.423  1.00  0.00    -0.216 C  
ENDROOT
BRANCH   3   4
HETATM    4  C   UNL     1      -9.136   6.078  66.430  1.00  0.00    -0.150 C  
BRANCH   4   5
HETATM    5  N   UNL     1      -8.353   4.833  66.429  1.00  0.00    -0.107 NA 
HETATM    6  H   UNL     1      -8.864   4.074  65.978  1.00  0.00     0.000 HD 
BRANCH   5   7
HETATM    7  C   UNL     1      -7.028   5.019  65.823  1.00  0.00    -0.066 C  
BRANCH   7   8
HETATM    8  C   UNL     1      -5.956   4.281  66.635  1.00  0.00    -0.027 C  
BRANCH   8   9
HETATM    9  N   UNL     1      -6.171   4.459  68.059  1.00  0.00    -0.035 NA 
HETATM   10  H   UNL     1      -6.183   3.634  68.659  1.00  0.00     0.000 HD 
BRANCH   9  11
HETATM   11  C   UNL     1      -6.359   5.704  68.640  1.00  0.00    -0.041 A  
HETATM   12  C   UNL     1      -5.590   6.782  68.204  1.00  0.00    -0.016 A  
HETATM   13  C   UNL     1      -5.720   8.035  68.777  1.00  0.00    -0.031 A  
HETATM   14  C   UNL     1      -6.562   8.252  69.869  1.00  0.00    -0.039 A  
HETATM   15  H   UNL     1     -10.596   7.704  74.532  1.00  0.00     0.000 HD 
HETATM   16  C   UNL     1      -7.333   7.162  70.349  1.00  0.00    -0.079 A  
HETATM   17  C   UNL     1      -7.275   5.912  69.705  1.00  0.00    -0.070 A  
HETATM   18  C   UNL     1     -10.744   4.149  72.901  1.00  0.00    -0.230 A  
HETATM   19  O   UNL     1      -8.220   8.363  72.197  1.00  0.00    -0.142 OA 
HETATM   20  C   UNL     1      -9.895   3.947  71.810  1.00  0.00    -0.179 A  
HETATM   21  C   UNL     1      -8.221   4.828  70.109  1.00  0.00    -0.068 C  
HETATM   22  O   UNL     1      -8.361   3.846  69.386  1.00  0.00    -0.060 OA 
HETATM   23  C   UNL     1     -10.764   5.381  73.538  1.00  0.00    -0.331 A  
HETATM   24  C   UNL     1      -9.067   4.987  71.320  1.00  0.00    -0.176 A  
HETATM   25  O   UNL     1     -10.019   7.576  73.788  1.00  0.00    -0.305 OA 
HETATM   26  H   UNL     1     -10.455   2.021  71.544  1.00  0.00     0.000 HD 
HETATM   27  C   UNL     1      -9.078   6.214  71.983  1.00  0.00    -0.143 A  
HETATM   28  O   UNL     1      -9.900   2.718  71.216  1.00  0.00    -0.155 OA 
HETATM   29  C   UNL     1      -9.934   6.403  73.087  1.00  0.00    -0.176 A  
HETATM   30  C   UNL     1      -8.218   7.325  71.534  1.00  0.00    -0.105 C  
BRANCH  14  31
HETATM   31  N   UNL     1      -6.683   9.538  70.367  1.00  0.00    -0.080 NA 
HETATM   32  H   UNL     1      -6.118   9.802  71.174  1.00  0.00     0.000 HD 
BRANCH  31  33
HETATM   33  C   UNL     1      -7.578  10.531  69.790  1.00  0.00    -0.092 C  
BRANCH  33  34
HETATM   34  C   UNL     1      -8.295   9.964  68.553  1.00  0.00    -0.108 C  
BRANCH  34  35
HETATM   35  N   UNL     1      -8.166  10.867  67.399  1.00  0.00    -0.116 NA 
HETATM   36  H   UNL     1      -7.893  11.809  67.682  1.00  0.00     0.000 HD 
BRANCH  35  37
HETATM   37  C   UNL     1      -7.240  10.303  66.409  1.00  0.00    -0.113 C  
BRANCH  37  38
HETATM   38  C   UNL     1      -6.061  11.250  66.174  1.00  0.00    -0.034 C  
HETATM   39  O   UNL     1      -5.529  11.066  64.865  1.00  0.00    -0.408 OA 
HETATM   40  H   UNL     1      -4.796  11.653  64.719  1.00  0.00     0.000 HD 
ENDBRANCH  37  38
ENDBRANCH  35  37
ENDBRANCH  34  35
ENDBRANCH  33  34
ENDBRANCH  31  33
ENDBRANCH  14  31
ENDBRANCH   9  11
ENDBRANCH   8   9
ENDBRANCH   7   8
ENDBRANCH   5   7
ENDBRANCH   4   5
ENDBRANCH   3   4
TORSDOF 12
ENDMDL
MODEL      198
REMARK 921   NORMALIZED FREE ENERGY PREDICTED BY IDOCK:   -1.91 KCAL/MOL
REMARK 922        TOTAL FREE ENERGY PREDICTED BY IDOCK:   -5.52 KCAL/MOL
REMARK 923 INTER-LIGAND FREE ENERGY PREDICTED BY IDOCK:   -5.91 KCAL/MOL
REMARK 924 INTRA-LIGAND FREE ENERGY PREDICTED BY IDOCK:    0.39 KCAL/MOL
REMARK 927      BINDING AFFINITY PREDICTED BY RF-SCORE:    0.00 PKD
ROOT
HETATM    1  O   UNL     1      -6.403  16.002  70.570  1.00  0.00     0.092 OA 
HETATM    2  H   UNL     1      -5.547  15.829  70.943  1.00  0.00     0.000 HD 
HETATM    3  C   UNL     1      -6.297  16.960  69.520  1.00  0.00    -0.233 C  
ENDROOT
BRANCH   3   4
HETATM    4  C   UNL     1      -7.677  17.239  68.917  1.00  0.00    -0.221 C  
BRANCH   4   5
HETATM    5  N   UNL     1      -7.629  18.078  67.710  1.00  0.00    -0.217 NA 
HETATM    6  H   UNL     1      -7.107  18.938  67.877  1.00  0.00     0.000 HD 
BRANCH   5   7
HETATM    7  C   UNL     1      -7.095  17.345  66.554  1.00  0.00    -0.265 C  
BRANCH   7   8
HETATM    8  C   UNL     1      -8.070  16.245  66.116  1.00  0.00    -0.095 C  
BRANCH   8   9
HETATM    9  N   UNL     1      -8.159  15.202  67.122  1.00  0.00    -0.201 NA 
HETATM   10  H   UNL     1      -7.304  14.728  67.412  1.00  0.00     0.000 HD 
BRANCH   9  11
HETATM   11  C   UNL     1      -9.359  14.823  67.706  1.00  0.00    -0.199 A  
HETATM   12  C   UNL     1     -10.280  15.806  68.067  1.00  0.00    -0.229 A  
HETATM   13  C   UNL     1     -11.476  15.477  68.682  1.00  0.00    -0.367 A  
HETATM   14  C   UNL     1     -11.771  14.161  69.043  1.00  0.00    -0.324 A  
HETATM   15  H   UNL     1     -11.693   8.048  70.012  1.00  0.00     0.000 HD 
HETATM   16  C   UNL     1     -10.834  13.148  68.712  1.00  0.00    -0.278 A  
HETATM   17  C   UNL     1      -9.664  13.468  67.999  1.00  0.00    -0.228 A  
HETATM   18  C   UNL     1      -8.413   8.591  67.945  1.00  0.00    -0.130 A  
HETATM   19  O   UNL     1     -12.029  11.422  69.825  1.00  0.00    -0.306 OA 
HETATM   20  C   UNL     1      -8.131   9.912  67.592  1.00  0.00    -0.110 A  
HETATM   21  C   UNL     1      -8.778  12.372  67.504  1.00  0.00    -0.179 C  
HETATM   22  O   UNL     1      -7.918  12.620  66.664  1.00  0.00     0.044 OA 
HETATM   23  C   UNL     1      -9.559   8.303  68.672  1.00  0.00    -0.152 A  
HETATM   24  C   UNL     1      -9.007  10.970  67.941  1.00  0.00    -0.144 A  
HETATM   25  O   UNL     1     -11.511   8.950  69.772  1.00  0.00    -0.012 OA 
HETATM   26  H   UNL     1      -6.403   9.445  66.649  1.00  0.00     0.000 HD 
HETATM   27  C   UNL     1     -10.143  10.671  68.693  1.00  0.00    -0.194 A  
HETATM   28  O   UNL     1      -6.990  10.154  66.883  1.00  0.00    -0.086 OA 
HETATM   29  C   UNL     1     -10.413   9.334  69.049  1.00  0.00    -0.216 A  
HETATM   30  C   UNL     1     -11.078  11.734  69.106  1.00  0.00    -0.238 C  
BRANCH  14  31
HETATM   31  N   UNL     1     -13.003  13.893  69.613  1.00  0.00    -0.022 NA 
HETATM   32  H   UNL     1     -13.534  13.092  69.270  1.00  0.00     0.000 HD 
BRANCH  31  33
HETATM   33  C   UNL     1     -13.576  14.700  70.681  1.00  0.00     0.063 C  
BRANCH  33  34
HETATM   34  C   UNL     1     -14.092  13.808  71.823  1.00  0.00    -0.222 C  
BRANCH  34  35
HETATM   35  N   UNL     1     -14.208  14.561  73.080  1.00  0.00    -0.136 NA 
HETATM   36  H   UNL     1     -14.746  14.051  73.780  1.00  0.00     0.000 HD 
BRANCH  35  37
HETATM   37  C   UNL     1     -12.877  14.934  73.577  1.00  0.00    -0.463 C  
BRANCH  37  38
HETATM   38  C   UNL     1     -12.719  16.457  73.599  1.00  0.00    -0.399 C  
HETATM   39  O   UNL     1     -11.601  16.852  72.807  1.00  0.00    -0.243 OA 
HETATM   40  H   UNL     1     -11.502  17.797  72.821  1.00  0.00     0.000 HD 
ENDBRANCH  37  38
ENDBRANCH  35  37
ENDBRANCH  34  35
ENDBRANCH  33  34
ENDBRANCH  31  33
ENDBRANCH  14  31
ENDBRANCH   9  11
ENDBRANCH   8   9
ENDBRANCH   7   8
ENDBRANCH   5   7
ENDBRANCH   4   5
ENDBRANCH   3   4
TORSDOF 12
ENDMDL
MODEL      199
REMARK 921   NORMALIZED FREE ENERGY PREDICTED BY IDOCK:   -1.70 KCAL/MOL
REMARK 922        TOTAL FREE ENERGY PREDICTED BY IDOCK:   -5.15 KCAL/MOL
REMARK 923 INTER-LIGAND FREE ENERGY PREDICTED BY IDOCK:   -4.80 KCAL/MOL
REMARK 924 INTRA-LIGAND FREE ENERGY PREDICTED BY IDOCK:   -0.35 KCAL/MOL
REMARK 927      BINDING AFFINITY PREDICTED BY RF-SCORE:    0.00 PKD
ROOT
HETATM    1  O   UNL     1      -9.973  11.348  64.563  1.00  0.00    -0.242 OA 
HETATM    2  H   UNL     1      -9.894  12.269  64.344  1.00  0.00     0.000 HD 
HETATM    3  C   UNL     1     -10.585  11.197  65.842  1.00  0.00    -0.234 C  
ENDROOT
BRANCH   3   4
HETATM    4  C   UNL     1     -10.713   9.712  66.195  1.00  0.00     0.253 C  
BRANCH   4   5
HETATM    5  N   UNL     1     -10.745   9.457  67.643  1.00  0.00    -0.402 NA 
HETATM    6  H   UNL     1     -10.742   8.456  67.842  1.00  0.00     0.000 HD 
BRANCH   5   7
HETATM    7  C   UNL     1      -9.654  10.145  68.346  1.00  0.00    -0.143 C  
BRANCH   7   8
HETATM    8  C   UNL     1      -9.652   9.773  69.834  1.00  0.00    -0.235 C  
BRANCH   8   9
HETATM    9  N   UNL     1      -8.391   9.162  70.213  1.00  0.00    -0.153 NA 
HETATM   10  H   UNL     1      -7.800   9.643  70.891  1.00  0.00     0.000 HD 
BRANCH   9  11
HETATM   11  C   UNL     1      -7.955   7.953  69.692  1.00  0.00    -0.118 A  
HETATM   12  C   UNL     1      -7.151   7.952  68.553  1.00  0.00    -0.076 A  
HETATM   13  C   UNL     1      -6.722   6.769  67.978  1.00  0.00    -0.068 A  
HETATM   14  C   UNL     1      -7.143   5.529  68.463  1.00  0.00    -0.066 A  
HETATM   15  H   UNL     1      -9.774   0.912  71.636  1.00  0.00     0.000 HD 
HETATM   16  C   UNL     1      -7.985   5.506  69.605  1.00  0.00    -0.093 A  
HETATM   17  C   UNL     1      -8.344   6.706  70.248  1.00  0.00    -0.134 A  
HETATM   18  C   UNL     1     -10.854   4.050  73.712  1.00  0.00    -0.333 A  
HETATM   19  O   UNL     1      -8.303   3.152  69.551  1.00  0.00    -0.057 OA 
HETATM   20  C   UNL     1     -10.426   5.282  73.214  1.00  0.00    -0.224 A  
HETATM   21  C   UNL     1      -9.081   6.655  71.547  1.00  0.00    -0.142 C  
HETATM   22  O   UNL     1      -9.158   7.665  72.239  1.00  0.00    -0.129 OA 
HETATM   23  C   UNL     1     -10.512   2.882  73.045  1.00  0.00    -0.252 A  
HETATM   24  C   UNL     1      -9.623   5.367  72.049  1.00  0.00    -0.186 A  
HETATM   25  O   UNL     1      -9.475   1.746  71.293  1.00  0.00    -0.106 OA 
HETATM   26  H   UNL     1     -11.327   6.351  74.677  1.00  0.00     0.000 HD 
HETATM   27  C   UNL     1      -9.307   4.188  71.373  1.00  0.00    -0.211 A  
HETATM   28  O   UNL     1     -10.790   6.408  73.896  1.00  0.00    -0.185 OA 
HETATM   29  C   UNL     1      -9.751   2.951  71.883  1.00  0.00    -0.157 A  
HETATM   30  C   UNL     1      -8.496   4.216  70.142  1.00  0.00    -0.064 C  
BRANCH  14  31
HETATM   31  N   UNL     1      -6.640   4.383  67.874  1.00  0.00    -0.042 NA 
HETATM   32  H   UNL     1      -5.791   3.968  68.261  1.00  0.00     0.000 HD 
BRANCH  31  33
HETATM   33  C   UNL     1      -7.266   3.741  66.726  1.00  0.00    -0.068 C  
BRANCH  33  34
HETATM   34  C   UNL     1      -8.444   4.582  66.208  1.00  0.00    -0.113 C  
BRANCH  34  35
HETATM   35  N   UNL     1      -9.688   3.799  66.179  1.00  0.00    -0.352 NA 
HETATM   36  H   UNL     1     -10.233   3.918  67.033  1.00  0.00     0.000 HD 
BRANCH  35  37
HETATM   37  C   UNL     1     -10.471   4.126  64.980  1.00  0.00    -0.167 C  
BRANCH  37  38
HETATM   38  C   UNL     1     -10.004   3.289  63.787  1.00  0.00    -0.169 C  
HETATM   39  O   UNL     1     -11.042   3.187  62.815  1.00  0.00    -0.134 OA 
HETATM   40  H   UNL     1     -10.752   2.666  62.074  1.00  0.00     0.000 HD 
ENDBRANCH  37  38
ENDBRANCH  35  37
ENDBRANCH  34  35
ENDBRANCH  33  34
ENDBRANCH  31  33
ENDBRANCH  14  31
ENDBRANCH   9  11
ENDBRANCH   8   9
ENDBRANCH   7   8
ENDBRANCH   5   7
ENDBRANCH   4   5
ENDBRANCH   3   4
TORSDOF 12
ENDMDL
MODEL      200
REMARK 921   NORMALIZED FREE ENERGY PREDICTED BY IDOCK:   -1.68 KCAL/MOL
REMARK 922        TOTAL FREE ENERGY PREDICTED BY IDOCK:   -5.11 KCAL/MOL
REMARK 923 INTER-LIGAND FREE ENERGY PREDICTED BY IDOCK:   -3.74 KCAL/MOL
REMARK 924 INTRA-LIGAND FREE ENERGY PREDICTED BY IDOCK:   -1.37 KCAL/MOL
REMARK 927      BINDING AFFINITY PREDICTED BY RF-SCORE:    0.00 PKD
ROOT
HETATM    1  O   UNL     1      -8.469   6.342  63.278  1.00  0.00    -0.323 OA 
HETATM    2  H   UNL     1      -8.030   7.184  63.293  1.00  0.00     0.000 HD 
HETATM    3  C   UNL     1      -7.672   5.383  62.586  1.00  0.00    -0.070 C  
ENDROOT
BRANCH   3   4
HETATM    4  C   UNL     1      -8.380   4.025  62.562  1.00  0.00    -0.077 C  
BRANCH   4   5
HETATM    5  N   UNL     1      -9.697   4.041  63.217  1.00  0.00    -0.150 NA 
HETATM    6  H   UNL     1     -10.427   3.708  62.587  1.00  0.00     0.000 HD 
BRANCH   5   7
HETATM    7  C   UNL     1      -9.692   3.286  64.477  1.00  0.00    -0.162 C  
BRANCH   7   8
HETATM    8  C   UNL     1      -9.815   4.235  65.675  1.00  0.00    -0.218 C  
BRANCH   8   9
HETATM    9  N   UNL     1      -8.550   4.347  66.379  1.00  0.00    -0.112 NA 
HETATM   10  H   UNL     1      -7.731   3.880  65.990  1.00  0.00     0.000 HD 
BRANCH   9  11
HETATM   11  C   UNL     1      -8.408   5.063  67.559  1.00  0.00    -0.105 A  
HETATM   12  C   UNL     1      -8.956   4.552  68.735  1.00  0.00    -0.149 A  
HETATM   13  C   UNL     1      -8.869   5.248  69.928  1.00  0.00    -0.132 A  
HETATM   14  C   UNL     1      -8.304   6.523  69.988  1.00  0.00    -0.134 A  
HETATM   15  H   UNL     1      -5.593  11.944  68.734  1.00  0.00     0.000 HD 
HETATM   16  C   UNL     1      -7.766   7.075  68.796  1.00  0.00    -0.110 A  
HETATM   17  C   UNL     1      -7.767   6.329  67.603  1.00  0.00    -0.098 A  
HETATM   18  C   UNL     1      -5.341  10.090  65.296  1.00  0.00    -0.064 A  
HETATM   19  O   UNL     1      -7.264   9.179  69.780  1.00  0.00    -0.056 OA 
HETATM   20  C   UNL     1      -5.911   8.816  65.252  1.00  0.00    -0.048 A  
HETATM   21  C   UNL     1      -7.041   6.849  66.406  1.00  0.00    -0.074 C  
HETATM   22  O   UNL     1      -6.808   6.098  65.464  1.00  0.00    -0.050 OA 
HETATM   23  C   UNL     1      -5.377  10.819  66.476  1.00  0.00    -0.075 A  
HETATM   24  C   UNL     1      -6.506   8.235  66.400  1.00  0.00    -0.054 A  
HETATM   25  O   UNL     1      -5.979  11.076  68.714  1.00  0.00    -0.043 OA 
HETATM   26  H   UNL     1      -5.462   8.523  63.301  1.00  0.00     0.000 HD 
HETATM   27  C   UNL     1      -6.558   8.988  67.573  1.00  0.00    -0.065 A  
HETATM   28  O   UNL     1      -5.861   8.134  64.070  1.00  0.00    -0.059 OA 
HETATM   29  C   UNL     1      -5.986  10.276  67.603  1.00  0.00    -0.052 A  
HETATM   30  C   UNL     1      -7.187   8.446  68.792  1.00  0.00    -0.079 C  
BRANCH  14  31
HETATM   31  N   UNL     1      -8.205   7.146  71.220  1.00  0.00    -0.108 NA 
HETATM   32  H   UNL     1      -7.375   6.972  71.787  1.00  0.00     0.000 HD 
BRANCH  31  33
HETATM   33  C   UNL     1      -9.231   8.036  71.743  1.00  0.00    -0.161 C  
BRANCH  33  34
HETATM   34  C   UNL     1     -10.635   7.504  71.413  1.00  0.00    -0.210 C  
BRANCH  34  35
HETATM   35  N   UNL     1     -11.494   8.563  70.863  1.00  0.00    -0.268 NA 
HETATM   36  H   UNL     1     -11.407   9.434  71.388  1.00  0.00     0.000 HD 
BRANCH  35  37
HETATM   37  C   UNL     1     -11.217   8.756  69.434  1.00  0.00     0.183 C  
BRANCH  37  38
HETATM   38  C   UNL     1     -11.019  10.241  69.120  1.00  0.00    -0.238 C  
HETATM   39  O   UNL     1      -9.717  10.664  69.516  1.00  0.00    -0.380 OA 
HETATM   40  H   UNL     1      -9.594  11.586  69.322  1.00  0.00     0.000 HD 
ENDBRANCH  37  38
ENDBRANCH  35  37
ENDBRANCH  34  35
ENDBRANCH  33  34
ENDBRANCH  31  33
ENDBRANCH  14  31
ENDBRANCH   9  11
ENDBRANCH   8   9
ENDBRANCH   7   8
ENDBRANCH   5   7
ENDBRANCH   4   5
ENDBRANCH   3   4
TORSDOF 12
ENDMDL
MODEL      201
REMARK 921   NORMALIZED FREE ENERGY PREDICTED BY IDOCK:   -1.67 KCAL/MOL
REMARK 922        TOTAL FREE ENERGY PREDICTED BY IDOCK:   -5.10 KCAL/MOL
REMARK 923 INTER-LIGAND FREE ENERGY PREDICTED BY IDOCK:   -6.48 KCAL/MOL
REMARK 924 INTRA-LIGAND FREE ENERGY PREDICTED BY IDOCK:    1.38 KCAL/MOL
REMARK 927      BINDING AFFINITY PREDICTED BY RF-SCORE:    0.00 PKD
ROOT
HETATM    1  O   UNL     1      -5.299  10.433  71.530  1.00  0.00    -0.156 OA 
HETATM    2  H   UNL     1      -4.883  11.238  71.244  1.00  0.00     0.000 HD 
HETATM    3  C   UNL     1      -6.144   9.923  70.501  1.00  0.00    -0.093 C  
ENDROOT
BRANCH   3   4
HETATM    4  C   UNL     1      -6.813   8.625  70.962  1.00  0.00    -0.066 C  
BRANCH   4   5
HETATM    5  N   UNL     1      -6.384   7.444  70.199  1.00  0.00    -0.034 NA 
HETATM    6  H   UNL     1      -7.089   6.707  70.229  1.00  0.00     0.000 HD 
BRANCH   5   7
HETATM    7  C   UNL     1      -6.025   7.784  68.816  1.00  0.00    -0.035 C  
BRANCH   7   8
HETATM    8  C   UNL     1      -6.574   9.166  68.441  1.00  0.00    -0.059 C  
BRANCH   8   9
HETATM    9  N   UNL     1      -7.763   9.045  67.617  1.00  0.00    -0.096 NA 
HETATM   10  H   UNL     1      -7.910   8.182  67.094  1.00  0.00     0.000 HD 
BRANCH   9  11
HETATM   11  C   UNL     1      -8.708  10.055  67.511  1.00  0.00    -0.125 A  
HETATM   12  C   UNL     1      -8.571  11.014  66.509  1.00  0.00    -0.165 A  
HETATM   13  C   UNL     1      -9.470  12.059  66.386  1.00  0.00    -0.238 A  
HETATM   14  C   UNL     1     -10.502  12.243  67.309  1.00  0.00    -0.218 A  
HETATM   15  H   UNL     1     -14.468  11.784  72.039  1.00  0.00     0.000 HD 
HETATM   16  C   UNL     1     -10.644  11.294  68.355  1.00  0.00    -0.226 A  
HETATM   17  C   UNL     1      -9.789  10.179  68.424  1.00  0.00    -0.164 A  
HETATM   18  C   UNL     1     -12.335   8.527  72.441  1.00  0.00    -0.424 A  
HETATM   19  O   UNL     1     -12.398  12.476  69.437  1.00  0.00    -0.113 OA 
HETATM   20  C   UNL     1     -11.307   8.357  71.512  1.00  0.00    -0.276 A  
HETATM   21  C   UNL     1     -10.061   9.100  69.421  1.00  0.00    -0.197 C  
HETATM   22  O   UNL     1      -9.497   8.016  69.310  1.00  0.00    -0.155 OA 
HETATM   23  C   UNL     1     -13.148   9.649  72.371  1.00  0.00    -0.389 A  
HETATM   24  C   UNL     1     -11.089   9.299  70.475  1.00  0.00    -0.317 A  
HETATM   25  O   UNL     1     -13.774  11.674  71.399  1.00  0.00     0.332 OA 
HETATM   26  H   UNL     1     -10.672   6.611  72.314  1.00  0.00     0.000 HD 
HETATM   27  C   UNL     1     -11.897  10.435  70.430  1.00  0.00    -0.418 A  
HETATM   28  O   UNL     1     -10.526   7.243  71.619  1.00  0.00    -0.199 OA 
HETATM   29  C   UNL     1     -12.927  10.599  71.378  1.00  0.00    -0.443 A  
HETATM   30  C   UNL     1     -11.700  11.462  69.390  1.00  0.00    -0.338 C  
BRANCH  14  31
HETATM   31  N   UNL     1     -11.396  13.279  67.104  1.00  0.00    -0.303 NA 
HETATM   32  H   UNL     1     -11.613  13.897  67.886  1.00  0.00     0.000 HD 
BRANCH  31  33
HETATM   33  C   UNL     1     -12.040  13.528  65.822  1.00  0.00    -0.433 C  
BRANCH  33  34
HETATM   34  C   UNL     1     -11.405  14.739  65.118  1.00  0.00    -0.379 C  
BRANCH  34  35
HETATM   35  N   UNL     1     -11.245  15.872  66.042  1.00  0.00    -0.014 NA 
HETATM   36  H   UNL     1     -11.975  15.887  66.754  1.00  0.00     0.000 HD 
BRANCH  35  37
HETATM   37  C   UNL     1      -9.902  15.862  66.635  1.00  0.00    -0.254 C  
BRANCH  37  38
HETATM   38  C   UNL     1      -9.268  17.253  66.552  1.00  0.00    -0.261 C  
HETATM   39  O   UNL     1      -8.539  17.540  67.743  1.00  0.00    -0.223 OA 
HETATM   40  H   UNL     1      -8.146  18.403  67.692  1.00  0.00     0.000 HD 
ENDBRANCH  37  38
ENDBRANCH  35  37
ENDBRANCH  34  35
ENDBRANCH  33  34
ENDBRANCH  31  33
ENDBRANCH  14  31
ENDBRANCH   9  11
ENDBRANCH   8   9
ENDBRANCH   7   8
ENDBRANCH   5   7
ENDBRANCH   4   5
ENDBRANCH   3   4
TORSDOF 12
ENDMDL
MODEL      202
REMARK 921   NORMALIZED FREE ENERGY PREDICTED BY IDOCK:   -1.49 KCAL/MOL
REMARK 922        TOTAL FREE ENERGY PREDICTED BY IDOCK:   -4.79 KCAL/MOL
REMARK 923 INTER-LIGAND FREE ENERGY PREDICTED BY IDOCK:   -5.36 KCAL/MOL
REMARK 924 INTRA-LIGAND FREE ENERGY PREDICTED BY IDOCK:    0.57 KCAL/MOL
REMARK 927      BINDING AFFINITY PREDICTED BY RF-SCORE:    0.00 PKD
ROOT
HETATM    1  O   UNL     1      -6.365  16.911  68.581  1.00  0.00    -0.150 OA 
HETATM    2  H   UNL     1      -6.036  17.697  68.161  1.00  0.00     0.000 HD 
HETATM    3  C   UNL     1      -7.745  16.730  68.274  1.00  0.00    -0.187 C  
ENDROOT
BRANCH   3   4
HETATM    4  C   UNL     1      -8.275  15.462  68.950  1.00  0.00    -0.192 C  
BRANCH   4   5
HETATM    5  N   UNL     1      -7.712  14.224  68.392  1.00  0.00    -0.126 NA 
HETATM    6  H   UNL     1      -7.157  13.723  69.087  1.00  0.00     0.000 HD 
BRANCH   5   7
HETATM    7  C   UNL     1      -8.752  13.360  67.815  1.00  0.00    -0.197 C  
BRANCH   7   8
HETATM    8  C   UNL     1      -9.962  13.274  68.753  1.00  0.00    -0.041 C  
BRANCH   8   9
HETATM    9  N   UNL     1     -10.927  12.305  68.265  1.00  0.00    -0.218 NA 
HETATM   10  H   UNL     1     -11.809  12.644  67.880  1.00  0.00     0.000 HD 
BRANCH   9  11
HETATM   11  C   UNL     1     -10.700  10.937  68.299  1.00  0.00    -0.204 A  
HETATM   12  C   UNL     1     -10.911  10.241  69.489  1.00  0.00    -0.292 A  
HETATM   13  C   UNL     1     -10.665   8.882  69.580  1.00  0.00    -0.206 A  
HETATM   14  C   UNL     1     -10.118   8.169  68.511  1.00  0.00    -0.200 A  
HETATM   15  H   UNL     1      -7.744   6.390  63.079  1.00  0.00     0.000 HD 
HETATM   16  C   UNL     1      -9.868   8.863  67.299  1.00  0.00    -0.256 A  
HETATM   17  C   UNL     1     -10.208  10.223  67.175  1.00  0.00    -0.277 A  
HETATM   18  C   UNL     1      -8.676  10.126  62.379  1.00  0.00    -0.238 A  
HETATM   19  O   UNL     1      -8.834   7.007  66.236  1.00  0.00    -0.140 OA 
HETATM   20  C   UNL     1      -9.221  10.827  63.458  1.00  0.00    -0.257 A  
HETATM   21  C   UNL     1     -10.105  10.891  65.843  1.00  0.00    -0.252 C  
HETATM   22  O   UNL     1     -10.647  11.978  65.667  1.00  0.00    -0.248 OA 
HETATM   23  C   UNL     1      -8.322   8.794  62.533  1.00  0.00    -0.202 A  
HETATM   24  C   UNL     1      -9.447  10.196  64.707  1.00  0.00    -0.355 A  
HETATM   25  O   UNL     1      -8.118   6.858  63.817  1.00  0.00    -0.092 OA 
HETATM   26  H   UNL     1      -9.399  12.561  62.430  1.00  0.00     0.000 HD 
HETATM   27  C   UNL     1      -9.064   8.863  64.857  1.00  0.00    -0.061 A  
HETATM   28  O   UNL     1      -9.550  12.138  63.267  1.00  0.00    -0.327 OA 
HETATM   29  C   UNL     1      -8.508   8.169  63.763  1.00  0.00     0.116 A  
HETATM   30  C   UNL     1      -9.250   8.163  66.140  1.00  0.00    -0.173 C  
BRANCH  14  31
HETATM   31  N   UNL     1      -9.940   6.804  68.650  1.00  0.00    -0.142 NA 
HETATM   32  H   UNL     1     -10.636   6.178  68.243  1.00  0.00     0.000 HD 
BRANCH  31  33
HETATM   33  C   UNL     1      -8.806   6.219  69.350  1.00  0.00    -0.127 C  
BRANCH  33  34
HETATM   34  C   UNL     1      -7.638   5.968  68.381  1.00  0.00    -0.091 C  
BRANCH  34  35
HETATM   35  N   UNL     1      -6.732   4.929  68.892  1.00  0.00    -0.048 NA 
HETATM   36  H   UNL     1      -5.936   5.329  69.389  1.00  0.00     0.000 HD 
BRANCH  35  37
HETATM   37  C   UNL     1      -7.471   3.971  69.725  1.00  0.00    -0.052 C  
BRANCH  37  38
HETATM   38  C   UNL     1      -8.426   3.138  68.866  1.00  0.00    -0.067 C  
HETATM   39  O   UNL     1      -7.694   2.340  67.939  1.00  0.00    -0.058 OA 
HETATM   40  H   UNL     1      -8.287   1.824  67.405  1.00  0.00     0.000 HD 
ENDBRANCH  37  38
ENDBRANCH  35  37
ENDBRANCH  34  35
ENDBRANCH  33  34
ENDBRANCH  31  33
ENDBRANCH  14  31
ENDBRANCH   9  11
ENDBRANCH   8   9
ENDBRANCH   7   8
ENDBRANCH   5   7
ENDBRANCH   4   5
ENDBRANCH   3   4
TORSDOF 12
ENDMDL
MODEL      203
REMARK 921   NORMALIZED FREE ENERGY PREDICTED BY IDOCK:   -1.42 KCAL/MOL
REMARK 922        TOTAL FREE ENERGY PREDICTED BY IDOCK:   -4.69 KCAL/MOL
REMARK 923 INTER-LIGAND FREE ENERGY PREDICTED BY IDOCK:   -4.87 KCAL/MOL
REMARK 924 INTRA-LIGAND FREE ENERGY PREDICTED BY IDOCK:    0.19 KCAL/MOL
REMARK 927      BINDING AFFINITY PREDICTED BY RF-SCORE:    0.00 PKD
ROOT
HETATM    1  O   UNL     1     -11.685   6.689  67.197  1.00  0.00    -0.632 OA 
HETATM    2  H   UNL     1     -12.344   6.793  67.873  1.00  0.00     0.000 HD 
HETATM    3  C   UNL     1     -10.503   6.113  67.748  1.00  0.00    -0.231 C  
ENDROOT
BRANCH   3   4
HETATM    4  C   UNL     1      -9.440   5.944  66.658  1.00  0.00    -0.151 C  
BRANCH   4   5
HETATM    5  N   UNL     1      -9.047   4.545  66.437  1.00  0.00    -0.117 NA 
HETATM    6  H   UNL     1      -9.733   4.053  65.864  1.00  0.00     0.000 HD 
BRANCH   5   7
HETATM    7  C   UNL     1      -7.698   4.437  65.866  1.00  0.00    -0.094 C  
BRANCH   7   8
HETATM    8  C   UNL     1      -6.863   3.413  66.644  1.00  0.00    -0.053 C  
BRANCH   8   9
HETATM    9  N   UNL     1      -6.968   3.638  68.074  1.00  0.00    -0.050 NA 
HETATM   10  H   UNL     1      -7.111   2.835  68.686  1.00  0.00     0.000 HD 
BRANCH   9  11
HETATM   11  C   UNL     1      -6.881   4.899  68.644  1.00  0.00    -0.051 A  
HETATM   12  C   UNL     1      -6.072   5.863  68.043  1.00  0.00    -0.021 A  
HETATM   13  C   UNL     1      -5.928   7.125  68.595  1.00  0.00    -0.026 A  
HETATM   14  C   UNL     1      -6.519   7.457  69.816  1.00  0.00    -0.035 A  
HETATM   15  H   UNL     1      -9.659   7.472  75.150  1.00  0.00     0.000 HD 
HETATM   16  C   UNL     1      -7.324   6.481  70.459  1.00  0.00    -0.082 A  
HETATM   17  C   UNL     1      -7.549   5.232  69.851  1.00  0.00    -0.065 A  
HETATM   18  C   UNL     1     -10.569   3.962  73.675  1.00  0.00    -0.289 A  
HETATM   19  O   UNL     1      -7.689   7.798  72.403  1.00  0.00    -0.088 OA 
HETATM   20  C   UNL     1      -9.970   3.644  72.455  1.00  0.00    -0.166 A  
HETATM   21  C   UNL     1      -8.538   4.286  70.452  1.00  0.00    -0.073 C  
HETATM   22  O   UNL     1      -8.937   3.329  69.796  1.00  0.00    -0.084 OA 
HETATM   23  C   UNL     1     -10.310   5.189  74.270  1.00  0.00    -0.314 A  
HETATM   24  C   UNL     1      -9.118   4.562  71.792  1.00  0.00    -0.164 A  
HETATM   25  O   UNL     1      -9.251   7.266  74.317  1.00  0.00    -0.233 OA 
HETATM   26  H   UNL     1     -10.817   1.809  72.351  1.00  0.00     0.000 HD 
HETATM   27  C   UNL     1      -8.845   5.782  72.411  1.00  0.00    -0.131 A  
HETATM   28  O   UNL     1     -10.246   2.424  71.907  1.00  0.00    -0.150 OA 
HETATM   29  C   UNL     1      -9.451   6.088  73.647  1.00  0.00    -0.141 A  
HETATM   30  C   UNL     1      -7.946   6.766  71.781  1.00  0.00    -0.101 C  
BRANCH  14  31
HETATM   31  N   UNL     1      -6.376   8.749  70.289  1.00  0.00    -0.037 NA 
HETATM   32  H   UNL     1      -5.498   9.008  70.739  1.00  0.00     0.000 HD 
BRANCH  31  33
HETATM   33  C   UNL     1      -7.422   9.756  70.175  1.00  0.00    -0.164 C  
BRANCH  33  34
HETATM   34  C   UNL     1      -8.555   9.263  69.258  1.00  0.00    -0.139 C  
BRANCH  34  35
HETATM   35  N   UNL     1      -9.755   8.912  70.032  1.00  0.00    -0.169 NA 
HETATM   36  H   UNL     1      -9.531   8.697  71.003  1.00  0.00     0.000 HD 
BRANCH  35  37
HETATM   37  C   UNL     1     -10.762   9.975  69.924  1.00  0.00    -0.286 C  
BRANCH  37  38
HETATM   38  C   UNL     1     -10.173  11.205  69.227  1.00  0.00    -0.083 C  
HETATM   39  O   UNL     1     -10.950  12.363  69.523  1.00  0.00    -0.451 OA 
HETATM   40  H   UNL     1     -10.585  13.126  69.090  1.00  0.00     0.000 HD 
ENDBRANCH  37  38
ENDBRANCH  35  37
ENDBRANCH  34  35
ENDBRANCH  33  34
ENDBRANCH  31  33
ENDBRANCH  14  31
ENDBRANCH   9  11
ENDBRANCH   8   9
ENDBRANCH   7   8
ENDBRANCH   5   7
ENDBRANCH   4   5
ENDBRANCH   3   4
TORSDOF 12
ENDMDL
MODEL      204
REMARK 921   NORMALIZED FREE ENERGY PREDICTED BY IDOCK:   -1.27 KCAL/MOL
REMARK 922        TOTAL FREE ENERGY PREDICTED BY IDOCK:   -4.43 KCAL/MOL
REMARK 923 INTER-LIGAND FREE ENERGY PREDICTED BY IDOCK:   -4.26 KCAL/MOL
REMARK 924 INTRA-LIGAND FREE ENERGY PREDICTED BY IDOCK:   -0.17 KCAL/MOL
REMARK 927      BINDING AFFINITY PREDICTED BY RF-SCORE:    0.00 PKD
ROOT
HETATM    1  O   UNL     1      -9.273   9.284  72.746  1.00  0.00     0.360 OA 
HETATM    2  H   UNL     1     -10.200   9.395  72.919  1.00  0.00     0.000 HD 
HETATM    3  C   UNL     1      -8.865   7.960  73.082  1.00  0.00    -0.233 C  
ENDROOT
BRANCH   3   4
HETATM    4  C   UNL     1      -7.370   7.781  72.803  1.00  0.00    -0.087 C  
BRANCH   4   5
HETATM    5  N   UNL     1      -6.956   6.372  72.721  1.00  0.00    -0.073 NA 
HETATM    6  H   UNL     1      -7.584   5.770  73.253  1.00  0.00     0.000 HD 
BRANCH   5   7
HETATM    7  C   UNL     1      -6.830   5.917  71.330  1.00  0.00    -0.066 C  
BRANCH   7   8
HETATM    8  C   UNL     1      -7.980   4.969  70.967  1.00  0.00    -0.093 C  
BRANCH   8   9
HETATM    9  N   UNL     1      -9.000   5.661  70.200  1.00  0.00    -0.136 NA 
HETATM   10  H   UNL     1      -9.975   5.562  70.482  1.00  0.00     0.000 HD 
BRANCH   9  11
HETATM   11  C   UNL     1      -8.704   6.452  69.100  1.00  0.00    -0.127 A  
HETATM   12  C   UNL     1      -8.502   7.820  69.279  1.00  0.00    -0.138 A  
HETATM   13  C   UNL     1      -8.238   8.653  68.206  1.00  0.00    -0.122 A  
HETATM   14  C   UNL     1      -8.246   8.176  66.894  1.00  0.00    -0.111 A  
HETATM   15  H   UNL     1      -8.605   4.713  61.776  1.00  0.00     0.000 HD 
HETATM   16  C   UNL     1      -8.478   6.791  66.685  1.00  0.00    -0.120 A  
HETATM   17  C   UNL     1      -8.650   5.926  67.782  1.00  0.00    -0.105 A  
HETATM   18  C   UNL     1      -9.005   2.036  64.604  1.00  0.00    -0.121 A  
HETATM   19  O   UNL     1      -8.504   6.965  64.316  1.00  0.00     0.076 OA 
HETATM   20  C   UNL     1      -8.996   2.529  65.911  1.00  0.00    -0.122 A  
HETATM   21  C   UNL     1      -8.715   4.451  67.555  1.00  0.00    -0.105 C  
HETATM   22  O   UNL     1      -8.593   3.685  68.507  1.00  0.00    -0.084 OA 
HETATM   23  C   UNL     1      -8.863   2.912  63.538  1.00  0.00    -0.092 A  
HETATM   24  C   UNL     1      -8.817   3.910  66.175  1.00  0.00    -0.124 A  
HETATM   25  O   UNL     1      -8.593   5.056  62.662  1.00  0.00    -0.113 OA 
HETATM   26  H   UNL     1      -9.267   0.710  66.755  1.00  0.00     0.000 HD 
HETATM   27  C   UNL     1      -8.699   4.784  65.094  1.00  0.00    -0.144 A  
HETATM   28  O   UNL     1      -9.147   1.636  66.932  1.00  0.00    -0.121 OA 
HETATM   29  C   UNL     1      -8.717   4.274  63.780  1.00  0.00    -0.125 A  
HETATM   30  C   UNL     1      -8.536   6.234  65.307  1.00  0.00    -0.061 C  
BRANCH  14  31
HETATM   31  N   UNL     1      -7.928   9.050  65.870  1.00  0.00    -0.101 NA 
HETATM   32  H   UNL     1      -7.551   8.667  65.003  1.00  0.00     0.000 HD 
BRANCH  31  33
HETATM   33  C   UNL     1      -8.107  10.491  65.974  1.00  0.00    -0.148 C  
BRANCH  33  34
HETATM   34  C   UNL     1      -9.589  10.870  65.812  1.00  0.00    -0.216 C  
BRANCH  34  35
HETATM   35  N   UNL     1      -9.785  12.323  65.922  1.00  0.00    -0.265 NA 
HETATM   36  H   UNL     1      -8.927  12.803  66.196  1.00  0.00     0.000 HD 
BRANCH  35  37
HETATM   37  C   UNL     1     -10.337  12.860  64.672  1.00  0.00    -0.344 C  
BRANCH  37  38
HETATM   38  C   UNL     1     -10.779  11.723  63.747  1.00  0.00    -0.419 C  
HETATM   39  O   UNL     1      -9.853  11.566  62.674  1.00  0.00    -0.577 OA 
HETATM   40  H   UNL     1     -10.127  10.861  62.100  1.00  0.00     0.000 HD 
ENDBRANCH  37  38
ENDBRANCH  35  37
ENDBRANCH  34  35
ENDBRANCH  33  34
ENDBRANCH  31  33
ENDBRANCH  14  31
ENDBRANCH   9  11
ENDBRANCH   8   9
ENDBRANCH   7   8
ENDBRANCH   5   7
ENDBRANCH   4   5
ENDBRANCH   3   4
TORSDOF 12
ENDMDL
MODEL      205
REMARK 921   NORMALIZED FREE ENERGY PREDICTED BY IDOCK:   -1.24 KCAL/MOL
REMARK 922        TOTAL FREE ENERGY PREDICTED BY IDOCK:   -4.38 KCAL/MOL
REMARK 923 INTER-LIGAND FREE ENERGY PREDICTED BY IDOCK:   -4.05 KCAL/MOL
REMARK 924 INTRA-LIGAND FREE ENERGY PREDICTED BY IDOCK:   -0.33 KCAL/MOL
REMARK 927      BINDING AFFINITY PREDICTED BY RF-SCORE:    0.00 PKD
ROOT
HETATM    1  O   UNL     1      -6.557  14.078  73.091  1.00  0.00     0.335 OA 
HETATM    2  H   UNL     1      -6.685  13.783  73.985  1.00  0.00     0.000 HD 
HETATM    3  C   UNL     1      -5.339  13.553  72.569  1.00  0.00    -0.028 C  
ENDROOT
BRANCH   3   4
HETATM    4  C   UNL     1      -5.132  14.028  71.128  1.00  0.00    -0.129 C  
BRANCH   4   5
HETATM    5  N   UNL     1      -6.136  13.504  70.190  1.00  0.00    -0.242 NA 
HETATM    6  H   UNL     1      -5.924  13.777  69.230  1.00  0.00     0.000 HD 
BRANCH   5   7
HETATM    7  C   UNL     1      -6.293  12.049  70.311  1.00  0.00     0.111 C  
BRANCH   7   8
HETATM    8  C   UNL     1      -5.289  11.322  69.407  1.00  0.00    -0.044 C  
BRANCH   8   9
HETATM    9  N   UNL     1      -5.726  11.347  68.023  1.00  0.00    -0.042 NA 
HETATM   10  H   UNL     1      -5.028  11.496  67.293  1.00  0.00     0.000 HD 
BRANCH   9  11
HETATM   11  C   UNL     1      -7.051  11.179  67.650  1.00  0.00    -0.089 A  
HETATM   12  C   UNL     1      -7.777  12.280  67.200  1.00  0.00    -0.134 A  
HETATM   13  C   UNL     1      -9.112  12.166  66.850  1.00  0.00    -0.203 A  
HETATM   14  C   UNL     1      -9.806  10.966  67.012  1.00  0.00    -0.183 A  
HETATM   15  H   UNL     1     -11.514   5.146  68.250  1.00  0.00     0.000 HD 
HETATM   16  C   UNL     1      -9.094   9.838  67.497  1.00  0.00    -0.142 A  
HETATM   17  C   UNL     1      -7.714   9.928  67.760  1.00  0.00    -0.091 A  
HETATM   18  C   UNL     1      -7.667   5.040  68.966  1.00  0.00    -0.080 A  
HETATM   19  O   UNL     1     -11.015   8.445  67.617  1.00  0.00    -0.084 OA 
HETATM   20  C   UNL     1      -6.986   6.248  68.801  1.00  0.00    -0.076 A  
HETATM   21  C   UNL     1      -6.945   8.693  68.098  1.00  0.00    -0.074 C  
HETATM   22  O   UNL     1      -5.718   8.714  68.062  1.00  0.00    -0.035 OA 
HETATM   23  C   UNL     1      -9.033   4.981  68.728  1.00  0.00    -0.126 A  
HETATM   24  C   UNL     1      -7.658   7.418  68.367  1.00  0.00    -0.114 A  
HETATM   25  O   UNL     1     -11.057   5.971  68.130  1.00  0.00    -0.306 OA 
HETATM   26  H   UNL     1      -5.194   5.480  69.343  1.00  0.00     0.000 HD 
HETATM   27  C   UNL     1      -9.035   7.353  68.153  1.00  0.00    -0.129 A  
HETATM   28  O   UNL     1      -5.645   6.264  69.053  1.00  0.00    -0.014 OA 
HETATM   29  C   UNL     1      -9.712   6.129  68.331  1.00  0.00    -0.122 A  
HETATM   30  C   UNL     1      -9.792   8.544  67.726  1.00  0.00    -0.175 C  
BRANCH  14  31
HETATM   31  N   UNL     1     -11.126  10.905  66.600  1.00  0.00    -0.173 NA 
HETATM   32  H   UNL     1     -11.856  10.847  67.310  1.00  0.00     0.000 HD 
BRANCH  31  33
HETATM   33  C   UNL     1     -11.519  10.918  65.198  1.00  0.00     0.646 C  
BRANCH  33  34
HETATM   34  C   UNL     1     -11.907  12.339  64.755  1.00  0.00    -0.364 C  
BRANCH  34  35
HETATM   35  N   UNL     1     -12.304  13.168  65.902  1.00  0.00    -0.428 NA 
HETATM   36  H   UNL     1     -11.698  13.016  66.709  1.00  0.00     0.000 HD 
BRANCH  35  37
HETATM   37  C   UNL     1     -12.357  14.584  65.517  1.00  0.00    -0.267 C  
BRANCH  37  38
HETATM   38  C   UNL     1     -10.944  15.163  65.402  1.00  0.00    -0.374 C  
HETATM   39  O   UNL     1     -10.920  16.233  64.461  1.00  0.00    -0.871 OA 
HETATM   40  H   UNL     1     -10.043  16.592  64.389  1.00  0.00     0.000 HD 
ENDBRANCH  37  38
ENDBRANCH  35  37
ENDBRANCH  34  35
ENDBRANCH  33  34
ENDBRANCH  31  33
ENDBRANCH  14  31
ENDBRANCH   9  11
ENDBRANCH   8   9
ENDBRANCH   7   8
ENDBRANCH   5   7
ENDBRANCH   4   5
ENDBRANCH   3   4
TORSDOF 12
ENDMDL
MODEL      206
REMARK 921   NORMALIZED FREE ENERGY PREDICTED BY IDOCK:   -1.05 KCAL/MOL
REMARK 922        TOTAL FREE ENERGY PREDICTED BY IDOCK:   -4.06 KCAL/MOL
REMARK 923 INTER-LIGAND FREE ENERGY PREDICTED BY IDOCK:   -4.99 KCAL/MOL
REMARK 924 INTRA-LIGAND FREE ENERGY PREDICTED BY IDOCK:    0.93 KCAL/MOL
REMARK 927      BINDING AFFINITY PREDICTED BY RF-SCORE:    0.00 PKD
ROOT
HETATM    1  O   UNL     1      -9.783   9.040  72.940  1.00  0.00     0.157 OA 
HETATM    2  H   UNL     1     -10.708   9.253  72.909  1.00  0.00     0.000 HD 
HETATM    3  C   UNL     1      -9.598   7.726  73.461  1.00  0.00    -0.270 C  
ENDROOT
BRANCH   3   4
HETATM    4  C   UNL     1      -8.107   7.382  73.510  1.00  0.00    -0.122 C  
BRANCH   4   5
HETATM    5  N   UNL     1      -7.827   5.958  73.275  1.00  0.00    -0.105 NA 
HETATM    6  H   UNL     1      -8.610   5.373  73.567  1.00  0.00     0.000 HD 
BRANCH   5   7
HETATM    7  C   UNL     1      -7.457   5.695  71.877  1.00  0.00    -0.095 C  
BRANCH   7   8
HETATM    8  C   UNL     1      -8.351   4.601  71.280  1.00  0.00    -0.105 C  
BRANCH   8   9
HETATM    9  N   UNL     1      -9.336   5.172  70.379  1.00  0.00    -0.149 NA 
HETATM   10  H   UNL     1     -10.284   4.796  70.389  1.00  0.00     0.000 HD 
BRANCH   9  11
HETATM   11  C   UNL     1      -9.043   6.208  69.504  1.00  0.00    -0.139 A  
HETATM   12  C   UNL     1      -9.063   7.521  69.973  1.00  0.00    -0.148 A  
HETATM   13  C   UNL     1      -8.809   8.588  69.129  1.00  0.00    -0.142 A  
HETATM   14  C   UNL     1      -8.607   8.402  67.761  1.00  0.00    -0.130 A  
HETATM   15  H   UNL     1      -7.907   6.084  62.064  1.00  0.00     0.000 HD 
HETATM   16  C   UNL     1      -8.611   7.075  67.256  1.00  0.00    -0.121 A  
HETATM   17  C   UNL     1      -8.772   5.983  68.129  1.00  0.00    -0.113 A  
HETATM   18  C   UNL     1      -8.214   2.841  64.234  1.00  0.00    -0.083 A  
HETATM   19  O   UNL     1      -8.408   7.743  64.985  1.00  0.00    -0.142 OA 
HETATM   20  C   UNL     1      -8.417   3.043  65.601  1.00  0.00    -0.105 A  
HETATM   21  C   UNL     1      -8.597   4.592  67.612  1.00  0.00    -0.103 C  
HETATM   22  O   UNL     1      -8.467   3.663  68.403  1.00  0.00    -0.084 OA 
HETATM   23  C   UNL     1      -8.086   3.933  63.388  1.00  0.00    -0.088 A  
HETATM   24  C   UNL     1      -8.470   4.348  66.152  1.00  0.00    -0.113 A  
HETATM   25  O   UNL     1      -8.040   6.231  62.993  1.00  0.00    -0.111 OA 
HETATM   26  H   UNL     1      -8.508   1.068  66.029  1.00  0.00     0.000 HD 
HETATM   27  C   UNL     1      -8.366   5.439  65.288  1.00  0.00    -0.142 A  
HETATM   28  O   UNL     1      -8.544   1.942  66.398  1.00  0.00    -0.101 OA 
HETATM   29  C   UNL     1      -8.168   5.221  63.909  1.00  0.00    -0.127 A  
HETATM   30  C   UNL     1      -8.440   6.819  65.800  1.00  0.00    -0.147 C  
BRANCH  14  31
HETATM   31  N   UNL     1      -8.312   9.505  66.979  1.00  0.00    -0.123 NA 
HETATM   32  H   UNL     1      -7.632   9.400  66.226  1.00  0.00     0.000 HD 
BRANCH  31  33
HETATM   33  C   UNL     1      -8.928  10.809  67.184  1.00  0.00    -0.141 C  
BRANCH  33  34
HETATM   34  C   UNL     1      -9.734  10.831  68.493  1.00  0.00    -0.182 C  
BRANCH  34  35
HETATM   35  N   UNL     1     -10.140  12.199  68.848  1.00  0.00    -0.418 NA 
HETATM   36  H   UNL     1      -9.888  12.871  68.123  1.00  0.00     0.000 HD 
BRANCH  35  37
HETATM   37  C   UNL     1     -11.574  12.243  69.160  1.00  0.00    -0.318 C  
BRANCH  37  38
HETATM   38  C   UNL     1     -11.939  11.150  70.168  1.00  0.00    -0.365 C  
HETATM   39  O   UNL     1     -13.000  10.342  69.663  1.00  0.00    -0.616 OA 
HETATM   40  H   UNL     1     -13.227   9.664  70.288  1.00  0.00     0.000 HD 
ENDBRANCH  37  38
ENDBRANCH  35  37
ENDBRANCH  34  35
ENDBRANCH  33  34
ENDBRANCH  31  33
ENDBRANCH  14  31
ENDBRANCH   9  11
ENDBRANCH   8   9
ENDBRANCH   7   8
ENDBRANCH   5   7
ENDBRANCH   4   5
ENDBRANCH   3   4
TORSDOF 12
ENDMDL
MODEL      207
REMARK 921   NORMALIZED FREE ENERGY PREDICTED BY IDOCK:   -1.02 KCAL/MOL
REMARK 922        TOTAL FREE ENERGY PREDICTED BY IDOCK:   -4.00 KCAL/MOL
REMARK 923 INTER-LIGAND FREE ENERGY PREDICTED BY IDOCK:   -2.53 KCAL/MOL
REMARK 924 INTRA-LIGAND FREE ENERGY PREDICTED BY IDOCK:   -1.47 KCAL/MOL
REMARK 927      BINDING AFFINITY PREDICTED BY RF-SCORE:    0.00 PKD
ROOT
HETATM    1  O   UNL     1      -5.756  11.086  74.302  1.00  0.00     0.140 OA 
HETATM    2  H   UNL     1      -5.239  11.478  74.996  1.00  0.00     0.000 HD 
HETATM    3  C   UNL     1      -5.127  11.294  73.040  1.00  0.00     0.452 C  
ENDROOT
BRANCH   3   4
HETATM    4  C   UNL     1      -5.960  10.661  71.923  1.00  0.00     0.842 C  
BRANCH   4   5
HETATM    5  N   UNL     1      -5.214  10.482  70.668  1.00  0.00    -0.063 NA 
HETATM    6  H   UNL     1      -5.492   9.624  70.191  1.00  0.00     0.000 HD 
BRANCH   5   7
HETATM    7  C   UNL     1      -5.338  11.649  69.784  1.00  0.00    -0.070 C  
BRANCH   7   8
HETATM    8  C   UNL     1      -6.464  11.436  68.764  1.00  0.00    -0.056 C  
BRANCH   8   9
HETATM    9  N   UNL     1      -6.635  10.024  68.469  1.00  0.00    -0.053 NA 
HETATM   10  H   UNL     1      -5.841   9.503  68.095  1.00  0.00     0.000 HD 
BRANCH   9  11
HETATM   11  C   UNL     1      -7.832   9.355  68.674  1.00  0.00    -0.088 A  
HETATM   12  C   UNL     1      -8.617   9.686  69.777  1.00  0.00    -0.211 A  
HETATM   13  C   UNL     1      -9.802   9.021  70.040  1.00  0.00    -0.203 A  
HETATM   14  C   UNL     1     -10.218   7.939  69.263  1.00  0.00    -0.216 A  
HETATM   15  H   UNL     1     -10.749   3.440  65.045  1.00  0.00     0.000 HD 
HETATM   16  C   UNL     1      -9.418   7.564  68.151  1.00  0.00    -0.147 A  
HETATM   17  C   UNL     1      -8.264   8.301  67.826  1.00  0.00    -0.127 A  
HETATM   18  C   UNL     1      -7.559   5.343  63.812  1.00  0.00    -0.073 A  
HETATM   19  O   UNL     1     -10.726   5.653  67.620  1.00  0.00    -0.235 OA 
HETATM   20  C   UNL     1      -7.155   6.424  64.600  1.00  0.00    -0.057 A  
HETATM   21  C   UNL     1      -7.534   8.007  66.556  1.00  0.00    -0.088 C  
HETATM   22  O   UNL     1      -6.704   8.807  66.135  1.00  0.00    -0.070 OA 
HETATM   23  C   UNL     1      -8.684   4.614  64.169  1.00  0.00    -0.145 A  
HETATM   24  C   UNL     1      -7.889   6.810  65.750  1.00  0.00    -0.102 A  
HETATM   25  O   UNL     1     -10.484   4.176  65.584  1.00  0.00    -0.167 OA 
HETATM   26  H   UNL     1      -5.548   6.852  63.449  1.00  0.00     0.000 HD 
HETATM   27  C   UNL     1      -9.004   6.055  66.112  1.00  0.00    -0.160 A  
HETATM   28  O   UNL     1      -6.039   7.111  64.219  1.00  0.00    -0.036 OA 
HETATM   29  C   UNL     1      -9.397   4.962  65.312  1.00  0.00    -0.120 A  
HETATM   30  C   UNL     1      -9.791   6.394  67.311  1.00  0.00    -0.138 C  
BRANCH  14  31
HETATM   31  N   UNL     1     -11.435   7.347  69.550  1.00  0.00    -0.456 NA 
HETATM   32  H   UNL     1     -11.987   6.970  68.778  1.00  0.00     0.000 HD 
BRANCH  31  33
HETATM   33  C   UNL     1     -11.965   7.237  70.902  1.00  0.00    -0.305 C  
BRANCH  33  34
HETATM   34  C   UNL     1     -11.341   6.038  71.636  1.00  0.00    -0.252 C  
BRANCH  34  35
HETATM   35  N   UNL     1     -10.822   5.042  70.687  1.00  0.00     0.027 NA 
HETATM   36  H   UNL     1     -10.756   5.416  69.741  1.00  0.00     0.000 HD 
BRANCH  35  37
HETATM   37  C   UNL     1      -9.536   4.510  71.157  1.00  0.00    -0.175 C  
BRANCH  37  38
HETATM   38  C   UNL     1      -8.439   4.760  70.119  1.00  0.00    -0.082 C  
HETATM   39  O   UNL     1      -7.684   5.919  70.464  1.00  0.00    -0.095 OA 
HETATM   40  H   UNL     1      -7.004   6.075  69.820  1.00  0.00     0.000 HD 
ENDBRANCH  37  38
ENDBRANCH  35  37
ENDBRANCH  34  35
ENDBRANCH  33  34
ENDBRANCH  31  33
ENDBRANCH  14  31
ENDBRANCH   9  11
ENDBRANCH   8   9
ENDBRANCH   7   8
ENDBRANCH   5   7
ENDBRANCH   4   5
ENDBRANCH   3   4
TORSDOF 12
ENDMDL
MODEL      208
REMARK 921   NORMALIZED FREE ENERGY PREDICTED BY IDOCK:   -0.38 KCAL/MOL
REMARK 922        TOTAL FREE ENERGY PREDICTED BY IDOCK:   -2.91 KCAL/MOL
REMARK 923 INTER-LIGAND FREE ENERGY PREDICTED BY IDOCK:   -5.46 KCAL/MOL
REMARK 924 INTRA-LIGAND FREE ENERGY PREDICTED BY IDOCK:    2.55 KCAL/MOL
REMARK 927      BINDING AFFINITY PREDICTED BY RF-SCORE:    0.00 PKD
ROOT
HETATM    1  O   UNL     1      -9.936   4.617  65.141  1.00  0.00    -0.308 OA 
HETATM    2  H   UNL     1     -10.592   4.839  64.492  1.00  0.00     0.000 HD 
HETATM    3  C   UNL     1      -9.274   5.795  65.596  1.00  0.00    -0.021 C  
ENDROOT
BRANCH   3   4
HETATM    4  C   UNL     1      -8.216   5.437  66.643  1.00  0.00    -0.108 C  
BRANCH   4   5
HETATM    5  N   UNL     1      -8.573   5.864  68.004  1.00  0.00    -0.113 NA 
HETATM    6  H   UNL     1      -8.132   6.753  68.241  1.00  0.00     0.000 HD 
BRANCH   5   7
HETATM    7  C   UNL     1     -10.028   5.921  68.198  1.00  0.00    -0.145 C  
BRANCH   7   8
HETATM    8  C   UNL     1     -10.434   7.249  68.850  1.00  0.00    -0.206 C  
BRANCH   8   9
HETATM    9  N   UNL     1     -11.045   8.137  67.879  1.00  0.00    -0.380 NA 
HETATM   10  H   UNL     1     -11.912   7.846  67.426  1.00  0.00     0.000 HD 
BRANCH   9  11
HETATM   11  C   UNL     1     -10.501   9.367  67.540  1.00  0.00    -0.280 A  
HETATM   12  C   UNL     1     -11.046  10.082  66.474  1.00  0.00     0.273 A  
HETATM   13  C   UNL     1     -10.514  11.298  66.079  1.00  0.00    -0.310 A  
HETATM   14  C   UNL     1      -9.363  11.817  66.674  1.00  0.00    -0.198 A  
HETATM   15  H   UNL     1      -4.350  12.825  70.163  1.00  0.00     0.000 HD 
HETATM   16  C   UNL     1      -8.774  11.091  67.743  1.00  0.00    -0.130 A  
HETATM   17  C   UNL     1      -9.370   9.905  68.209  1.00  0.00    -0.136 A  
HETATM   18  C   UNL     1      -5.818   9.567  71.762  1.00  0.00    -0.002 A  
HETATM   19  O   UNL     1      -6.906  12.545  67.945  1.00  0.00    -0.081 OA 
HETATM   20  C   UNL     1      -6.969   9.059  71.155  1.00  0.00    -0.092 A  
HETATM   21  C   UNL     1      -8.843   9.250  69.444  1.00  0.00    -0.149 C  
HETATM   22  O   UNL     1      -9.510   8.385  70.004  1.00  0.00    -0.162 OA 
HETATM   23  C   UNL     1      -5.232  10.722  71.267  1.00  0.00    -0.078 A  
HETATM   24  C   UNL     1      -7.571   9.717  70.053  1.00  0.00    -0.151 A  
HETATM   25  O   UNL     1      -5.136  12.489  69.747  1.00  0.00    -0.072 OA 
HETATM   26  H   UNL     1      -7.107   7.476  72.407  1.00  0.00     0.000 HD 
HETATM   27  C   UNL     1      -6.958  10.864  69.549  1.00  0.00    -0.131 A  
HETATM   28  O   UNL     1      -7.511   7.916  71.668  1.00  0.00    -0.064 OA 
HETATM   29  C   UNL     1      -5.793  11.362  70.166  1.00  0.00    -0.142 A  
HETATM   30  C   UNL     1      -7.525  11.576  68.389  1.00  0.00    -0.109 C  
BRANCH  14  31
HETATM   31  N   UNL     1      -8.909  13.059  66.265  1.00  0.00    -0.431 NA 
HETATM   32  H   UNL     1      -8.015  13.113  65.778  1.00  0.00     0.000 HD 
BRANCH  31  33
HETATM   33  C   UNL     1      -9.650  14.290  66.500  1.00  0.00    -0.297 C  
BRANCH  33  34
HETATM   34  C   UNL     1      -9.638  14.658  67.993  1.00  0.00    -0.212 C  
BRANCH  34  35
HETATM   35  N   UNL     1     -10.998  14.669  68.552  1.00  0.00    -0.243 NA 
HETATM   36  H   UNL     1     -11.198  13.821  69.082  1.00  0.00     0.000 HD 
BRANCH  35  37
HETATM   37  C   UNL     1     -11.209  15.879  69.357  1.00  0.00    -0.336 C  
BRANCH  37  38
HETATM   38  C   UNL     1     -10.296  17.010  68.878  1.00  0.00    -0.337 C  
HETATM   39  O   UNL     1     -10.921  17.743  67.827  1.00  0.00    -0.308 OA 
HETATM   40  H   UNL     1     -10.355  18.445  67.528  1.00  0.00     0.000 HD 
ENDBRANCH  37  38
ENDBRANCH  35  37
ENDBRANCH  34  35
ENDBRANCH  33  34
ENDBRANCH  31  33
ENDBRANCH  14  31
ENDBRANCH   9  11
ENDBRANCH   8   9
ENDBRANCH   7   8
ENDBRANCH   5   7
ENDBRANCH   4   5
ENDBRANCH   3   4
TORSDOF 12
ENDMDL
MODEL      209
REMARK 921   NORMALIZED FREE ENERGY PREDICTED BY IDOCK:   -0.34 KCAL/MOL
REMARK 922        TOTAL FREE ENERGY PREDICTED BY IDOCK:   -2.84 KCAL/MOL
REMARK 923 INTER-LIGAND FREE ENERGY PREDICTED BY IDOCK:   -4.44 KCAL/MOL
REMARK 924 INTRA-LIGAND FREE ENERGY PREDICTED BY IDOCK:    1.60 KCAL/MOL
REMARK 927      BINDING AFFINITY PREDICTED BY RF-SCORE:    0.00 PKD
ROOT
HETATM    1  O   UNL     1      -5.365  18.108  64.204  1.00  0.00     0.120 OA 
HETATM    2  H   UNL     1      -5.636  17.838  63.335  1.00  0.00     0.000 HD 
HETATM    3  C   UNL     1      -6.352  17.739  65.165  1.00  0.00     0.532 C  
ENDROOT
BRANCH   3   4
HETATM    4  C   UNL     1      -5.915  18.174  66.566  1.00  0.00    -0.162 C  
BRANCH   4   5
HETATM    5  N   UNL     1      -7.017  18.206  67.539  1.00  0.00    -0.196 NA 
HETATM    6  H   UNL     1      -7.892  18.492  67.098  1.00  0.00     0.000 HD 
BRANCH   5   7
HETATM    7  C   UNL     1      -7.167  16.923  68.240  1.00  0.00    -0.186 C  
BRANCH   7   8
HETATM    8  C   UNL     1      -8.547  16.830  68.904  1.00  0.00    -0.218 C  
BRANCH   8   9
HETATM    9  N   UNL     1      -9.426  15.955  68.150  1.00  0.00    -0.202 NA 
HETATM   10  H   UNL     1     -10.239  16.361  67.686  1.00  0.00     0.000 HD 
BRANCH   9  11
HETATM   11  C   UNL     1      -9.208  14.590  68.035  1.00  0.00    -0.190 A  
HETATM   12  C   UNL     1      -8.223  14.130  67.162  1.00  0.00    -0.166 A  
HETATM   13  C   UNL     1      -7.993  12.776  66.989  1.00  0.00    -0.045 A  
HETATM   14  C   UNL     1      -8.791  11.816  67.615  1.00  0.00    -0.162 A  
HETATM   15  H   UNL     1     -13.040   8.812  70.966  1.00  0.00     0.000 HD 
HETATM   16  C   UNL     1      -9.819  12.263  68.485  1.00  0.00    -0.157 A  
HETATM   17  C   UNL     1      -9.991  13.636  68.737  1.00  0.00    -0.095 A  
HETATM   18  C   UNL     1     -13.700  12.540  71.961  1.00  0.00    -0.251 A  
HETATM   19  O   UNL     1     -10.688  10.085  68.874  1.00  0.00    -0.203 OA 
HETATM   20  C   UNL     1     -12.895  13.488  71.326  1.00  0.00    -0.338 A  
HETATM   21  C   UNL     1     -10.956  14.079  69.788  1.00  0.00     0.028 C  
HETATM   22  O   UNL     1     -10.916  15.235  70.199  1.00  0.00    -0.261 OA 
HETATM   23  C   UNL     1     -13.532  11.193  71.675  1.00  0.00    -0.155 A  
HETATM   24  C   UNL     1     -11.885  13.101  70.410  1.00  0.00    -0.259 A  
HETATM   25  O   UNL     1     -12.484   9.450  70.534  1.00  0.00    -0.069 OA 
HETATM   26  H   UNL     1     -13.774  15.063  72.244  1.00  0.00     0.000 HD 
HETATM   27  C   UNL     1     -11.742  11.746  70.112  1.00  0.00    -0.354 A  
HETATM   28  O   UNL     1     -13.097  14.803  71.630  1.00  0.00    -0.302 OA 
HETATM   29  C   UNL     1     -12.566  10.799  70.754  1.00  0.00    -0.383 A  
HETATM   30  C   UNL     1     -10.725  11.286  69.148  1.00  0.00    -0.207 C  
BRANCH  14  31
HETATM   31  N   UNL     1      -8.479  10.480  67.438  1.00  0.00    -0.122 NA 
HETATM   32  H   UNL     1      -8.263   9.917  68.261  1.00  0.00     0.000 HD 
BRANCH  31  33
HETATM   33  C   UNL     1      -8.447   9.840  66.130  1.00  0.00    -0.124 C  
BRANCH  33  34
HETATM   34  C   UNL     1      -9.492  10.465  65.191  1.00  0.00    -0.249 C  
BRANCH  34  35
HETATM   35  N   UNL     1     -10.521  11.195  65.946  1.00  0.00    -0.257 NA 
HETATM   36  H   UNL     1     -10.237  12.154  66.147  1.00  0.00     0.000 HD 
BRANCH  35  37
HETATM   37  C   UNL     1     -11.808  11.142  65.240  1.00  0.00     0.948 C  
BRANCH  37  38
HETATM   38  C   UNL     1     -12.076  12.462  64.511  1.00  0.00    -0.417 C  
HETATM   39  O   UNL     1     -10.925  13.302  64.565  1.00  0.00    -0.343 OA 
HETATM   40  H   UNL     1     -11.092  14.121  64.113  1.00  0.00     0.000 HD 
ENDBRANCH  37  38
ENDBRANCH  35  37
ENDBRANCH  34  35
ENDBRANCH  33  34
ENDBRANCH  31  33
ENDBRANCH  14  31
ENDBRANCH   9  11
ENDBRANCH   8   9
ENDBRANCH   7   8
ENDBRANCH   5   7
ENDBRANCH   4   5
ENDBRANCH   3   4
TORSDOF 12
ENDMDL
MODEL      210
REMARK 921   NORMALIZED FREE ENERGY PREDICTED BY IDOCK:   -0.24 KCAL/MOL
REMARK 922        TOTAL FREE ENERGY PREDICTED BY IDOCK:   -2.66 KCAL/MOL
REMARK 923 INTER-LIGAND FREE ENERGY PREDICTED BY IDOCK:   -3.62 KCAL/MOL
REMARK 924 INTRA-LIGAND FREE ENERGY PREDICTED BY IDOCK:    0.96 KCAL/MOL
REMARK 927      BINDING AFFINITY PREDICTED BY RF-SCORE:    0.00 PKD
ROOT
HETATM    1  O   UNL     1     -11.763  13.769  67.818  1.00  0.00    -0.318 OA 
HETATM    2  H   UNL     1     -11.826  14.715  67.858  1.00  0.00     0.000 HD 
HETATM    3  C   UNL     1     -11.109  13.269  68.982  1.00  0.00    -0.244 C  
ENDROOT
BRANCH   3   4
HETATM    4  C   UNL     1     -11.008  11.742  68.917  1.00  0.00    -0.239 C  
BRANCH   4   5
HETATM    5  N   UNL     1     -12.077  11.054  69.654  1.00  0.00    -0.338 NA 
HETATM    6  H   UNL     1     -12.973  11.139  69.174  1.00  0.00     0.000 HD 
BRANCH   5   7
HETATM    7  C   UNL     1     -11.745   9.647  69.918  1.00  0.00     0.040 C  
BRANCH   7   8
HETATM    8  C   UNL     1     -10.396   9.538  70.640  1.00  0.00    -0.302 C  
BRANCH   8   9
HETATM    9  N   UNL     1      -9.297   9.571  69.691  1.00  0.00    -0.186 NA 
HETATM   10  H   UNL     1      -9.026  10.467  69.288  1.00  0.00     0.000 HD 
BRANCH   9  11
HETATM   11  C   UNL     1      -8.600   8.433  69.310  1.00  0.00    -0.130 A  
HETATM   12  C   UNL     1      -8.185   7.530  70.288  1.00  0.00    -0.128 A  
HETATM   13  C   UNL     1      -7.458   6.400  69.958  1.00  0.00    -0.091 A  
HETATM   14  C   UNL     1      -7.039   6.160  68.648  1.00  0.00    -0.082 A  
HETATM   15  H   UNL     1      -5.926   6.428  62.566  1.00  0.00     0.000 HD 
HETATM   16  C   UNL     1      -7.426   7.082  67.641  1.00  0.00    -0.098 A  
HETATM   17  C   UNL     1      -8.247   8.179  67.959  1.00  0.00    -0.129 A  
HETATM   18  C   UNL     1      -8.287   9.504  63.101  1.00  0.00    -0.180 A  
HETATM   19  O   UNL     1      -6.168   6.019  65.928  1.00  0.00    -0.035 OA 
HETATM   20  C   UNL     1      -8.697   9.732  64.417  1.00  0.00    -0.206 A  
HETATM   21  C   UNL     1      -8.790   9.037  66.863  1.00  0.00    -0.116 C  
HETATM   22  O   UNL     1      -9.708   9.816  67.101  1.00  0.00    -0.163 OA 
HETATM   23  C   UNL     1      -7.454   8.432  62.816  1.00  0.00    -0.104 A  
HETATM   24  C   UNL     1      -8.299   8.871  65.471  1.00  0.00    -0.142 A  
HETATM   25  O   UNL     1      -6.204   6.573  63.463  1.00  0.00    -0.032 OA 
HETATM   26  H   UNL     1      -9.776  11.378  63.951  1.00  0.00     0.000 HD 
HETATM   27  C   UNL     1      -7.443   7.811  65.175  1.00  0.00    -0.083 A  
HETATM   28  O   UNL     1      -9.510  10.802  64.657  1.00  0.00    -0.216 OA 
HETATM   29  C   UNL     1      -7.030   7.596  63.844  1.00  0.00    -0.062 A  
HETATM   30  C   UNL     1      -6.976   6.897  66.235  1.00  0.00    -0.069 C  
BRANCH  14  31
HETATM   31  N   UNL     1      -6.356   4.988  68.377  1.00  0.00    -0.035 NA 
HETATM   32  H   UNL     1      -5.391   4.901  68.698  1.00  0.00     0.000 HD 
BRANCH  31  33
HETATM   33  C   UNL     1      -6.950   3.873  67.653  1.00  0.00    -0.055 C  
BRANCH  33  34
HETATM   34  C   UNL     1      -6.894   2.586  68.493  1.00  0.00    -0.040 C  
BRANCH  34  35
HETATM   35  N   UNL     1      -6.917   2.885  69.932  1.00  0.00    -0.034 NA 
HETATM   36  H   UNL     1      -6.430   3.755  70.148  1.00  0.00     0.000 HD 
BRANCH  35  37
HETATM   37  C   UNL     1      -8.299   2.893  70.431  1.00  0.00    -0.048 C  
BRANCH  37  38
HETATM   38  C   UNL     1      -9.280   3.174  69.290  1.00  0.00    -0.149 C  
HETATM   39  O   UNL     1     -10.400   3.915  69.769  1.00  0.00     0.391 OA 
HETATM   40  H   UNL     1     -11.009   4.090  69.061  1.00  0.00     0.000 HD 
ENDBRANCH  37  38
ENDBRANCH  35  37
ENDBRANCH  34  35
ENDBRANCH  33  34
ENDBRANCH  31  33
ENDBRANCH  14  31
ENDBRANCH   9  11
ENDBRANCH   8   9
ENDBRANCH   7   8
ENDBRANCH   5   7
ENDBRANCH   4   5
ENDBRANCH   3   4
TORSDOF 12
ENDMDL
MODEL      211
REMARK 921   NORMALIZED FREE ENERGY PREDICTED BY IDOCK:   -0.11 KCAL/MOL
REMARK 922        TOTAL FREE ENERGY PREDICTED BY IDOCK:   -2.44 KCAL/MOL
REMARK 923 INTER-LIGAND FREE ENERGY PREDICTED BY IDOCK:   -7.19 KCAL/MOL
REMARK 924 INTRA-LIGAND FREE ENERGY PREDICTED BY IDOCK:    4.74 KCAL/MOL
REMARK 927      BINDING AFFINITY PREDICTED BY RF-SCORE:    0.00 PKD
ROOT
HETATM    1  O   UNL     1     -11.262  16.156  65.874  1.00  0.00    -0.035 OA 
HETATM    2  H   UNL     1     -11.472  16.017  64.958  1.00  0.00     0.000 HD 
HETATM    3  C   UNL     1     -10.037  16.876  65.994  1.00  0.00    -0.319 C  
ENDROOT
BRANCH   3   4
HETATM    4  C   UNL     1      -9.699  17.102  67.470  1.00  0.00    -0.256 C  
BRANCH   4   5
HETATM    5  N   UNL     1      -9.844  15.893  68.295  1.00  0.00    -0.215 NA 
HETATM    6  H   UNL     1     -10.225  16.115  69.215  1.00  0.00     0.000 HD 
BRANCH   5   7
HETATM    7  C   UNL     1     -10.644  14.861  67.620  1.00  0.00    -0.264 C  
BRANCH   7   8
HETATM    8  C   UNL     1     -12.132  15.031  67.951  1.00  0.00     0.020 C  
BRANCH   8   9
HETATM    9  N   UNL     1     -12.615  13.918  68.749  1.00  0.00    -0.218 NA 
HETATM   10  H   UNL     1     -13.487  14.030  69.267  1.00  0.00     0.000 HD 
BRANCH   9  11
HETATM   11  C   UNL     1     -11.941  12.709  68.836  1.00  0.00    -0.242 A  
HETATM   12  C   UNL     1     -11.720  12.141  70.090  1.00  0.00    -0.301 A  
HETATM   13  C   UNL     1     -11.023  10.953  70.228  1.00  0.00    -0.061 A  
HETATM   14  C   UNL     1     -10.442  10.319  69.128  1.00  0.00    -0.224 A  
HETATM   15  H   UNL     1      -8.482   8.702  63.484  1.00  0.00     0.000 HD 
HETATM   16  C   UNL     1     -10.630  10.895  67.844  1.00  0.00    -0.246 A  
HETATM   17  C   UNL     1     -11.420  12.049  67.692  1.00  0.00    -0.392 A  
HETATM   18  C   UNL     1     -10.707  11.829  62.712  1.00  0.00     0.329 A  
HETATM   19  O   UNL     1      -9.212   9.341  66.738  1.00  0.00    -0.138 OA 
HETATM   20  C   UNL     1     -11.281  12.453  63.822  1.00  0.00    -0.453 A  
HETATM   21  C   UNL     1     -11.754  12.539  66.321  1.00  0.00    -0.404 C  
HETATM   22  O   UNL     1     -12.648  13.367  66.174  1.00  0.00    -0.365 OA 
HETATM   23  C   UNL     1      -9.908  10.708  62.890  1.00  0.00    -0.271 A  
HETATM   24  C   UNL     1     -11.086  11.949  65.132  1.00  0.00    -0.360 A  
HETATM   25  O   UNL     1      -8.873   9.117  64.244  1.00  0.00    -0.186 OA 
HETATM   26  H   UNL     1     -12.185  13.894  62.727  1.00  0.00     0.000 HD 
HETATM   27  C   UNL     1     -10.261  10.837  65.300  1.00  0.00    -0.351 A  
HETATM   28  O   UNL     1     -12.054  13.556  63.605  1.00  0.00    -0.524 OA 
HETATM   29  C   UNL     1      -9.682  10.220  64.173  1.00  0.00    -0.291 A  
HETATM   30  C   UNL     1     -10.001  10.284  66.642  1.00  0.00    -0.216 C  
BRANCH  14  31
HETATM   31  N   UNL     1      -9.799   9.110  69.326  1.00  0.00    -0.170 NA 
HETATM   32  H   UNL     1      -9.992   8.344  68.679  1.00  0.00     0.000 HD 
BRANCH  31  33
HETATM   33  C   UNL     1      -8.859   8.880  70.415  1.00  0.00    -0.181 C  
BRANCH  33  34
HETATM   34  C   UNL     1      -7.640   9.809  70.287  1.00  0.00    -0.172 C  
BRANCH  34  35
HETATM   35  N   UNL     1      -7.522  10.353  68.926  1.00  0.00    -0.090 NA 
HETATM   36  H   UNL     1      -8.434  10.554  68.516  1.00  0.00     0.000 HD 
BRANCH  35  37
HETATM   37  C   UNL     1      -6.648  11.533  68.921  1.00  0.00    -0.073 C  
BRANCH  37  38
HETATM   38  C   UNL     1      -5.957  11.684  67.563  1.00  0.00    -0.079 C  
HETATM   39  O   UNL     1      -6.570  12.726  66.807  1.00  0.00    -0.438 OA 
HETATM   40  H   UNL     1      -6.142  12.820  65.964  1.00  0.00     0.000 HD 
ENDBRANCH  37  38
ENDBRANCH  35  37
ENDBRANCH  34  35
ENDBRANCH  33  34
ENDBRANCH  31  33
ENDBRANCH  14  31
ENDBRANCH   9  11
ENDBRANCH   8   9
ENDBRANCH   7   8
ENDBRANCH   5   7
ENDBRANCH   4   5
ENDBRANCH   3   4
TORSDOF 12
ENDMDL
MODEL      212
REMARK 921   NORMALIZED FREE ENERGY PREDICTED BY IDOCK:   -0.10 KCAL/MOL
REMARK 922        TOTAL FREE ENERGY PREDICTED BY IDOCK:   -2.44 KCAL/MOL
REMARK 923 INTER-LIGAND FREE ENERGY PREDICTED BY IDOCK:   -5.18 KCAL/MOL
REMARK 924 INTRA-LIGAND FREE ENERGY PREDICTED BY IDOCK:    2.74 KCAL/MOL
REMARK 927      BINDING AFFINITY PREDICTED BY RF-SCORE:    0.00 PKD
ROOT
HETATM    1  O   UNL     1      -7.063   8.927  71.579  1.00  0.00    -0.124 OA 
HETATM    2  H   UNL     1      -6.700   9.302  72.373  1.00  0.00     0.000 HD 
HETATM    3  C   UNL     1      -6.392   7.712  71.256  1.00  0.00    -0.035 C  
ENDROOT
BRANCH   3   4
HETATM    4  C   UNL     1      -6.977   7.108  69.977  1.00  0.00    -0.061 C  
BRANCH   4   5
HETATM    5  N   UNL     1      -7.912   8.005  69.282  1.00  0.00    -0.114 NA 
HETATM    6  H   UNL     1      -7.907   7.838  68.276  1.00  0.00     0.000 HD 
BRANCH   5   7
HETATM    7  C   UNL     1      -9.271   7.914  69.832  1.00  0.00    -0.153 C  
BRANCH   7   8
HETATM    8  C   UNL     1     -10.162   9.022  69.256  1.00  0.00    -0.205 C  
BRANCH   8   9
HETATM    9  N   UNL     1      -9.591   9.563  68.036  1.00  0.00    -0.136 NA 
HETATM   10  H   UNL     1      -8.906   9.005  67.527  1.00  0.00     0.000 HD 
BRANCH   9  11
HETATM   11  C   UNL     1      -9.939  10.808  67.533  1.00  0.00    -0.174 A  
HETATM   12  C   UNL     1     -11.069  10.925  66.726  1.00  0.00    -0.196 A  
HETATM   13  C   UNL     1     -11.435  12.141  66.175  1.00  0.00    -0.429 A  
HETATM   14  C   UNL     1     -10.644  13.280  66.334  1.00  0.00    -0.284 A  
HETATM   15  H   UNL     1      -6.247  17.360  67.862  1.00  0.00     0.000 HD 
HETATM   16  C   UNL     1      -9.471  13.177  67.128  1.00  0.00    -0.239 A  
HETATM   17  C   UNL     1      -9.151  11.966  67.769  1.00  0.00    -0.180 A  
HETATM   18  C   UNL     1      -5.142  14.181  69.860  1.00  0.00    -0.092 A  
HETATM   19  O   UNL     1      -8.746  15.394  66.672  1.00  0.00    -0.256 OA 
HETATM   20  C   UNL     1      -5.943  13.050  69.691  1.00  0.00    -0.118 A  
HETATM   21  C   UNL     1      -8.017  11.922  68.740  1.00  0.00    -0.040 C  
HETATM   22  O   UNL     1      -7.902  10.961  69.494  1.00  0.00    -0.095 OA 
HETATM   23  C   UNL     1      -5.461  15.356  69.196  1.00  0.00    -0.095 A  
HETATM   24  C   UNL     1      -7.098  13.082  68.870  1.00  0.00    -0.068 A  
HETATM   25  O   UNL     1      -6.800  16.597  67.745  1.00  0.00    -0.130 OA 
HETATM   26  H   UNL     1      -4.816  11.890  70.906  1.00  0.00     0.000 HD 
HETATM   27  C   UNL     1      -7.395  14.263  68.188  1.00  0.00    -0.128 A  
HETATM   28  O   UNL     1      -5.590  11.912  70.356  1.00  0.00    -0.125 OA 
HETATM   29  C   UNL     1      -6.575  15.395  68.362  1.00  0.00    -0.113 A  
HETATM   30  C   UNL     1      -8.569  14.348  67.300  1.00  0.00    -0.215 C  
BRANCH  14  31
HETATM   31  N   UNL     1     -11.089  14.475  65.797  1.00  0.00    -0.317 NA 
HETATM   32  H   UNL     1     -11.821  14.447  65.087  1.00  0.00     0.000 HD 
BRANCH  31  33
HETATM   33  C   UNL     1     -10.561  15.771  66.200  1.00  0.00    -0.313 C  
BRANCH  33  34
HETATM   34  C   UNL     1     -11.348  16.912  65.534  1.00  0.00     0.562 C  
BRANCH  34  35
HETATM   35  N   UNL     1     -10.459  18.009  65.127  1.00  0.00    -0.200 NA 
HETATM   36  H   UNL     1     -10.976  18.782  64.706  1.00  0.00     0.000 HD 
BRANCH  35  37
HETATM   37  C   UNL     1      -9.641  18.452  66.263  1.00  0.00    -0.261 C  
BRANCH  37  38
HETATM   38  C   UNL     1     -10.480  19.281  67.239  1.00  0.00    -0.462 C  
HETATM   39  O   UNL     1      -9.918  19.227  68.548  1.00  0.00    -0.384 OA 
HETATM   40  H   UNL     1     -10.439  19.741  69.154  1.00  0.00     0.000 HD 
ENDBRANCH  37  38
ENDBRANCH  35  37
ENDBRANCH  34  35
ENDBRANCH  33  34
ENDBRANCH  31  33
ENDBRANCH  14  31
ENDBRANCH   9  11
ENDBRANCH   8   9
ENDBRANCH   7   8
ENDBRANCH   5   7
ENDBRANCH   4   5
ENDBRANCH   3   4
TORSDOF 12
ENDMDL
MODEL      213
REMARK 921   NORMALIZED FREE ENERGY PREDICTED BY IDOCK:   -0.08 KCAL/MOL
REMARK 922        TOTAL FREE ENERGY PREDICTED BY IDOCK:   -2.41 KCAL/MOL
REMARK 923 INTER-LIGAND FREE ENERGY PREDICTED BY IDOCK:   -6.81 KCAL/MOL
REMARK 924 INTRA-LIGAND FREE ENERGY PREDICTED BY IDOCK:    4.40 KCAL/MOL
REMARK 927      BINDING AFFINITY PREDICTED BY RF-SCORE:    0.00 PKD
ROOT
HETATM    1  O   UNL     1     -11.262  16.156  65.874  1.00  0.00    -0.035 OA 
HETATM    2  H   UNL     1     -11.472  16.017  64.958  1.00  0.00     0.000 HD 
HETATM    3  C   UNL     1     -10.037  16.876  65.994  1.00  0.00    -0.319 C  
ENDROOT
BRANCH   3   4
HETATM    4  C   UNL     1      -9.699  17.102  67.470  1.00  0.00    -0.256 C  
BRANCH   4   5
HETATM    5  N   UNL     1      -9.844  15.893  68.295  1.00  0.00    -0.215 NA 
HETATM    6  H   UNL     1     -10.225  16.115  69.215  1.00  0.00     0.000 HD 
BRANCH   5   7
HETATM    7  C   UNL     1     -10.644  14.861  67.620  1.00  0.00    -0.264 C  
BRANCH   7   8
HETATM    8  C   UNL     1     -12.132  15.031  67.951  1.00  0.00     0.020 C  
BRANCH   8   9
HETATM    9  N   UNL     1     -12.615  13.918  68.749  1.00  0.00    -0.218 NA 
HETATM   10  H   UNL     1     -13.487  14.030  69.267  1.00  0.00     0.000 HD 
BRANCH   9  11
HETATM   11  C   UNL     1     -11.941  12.709  68.836  1.00  0.00    -0.242 A  
HETATM   12  C   UNL     1     -11.720  12.141  70.090  1.00  0.00    -0.301 A  
HETATM   13  C   UNL     1     -11.023  10.953  70.228  1.00  0.00    -0.061 A  
HETATM   14  C   UNL     1     -10.442  10.319  69.128  1.00  0.00    -0.224 A  
HETATM   15  H   UNL     1      -8.482   8.702  63.484  1.00  0.00     0.000 HD 
HETATM   16  C   UNL     1     -10.630  10.895  67.844  1.00  0.00    -0.246 A  
HETATM   17  C   UNL     1     -11.420  12.049  67.692  1.00  0.00    -0.392 A  
HETATM   18  C   UNL     1     -10.707  11.829  62.712  1.00  0.00     0.329 A  
HETATM   19  O   UNL     1      -9.212   9.341  66.738  1.00  0.00    -0.138 OA 
HETATM   20  C   UNL     1     -11.281  12.453  63.822  1.00  0.00    -0.453 A  
HETATM   21  C   UNL     1     -11.754  12.539  66.321  1.00  0.00    -0.404 C  
HETATM   22  O   UNL     1     -12.648  13.367  66.174  1.00  0.00    -0.365 OA 
HETATM   23  C   UNL     1      -9.908  10.708  62.890  1.00  0.00    -0.271 A  
HETATM   24  C   UNL     1     -11.086  11.949  65.132  1.00  0.00    -0.360 A  
HETATM   25  O   UNL     1      -8.873   9.117  64.244  1.00  0.00    -0.186 OA 
HETATM   26  H   UNL     1     -12.185  13.894  62.727  1.00  0.00     0.000 HD 
HETATM   27  C   UNL     1     -10.261  10.837  65.300  1.00  0.00    -0.351 A  
HETATM   28  O   UNL     1     -12.054  13.556  63.605  1.00  0.00    -0.524 OA 
HETATM   29  C   UNL     1      -9.682  10.220  64.173  1.00  0.00    -0.291 A  
HETATM   30  C   UNL     1     -10.001  10.284  66.642  1.00  0.00    -0.216 C  
BRANCH  14  31
HETATM   31  N   UNL     1      -9.799   9.110  69.326  1.00  0.00    -0.170 NA 
HETATM   32  H   UNL     1      -9.992   8.344  68.679  1.00  0.00     0.000 HD 
BRANCH  31  33
HETATM   33  C   UNL     1      -8.859   8.880  70.415  1.00  0.00    -0.181 C  
BRANCH  33  34
HETATM   34  C   UNL     1      -7.792   7.850  70.006  1.00  0.00    -0.105 C  
BRANCH  34  35
HETATM   35  N   UNL     1      -8.226   7.065  68.840  1.00  0.00    -0.121 NA 
HETATM   36  H   UNL     1      -8.753   7.631  68.175  1.00  0.00     0.000 HD 
BRANCH  35  37
HETATM   37  C   UNL     1      -7.074   6.410  68.208  1.00  0.00    -0.083 C  
BRANCH  37  38
HETATM   38  C   UNL     1      -7.505   5.115  67.515  1.00  0.00    -0.083 C  
HETATM   39  O   UNL     1      -7.567   5.304  66.103  1.00  0.00    -0.085 OA 
HETATM   40  H   UNL     1      -7.836   4.501  65.672  1.00  0.00     0.000 HD 
ENDBRANCH  37  38
ENDBRANCH  35  37
ENDBRANCH  34  35
ENDBRANCH  33  34
ENDBRANCH  31  33
ENDBRANCH  14  31
ENDBRANCH   9  11
ENDBRANCH   8   9
ENDBRANCH   7   8
ENDBRANCH   5   7
ENDBRANCH   4   5
ENDBRANCH   3   4
TORSDOF 12
ENDMDL
MODEL      214
REMARK 921   NORMALIZED FREE ENERGY PREDICTED BY IDOCK:   -0.08 KCAL/MOL
REMARK 922        TOTAL FREE ENERGY PREDICTED BY IDOCK:   -2.40 KCAL/MOL
REMARK 923 INTER-LIGAND FREE ENERGY PREDICTED BY IDOCK:   -2.89 KCAL/MOL
REMARK 924 INTRA-LIGAND FREE ENERGY PREDICTED BY IDOCK:    0.48 KCAL/MOL
REMARK 927      BINDING AFFINITY PREDICTED BY RF-SCORE:    0.00 PKD
ROOT
HETATM    1  O   UNL     1      -5.778  11.087  74.303  1.00  0.00     0.140 OA 
HETATM    2  H   UNL     1      -5.267  11.485  74.998  1.00  0.00     0.000 HD 
HETATM    3  C   UNL     1      -5.126  11.266  73.048  1.00  0.00     0.452 C  
ENDROOT
BRANCH   3   4
HETATM    4  C   UNL     1      -5.950  10.625  71.928  1.00  0.00     0.842 C  
BRANCH   4   5
HETATM    5  N   UNL     1      -5.158  10.305  70.730  1.00  0.00    -0.050 NA 
HETATM    6  H   UNL     1      -5.381   9.374  70.377  1.00  0.00     0.000 HD 
BRANCH   5   7
HETATM    7  C   UNL     1      -5.311  11.324  69.683  1.00  0.00    -0.047 C  
BRANCH   7   8
HETATM    8  C   UNL     1      -6.451  10.949  68.728  1.00  0.00    -0.053 C  
BRANCH   8   9
HETATM    9  N   UNL     1      -6.484   9.516  68.497  1.00  0.00    -0.052 NA 
HETATM   10  H   UNL     1      -5.627   9.049  68.201  1.00  0.00     0.000 HD 
BRANCH   9  11
HETATM   11  C   UNL     1      -7.632   8.755  68.663  1.00  0.00    -0.097 A  
HETATM   12  C   UNL     1      -8.414   8.943  69.802  1.00  0.00    -0.131 A  
HETATM   13  C   UNL     1      -9.549   8.183  70.026  1.00  0.00    -0.171 A  
HETATM   14  C   UNL     1      -9.911   7.144  69.167  1.00  0.00    -0.168 A  
HETATM   15  H   UNL     1     -10.243   2.986  64.593  1.00  0.00     0.000 HD 
HETATM   16  C   UNL     1      -9.112   6.916  68.015  1.00  0.00    -0.120 A  
HETATM   17  C   UNL     1      -8.014   7.750  67.736  1.00  0.00    -0.124 A  
HETATM   18  C   UNL     1      -7.205   5.189  63.477  1.00  0.00    -0.049 A  
HETATM   19  O   UNL     1     -10.307   4.975  67.345  1.00  0.00    -0.175 OA 
HETATM   20  C   UNL     1      -6.855   6.223  64.347  1.00  0.00    -0.042 A  
HETATM   21  C   UNL     1      -7.294   7.611  66.435  1.00  0.00    -0.079 C  
HETATM   22  O   UNL     1      -6.524   8.495  66.070  1.00  0.00    -0.052 OA 
HETATM   23  C   UNL     1      -8.274   4.361  63.788  1.00  0.00    -0.100 A  
HETATM   24  C   UNL     1      -7.588   6.465  65.536  1.00  0.00    -0.087 A  
HETATM   25  O   UNL     1     -10.015   3.691  65.188  1.00  0.00    -0.156 OA 
HETATM   26  H   UNL     1      -5.302   6.849  63.212  1.00  0.00     0.000 HD 
HETATM   27  C   UNL     1      -8.645   5.611  65.850  1.00  0.00    -0.144 A  
HETATM   28  O   UNL     1      -5.793   7.011  64.008  1.00  0.00    -0.032 OA 
HETATM   29  C   UNL     1      -8.984   4.566  64.967  1.00  0.00    -0.149 A  
HETATM   30  C   UNL     1      -9.428   5.798  67.086  1.00  0.00    -0.117 C  
BRANCH  14  31
HETATM   31  N   UNL     1     -11.083   6.453  69.421  1.00  0.00    -0.360 NA 
HETATM   32  H   UNL     1     -11.331   5.674  68.810  1.00  0.00     0.000 HD 
BRANCH  31  33
HETATM   33  C   UNL     1     -11.977   6.786  70.520  1.00  0.00    -0.328 C  
BRANCH  33  34
HETATM   34  C   UNL     1     -11.245   6.681  71.869  1.00  0.00    -0.264 C  
BRANCH  34  35
HETATM   35  N   UNL     1     -11.672   7.742  72.793  1.00  0.00    -0.584 NA 
HETATM   36  H   UNL     1     -11.074   8.566  72.729  1.00  0.00     0.000 HD 
BRANCH  35  37
HETATM   37  C   UNL     1     -13.086   8.073  72.574  1.00  0.00     0.072 C  
BRANCH  37  38
HETATM   38  C   UNL     1     -13.235   9.041  71.397  1.00  0.00    -0.278 C  
HETATM   39  O   UNL     1     -12.454  10.214  71.616  1.00  0.00    -0.383 OA 
HETATM   40  H   UNL     1     -12.547  10.815  70.886  1.00  0.00     0.000 HD 
ENDBRANCH  37  38
ENDBRANCH  35  37
ENDBRANCH  34  35
ENDBRANCH  33  34
ENDBRANCH  31  33
ENDBRANCH  14  31
ENDBRANCH   9  11
ENDBRANCH   8   9
ENDBRANCH   7   8
ENDBRANCH   5   7
ENDBRANCH   4   5
ENDBRANCH   3   4
TORSDOF 12
ENDMDL
MODEL      215
REMARK 921   NORMALIZED FREE ENERGY PREDICTED BY IDOCK:    0.24 KCAL/MOL
REMARK 922        TOTAL FREE ENERGY PREDICTED BY IDOCK:   -1.85 KCAL/MOL
REMARK 923 INTER-LIGAND FREE ENERGY PREDICTED BY IDOCK:   -3.74 KCAL/MOL
REMARK 924 INTRA-LIGAND FREE ENERGY PREDICTED BY IDOCK:    1.89 KCAL/MOL
REMARK 927      BINDING AFFINITY PREDICTED BY RF-SCORE:    0.00 PKD
ROOT
HETATM    1  O   UNL     1      -9.862  16.243  69.391  1.00  0.00    -0.252 OA 
HETATM    2  H   UNL     1      -9.042  16.493  69.799  1.00  0.00     0.000 HD 
HETATM    3  C   UNL     1     -10.250  17.218  68.426  1.00  0.00    -0.358 C  
ENDROOT
BRANCH   3   4
HETATM    4  C   UNL     1     -11.573  16.814  67.769  1.00  0.00     0.450 C  
BRANCH   4   5
HETATM    5  N   UNL     1     -12.137  15.568  68.308  1.00  0.00    -0.438 NA 
HETATM    6  H   UNL     1     -11.863  14.763  67.745  1.00  0.00     0.000 HD 
BRANCH   5   7
HETATM    7  C   UNL     1     -11.789  15.375  69.722  1.00  0.00    -0.347 C  
BRANCH   7   8
HETATM    8  C   UNL     1     -11.913  13.897  70.111  1.00  0.00    -0.332 C  
BRANCH   8   9
HETATM    9  N   UNL     1     -12.075  13.063  68.934  1.00  0.00    -0.243 NA 
HETATM   10  H   UNL     1     -12.553  13.452  68.121  1.00  0.00     0.000 HD 
BRANCH   9  11
HETATM   11  C   UNL     1     -11.605  11.760  68.866  1.00  0.00    -0.309 A  
HETATM   12  C   UNL     1     -12.466  10.709  69.180  1.00  0.00     0.300 A  
HETATM   13  C   UNL     1     -12.031   9.395  69.160  1.00  0.00     1.038 A  
HETATM   14  C   UNL     1     -10.697   9.073  68.907  1.00  0.00    -0.123 A  
HETATM   15  H   UNL     1      -4.636   9.184  67.654  1.00  0.00     0.000 HD 
HETATM   16  C   UNL     1      -9.796  10.130  68.613  1.00  0.00    -0.170 A  
HETATM   17  C   UNL     1     -10.257  11.457  68.538  1.00  0.00    -0.216 A  
HETATM   18  C   UNL     1      -5.622  12.952  67.261  1.00  0.00     0.064 A  
HETATM   19  O   UNL     1      -7.882   8.723  68.538  1.00  0.00    -0.101 OA 
HETATM   20  C   UNL     1      -6.960  13.258  67.518  1.00  0.00    -0.144 A  
HETATM   21  C   UNL     1      -9.338  12.532  68.056  1.00  0.00    -0.205 C  
HETATM   22  O   UNL     1      -9.799  13.622  67.732  1.00  0.00    -0.221 OA 
HETATM   23  C   UNL     1      -5.183  11.641  67.369  1.00  0.00    -0.069 A  
HETATM   24  C   UNL     1      -7.893  12.249  67.863  1.00  0.00    -0.146 A  
HETATM   25  O   UNL     1      -5.549   9.384  67.826  1.00  0.00    -0.037 OA 
HETATM   26  H   UNL     1      -6.724  15.239  67.175  1.00  0.00     0.000 HD 
HETATM   27  C   UNL     1      -7.435  10.938  67.993  1.00  0.00    -0.090 A  
HETATM   28  O   UNL     1      -7.349  14.562  67.407  1.00  0.00    -0.188 OA 
HETATM   29  C   UNL     1      -6.080  10.643  67.737  1.00  0.00    -0.047 A  
HETATM   30  C   UNL     1      -8.354   9.850  68.375  1.00  0.00    -0.107 C  
BRANCH  14  31
HETATM   31  N   UNL     1     -10.337   7.738  68.854  1.00  0.00    -0.212 NA 
HETATM   32  H   UNL     1     -10.751   7.150  68.130  1.00  0.00     0.000 HD 
BRANCH  31  33
HETATM   33  C   UNL     1      -9.394   7.134  69.785  1.00  0.00    -0.146 C  
BRANCH  33  34
HETATM   34  C   UNL     1     -10.101   6.727  71.090  1.00  0.00    -0.181 C  
BRANCH  34  35
HETATM   35  N   UNL     1      -9.236   5.883  71.927  1.00  0.00    -0.148 NA 
HETATM   36  H   UNL     1      -8.953   6.360  72.783  1.00  0.00     0.000 HD 
BRANCH  35  37
HETATM   37  C   UNL     1      -9.891   4.599  72.207  1.00  0.00    -0.167 C  
BRANCH  37  38
HETATM   38  C   UNL     1     -11.011   4.780  73.235  1.00  0.00    -0.316 C  
HETATM   39  O   UNL     1     -10.473   5.190  74.489  1.00  0.00    -0.275 OA 
HETATM   40  H   UNL     1     -11.167   5.302  75.128  1.00  0.00     0.000 HD 
ENDBRANCH  37  38
ENDBRANCH  35  37
ENDBRANCH  34  35
ENDBRANCH  33  34
ENDBRANCH  31  33
ENDBRANCH  14  31
ENDBRANCH   9  11
ENDBRANCH   8   9
ENDBRANCH   7   8
ENDBRANCH   5   7
ENDBRANCH   4   5
ENDBRANCH   3   4
TORSDOF 12
ENDMDL
MODEL      216
REMARK 921   NORMALIZED FREE ENERGY PREDICTED BY IDOCK:    0.46 KCAL/MOL
REMARK 922        TOTAL FREE ENERGY PREDICTED BY IDOCK:   -1.47 KCAL/MOL
REMARK 923 INTER-LIGAND FREE ENERGY PREDICTED BY IDOCK:   -4.36 KCAL/MOL
REMARK 924 INTRA-LIGAND FREE ENERGY PREDICTED BY IDOCK:    2.88 KCAL/MOL
REMARK 927      BINDING AFFINITY PREDICTED BY RF-SCORE:    0.00 PKD
ROOT
HETATM    1  O   UNL     1     -12.122  10.426  68.702  1.00  0.00    -0.751 OA 
HETATM    2  H   UNL     1     -12.122  10.721  69.605  1.00  0.00     0.000 HD 
HETATM    3  C   UNL     1     -11.754  11.496  67.835  1.00  0.00    -0.247 C  
ENDROOT
BRANCH   3   4
HETATM    4  C   UNL     1     -11.753  11.021  66.380  1.00  0.00     0.879 C  
BRANCH   4   5
HETATM    5  N   UNL     1     -10.404  10.853  65.820  1.00  0.00    -0.251 NA 
HETATM    6  H   UNL     1     -10.114   9.874  65.839  1.00  0.00     0.000 HD 
BRANCH   5   7
HETATM    7  C   UNL     1     -10.296  11.415  64.468  1.00  0.00    -0.313 C  
BRANCH   7   8
HETATM    8  C   UNL     1      -9.661  12.811  64.513  1.00  0.00     0.117 C  
BRANCH   8   9
HETATM    9  N   UNL     1     -10.651  13.819  64.849  1.00  0.00    -0.390 NA 
HETATM   10  H   UNL     1     -11.637  13.606  64.697  1.00  0.00     0.000 HD 
BRANCH   9  11
HETATM   11  C   UNL     1     -10.312  15.060  65.367  1.00  0.00    -0.383 A  
HETATM   12  C   UNL     1     -10.878  16.207  64.813  1.00  0.00    -0.282 A  
HETATM   13  C   UNL     1     -10.543  17.468  65.276  1.00  0.00     0.122 A  
HETATM   14  C   UNL     1      -9.566  17.648  66.256  1.00  0.00    -0.244 A  
HETATM   15  H   UNL     1      -5.165  16.899  70.543  1.00  0.00     0.000 HD 
HETATM   16  C   UNL     1      -8.956  16.495  66.815  1.00  0.00    -0.261 A  
HETATM   17  C   UNL     1      -9.365  15.210  66.414  1.00  0.00    -0.332 A  
HETATM   18  C   UNL     1      -6.152  13.200  69.730  1.00  0.00    -0.126 A  
HETATM   19  O   UNL     1      -7.412  17.727  68.135  1.00  0.00    -0.221 OA 
HETATM   20  C   UNL     1      -7.130  13.036  68.747  1.00  0.00    -0.097 A  
HETATM   21  C   UNL     1      -8.842  14.010  67.136  1.00  0.00    -0.228 C  
HETATM   22  O   UNL     1      -9.389  12.923  66.979  1.00  0.00    -0.219 OA 
HETATM   23  C   UNL     1      -5.744  14.476  70.088  1.00  0.00    -0.129 A  
HETATM   24  C   UNL     1      -7.738  14.152  68.120  1.00  0.00    -0.140 A  
HETATM   25  O   UNL     1      -5.834  16.796  69.876  1.00  0.00    -0.205 OA 
HETATM   26  H   UNL     1      -7.091  11.015  68.838  1.00  0.00     0.000 HD 
HETATM   27  C   UNL     1      -7.303  15.430  68.471  1.00  0.00    -0.116 A  
HETATM   28  O   UNL     1      -7.499  11.763  68.418  1.00  0.00    -0.091 OA 
HETATM   29  C   UNL     1      -6.310  15.582  69.461  1.00  0.00    -0.155 A  
HETATM   30  C   UNL     1      -7.881  16.628  67.835  1.00  0.00    -0.166 C  
BRANCH  14  31
HETATM   31  N   UNL     1      -9.312  18.931  66.709  1.00  0.00    -0.310 NA 
HETATM   32  H   UNL     1      -9.778  19.248  67.559  1.00  0.00     0.000 HD 
BRANCH  31  33
HETATM   33  C   UNL     1      -8.409  19.847  66.027  1.00  0.00    -0.273 C  
BRANCH  33  34
HETATM   34  C   UNL     1      -7.824  20.872  67.015  1.00  0.00    -0.109 C  
BRANCH  34  35
HETATM   35  N   UNL     1      -8.828  21.296  68.002  1.00  0.00     0.534 NA 
HETATM   36  H   UNL     1      -9.726  21.504  67.566  1.00  0.00     0.000 HD 
BRANCH  35  37
HETATM   37  C   UNL     1      -8.956  20.292  69.066  1.00  0.00     0.522 C  
BRANCH  37  38
HETATM   38  C   UNL     1     -10.404  19.805  69.173  1.00  0.00    -0.071 C  
HETATM   39  O   UNL     1     -10.444  18.382  69.263  1.00  0.00    -0.419 OA 
HETATM   40  H   UNL     1     -11.343  18.080  69.329  1.00  0.00     0.000 HD 
ENDBRANCH  37  38
ENDBRANCH  35  37
ENDBRANCH  34  35
ENDBRANCH  33  34
ENDBRANCH  31  33
ENDBRANCH  14  31
ENDBRANCH   9  11
ENDBRANCH   8   9
ENDBRANCH   7   8
ENDBRANCH   5   7
ENDBRANCH   4   5
ENDBRANCH   3   4
TORSDOF 12
ENDMDL
MODEL      217
REMARK 921   NORMALIZED FREE ENERGY PREDICTED BY IDOCK:    0.47 KCAL/MOL
REMARK 922        TOTAL FREE ENERGY PREDICTED BY IDOCK:   -1.46 KCAL/MOL
REMARK 923 INTER-LIGAND FREE ENERGY PREDICTED BY IDOCK:   -2.32 KCAL/MOL
REMARK 924 INTRA-LIGAND FREE ENERGY PREDICTED BY IDOCK:    0.86 KCAL/MOL
REMARK 927      BINDING AFFINITY PREDICTED BY RF-SCORE:    0.00 PKD
ROOT
HETATM    1  O   UNL     1      -8.641   9.896  72.248  1.00  0.00     1.726 OA 
HETATM    2  H   UNL     1      -9.559  10.076  72.414  1.00  0.00     0.000 HD 
HETATM    3  C   UNL     1      -8.369   8.510  72.436  1.00  0.00    -0.109 C  
ENDROOT
BRANCH   3   4
HETATM    4  C   UNL     1      -6.890   8.219  72.167  1.00  0.00    -0.083 C  
BRANCH   4   5
HETATM    5  N   UNL     1      -6.632   6.832  71.753  1.00  0.00    -0.049 NA 
HETATM    6  H   UNL     1      -7.383   6.210  72.055  1.00  0.00     0.000 HD 
BRANCH   5   7
HETATM    7  C   UNL     1      -6.398   6.724  70.307  1.00  0.00    -0.039 C  
BRANCH   7   8
HETATM    8  C   UNL     1      -7.598   6.068  69.613  1.00  0.00    -0.089 C  
BRANCH   8   9
HETATM    9  N   UNL     1      -8.523   7.073  69.119  1.00  0.00    -0.128 NA 
HETATM   10  H   UNL     1      -9.524   6.909  69.225  1.00  0.00     0.000 HD 
BRANCH   9  11
HETATM   11  C   UNL     1      -8.102   8.246  68.511  1.00  0.00    -0.123 A  
HETATM   12  C   UNL     1      -8.258   9.457  69.185  1.00  0.00    -0.112 A  
HETATM   13  C   UNL     1      -7.884  10.655  68.603  1.00  0.00    -0.121 A  
HETATM   14  C   UNL     1      -7.414  10.712  67.290  1.00  0.00    -0.099 A  
HETATM   15  H   UNL     1      -5.545   9.428  61.530  1.00  0.00     0.000 HD 
HETATM   16  C   UNL     1      -7.274   9.494  66.574  1.00  0.00    -0.089 A  
HETATM   17  C   UNL     1      -7.562   8.266  67.198  1.00  0.00    -0.093 A  
HETATM   18  C   UNL     1      -6.152   5.854  63.009  1.00  0.00    -0.021 A  
HETATM   19  O   UNL     1      -6.659  10.549  64.536  1.00  0.00    -0.069 OA 
HETATM   20  C   UNL     1      -6.622   5.814  64.323  1.00  0.00    -0.041 A  
HETATM   21  C   UNL     1      -7.242   6.987  66.494  1.00  0.00    -0.082 C  
HETATM   22  O   UNL     1      -7.235   5.934  67.124  1.00  0.00    -0.072 OA 
HETATM   23  C   UNL     1      -5.902   7.078  62.405  1.00  0.00    -0.041 A  
HETATM   24  C   UNL     1      -6.827   7.003  65.068  1.00  0.00    -0.051 A  
HETATM   25  O   UNL     1      -5.860   9.409  62.426  1.00  0.00    -0.089 OA 
HETATM   26  H   UNL     1      -6.725   3.794  64.379  1.00  0.00     0.000 HD 
HETATM   27  C   UNL     1      -6.595   8.227  64.442  1.00  0.00    -0.066 A  
HETATM   28  O   UNL     1      -6.863   4.591  64.878  1.00  0.00    -0.047 OA 
HETATM   29  C   UNL     1      -6.127   8.254  63.112  1.00  0.00    -0.077 A  
HETATM   30  C   UNL     1      -6.815   9.497  65.158  1.00  0.00    -0.092 C  
BRANCH  14  31
HETATM   31  N   UNL     1      -7.012  11.935  66.783  1.00  0.00    -0.354 NA 
HETATM   32  H   UNL     1      -6.340  11.947  66.015  1.00  0.00     0.000 HD 
BRANCH  31  33
HETATM   33  C   UNL     1      -7.505  13.206  67.295  1.00  0.00    -0.064 C  
BRANCH  33  34
HETATM   34  C   UNL     1      -9.020  13.337  67.061  1.00  0.00    -0.228 C  
BRANCH  34  35
HETATM   35  N   UNL     1      -9.343  13.324  65.627  1.00  0.00    -0.449 NA 
HETATM   36  H   UNL     1      -8.566  13.664  65.059  1.00  0.00     0.000 HD 
BRANCH  35  37
HETATM   37  C   UNL     1      -9.777  11.983  65.213  1.00  0.00    -0.164 C  
BRANCH  37  38
HETATM   38  C   UNL     1     -10.877  12.078  64.153  1.00  0.00    -0.352 C  
HETATM   39  O   UNL     1     -11.188  13.442  63.880  1.00  0.00    -0.548 OA 
HETATM   40  H   UNL     1     -11.871  13.501  63.222  1.00  0.00     0.000 HD 
ENDBRANCH  37  38
ENDBRANCH  35  37
ENDBRANCH  34  35
ENDBRANCH  33  34
ENDBRANCH  31  33
ENDBRANCH  14  31
ENDBRANCH   9  11
ENDBRANCH   8   9
ENDBRANCH   7   8
ENDBRANCH   5   7
ENDBRANCH   4   5
ENDBRANCH   3   4
TORSDOF 12
ENDMDL
MODEL      218
REMARK 921   NORMALIZED FREE ENERGY PREDICTED BY IDOCK:    0.49 KCAL/MOL
REMARK 922        TOTAL FREE ENERGY PREDICTED BY IDOCK:   -1.43 KCAL/MOL
REMARK 923 INTER-LIGAND FREE ENERGY PREDICTED BY IDOCK:   -1.38 KCAL/MOL
REMARK 924 INTRA-LIGAND FREE ENERGY PREDICTED BY IDOCK:   -0.04 KCAL/MOL
REMARK 927      BINDING AFFINITY PREDICTED BY RF-SCORE:    0.00 PKD
ROOT
HETATM    1  O   UNL     1      -8.724  10.516  67.302  1.00  0.00    -0.126 OA 
HETATM    2  H   UNL     1      -9.009  10.136  66.480  1.00  0.00     0.000 HD 
HETATM    3  C   UNL     1      -8.015  11.729  67.064  1.00  0.00    -0.164 C  
ENDROOT
BRANCH   3   4
HETATM    4  C   UNL     1      -7.555  12.342  68.390  1.00  0.00    -0.129 C  
BRANCH   4   5
HETATM    5  N   UNL     1      -6.107  12.223  68.619  1.00  0.00    -0.055 NA 
HETATM    6  H   UNL     1      -5.607  13.036  68.258  1.00  0.00     0.000 HD 
BRANCH   5   7
HETATM    7  C   UNL     1      -5.793  11.987  70.034  1.00  0.00    -0.152 C  
BRANCH   7   8
HETATM    8  C   UNL     1      -5.861  10.490  70.359  1.00  0.00    -0.101 C  
BRANCH   8   9
HETATM    9  N   UNL     1      -7.127   9.923  69.929  1.00  0.00    -0.099 NA 
HETATM   10  H   UNL     1      -7.815  10.538  69.495  1.00  0.00     0.000 HD 
BRANCH   9  11
HETATM   11  C   UNL     1      -7.439   8.581  70.084  1.00  0.00    -0.060 A  
HETATM   12  C   UNL     1      -8.044   8.154  71.265  1.00  0.00    -0.119 A  
HETATM   13  C   UNL     1      -8.343   6.819  71.477  1.00  0.00    -0.115 A  
HETATM   14  C   UNL     1      -7.977   5.836  70.556  1.00  0.00    -0.105 A  
HETATM   15  H   UNL     1      -5.788   2.693  65.693  1.00  0.00     0.000 HD 
HETATM   16  C   UNL     1      -7.333   6.245  69.358  1.00  0.00    -0.091 A  
HETATM   17  C   UNL     1      -7.117   7.611  69.098  1.00  0.00    -0.077 A  
HETATM   18  C   UNL     1      -5.145   6.404  64.625  1.00  0.00    -0.021 A  
HETATM   19  O   UNL     1      -6.952   4.029  68.590  1.00  0.00    -0.046 OA 
HETATM   20  C   UNL     1      -5.516   7.376  65.557  1.00  0.00    -0.029 A  
HETATM   21  C   UNL     1      -6.602   8.035  67.761  1.00  0.00    -0.057 C  
HETATM   22  O   UNL     1      -6.666   9.216  67.435  1.00  0.00    -0.067 OA 
HETATM   23  C   UNL     1      -5.342   5.062  64.915  1.00  0.00    -0.013 A  
HETATM   24  C   UNL     1      -6.118   7.021  66.790  1.00  0.00    -0.037 A  
HETATM   25  O   UNL     1      -6.048   3.348  66.331  1.00  0.00    -0.023 OA 
HETATM   26  H   UNL     1      -4.895   8.922  64.410  1.00  0.00     0.000 HD 
HETATM   27  C   UNL     1      -6.289   5.667  67.081  1.00  0.00    -0.042 A  
HETATM   28  O   UNL     1      -5.298   8.684  65.236  1.00  0.00    -0.034 OA 
HETATM   29  C   UNL     1      -5.903   4.696  66.135  1.00  0.00    -0.022 A  
HETATM   30  C   UNL     1      -6.885   5.237  68.359  1.00  0.00    -0.056 C  
BRANCH  14  31
HETATM   31  N   UNL     1      -8.347   4.526  70.804  1.00  0.00    -0.086 NA 
HETATM   32  H   UNL     1      -7.646   3.885  71.177  1.00  0.00     0.000 HD 
BRANCH  31  33
HETATM   33  C   UNL     1      -9.690   4.021  70.558  1.00  0.00    -0.188 C  
BRANCH  33  34
HETATM   34  C   UNL     1     -10.284   4.649  69.286  1.00  0.00     0.011 C  
BRANCH  34  35
HETATM   35  N   UNL     1      -9.723   4.034  68.074  1.00  0.00    -0.125 NA 
HETATM   36  H   UNL     1      -9.416   3.075  68.241  1.00  0.00     0.000 HD 
BRANCH  35  37
HETATM   37  C   UNL     1     -10.685   4.116  66.967  1.00  0.00     1.378 C  
BRANCH  37  38
HETATM   38  C   UNL     1     -10.202   5.110  65.908  1.00  0.00    -0.120 C  
HETATM   39  O   UNL     1     -10.376   4.568  64.601  1.00  0.00    -0.410 OA 
HETATM   40  H   UNL     1     -10.076   5.184  63.943  1.00  0.00     0.000 HD 
ENDBRANCH  37  38
ENDBRANCH  35  37
ENDBRANCH  34  35
ENDBRANCH  33  34
ENDBRANCH  31  33
ENDBRANCH  14  31
ENDBRANCH   9  11
ENDBRANCH   8   9
ENDBRANCH   7   8
ENDBRANCH   5   7
ENDBRANCH   4   5
ENDBRANCH   3   4
TORSDOF 12
ENDMDL
MODEL      219
REMARK 921   NORMALIZED FREE ENERGY PREDICTED BY IDOCK:    0.54 KCAL/MOL
REMARK 922        TOTAL FREE ENERGY PREDICTED BY IDOCK:   -1.34 KCAL/MOL
REMARK 923 INTER-LIGAND FREE ENERGY PREDICTED BY IDOCK:   -2.80 KCAL/MOL
REMARK 924 INTRA-LIGAND FREE ENERGY PREDICTED BY IDOCK:    1.46 KCAL/MOL
REMARK 927      BINDING AFFINITY PREDICTED BY RF-SCORE:    0.00 PKD
ROOT
HETATM    1  O   UNL     1      -8.204  16.001  68.264  1.00  0.00    -0.152 OA 
HETATM    2  H   UNL     1      -9.005  15.608  67.940  1.00  0.00     0.000 HD 
HETATM    3  C   UNL     1      -8.202  17.402  68.004  1.00  0.00    -0.229 C  
ENDROOT
BRANCH   3   4
HETATM    4  C   UNL     1      -6.910  18.036  68.528  1.00  0.00    -0.237 C  
BRANCH   4   5
HETATM    5  N   UNL     1      -5.979  18.430  67.460  1.00  0.00    -0.169 NA 
HETATM    6  H   UNL     1      -5.293  19.106  67.798  1.00  0.00     0.000 HD 
BRANCH   5   7
HETATM    7  C   UNL     1      -5.324  17.267  66.846  1.00  0.00    -0.167 C  
BRANCH   7   8
HETATM    8  C   UNL     1      -5.144  16.144  67.875  1.00  0.00    -0.123 C  
BRANCH   8   9
HETATM    9  N   UNL     1      -5.574  14.868  67.331  1.00  0.00    -0.317 NA 
HETATM   10  H   UNL     1      -5.535  14.730  66.321  1.00  0.00     0.000 HD 
BRANCH   9  11
HETATM   11  C   UNL     1      -6.033  13.829  68.127  1.00  0.00    -0.123 A  
HETATM   12  C   UNL     1      -5.286  13.440  69.237  1.00  0.00    -0.074 A  
HETATM   13  C   UNL     1      -5.688  12.387  70.040  1.00  0.00    -0.141 A  
HETATM   14  C   UNL     1      -6.811  11.619  69.725  1.00  0.00     0.053 A  
HETATM   15  H   UNL     1     -11.876   9.189  67.125  1.00  0.00     0.000 HD 
HETATM   16  C   UNL     1      -7.571  11.979  68.581  1.00  0.00    -0.112 A  
HETATM   17  C   UNL     1      -7.218  13.109  67.820  1.00  0.00    -0.147 A  
HETATM   18  C   UNL     1     -11.227  12.326  64.876  1.00  0.00    -0.365 A  
HETATM   19  O   UNL     1      -9.036  10.115  68.741  1.00  0.00    -0.132 OA 
HETATM   20  C   UNL     1     -10.100  13.084  65.203  1.00  0.00    -0.221 A  
HETATM   21  C   UNL     1      -8.125  13.578  66.730  1.00  0.00     0.290 C  
HETATM   22  O   UNL     1      -7.969  14.696  66.250  1.00  0.00     0.645 OA 
HETATM   23  C   UNL     1     -11.539  11.200  65.623  1.00  0.00     0.475 A  
HETATM   24  C   UNL     1      -9.278  12.742  66.305  1.00  0.00    -0.096 A  
HETATM   25  O   UNL     1     -11.110   9.702  67.358  1.00  0.00    -0.183 OA 
HETATM   26  H   UNL     1     -10.375  14.411  63.700  1.00  0.00     0.000 HD 
HETATM   27  C   UNL     1      -9.588  11.593  67.034  1.00  0.00    -0.196 A  
HETATM   28  O   UNL     1      -9.824  14.181  64.439  1.00  0.00     0.019 OA 
HETATM   29  C   UNL     1     -10.724  10.833  66.689  1.00  0.00    -0.207 A  
HETATM   30  C   UNL     1      -8.754  11.173  68.175  1.00  0.00    -0.144 C  
BRANCH  14  31
HETATM   31  N   UNL     1      -7.187  10.609  70.593  1.00  0.00    -0.337 NA 
HETATM   32  H   UNL     1      -8.166  10.547  70.872  1.00  0.00     0.000 HD 
BRANCH  31  33
HETATM   33  C   UNL     1      -6.249   9.632  71.127  1.00  0.00    -0.046 C  
BRANCH  33  34
HETATM   34  C   UNL     1      -6.401   8.281  70.408  1.00  0.00    -0.035 C  
BRANCH  34  35
HETATM   35  N   UNL     1      -7.582   8.272  69.532  1.00  0.00    -0.093 NA 
HETATM   36  H   UNL     1      -7.971   9.207  69.408  1.00  0.00     0.000 HD 
BRANCH  35  37
HETATM   37  C   UNL     1      -7.260   7.639  68.246  1.00  0.00    -0.093 C  
BRANCH  37  38
HETATM   38  C   UNL     1      -7.287   8.672  67.117  1.00  0.00    -0.088 C  
HETATM   39  O   UNL     1      -7.092   8.036  65.856  1.00  0.00    -0.057 OA 
HETATM   40  H   UNL     1      -7.109   8.677  65.155  1.00  0.00     0.000 HD 
ENDBRANCH  37  38
ENDBRANCH  35  37
ENDBRANCH  34  35
ENDBRANCH  33  34
ENDBRANCH  31  33
ENDBRANCH  14  31
ENDBRANCH   9  11
ENDBRANCH   8   9
ENDBRANCH   7   8
ENDBRANCH   5   7
ENDBRANCH   4   5
ENDBRANCH   3   4
TORSDOF 12
ENDMDL
MODEL      220
REMARK 921   NORMALIZED FREE ENERGY PREDICTED BY IDOCK:    0.96 KCAL/MOL
REMARK 922        TOTAL FREE ENERGY PREDICTED BY IDOCK:   -0.63 KCAL/MOL
REMARK 923 INTER-LIGAND FREE ENERGY PREDICTED BY IDOCK:   -5.94 KCAL/MOL
REMARK 924 INTRA-LIGAND FREE ENERGY PREDICTED BY IDOCK:    5.30 KCAL/MOL
REMARK 927      BINDING AFFINITY PREDICTED BY RF-SCORE:    0.00 PKD
ROOT
HETATM    1  O   UNL     1      -7.174  18.907  64.584  1.00  0.00     0.408 OA 
HETATM    2  H   UNL     1      -7.405  18.023  64.326  1.00  0.00     0.000 HD 
HETATM    3  C   UNL     1      -6.285  19.482  63.629  1.00  0.00     0.371 C  
ENDROOT
BRANCH   3   4
HETATM    4  C   UNL     1      -5.913  20.908  64.044  1.00  0.00    -0.306 C  
BRANCH   4   5
HETATM    5  N   UNL     1      -5.914  21.112  65.500  1.00  0.00    -0.291 NA 
HETATM    6  H   UNL     1      -6.515  21.893  65.765  1.00  0.00     0.000 HD 
BRANCH   5   7
HETATM    7  C   UNL     1      -6.279  19.888  66.226  1.00  0.00    -0.178 C  
BRANCH   7   8
HETATM    8  C   UNL     1      -7.804  19.755  66.326  1.00  0.00    -0.328 C  
BRANCH   8   9
HETATM    9  N   UNL     1      -8.194  19.226  67.620  1.00  0.00    -0.286 NA 
HETATM   10  H   UNL     1      -8.692  19.836  68.268  1.00  0.00     0.000 HD 
BRANCH   9  11
HETATM   11  C   UNL     1      -7.918  17.925  68.013  1.00  0.00    -0.250 A  
HETATM   12  C   UNL     1      -6.944  17.699  68.985  1.00  0.00    -0.233 A  
HETATM   13  C   UNL     1      -6.611  16.416  69.384  1.00  0.00    -0.210 A  
HETATM   14  C   UNL     1      -7.174  15.295  68.772  1.00  0.00    -0.127 A  
HETATM   15  H   UNL     1     -10.421  11.394  65.229  1.00  0.00     0.000 HD 
HETATM   16  C   UNL     1      -8.147  15.500  67.759  1.00  0.00    -0.153 A  
HETATM   17  C   UNL     1      -8.556  16.803  67.421  1.00  0.00    -0.206 A  
HETATM   18  C   UNL     1     -11.852  14.871  64.141  1.00  0.00    -0.202 A  
HETATM   19  O   UNL     1      -8.346  13.193  67.226  1.00  0.00    -0.180 OA 
HETATM   20  C   UNL     1     -11.279  15.983  64.762  1.00  0.00    -0.339 A  
HETATM   21  C   UNL     1      -9.704  16.997  66.484  1.00  0.00    -0.282 C  
HETATM   22  O   UNL     1     -10.236  18.099  66.396  1.00  0.00    -0.363 OA 
HETATM   23  C   UNL     1     -11.412  13.597  64.470  1.00  0.00    -0.401 A  
HETATM   24  C   UNL     1     -10.269  15.838  65.745  1.00  0.00    -0.394 A  
HETATM   25  O   UNL     1     -10.029  12.145  65.659  1.00  0.00    -0.244 OA 
HETATM   26  H   UNL     1     -12.413  17.317  63.746  1.00  0.00     0.000 HD 
HETATM   27  C   UNL     1      -9.817  14.554  66.049  1.00  0.00    -0.342 A  
HETATM   28  O   UNL     1     -11.736  17.219  64.405  1.00  0.00    -0.340 OA 
HETATM   29  C   UNL     1     -10.399  13.440  65.411  1.00  0.00    -0.312 A  
HETATM   30  C   UNL     1      -8.751  14.343  67.045  1.00  0.00    -0.223 C  
BRANCH  14  31
HETATM   31  N   UNL     1      -6.834  14.041  69.249  1.00  0.00    -0.133 NA 
HETATM   32  H   UNL     1      -6.977  13.842  70.239  1.00  0.00     0.000 HD 
BRANCH  31  33
HETATM   33  C   UNL     1      -6.283  12.993  68.401  1.00  0.00    -0.081 C  
BRANCH  33  34
HETATM   34  C   UNL     1      -6.049  11.706  69.210  1.00  0.00    -0.078 C  
BRANCH  34  35
HETATM   35  N   UNL     1      -5.498  10.636  68.364  1.00  0.00    -0.040 NA 
HETATM   36  H   UNL     1      -5.838   9.716  68.646  1.00  0.00     0.000 HD 
BRANCH  35  37
HETATM   37  C   UNL     1      -5.772  10.911  66.948  1.00  0.00    -0.067 C  
BRANCH  37  38
HETATM   38  C   UNL     1      -5.432   9.691  66.088  1.00  0.00    -0.047 C  
HETATM   39  O   UNL     1      -6.301   9.621  64.960  1.00  0.00    -0.079 OA 
HETATM   40  H   UNL     1      -6.091   8.863  64.426  1.00  0.00     0.000 HD 
ENDBRANCH  37  38
ENDBRANCH  35  37
ENDBRANCH  34  35
ENDBRANCH  33  34
ENDBRANCH  31  33
ENDBRANCH  14  31
ENDBRANCH   9  11
ENDBRANCH   8   9
ENDBRANCH   7   8
ENDBRANCH   5   7
ENDBRANCH   4   5
ENDBRANCH   3   4
TORSDOF 12
ENDMDL
MODEL      221
REMARK 921   NORMALIZED FREE ENERGY PREDICTED BY IDOCK:    1.34 KCAL/MOL
REMARK 922        TOTAL FREE ENERGY PREDICTED BY IDOCK:    0.01 KCAL/MOL
REMARK 923 INTER-LIGAND FREE ENERGY PREDICTED BY IDOCK:    0.37 KCAL/MOL
REMARK 924 INTRA-LIGAND FREE ENERGY PREDICTED BY IDOCK:   -0.36 KCAL/MOL
REMARK 927      BINDING AFFINITY PREDICTED BY RF-SCORE:    0.00 PKD
ROOT
HETATM    1  O   UNL     1      -7.418   4.655  68.777  1.00  0.00    -0.063 OA 
HETATM    2  H   UNL     1      -6.645   4.873  69.285  1.00  0.00     0.000 HD 
HETATM    3  C   UNL     1      -8.325   5.754  68.766  1.00  0.00    -0.104 C  
ENDROOT
BRANCH   3   4
HETATM    4  C   UNL     1      -9.571   5.404  67.947  1.00  0.00    -0.129 C  
BRANCH   4   5
HETATM    5  N   UNL     1      -9.272   5.053  66.550  1.00  0.00    -0.130 NA 
HETATM    6  H   UNL     1      -9.023   4.068  66.461  1.00  0.00     0.000 HD 
BRANCH   5   7
HETATM    7  C   UNL     1     -10.374   5.410  65.647  1.00  0.00     0.238 C  
BRANCH   7   8
HETATM    8  C   UNL     1     -11.132   6.633  66.178  1.00  0.00     1.360 C  
BRANCH   8   9
HETATM    9  N   UNL     1     -10.223   7.738  66.425  1.00  0.00    -0.487 NA 
HETATM   10  H   UNL     1      -9.400   7.837  65.830  1.00  0.00     0.000 HD 
BRANCH   9  11
HETATM   11  C   UNL     1     -10.427   8.666  67.435  1.00  0.00    -0.281 A  
HETATM   12  C   UNL     1     -11.604   8.613  68.181  1.00  0.00     1.564 A  
HETATM   13  C   UNL     1     -11.865   9.539  69.177  1.00  0.00     0.667 A  
HETATM   14  C   UNL     1     -11.004  10.611  69.418  1.00  0.00    -0.255 A  
HETATM   15  H   UNL     1      -6.374  14.718  69.336  1.00  0.00     0.000 HD 
HETATM   16  C   UNL     1      -9.813  10.702  68.650  1.00  0.00    -0.183 A  
HETATM   17  C   UNL     1      -9.500   9.707  67.705  1.00  0.00    -0.146 A  
HETATM   18  C   UNL     1      -5.162  12.068  66.723  1.00  0.00     0.017 A  
HETATM   19  O   UNL     1      -9.162  12.794  69.569  1.00  0.00     1.079 OA 
HETATM   20  C   UNL     1      -6.034  11.002  66.492  1.00  0.00    -0.131 A  
HETATM   21  C   UNL     1      -8.165   9.721  67.035  1.00  0.00    -0.117 C  
HETATM   22  O   UNL     1      -7.782   8.726  66.426  1.00  0.00    -0.096 OA 
HETATM   23  C   UNL     1      -5.506  13.052  67.639  1.00  0.00    -0.093 A  
HETATM   24  C   UNL     1      -7.259  10.888  67.195  1.00  0.00    -0.104 A  
HETATM   25  O   UNL     1      -6.971  13.994  69.189  1.00  0.00    -0.110 OA 
HETATM   26  H   UNL     1      -4.841  10.135  65.107  1.00  0.00     0.000 HD 
HETATM   27  C   UNL     1      -7.605  11.896  68.095  1.00  0.00    -0.121 A  
HETATM   28  O   UNL     1      -5.662  10.059  65.578  1.00  0.00    -0.057 OA 
HETATM   29  C   UNL     1      -6.719  12.970  68.314  1.00  0.00    -0.096 A  
HETATM   30  C   UNL     1      -8.878  11.844  68.837  1.00  0.00     0.176 C  
BRANCH  14  31
HETATM   31  N   UNL     1     -11.298  11.475  70.458  1.00  0.00    -0.325 NA 
HETATM   32  H   UNL     1     -10.537  11.787  71.062  1.00  0.00     0.000 HD 
BRANCH  31  33
HETATM   33  C   UNL     1     -12.645  11.958  70.731  1.00  0.00    -0.234 C  
BRANCH  33  34
HETATM   34  C   UNL     1     -12.626  13.032  71.831  1.00  0.00     0.017 C  
BRANCH  34  35
HETATM   35  N   UNL     1     -12.575  14.385  71.258  1.00  0.00    -0.329 NA 
HETATM   36  H   UNL     1     -13.437  14.903  71.429  1.00  0.00     0.000 HD 
BRANCH  35  37
HETATM   37  C   UNL     1     -11.396  15.106  71.753  1.00  0.00    -0.317 C  
BRANCH  37  38
HETATM   38  C   UNL     1     -11.665  15.686  73.143  1.00  0.00    -0.330 C  
HETATM   39  O   UNL     1     -13.054  15.961  73.307  1.00  0.00    -0.510 OA 
HETATM   40  H   UNL     1     -13.221  16.322  74.170  1.00  0.00     0.000 HD 
ENDBRANCH  37  38
ENDBRANCH  35  37
ENDBRANCH  34  35
ENDBRANCH  33  34
ENDBRANCH  31  33
ENDBRANCH  14  31
ENDBRANCH   9  11
ENDBRANCH   8   9
ENDBRANCH   7   8
ENDBRANCH   5   7
ENDBRANCH   4   5
ENDBRANCH   3   4
TORSDOF 12
ENDMDL
MODEL      222
REMARK 921   NORMALIZED FREE ENERGY PREDICTED BY IDOCK:    3.54 KCAL/MOL
REMARK 922        TOTAL FREE ENERGY PREDICTED BY IDOCK:    3.77 KCAL/MOL
REMARK 923 INTER-LIGAND FREE ENERGY PREDICTED BY IDOCK:   -3.20 KCAL/MOL
REMARK 924 INTRA-LIGAND FREE ENERGY PREDICTED BY IDOCK:    6.96 KCAL/MOL
REMARK 927      BINDING AFFINITY PREDICTED BY RF-SCORE:    0.00 PKD
ROOT
HETATM    1  O   UNL     1      -7.630   4.000  66.749  1.00  0.00    -0.085 OA 
HETATM    2  H   UNL     1      -8.290   4.150  66.083  1.00  0.00     0.000 HD 
HETATM    3  C   UNL     1      -7.236   5.236  67.339  1.00  0.00    -0.075 C  
ENDROOT
BRANCH   3   4
HETATM    4  C   UNL     1      -6.172   4.994  68.413  1.00  0.00    -0.031 C  
BRANCH   4   5
HETATM    5  N   UNL     1      -6.723   4.913  69.774  1.00  0.00    -0.042 NA 
HETATM    6  H   UNL     1      -6.656   5.810  70.255  1.00  0.00     0.000 HD 
BRANCH   5   7
HETATM    7  C   UNL     1      -8.102   4.407  69.778  1.00  0.00    -0.060 C  
BRANCH   7   8
HETATM    8  C   UNL     1      -9.102   5.564  69.659  1.00  0.00    -0.128 C  
BRANCH   8   9
HETATM    9  N   UNL     1      -9.381   5.866  68.267  1.00  0.00    -0.116 NA 
HETATM   10  H   UNL     1      -9.732   5.120  67.666  1.00  0.00     0.000 HD 
BRANCH   9  11
HETATM   11  C   UNL     1      -9.192   7.126  67.720  1.00  0.00    -0.125 A  
HETATM   12  C   UNL     1      -9.779   7.430  66.492  1.00  0.00    -0.225 A  
HETATM   13  C   UNL     1      -9.589   8.663  65.892  1.00  0.00    -0.210 A  
HETATM   14  C   UNL     1      -8.739   9.620  66.448  1.00  0.00    -0.134 A  
HETATM   15  H   UNL     1      -4.779  12.780  70.004  1.00  0.00     0.000 HD 
HETATM   16  C   UNL     1      -8.108   9.321  67.684  1.00  0.00    -0.104 A  
HETATM   17  C   UNL     1      -8.376   8.107  68.343  1.00  0.00    -0.126 A  
HETATM   18  C   UNL     1      -5.398   9.556  72.136  1.00  0.00    -0.065 A  
HETATM   19  O   UNL     1      -6.810  11.311  67.713  1.00  0.00    -0.069 OA 
HETATM   20  C   UNL     1      -6.251   8.608  71.566  1.00  0.00    -0.057 A  
HETATM   21  C   UNL     1      -7.847   7.883  69.722  1.00  0.00    -0.104 C  
HETATM   22  O   UNL     1      -8.292   6.962  70.400  1.00  0.00    -0.126 OA 
HETATM   23  C   UNL     1      -5.126  10.734  71.454  1.00  0.00    -0.079 A  
HETATM   24  C   UNL     1      -6.869   8.833  70.311  1.00  0.00    -0.042 A  
HETATM   25  O   UNL     1      -5.363  12.142  69.611  1.00  0.00    -0.069 OA 
HETATM   26  H   UNL     1      -6.073   7.308  73.107  1.00  0.00     0.000 HD 
HETATM   27  C   UNL     1      -6.568  10.010  69.624  1.00  0.00    -0.062 A  
HETATM   28  O   UNL     1      -6.487   7.459  72.265  1.00  0.00    -0.050 OA 
HETATM   29  C   UNL     1      -5.701  10.956  70.207  1.00  0.00    -0.105 A  
HETATM   30  C   UNL     1      -7.162  10.287  68.303  1.00  0.00    -0.083 C  
BRANCH  14  31
HETATM   31  N   UNL     1      -8.630  10.850  65.823  1.00  0.00    -0.180 NA 
HETATM   32  H   UNL     1      -7.709  11.155  65.508  1.00  0.00     0.000 HD 
BRANCH  31  33
HETATM   33  C   UNL     1      -9.769  11.728  65.596  1.00  0.00    -0.233 C  
BRANCH  33  34
HETATM   34  C   UNL     1      -9.907  12.748  66.739  1.00  0.00    -0.242 C  
BRANCH  34  35
HETATM   35  N   UNL     1     -11.172  13.492  66.642  1.00  0.00    -0.306 NA 
HETATM   36  H   UNL     1     -11.859  13.164  67.321  1.00  0.00     0.000 HD 
BRANCH  35  37
HETATM   37  C   UNL     1     -10.927  14.935  66.763  1.00  0.00    -0.326 C  
BRANCH  37  38
HETATM   38  C   UNL     1     -12.178  15.651  67.277  1.00  0.00     0.996 C  
HETATM   39  O   UNL     1     -12.139  15.763  68.698  1.00  0.00    -0.533 OA 
HETATM   40  H   UNL     1     -12.916  16.207  69.017  1.00  0.00     0.000 HD 
ENDBRANCH  37  38
ENDBRANCH  35  37
ENDBRANCH  34  35
ENDBRANCH  33  34
ENDBRANCH  31  33
ENDBRANCH  14  31
ENDBRANCH   9  11
ENDBRANCH   8   9
ENDBRANCH   7   8
ENDBRANCH   5   7
ENDBRANCH   4   5
ENDBRANCH   3   4
TORSDOF 12
ENDMDL
MODEL      223
REMARK 921   NORMALIZED FREE ENERGY PREDICTED BY IDOCK:    3.82 KCAL/MOL
REMARK 922        TOTAL FREE ENERGY PREDICTED BY IDOCK:    4.24 KCAL/MOL
REMARK 923 INTER-LIGAND FREE ENERGY PREDICTED BY IDOCK:    4.26 KCAL/MOL
REMARK 924 INTRA-LIGAND FREE ENERGY PREDICTED BY IDOCK:   -0.02 KCAL/MOL
REMARK 927      BINDING AFFINITY PREDICTED BY RF-SCORE:    0.00 PKD
ROOT
HETATM    1  O   UNL     1      -7.756   4.778  68.622  1.00  0.00    -0.075 OA 
HETATM    2  H   UNL     1      -6.862   5.001  68.852  1.00  0.00     0.000 HD 
HETATM    3  C   UNL     1      -8.587   5.933  68.698  1.00  0.00    -0.110 C  
ENDROOT
BRANCH   3   4
HETATM    4  C   UNL     1     -10.029   5.574  68.327  1.00  0.00    -0.154 C  
BRANCH   4   5
HETATM    5  N   UNL     1     -10.163   5.022  66.971  1.00  0.00    -0.213 NA 
HETATM    6  H   UNL     1      -9.914   4.032  66.948  1.00  0.00     0.000 HD 
BRANCH   5   7
HETATM    7  C   UNL     1     -11.504   5.249  66.416  1.00  0.00     1.198 C  
BRANCH   7   8
HETATM    8  C   UNL     1     -12.048   6.612  66.861  1.00  0.00     3.251 C  
BRANCH   8   9
HETATM    9  N   UNL     1     -11.098   7.670  66.566  1.00  0.00     0.080 NA 
HETATM   10  H   UNL     1     -10.527   7.594  65.724  1.00  0.00     0.000 HD 
BRANCH   9  11
HETATM   11  C   UNL     1     -10.935   8.781  67.381  1.00  0.00     0.164 A  
HETATM   12  C   UNL     1     -11.970   9.153  68.238  1.00  0.00     2.592 A  
HETATM   13  C   UNL     1     -11.865  10.274  69.044  1.00  0.00     0.005 A  
HETATM   14  C   UNL     1     -10.758  11.122  68.972  1.00  0.00    -0.225 A  
HETATM   15  H   UNL     1      -5.387  13.864  67.578  1.00  0.00     0.000 HD 
HETATM   16  C   UNL     1      -9.706  10.778  68.084  1.00  0.00    -0.169 A  
HETATM   17  C   UNL     1      -9.768   9.587  67.335  1.00  0.00    -0.201 A  
HETATM   18  C   UNL     1      -5.205  10.582  65.452  1.00  0.00    -0.114 A  
HETATM   19  O   UNL     1      -8.471  12.768  68.483  1.00  0.00    -0.136 OA 
HETATM   20  C   UNL     1      -6.320   9.745  65.535  1.00  0.00    -0.079 A  
HETATM   21  C   UNL     1      -8.579   9.150  66.543  1.00  0.00    -0.127 C  
HETATM   22  O   UNL     1      -8.525   8.002  66.115  1.00  0.00    -0.120 OA 
HETATM   23  C   UNL     1      -5.179  11.765  66.177  1.00  0.00     0.321 A  
HETATM   24  C   UNL     1      -7.421  10.064  66.368  1.00  0.00    -0.104 A  
HETATM   25  O   UNL     1      -6.147  13.298  67.643  1.00  0.00    -0.148 OA 
HETATM   26  H   UNL     1      -5.572   8.380  64.242  1.00  0.00     0.000 HD 
HETATM   27  C   UNL     1      -7.393  11.267  67.073  1.00  0.00    -0.136 A  
HETATM   28  O   UNL     1      -6.309   8.594  64.800  1.00  0.00    -0.064 OA 
HETATM   29  C   UNL     1      -6.265  12.108  66.976  1.00  0.00    -0.097 A  
HETATM   30  C   UNL     1      -8.521  11.665  67.936  1.00  0.00    -0.148 C  
BRANCH  14  31
HETATM   31  N   UNL     1     -10.693  12.199  69.838  1.00  0.00    -0.056 NA 
HETATM   32  H   UNL     1     -10.315  12.049  70.774  1.00  0.00     0.000 HD 
BRANCH  31  33
HETATM   33  C   UNL     1     -11.138  13.537  69.474  1.00  0.00    -0.053 C  
BRANCH  33  34
HETATM   34  C   UNL     1     -11.463  13.614  67.973  1.00  0.00    -0.310 C  
BRANCH  34  35
HETATM   35  N   UNL     1     -11.471  15.005  67.498  1.00  0.00    -0.343 NA 
HETATM   36  H   UNL     1     -11.025  15.637  68.163  1.00  0.00     0.000 HD 
BRANCH  35  37
HETATM   37  C   UNL     1     -10.862  15.094  66.164  1.00  0.00    -0.330 C  
BRANCH  37  38
HETATM   38  C   UNL     1      -9.939  13.899  65.914  1.00  0.00    -0.300 C  
HETATM   39  O   UNL     1      -8.616  14.344  65.627  1.00  0.00     0.461 OA 
HETATM   40  H   UNL     1      -8.043  13.602  65.472  1.00  0.00     0.000 HD 
ENDBRANCH  37  38
ENDBRANCH  35  37
ENDBRANCH  34  35
ENDBRANCH  33  34
ENDBRANCH  31  33
ENDBRANCH  14  31
ENDBRANCH   9  11
ENDBRANCH   8   9
ENDBRANCH   7   8
ENDBRANCH   5   7
ENDBRANCH   4   5
ENDBRANCH   3   4
TORSDOF 12
ENDMDL
MODEL      224
REMARK 921   NORMALIZED FREE ENERGY PREDICTED BY IDOCK:    4.01 KCAL/MOL
REMARK 922        TOTAL FREE ENERGY PREDICTED BY IDOCK:    4.57 KCAL/MOL
REMARK 923 INTER-LIGAND FREE ENERGY PREDICTED BY IDOCK:   -2.04 KCAL/MOL
REMARK 924 INTRA-LIGAND FREE ENERGY PREDICTED BY IDOCK:    6.61 KCAL/MOL
REMARK 927      BINDING AFFINITY PREDICTED BY RF-SCORE:    0.00 PKD
ROOT
HETATM    1  O   UNL     1     -11.567  13.559  67.778  1.00  0.00    -0.299 OA 
HETATM    2  H   UNL     1     -11.475  14.497  67.664  1.00  0.00     0.000 HD 
HETATM    3  C   UNL     1     -11.024  13.160  69.035  1.00  0.00    -0.197 C  
ENDROOT
BRANCH   3   4
HETATM    4  C   UNL     1     -11.173  11.647  69.220  1.00  0.00    -0.265 C  
BRANCH   4   5
HETATM    5  N   UNL     1     -12.316  11.272  70.066  1.00  0.00    -0.280 NA 
HETATM    6  H   UNL     1     -13.152  11.104  69.506  1.00  0.00     0.000 HD 
BRANCH   5   7
HETATM    7  C   UNL     1     -12.008  10.121  70.925  1.00  0.00    -0.365 C  
BRANCH   7   8
HETATM    8  C   UNL     1     -10.631  10.290  71.579  1.00  0.00     1.546 C  
BRANCH   8   9
HETATM    9  N   UNL     1      -9.575   9.863  70.680  1.00  0.00    -0.323 NA 
HETATM   10  H   UNL     1      -9.289  10.490  69.929  1.00  0.00     0.000 HD 
BRANCH   9  11
HETATM   11  C   UNL     1      -8.938   8.636  70.800  1.00  0.00    -0.175 A  
HETATM   12  C   UNL     1      -8.910   8.002  72.041  1.00  0.00    -0.209 A  
HETATM   13  C   UNL     1      -8.257   6.794  72.215  1.00  0.00    -0.106 A  
HETATM   14  C   UNL     1      -7.530   6.204  71.180  1.00  0.00    -0.085 A  
HETATM   15  H   UNL     1      -4.786   4.832  65.804  1.00  0.00     0.000 HD 
HETATM   16  C   UNL     1      -7.520   6.847  69.915  1.00  0.00    -0.094 A  
HETATM   17  C   UNL     1      -8.263   8.024  69.711  1.00  0.00    -0.120 A  
HETATM   18  C   UNL     1      -6.830   8.041  64.884  1.00  0.00    -0.058 A  
HETATM   19  O   UNL     1      -5.976   5.322  68.947  1.00  0.00    -0.019 OA 
HETATM   20  C   UNL     1      -7.552   8.620  65.929  1.00  0.00    -0.089 A  
HETATM   21  C   UNL     1      -8.386   8.590  68.333  1.00  0.00    -0.124 C  
HETATM   22  O   UNL     1      -9.237   9.443  68.102  1.00  0.00    -0.131 OA 
HETATM   23  C   UNL     1      -6.082   6.896  65.116  1.00  0.00    -0.036 A  
HETATM   24  C   UNL     1      -7.558   8.047  67.226  1.00  0.00    -0.097 A  
HETATM   25  O   UNL     1      -5.278   5.218  66.520  1.00  0.00    -0.008 OA 
HETATM   26  H   UNL     1      -8.267  10.134  64.792  1.00  0.00     0.000 HD 
HETATM   27  C   UNL     1      -6.782   6.910  67.453  1.00  0.00    -0.067 A  
HETATM   28  O   UNL     1      -8.270   9.750  65.661  1.00  0.00    -0.123 OA 
HETATM   29  C   UNL     1      -6.052   6.339  66.390  1.00  0.00    -0.033 A  
HETATM   30  C   UNL     1      -6.729   6.285  68.787  1.00  0.00    -0.061 C  
BRANCH  14  31
HETATM   31  N   UNL     1      -6.939   4.973  71.405  1.00  0.00    -0.047 NA 
HETATM   32  H   UNL     1      -6.219   4.903  72.125  1.00  0.00     0.000 HD 
BRANCH  31  33
HETATM   33  C   UNL     1      -7.298   3.773  70.662  1.00  0.00    -0.041 C  
BRANCH  33  34
HETATM   34  C   UNL     1      -7.974   2.743  71.584  1.00  0.00    -0.056 C  
BRANCH  34  35
HETATM   35  N   UNL     1      -7.385   2.763  72.931  1.00  0.00    -0.040 NA 
HETATM   36  H   UNL     1      -8.082   2.580  73.653  1.00  0.00     0.000 HD 
BRANCH  35  37
HETATM   37  C   UNL     1      -6.256   1.827  73.009  1.00  0.00    -0.009 C  
BRANCH  37  38
HETATM   38  C   UNL     1      -5.741   1.487  71.608  1.00  0.00    -0.008 C  
HETATM   39  O   UNL     1      -6.350   2.333  70.636  1.00  0.00    -0.022 OA 
HETATM   40  H   UNL     1      -6.031   2.122  69.766  1.00  0.00     0.000 HD 
ENDBRANCH  37  38
ENDBRANCH  35  37
ENDBRANCH  34  35
ENDBRANCH  33  34
ENDBRANCH  31  33
ENDBRANCH  14  31
ENDBRANCH   9  11
ENDBRANCH   8   9
ENDBRANCH   7   8
ENDBRANCH   5   7
ENDBRANCH   4   5
ENDBRANCH   3   4
TORSDOF 12
ENDMDL
MODEL      225
REMARK 921   NORMALIZED FREE ENERGY PREDICTED BY IDOCK:    4.74 KCAL/MOL
REMARK 922        TOTAL FREE ENERGY PREDICTED BY IDOCK:    5.81 KCAL/MOL
REMARK 923 INTER-LIGAND FREE ENERGY PREDICTED BY IDOCK:   -2.58 KCAL/MOL
REMARK 924 INTRA-LIGAND FREE ENERGY PREDICTED BY IDOCK:    8.38 KCAL/MOL
REMARK 927      BINDING AFFINITY PREDICTED BY RF-SCORE:    0.00 PKD
ROOT
HETATM    1  O   UNL     1      -7.005  19.365  64.061  1.00  0.00     0.640 OA 
HETATM    2  H   UNL     1      -7.438  18.523  64.134  1.00  0.00     0.000 HD 
HETATM    3  C   UNL     1      -6.607  19.600  62.713  1.00  0.00     2.131 C  
ENDROOT
BRANCH   3   4
HETATM    4  C   UNL     1      -5.910  20.958  62.595  1.00  0.00    -0.246 C  
BRANCH   4   5
HETATM    5  N   UNL     1      -5.207  21.362  63.822  1.00  0.00    -0.194 NA 
HETATM    6  H   UNL     1      -5.533  22.271  64.153  1.00  0.00     0.000 HD 
BRANCH   5   7
HETATM    7  C   UNL     1      -5.310  20.342  64.875  1.00  0.00    -0.164 C  
BRANCH   7   8
HETATM    8  C   UNL     1      -6.750  20.246  65.394  1.00  0.00    -0.285 C  
BRANCH   8   9
HETATM    9  N   UNL     1      -6.771  19.867  66.795  1.00  0.00    -0.196 NA 
HETATM   10  H   UNL     1      -6.944  20.588  67.494  1.00  0.00     0.000 HD 
BRANCH   9  11
HETATM   11  C   UNL     1      -6.567  18.563  67.222  1.00  0.00    -0.199 A  
HETATM   12  C   UNL     1      -5.391  18.246  67.903  1.00  0.00    -0.156 A  
HETATM   13  C   UNL     1      -5.129  16.952  68.318  1.00  0.00    -0.115 A  
HETATM   14  C   UNL     1      -5.988  15.898  68.001  1.00  0.00    -0.131 A  
HETATM   15  H   UNL     1     -10.606  12.349  65.907  1.00  0.00     0.000 HD 
HETATM   16  C   UNL     1      -7.176  16.193  67.284  1.00  0.00    -0.232 A  
HETATM   17  C   UNL     1      -7.492  17.522  66.946  1.00  0.00    -0.235 A  
HETATM   18  C   UNL     1     -11.821  15.937  64.922  1.00  0.00     0.187 A  
HETATM   19  O   UNL     1      -7.823  13.918  67.059  1.00  0.00    -0.078 OA 
HETATM   20  C   UNL     1     -10.951  16.981  65.245  1.00  0.00    -0.006 A  
HETATM   21  C   UNL     1      -8.825  17.836  66.351  1.00  0.00    -0.231 C  
HETATM   22  O   UNL     1      -9.210  19.001  66.306  1.00  0.00    -0.332 OA 
HETATM   23  C   UNL     1     -11.476  14.632  65.239  1.00  0.00    -0.361 A  
HETATM   24  C   UNL     1      -9.728  16.738  65.917  1.00  0.00    -0.247 A  
HETATM   25  O   UNL     1     -10.011  13.054  66.134  1.00  0.00    -0.269 OA 
HETATM   26  H   UNL     1     -12.145  18.413  64.458  1.00  0.00     0.000 HD 
HETATM   27  C   UNL     1      -9.381  15.419  66.209  1.00  0.00    -0.351 A  
HETATM   28  O   UNL     1     -11.325  18.250  64.908  1.00  0.00    -0.232 OA 
HETATM   29  C   UNL     1     -10.264  14.374  65.872  1.00  0.00    -0.325 A  
HETATM   30  C   UNL     1      -8.109  15.104  66.885  1.00  0.00    -0.159 C  
BRANCH  14  31
HETATM   31  N   UNL     1      -5.692  14.636  68.486  1.00  0.00    -0.093 NA 
HETATM   32  H   UNL     1      -4.716  14.397  68.659  1.00  0.00     0.000 HD 
BRANCH  31  33
HETATM   33  C   UNL     1      -6.712  13.634  68.762  1.00  0.00    -0.104 C  
BRANCH  33  34
HETATM   34  C   UNL     1      -6.425  12.915  70.091  1.00  0.00     0.173 C  
BRANCH  34  35
HETATM   35  N   UNL     1      -5.180  13.402  70.704  1.00  0.00    -0.117 NA 
HETATM   36  H   UNL     1      -4.971  14.362  70.430  1.00  0.00     0.000 HD 
BRANCH  35  37
HETATM   37  C   UNL     1      -5.235  13.248  72.164  1.00  0.00    -0.058 C  
BRANCH  37  38
HETATM   38  C   UNL     1      -5.186  14.616  72.850  1.00  0.00    -0.158 C  
HETATM   39  O   UNL     1      -5.351  14.471  74.259  1.00  0.00    -0.433 OA 
HETATM   40  H   UNL     1      -5.322  15.319  74.685  1.00  0.00     0.000 HD 
ENDBRANCH  37  38
ENDBRANCH  35  37
ENDBRANCH  34  35
ENDBRANCH  33  34
ENDBRANCH  31  33
ENDBRANCH  14  31
ENDBRANCH   9  11
ENDBRANCH   8   9
ENDBRANCH   7   8
ENDBRANCH   5   7
ENDBRANCH   4   5
ENDBRANCH   3   4
TORSDOF 12
ENDMDL
MODEL      226
REMARK 921   NORMALIZED FREE ENERGY PREDICTED BY IDOCK:    5.24 KCAL/MOL
REMARK 922        TOTAL FREE ENERGY PREDICTED BY IDOCK:    6.66 KCAL/MOL
REMARK 923 INTER-LIGAND FREE ENERGY PREDICTED BY IDOCK:    4.98 KCAL/MOL
REMARK 924 INTRA-LIGAND FREE ENERGY PREDICTED BY IDOCK:    1.68 KCAL/MOL
REMARK 927      BINDING AFFINITY PREDICTED BY RF-SCORE:    0.00 PKD
ROOT
HETATM    1  O   UNL     1      -9.924   7.118  63.963  1.00  0.00     3.523 OA 
HETATM    2  H   UNL     1      -9.970   7.936  64.444  1.00  0.00     0.000 HD 
HETATM    3  C   UNL     1      -8.609   6.924  63.448  1.00  0.00     0.501 C  
ENDROOT
BRANCH   3   4
HETATM    4  C   UNL     1      -8.534   5.606  62.673  1.00  0.00    -0.050 C  
BRANCH   4   5
HETATM    5  N   UNL     1      -9.810   4.877  62.634  1.00  0.00    -0.351 NA 
HETATM    6  H   UNL     1     -10.160   4.793  61.679  1.00  0.00     0.000 HD 
BRANCH   5   7
HETATM    7  C   UNL     1      -9.713   3.564  63.285  1.00  0.00    -0.129 C  
BRANCH   7   8
HETATM    8  C   UNL     1      -9.898   3.699  64.801  1.00  0.00    -0.175 C  
BRANCH   8   9
HETATM    9  N   UNL     1      -8.662   3.402  65.503  1.00  0.00    -0.116 NA 
HETATM   10  H   UNL     1      -7.835   3.163  64.956  1.00  0.00     0.000 HD 
BRANCH   9  11
HETATM   11  C   UNL     1      -8.558   3.432  66.886  1.00  0.00    -0.114 A  
HETATM   12  C   UNL     1      -8.759   2.257  67.609  1.00  0.00    -0.139 A  
HETATM   13  C   UNL     1      -8.699   2.246  68.992  1.00  0.00    -0.129 A  
HETATM   14  C   UNL     1      -8.518   3.422  69.722  1.00  0.00    -0.053 A  
HETATM   15  H   UNL     1      -7.673   9.276  71.547  1.00  0.00     0.000 HD 
HETATM   16  C   UNL     1      -8.340   4.635  69.006  1.00  0.00    -0.085 A  
HETATM   17  C   UNL     1      -8.304   4.633  67.600  1.00  0.00    -0.103 A  
HETATM   18  C   UNL     1      -7.413   9.588  67.654  1.00  0.00    -0.091 A  
HETATM   19  O   UNL     1      -8.317   5.995  70.955  1.00  0.00    -0.121 OA 
HETATM   20  C   UNL     1      -7.597   8.403  66.938  1.00  0.00    -0.091 A  
HETATM   21  C   UNL     1      -7.939   5.883  66.868  1.00  0.00    -0.102 C  
HETATM   22  O   UNL     1      -7.644   5.825  65.678  1.00  0.00    -0.082 OA 
HETATM   23  C   UNL     1      -7.481   9.571  69.039  1.00  0.00    -0.074 A  
HETATM   24  C   UNL     1      -7.828   7.171  67.599  1.00  0.00    -0.113 A  
HETATM   25  O   UNL     1      -7.795   8.465  71.068  1.00  0.00    -0.082 OA 
HETATM   26  H   UNL     1      -7.375   9.289  65.132  1.00  0.00     0.000 HD 
HETATM   27  C   UNL     1      -7.918   7.172  68.991  1.00  0.00    -0.120 A  
HETATM   28  O   UNL     1      -7.529   8.464  65.575  1.00  0.00    -0.081 OA 
HETATM   29  C   UNL     1      -7.737   8.375  69.702  1.00  0.00    -0.095 A  
HETATM   30  C   UNL     1      -8.182   5.925  69.732  1.00  0.00    -0.113 C  
BRANCH  14  31
HETATM   31  N   UNL     1      -8.420   3.337  71.099  1.00  0.00    -0.066 NA 
HETATM   32  H   UNL     1      -7.688   2.749  71.499  1.00  0.00     0.000 HD 
BRANCH  31  33
HETATM   33  C   UNL     1      -9.312   4.048  72.003  1.00  0.00    -0.130 C  
BRANCH  33  34
HETATM   34  C   UNL     1      -9.556   3.231  73.284  1.00  0.00    -0.105 C  
BRANCH  34  35
HETATM   35  N   UNL     1     -10.921   3.427  73.792  1.00  0.00    -0.223 NA 
HETATM   36  H   UNL     1     -11.078   4.386  74.102  1.00  0.00     0.000 HD 
BRANCH  35  37
HETATM   37  C   UNL     1     -11.906   3.008  72.787  1.00  0.00     1.011 C  
BRANCH  37  38
HETATM   38  C   UNL     1     -12.569   4.229  72.143  1.00  0.00     3.543 C  
HETATM   39  O   UNL     1     -12.529   5.343  73.031  1.00  0.00    -0.466 OA 
HETATM   40  H   UNL     1     -12.940   6.101  72.632  1.00  0.00     0.000 HD 
ENDBRANCH  37  38
ENDBRANCH  35  37
ENDBRANCH  34  35
ENDBRANCH  33  34
ENDBRANCH  31  33
ENDBRANCH  14  31
ENDBRANCH   9  11
ENDBRANCH   8   9
ENDBRANCH   7   8
ENDBRANCH   5   7
ENDBRANCH   4   5
ENDBRANCH   3   4
TORSDOF 12
ENDMDL
MODEL      227
REMARK 921   NORMALIZED FREE ENERGY PREDICTED BY IDOCK:    5.65 KCAL/MOL
REMARK 922        TOTAL FREE ENERGY PREDICTED BY IDOCK:    7.35 KCAL/MOL
REMARK 923 INTER-LIGAND FREE ENERGY PREDICTED BY IDOCK:    2.84 KCAL/MOL
REMARK 924 INTRA-LIGAND FREE ENERGY PREDICTED BY IDOCK:    4.51 KCAL/MOL
REMARK 927      BINDING AFFINITY PREDICTED BY RF-SCORE:    0.00 PKD
ROOT
HETATM    1  O   UNL     1     -10.935  16.839  71.513  1.00  0.00     0.319 OA 
HETATM    2  H   UNL     1     -10.435  17.517  71.075  1.00  0.00     0.000 HD 
HETATM    3  C   UNL     1     -12.321  16.975  71.207  1.00  0.00     3.112 C  
ENDROOT
BRANCH   3   4
HETATM    4  C   UNL     1     -13.128  15.881  71.913  1.00  0.00    -0.325 C  
BRANCH   4   5
HETATM    5  N   UNL     1     -13.273  14.655  71.115  1.00  0.00    -0.358 NA 
HETATM    6  H   UNL     1     -13.929  14.006  71.549  1.00  0.00     0.000 HD 
BRANCH   5   7
HETATM    7  C   UNL     1     -13.649  14.945  69.725  1.00  0.00     1.530 C  
BRANCH   7   8
HETATM    8  C   UNL     1     -12.565  14.452  68.759  1.00  0.00     0.380 C  
BRANCH   8   9
HETATM    9  N   UNL     1     -12.405  13.012  68.852  1.00  0.00    -0.001 NA 
HETATM   10  H   UNL     1     -12.877  12.515  69.607  1.00  0.00     0.000 HD 
BRANCH   9  11
HETATM   11  C   UNL     1     -11.635  12.283  67.957  1.00  0.00    -0.349 A  
HETATM   12  C   UNL     1     -12.216  11.218  67.270  1.00  0.00     1.177 A  
HETATM   13  C   UNL     1     -11.478  10.442  66.393  1.00  0.00     0.936 A  
HETATM   14  C   UNL     1     -10.107  10.640  66.222  1.00  0.00    -0.235 A  
HETATM   15  H   UNL     1      -4.259  12.649  66.501  1.00  0.00     0.000 HD 
HETATM   16  C   UNL     1      -9.488  11.701  66.934  1.00  0.00    -0.195 A  
HETATM   17  C   UNL     1     -10.256  12.551  67.751  1.00  0.00    -0.217 A  
HETATM   18  C   UNL     1      -6.125  15.249  68.755  1.00  0.00    -0.087 A  
HETATM   19  O   UNL     1      -7.293  11.152  66.210  1.00  0.00    -0.127 OA 
HETATM   20  C   UNL     1      -7.496  15.038  68.916  1.00  0.00    -0.143 A  
HETATM   21  C   UNL     1      -9.626  13.766  68.350  1.00  0.00    -0.206 C  
HETATM   22  O   UNL     1     -10.338  14.644  68.830  1.00  0.00    -0.235 OA 
HETATM   23  C   UNL     1      -5.383  14.381  67.967  1.00  0.00    -0.110 A  
HETATM   24  C   UNL     1      -8.156  13.964  68.268  1.00  0.00    -0.150 A  
HETATM   25  O   UNL     1      -5.192  12.500  66.602  1.00  0.00    -0.286 OA 
HETATM   26  H   UNL     1      -7.746  16.630  70.139  1.00  0.00     0.000 HD 
HETATM   27  C   UNL     1      -7.395  13.084  67.499  1.00  0.00    -0.154 A  
HETATM   28  O   UNL     1      -8.188  15.910  69.705  1.00  0.00    -0.154 OA 
HETATM   29  C   UNL     1      -6.011  13.304  67.349  1.00  0.00     0.046 A  
HETATM   30  C   UNL     1      -8.023  11.934  66.821  1.00  0.00    -0.087 C  
BRANCH  14  31
HETATM   31  N   UNL     1      -9.436   9.861  65.296  1.00  0.00    -0.249 NA 
HETATM   32  H   UNL     1      -9.191   8.904  65.551  1.00  0.00     0.000 HD 
BRANCH  31  33
HETATM   33  C   UNL     1      -9.065  10.346  63.974  1.00  0.00    -0.242 C  
BRANCH  33  34
HETATM   34  C   UNL     1      -9.060  11.883  63.938  1.00  0.00     0.435 C  
BRANCH  34  35
HETATM   35  N   UNL     1     -10.388  12.415  63.599  1.00  0.00    -0.428 NA 
HETATM   36  H   UNL     1     -11.011  11.687  63.248  1.00  0.00     0.000 HD 
BRANCH  35  37
HETATM   37  C   UNL     1     -10.965  13.121  64.750  1.00  0.00    -0.336 C  
BRANCH  37  38
HETATM   38  C   UNL     1     -11.260  14.580  64.394  1.00  0.00    -0.195 C  
HETATM   39  O   UNL     1     -11.612  15.316  65.563  1.00  0.00    -0.222 OA 
HETATM   40  H   UNL     1     -11.796  16.222  65.342  1.00  0.00     0.000 HD 
ENDBRANCH  37  38
ENDBRANCH  35  37
ENDBRANCH  34  35
ENDBRANCH  33  34
ENDBRANCH  31  33
ENDBRANCH  14  31
ENDBRANCH   9  11
ENDBRANCH   8   9
ENDBRANCH   7   8
ENDBRANCH   5   7
ENDBRANCH   4   5
ENDBRANCH   3   4
TORSDOF 12
ENDMDL
MODEL      228
REMARK 921   NORMALIZED FREE ENERGY PREDICTED BY IDOCK:    9.01 KCAL/MOL
REMARK 922        TOTAL FREE ENERGY PREDICTED BY IDOCK:   13.06 KCAL/MOL
REMARK 923 INTER-LIGAND FREE ENERGY PREDICTED BY IDOCK:    8.02 KCAL/MOL
REMARK 924 INTRA-LIGAND FREE ENERGY PREDICTED BY IDOCK:    5.04 KCAL/MOL
REMARK 927      BINDING AFFINITY PREDICTED BY RF-SCORE:    0.00 PKD
ROOT
HETATM    1  O   UNL     1      -5.385  18.061  64.194  1.00  0.00     0.236 OA 
HETATM    2  H   UNL     1      -5.676  17.859  63.313  1.00  0.00     0.000 HD 
HETATM    3  C   UNL     1      -6.294  17.519  65.150  1.00  0.00     1.088 C  
ENDROOT
BRANCH   3   4
HETATM    4  C   UNL     1      -5.824  17.844  66.570  1.00  0.00    -0.172 C  
BRANCH   4   5
HETATM    5  N   UNL     1      -6.853  17.609  67.594  1.00  0.00    -0.172 NA 
HETATM    6  H   UNL     1      -7.787  17.795  67.230  1.00  0.00     0.000 HD 
BRANCH   5   7
HETATM    7  C   UNL     1      -6.761  16.258  68.164  1.00  0.00    -0.125 C  
BRANCH   7   8
HETATM    8  C   UNL     1      -8.013  15.934  68.989  1.00  0.00    -0.222 C  
BRANCH   8   9
HETATM    9  N   UNL     1      -8.859  14.981  68.293  1.00  0.00    -0.167 NA 
HETATM   10  H   UNL     1      -9.781  15.283  67.980  1.00  0.00     0.000 HD 
BRANCH   9  11
HETATM   11  C   UNL     1      -8.465  13.675  68.037  1.00  0.00    -0.174 A  
HETATM   12  C   UNL     1      -8.832  13.078  66.831  1.00  0.00    -0.184 A  
HETATM   13  C   UNL     1      -8.491  11.767  66.547  1.00  0.00    -0.125 A  
HETATM   14  C   UNL     1      -7.841  10.964  67.485  1.00  0.00    -0.114 A  
HETATM   15  H   UNL     1      -5.033   8.688  72.510  1.00  0.00     0.000 HD 
HETATM   16  C   UNL     1      -7.483  11.543  68.731  1.00  0.00    -0.119 A  
HETATM   17  C   UNL     1      -7.743  12.903  68.984  1.00  0.00     0.200 A  
HETATM   18  C   UNL     1      -5.512  12.451  73.475  1.00  0.00     0.980 A  
HETATM   19  O   UNL     1      -6.677   9.507  69.654  1.00  0.00    -0.048 OA 
HETATM   20  C   UNL     1      -6.164  13.242  72.526  1.00  0.00     2.158 A  
HETATM   21  C   UNL     1      -7.204  13.539  70.223  1.00  0.00     1.208 C  
HETATM   22  O   UNL     1      -7.191  14.763  70.319  1.00  0.00    -0.008 OA 
HETATM   23  C   UNL     1      -5.292  11.106  73.216  1.00  0.00     0.812 A  
HETATM   24  C   UNL     1      -6.587  12.704  71.285  1.00  0.00     2.643 A  
HETATM   25  O   UNL     1      -5.474   9.220  71.857  1.00  0.00    -0.064 OA 
HETATM   26  H   UNL     1      -6.084  14.920  73.655  1.00  0.00     0.000 HD 
HETATM   27  C   UNL     1      -6.382  11.345  71.046  1.00  0.00     0.939 A  
HETATM   28  O   UNL     1      -6.367  14.559  72.823  1.00  0.00     0.332 OA 
HETATM   29  C   UNL     1      -5.729  10.556  72.015  1.00  0.00     0.519 A  
HETATM   30  C   UNL     1      -6.824  10.724  69.784  1.00  0.00    -0.151 C  
BRANCH  14  31
HETATM   31  N   UNL     1      -7.486   9.677  67.122  1.00  0.00    -0.088 NA 
HETATM   32  H   UNL     1      -6.495   9.443  67.067  1.00  0.00     0.000 HD 
BRANCH  31  33
HETATM   33  C   UNL     1      -8.463   8.642  66.814  1.00  0.00    -0.115 C  
BRANCH  33  34
HETATM   34  C   UNL     1      -9.652   8.708  67.787  1.00  0.00    -0.148 C  
BRANCH  34  35
HETATM   35  N   UNL     1      -9.286   9.400  69.032  1.00  0.00    -0.150 NA 
HETATM   36  H   UNL     1      -9.441  10.407  68.968  1.00  0.00     0.000 HD 
BRANCH  35  37
HETATM   37  C   UNL     1      -9.997   8.809  70.173  1.00  0.00    -0.184 C  
BRANCH  37  38
HETATM   38  C   UNL     1     -11.178   9.691  70.586  1.00  0.00    -0.320 C  
HETATM   39  O   UNL     1     -11.375  10.736  69.636  1.00  0.00    -0.247 OA 
HETATM   40  H   UNL     1     -12.108  11.283  69.893  1.00  0.00     0.000 HD 
ENDBRANCH  37  38
ENDBRANCH  35  37
ENDBRANCH  34  35
ENDBRANCH  33  34
ENDBRANCH  31  33
ENDBRANCH  14  31
ENDBRANCH   9  11
ENDBRANCH   8   9
ENDBRANCH   7   8
ENDBRANCH   5   7
ENDBRANCH   4   5
ENDBRANCH   3   4
TORSDOF 12
ENDMDL
MODEL      229
REMARK 921   NORMALIZED FREE ENERGY PREDICTED BY IDOCK:    9.11 KCAL/MOL
REMARK 922        TOTAL FREE ENERGY PREDICTED BY IDOCK:   13.24 KCAL/MOL
REMARK 923 INTER-LIGAND FREE ENERGY PREDICTED BY IDOCK:   -2.74 KCAL/MOL
REMARK 924 INTRA-LIGAND FREE ENERGY PREDICTED BY IDOCK:   15.98 KCAL/MOL
REMARK 927      BINDING AFFINITY PREDICTED BY RF-SCORE:    0.00 PKD
ROOT
HETATM    1  O   UNL     1     -12.491  13.556  67.917  1.00  0.00    -0.238 OA 
HETATM    2  H   UNL     1     -12.978  13.028  67.296  1.00  0.00     0.000 HD 
HETATM    3  C   UNL     1     -12.941  13.296  69.244  1.00  0.00     1.381 C  
ENDROOT
BRANCH   3   4
HETATM    4  C   UNL     1     -12.155  14.146  70.246  1.00  0.00    -0.342 C  
BRANCH   4   5
HETATM    5  N   UNL     1     -11.727  15.444  69.702  1.00  0.00    -0.315 NA 
HETATM    6  H   UNL     1     -12.117  16.218  70.240  1.00  0.00     0.000 HD 
BRANCH   5   7
HETATM    7  C   UNL     1     -10.264  15.544  69.606  1.00  0.00    -0.286 C  
BRANCH   7   8
HETATM    8  C   UNL     1      -9.644  14.161  69.373  1.00  0.00     0.401 C  
BRANCH   8   9
HETATM    9  N   UNL     1      -8.203  14.204  69.546  1.00  0.00    -0.201 NA 
HETATM   10  H   UNL     1      -7.703  13.329  69.706  1.00  0.00     0.000 HD 
BRANCH   9  11
HETATM   11  C   UNL     1      -7.477  15.385  69.502  1.00  0.00    -0.211 A  
HETATM   12  C   UNL     1      -6.285  15.478  70.220  1.00  0.00    -0.049 A  
HETATM   13  C   UNL     1      -5.545  16.647  70.233  1.00  0.00    -0.193 A  
HETATM   14  C   UNL     1      -6.001  17.805  69.599  1.00  0.00    -0.252 A  
HETATM   15  H   UNL     1      -9.220  22.025  66.415  1.00  0.00     0.000 HD 
HETATM   16  C   UNL     1      -7.227  17.741  68.887  1.00  0.00    -0.256 A  
HETATM   17  C   UNL     1      -7.931  16.527  68.791  1.00  0.00    -0.236 A  
HETATM   18  C   UNL     1     -11.352  18.788  65.869  1.00  0.00     1.044 A  
HETATM   19  O   UNL     1      -7.261  20.061  68.373  1.00  0.00    -0.299 OA 
HETATM   20  C   UNL     1     -10.883  17.639  66.510  1.00  0.00     0.055 A  
HETATM   21  C   UNL     1      -9.122  16.432  67.894  1.00  0.00    -0.201 C  
HETATM   22  O   UNL     1      -9.572  15.329  67.598  1.00  0.00    -0.205 OA 
HETATM   23  C   UNL     1     -10.656  19.981  66.001  1.00  0.00    -0.472 A  
HETATM   24  C   UNL     1      -9.691  17.657  67.275  1.00  0.00    -0.284 A  
HETATM   25  O   UNL     1      -8.892  21.247  66.850  1.00  0.00     0.286 OA 
HETATM   26  H   UNL     1     -12.400  16.474  65.848  1.00  0.00     0.000 HD 
HETATM   27  C   UNL     1      -9.013  18.868  67.420  1.00  0.00    -0.297 A  
HETATM   28  O   UNL     1     -11.601  16.487  66.361  1.00  0.00     0.655 OA 
HETATM   29  C   UNL     1      -9.500  20.022  66.774  1.00  0.00    -0.406 A  
HETATM   30  C   UNL     1      -7.781  18.953  68.225  1.00  0.00    -0.301 C  
BRANCH  14  31
HETATM   31  N   UNL     1      -5.192  18.927  69.610  1.00  0.00    -0.187 NA 
HETATM   32  H   UNL     1      -4.613  19.102  70.431  1.00  0.00     0.000 HD 
BRANCH  31  33
HETATM   33  C   UNL     1      -5.129  19.870  68.502  1.00  0.00    -0.193 C  
BRANCH  33  34
HETATM   34  C   UNL     1      -5.973  19.373  67.315  1.00  0.00    -0.178 C  
BRANCH  34  35
HETATM   35  N   UNL     1      -5.132  18.741  66.288  1.00  0.00    -0.140 NA 
HETATM   36  H   UNL     1      -5.382  17.763  66.141  1.00  0.00     0.000 HD 
BRANCH  35  37
HETATM   37  C   UNL     1      -5.183  19.512  65.040  1.00  0.00    -0.157 C  
BRANCH  37  38
HETATM   38  C   UNL     1      -6.205  20.647  65.150  1.00  0.00    -0.269 C  
HETATM   39  O   UNL     1      -6.697  20.999  63.859  1.00  0.00    -0.396 OA 
HETATM   40  H   UNL     1      -7.331  21.704  63.927  1.00  0.00     0.000 HD 
ENDBRANCH  37  38
ENDBRANCH  35  37
ENDBRANCH  34  35
ENDBRANCH  33  34
ENDBRANCH  31  33
ENDBRANCH  14  31
ENDBRANCH   9  11
ENDBRANCH   8   9
ENDBRANCH   7   8
ENDBRANCH   5   7
ENDBRANCH   4   5
ENDBRANCH   3   4
TORSDOF 12
ENDMDL
MODEL      230
REMARK 921   NORMALIZED FREE ENERGY PREDICTED BY IDOCK:    9.55 KCAL/MOL
REMARK 922        TOTAL FREE ENERGY PREDICTED BY IDOCK:   13.99 KCAL/MOL
REMARK 923 INTER-LIGAND FREE ENERGY PREDICTED BY IDOCK:    9.43 KCAL/MOL
REMARK 924 INTRA-LIGAND FREE ENERGY PREDICTED BY IDOCK:    4.57 KCAL/MOL
REMARK 927      BINDING AFFINITY PREDICTED BY RF-SCORE:    0.00 PKD
ROOT
HETATM    1  O   UNL     1      -6.114   6.959  67.948  1.00  0.00    -0.030 OA 
HETATM    2  H   UNL     1      -5.824   6.328  68.597  1.00  0.00     0.000 HD 
HETATM    3  C   UNL     1      -5.905   6.446  66.635  1.00  0.00    -0.020 C  
ENDROOT
BRANCH   3   4
HETATM    4  C   UNL     1      -6.372   7.463  65.589  1.00  0.00    -0.041 C  
BRANCH   4   5
HETATM    5  N   UNL     1      -5.301   7.901  64.681  1.00  0.00    -0.032 NA 
HETATM    6  H   UNL     1      -4.562   7.201  64.614  1.00  0.00     0.000 HD 
BRANCH   5   7
HETATM    7  C   UNL     1      -5.820   8.260  63.354  1.00  0.00    -0.072 C  
BRANCH   7   8
HETATM    8  C   UNL     1      -6.647   9.549  63.429  1.00  0.00    -0.102 C  
BRANCH   8   9
HETATM    9  N   UNL     1      -6.250  10.355  64.570  1.00  0.00    -0.280 NA 
HETATM   10  H   UNL     1      -5.270  10.349  64.855  1.00  0.00     0.000 HD 
BRANCH   9  11
HETATM   11  C   UNL     1      -7.146  11.131  65.289  1.00  0.00     0.547 A  
HETATM   12  C   UNL     1      -6.943  12.509  65.367  1.00  0.00     4.910 A  
HETATM   13  C   UNL     1      -7.793  13.318  66.101  1.00  0.00     1.927 A  
HETATM   14  C   UNL     1      -8.834  12.782  66.860  1.00  0.00    -0.194 A  
HETATM   15  H   UNL     1     -12.919   9.066  69.657  1.00  0.00     0.000 HD 
HETATM   16  C   UNL     1      -9.041  11.379  66.819  1.00  0.00    -0.181 A  
HETATM   17  C   UNL     1      -8.239  10.566  65.997  1.00  0.00    -0.150 A  
HETATM   18  C   UNL     1     -10.944   6.555  67.394  1.00  0.00    -0.458 A  
HETATM   19  O   UNL     1     -10.764  11.400  68.455  1.00  0.00    -0.182 OA 
HETATM   20  C   UNL     1      -9.905   7.106  66.642  1.00  0.00    -0.169 A  
HETATM   21  C   UNL     1      -8.581   9.121  65.827  1.00  0.00    -0.153 C  
HETATM   22  O   UNL     1      -8.065   8.479  64.919  1.00  0.00    -0.129 OA 
HETATM   23  C   UNL     1     -11.703   7.371  68.220  1.00  0.00     1.334 A  
HETATM   24  C   UNL     1      -9.622   8.494  66.682  1.00  0.00    -0.292 A  
HETATM   25  O   UNL     1     -12.217   9.450  69.144  1.00  0.00     1.068 OA 
HETATM   26  H   UNL     1      -9.366   5.337  65.820  1.00  0.00     0.000 HD 
HETATM   27  C   UNL     1     -10.376   9.301  67.535  1.00  0.00    -0.323 A  
HETATM   28  O   UNL     1      -9.177   6.268  65.847  1.00  0.00    -0.127 OA 
HETATM   29  C   UNL     1     -11.418   8.731  68.295  1.00  0.00     1.095 A  
HETATM   30  C   UNL     1     -10.111  10.748  67.638  1.00  0.00    -0.176 C  
BRANCH  14  31
HETATM   31  N   UNL     1      -9.676  13.650  67.534  1.00  0.00    -0.222 NA 
HETATM   32  H   UNL     1     -10.491  14.017  67.043  1.00  0.00     0.000 HD 
BRANCH  31  33
HETATM   33  C   UNL     1      -9.451  14.062  68.912  1.00  0.00     0.012 C  
BRANCH  33  34
HETATM   34  C   UNL     1     -10.690  14.780  69.475  1.00  0.00    -0.215 C  
BRANCH  34  35
HETATM   35  N   UNL     1     -11.560  13.849  70.209  1.00  0.00    -0.488 NA 
HETATM   36  H   UNL     1     -11.460  12.891  69.874  1.00  0.00     0.000 HD 
BRANCH  35  37
HETATM   37  C   UNL     1     -11.317  13.953  71.653  1.00  0.00     1.788 C  
BRANCH  37  38
HETATM   38  C   UNL     1     -12.517  13.420  72.440  1.00  0.00     0.309 C  
HETATM   39  O   UNL     1     -12.445  13.838  73.801  1.00  0.00     0.474 OA 
HETATM   40  H   UNL     1     -13.190  13.506  74.290  1.00  0.00     0.000 HD 
ENDBRANCH  37  38
ENDBRANCH  35  37
ENDBRANCH  34  35
ENDBRANCH  33  34
ENDBRANCH  31  33
ENDBRANCH  14  31
ENDBRANCH   9  11
ENDBRANCH   8   9
ENDBRANCH   7   8
ENDBRANCH   5   7
ENDBRANCH   4   5
ENDBRANCH   3   4
TORSDOF 12
ENDMDL
MODEL      231
REMARK 921   NORMALIZED FREE ENERGY PREDICTED BY IDOCK:   10.76 KCAL/MOL
REMARK 922        TOTAL FREE ENERGY PREDICTED BY IDOCK:   16.04 KCAL/MOL
REMARK 923 INTER-LIGAND FREE ENERGY PREDICTED BY IDOCK:   13.87 KCAL/MOL
REMARK 924 INTRA-LIGAND FREE ENERGY PREDICTED BY IDOCK:    2.17 KCAL/MOL
REMARK 927      BINDING AFFINITY PREDICTED BY RF-SCORE:    0.00 PKD
ROOT
HETATM    1  O   UNL     1      -8.058   4.754  68.513  1.00  0.00    -0.084 OA 
HETATM    2  H   UNL     1      -7.287   5.258  68.743  1.00  0.00     0.000 HD 
HETATM    3  C   UNL     1      -9.197   5.606  68.426  1.00  0.00    -0.118 C  
ENDROOT
BRANCH   3   4
HETATM    4  C   UNL     1     -10.439   4.793  68.054  1.00  0.00     0.188 C  
BRANCH   4   5
HETATM    5  N   UNL     1     -10.257   3.962  66.854  1.00  0.00    -0.155 NA 
HETATM    6  H   UNL     1      -9.758   3.100  67.073  1.00  0.00     0.000 HD 
BRANCH   5   7
HETATM    7  C   UNL     1     -11.531   3.686  66.178  1.00  0.00     4.941 C  
BRANCH   7   8
HETATM    8  C   UNL     1     -12.399   4.950  66.125  1.00  0.00     6.108 C  
BRANCH   8   9
HETATM    9  N   UNL     1     -11.645   6.073  65.597  1.00  0.00     1.211 NA 
HETATM   10  H   UNL     1     -11.502   6.135  64.589  1.00  0.00     0.000 HD 
BRANCH   9  11
HETATM   11  C   UNL     1     -11.113   7.067  66.405  1.00  0.00     0.979 A  
HETATM   12  C   UNL     1     -11.874   7.563  67.463  1.00  0.00     2.327 A  
HETATM   13  C   UNL     1     -11.397   8.578  68.275  1.00  0.00     0.798 A  
HETATM   14  C   UNL     1     -10.175   9.203  68.018  1.00  0.00    -0.211 A  
HETATM   15  H   UNL     1      -4.714  10.968  65.700  1.00  0.00     0.000 HD 
HETATM   16  C   UNL     1      -9.397   8.733  66.928  1.00  0.00    -0.213 A  
HETATM   17  C   UNL     1      -9.836   7.637  66.162  1.00  0.00     0.044 A  
HETATM   18  C   UNL     1      -5.596   7.884  63.457  1.00  0.00    -0.054 A  
HETATM   19  O   UNL     1      -7.734  10.415  67.152  1.00  0.00    -0.098 OA 
HETATM   20  C   UNL     1      -6.822   7.271  63.725  1.00  0.00    -0.053 A  
HETATM   21  C   UNL     1      -8.928   7.043  65.135  1.00  0.00     0.395 C  
HETATM   22  O   UNL     1      -9.187   5.942  64.661  1.00  0.00     0.337 OA 
HETATM   23  C   UNL     1      -5.198   8.981  64.207  1.00  0.00    -0.054 A  
HETATM   24  C   UNL     1      -7.662   7.730  64.770  1.00  0.00    -0.119 A  
HETATM   25  O   UNL     1      -5.548  10.554  65.892  1.00  0.00    -0.076 OA 
HETATM   26  H   UNL     1      -6.618   5.891  62.259  1.00  0.00     0.000 HD 
HETATM   27  C   UNL     1      -7.261   8.848  65.502  1.00  0.00    -0.084 A  
HETATM   28  O   UNL     1      -7.181   6.199  62.959  1.00  0.00    -0.048 OA 
HETATM   29  C   UNL     1      -6.025   9.463  65.216  1.00  0.00    -0.063 A  
HETATM   30  C   UNL     1      -8.106   9.386  66.584  1.00  0.00    -0.108 C  
BRANCH  14  31
HETATM   31  N   UNL     1      -9.734  10.178  68.895  1.00  0.00    -0.177 NA 
HETATM   32  H   UNL     1      -9.279   9.885  69.760  1.00  0.00     0.000 HD 
BRANCH  31  33
HETATM   33  C   UNL     1      -9.890  11.603  68.640  1.00  0.00    -0.165 C  
BRANCH  33  34
HETATM   34  C   UNL     1     -10.482  11.844  67.240  1.00  0.00    -0.222 C  
BRANCH  34  35
HETATM   35  N   UNL     1     -11.666  12.714  67.302  1.00  0.00    -0.365 NA 
HETATM   36  H   UNL     1     -11.738  13.194  68.199  1.00  0.00     0.000 HD 
BRANCH  35  37
HETATM   37  C   UNL     1     -11.669  13.655  66.175  1.00  0.00    -0.364 C  
BRANCH  37  38
HETATM   38  C   UNL     1     -10.512  13.353  65.220  1.00  0.00    -0.324 C  
HETATM   39  O   UNL     1     -10.869  12.305  64.322  1.00  0.00    -0.300 OA 
HETATM   40  H   UNL     1     -10.151  12.116  63.729  1.00  0.00     0.000 HD 
ENDBRANCH  37  38
ENDBRANCH  35  37
ENDBRANCH  34  35
ENDBRANCH  33  34
ENDBRANCH  31  33
ENDBRANCH  14  31
ENDBRANCH   9  11
ENDBRANCH   8   9
ENDBRANCH   7   8
ENDBRANCH   5   7
ENDBRANCH   4   5
ENDBRANCH   3   4
TORSDOF 12
ENDMDL
MODEL      232
REMARK 921   NORMALIZED FREE ENERGY PREDICTED BY IDOCK:   10.86 KCAL/MOL
REMARK 922        TOTAL FREE ENERGY PREDICTED BY IDOCK:   16.22 KCAL/MOL
REMARK 923 INTER-LIGAND FREE ENERGY PREDICTED BY IDOCK:   10.28 KCAL/MOL
REMARK 924 INTRA-LIGAND FREE ENERGY PREDICTED BY IDOCK:    5.94 KCAL/MOL
REMARK 927      BINDING AFFINITY PREDICTED BY RF-SCORE:    0.00 PKD
ROOT
HETATM    1  O   UNL     1      -6.522  16.016  70.608  1.00  0.00     0.310 OA 
HETATM    2  H   UNL     1      -5.805  15.779  71.183  1.00  0.00     0.000 HD 
HETATM    3  C   UNL     1      -6.125  17.072  69.736  1.00  0.00    -0.227 C  
ENDROOT
BRANCH   3   4
HETATM    4  C   UNL     1      -7.281  17.454  68.807  1.00  0.00    -0.249 C  
BRANCH   4   5
HETATM    5  N   UNL     1      -7.019  18.667  68.017  1.00  0.00    -0.231 NA 
HETATM    6  H   UNL     1      -6.460  19.339  68.544  1.00  0.00     0.000 HD 
BRANCH   5   7
HETATM    7  C   UNL     1      -6.399  18.355  66.722  1.00  0.00    -0.179 C  
BRANCH   7   8
HETATM    8  C   UNL     1      -7.356  17.533  65.850  1.00  0.00    -0.145 C  
BRANCH   8   9
HETATM    9  N   UNL     1      -7.778  16.327  66.540  1.00  0.00    -0.256 NA 
HETATM   10  H   UNL     1      -7.125  15.546  66.603  1.00  0.00     0.000 HD 
BRANCH   9  11
HETATM   11  C   UNL     1      -9.033  16.191  67.116  1.00  0.00    -0.200 A  
HETATM   12  C   UNL     1      -9.401  17.048  68.153  1.00  0.00    -0.254 A  
HETATM   13  C   UNL     1     -10.629  16.928  68.781  1.00  0.00    -0.355 A  
HETATM   14  C   UNL     1     -11.513  15.896  68.460  1.00  0.00    -0.377 A  
HETATM   15  H   UNL     1     -14.314  10.938  66.035  1.00  0.00     0.000 HD 
HETATM   16  C   UNL     1     -11.146  14.994  67.427  1.00  0.00    -0.324 A  
HETATM   17  C   UNL     1      -9.941  15.174  66.722  1.00  0.00    -0.246 A  
HETATM   18  C   UNL     1     -11.101  11.228  63.818  1.00  0.00    -0.313 A  
HETATM   19  O   UNL     1     -13.037  13.589  67.730  1.00  0.00     1.402 OA 
HETATM   20  C   UNL     1     -10.227  12.264  64.151  1.00  0.00    -0.349 A  
HETATM   21  C   UNL     1      -9.653  14.328  65.525  1.00  0.00    -0.040 C  
HETATM   22  O   UNL     1      -8.753  14.651  64.756  1.00  0.00     2.903 OA 
HETATM   23  C   UNL     1     -12.270  11.053  64.545  1.00  0.00     1.725 A  
HETATM   24  C   UNL     1     -10.520  13.164  65.206  1.00  0.00    -0.319 A  
HETATM   25  O   UNL     1     -13.727  11.649  66.265  1.00  0.00     7.334 OA 
HETATM   26  H   UNL     1      -8.888  11.795  62.708  1.00  0.00     0.000 HD 
HETATM   27  C   UNL     1     -11.686  12.964  65.945  1.00  0.00    -0.449 A  
HETATM   28  O   UNL     1      -9.085  12.398  63.415  1.00  0.00     0.284 OA 
HETATM   29  C   UNL     1     -12.557  11.909  65.604  1.00  0.00     1.428 A  
HETATM   30  C   UNL     1     -12.030  13.852  67.070  1.00  0.00    -0.424 C  
BRANCH  14  31
HETATM   31  N   UNL     1     -12.744  15.860  69.091  1.00  0.00    -0.182 NA 
HETATM   32  H   UNL     1     -13.562  15.587  68.546  1.00  0.00     0.000 HD 
BRANCH  31  33
HETATM   33  C   UNL     1     -12.924  16.192  70.497  1.00  0.00     1.036 C  
BRANCH  33  34
HETATM   34  C   UNL     1     -13.842  15.168  71.186  1.00  0.00    -0.419 C  
BRANCH  34  35
HETATM   35  N   UNL     1     -13.948  15.430  72.629  1.00  0.00    -0.520 NA 
HETATM   36  H   UNL     1     -14.544  14.746  73.096  1.00  0.00     0.000 HD 
BRANCH  35  37
HETATM   37  C   UNL     1     -12.613  15.498  73.236  1.00  0.00    -0.499 C  
BRANCH  37  38
HETATM   38  C   UNL     1     -11.615  16.140  72.270  1.00  0.00    -0.332 C  
HETATM   39  O   UNL     1     -10.372  15.444  72.302  1.00  0.00     0.744 OA 
HETATM   40  H   UNL     1      -9.752  15.843  71.703  1.00  0.00     0.000 HD 
ENDBRANCH  37  38
ENDBRANCH  35  37
ENDBRANCH  34  35
ENDBRANCH  33  34
ENDBRANCH  31  33
ENDBRANCH  14  31
ENDBRANCH   9  11
ENDBRANCH   8   9
ENDBRANCH   7   8
ENDBRANCH   5   7
ENDBRANCH   4   5
ENDBRANCH   3   4
TORSDOF 12
ENDMDL
MODEL      233
REMARK 921   NORMALIZED FREE ENERGY PREDICTED BY IDOCK:   14.06 KCAL/MOL
REMARK 922        TOTAL FREE ENERGY PREDICTED BY IDOCK:   21.66 KCAL/MOL
REMARK 923 INTER-LIGAND FREE ENERGY PREDICTED BY IDOCK:   13.10 KCAL/MOL
REMARK 924 INTRA-LIGAND FREE ENERGY PREDICTED BY IDOCK:    8.56 KCAL/MOL
REMARK 927      BINDING AFFINITY PREDICTED BY RF-SCORE:    0.00 PKD
ROOT
HETATM    1  O   UNL     1      -9.950  15.128  73.090  1.00  0.00     3.474 OA 
HETATM    2  H   UNL     1      -9.122  15.211  73.549  1.00  0.00     0.000 HD 
HETATM    3  C   UNL     1     -11.014  14.948  74.022  1.00  0.00     2.668 C  
ENDROOT
BRANCH   3   4
HETATM    4  C   UNL     1     -12.348  14.814  73.282  1.00  0.00    -0.320 C  
BRANCH   4   5
HETATM    5  N   UNL     1     -12.543  15.834  72.240  1.00  0.00    -0.416 NA 
HETATM    6  H   UNL     1     -11.755  16.481  72.203  1.00  0.00     0.000 HD 
BRANCH   5   7
HETATM    7  C   UNL     1     -12.803  15.232  70.926  1.00  0.00    -0.449 C  
BRANCH   7   8
HETATM    8  C   UNL     1     -12.960  13.711  71.050  1.00  0.00    -0.232 C  
BRANCH   8   9
HETATM    9  N   UNL     1     -11.692  13.040  70.832  1.00  0.00    -0.242 NA 
HETATM   10  H   UNL     1     -11.258  12.548  71.614  1.00  0.00     0.000 HD 
BRANCH   9  11
HETATM   11  C   UNL     1     -11.044  13.039  69.606  1.00  0.00     0.091 A  
HETATM   12  C   UNL     1     -11.451  13.938  68.621  1.00  0.00    -0.333 A  
HETATM   13  C   UNL     1     -10.856  13.950  67.371  1.00  0.00    -0.291 A  
HETATM   14  C   UNL     1      -9.885  13.011  67.017  1.00  0.00    -0.238 A  
HETATM   15  H   UNL     1      -5.820   8.346  66.896  1.00  0.00     0.000 HD 
HETATM   16  C   UNL     1      -9.476  12.068  67.996  1.00  0.00    -0.199 A  
HETATM   17  C   UNL     1     -10.010  12.117  69.297  1.00  0.00     0.444 A  
HETATM   18  C   UNL     1      -7.023   8.285  70.620  1.00  0.00    -0.038 A  
HETATM   19  O   UNL     1      -8.062  10.867  66.511  1.00  0.00    -0.143 OA 
HETATM   20  C   UNL     1      -7.995   9.230  70.959  1.00  0.00    -0.069 A  
HETATM   21  C   UNL     1      -9.442  11.235  70.361  1.00  0.00     3.006 C  
HETATM   22  O   UNL     1      -9.708  11.458  71.538  1.00  0.00     6.977 OA 
HETATM   23  C   UNL     1      -6.532   8.238  69.324  1.00  0.00    -0.039 A  
HETATM   24  C   UNL     1      -8.475  10.164  70.008  1.00  0.00    -0.036 A  
HETATM   25  O   UNL     1      -6.477   8.995  67.119  1.00  0.00    -0.059 OA 
HETATM   26  H   UNL     1      -8.135   8.613  72.881  1.00  0.00     0.000 HD 
HETATM   27  C   UNL     1      -7.992  10.091  68.701  1.00  0.00    -0.097 A  
HETATM   28  O   UNL     1      -8.457   9.239  72.243  1.00  0.00    -0.109 OA 
HETATM   29  C   UNL     1      -7.017   9.128  68.371  1.00  0.00    -0.068 A  
HETATM   30  C   UNL     1      -8.474  11.020  67.663  1.00  0.00    -0.121 C  
BRANCH  14  31
HETATM   31  N   UNL     1      -9.296  13.107  65.769  1.00  0.00    -0.457 NA 
HETATM   32  H   UNL     1      -9.158  14.034  65.365  1.00  0.00     0.000 HD 
BRANCH  31  33
HETATM   33  C   UNL     1      -8.865  11.945  65.004  1.00  0.00     0.582 C  
BRANCH  33  34
HETATM   34  C   UNL     1      -9.688  10.704  65.389  1.00  0.00    -0.252 C  
BRANCH  34  35
HETATM   35  N   UNL     1     -11.125  10.928  65.175  1.00  0.00     0.039 NA 
HETATM   36  H   UNL     1     -11.573  11.334  65.997  1.00  0.00     0.000 HD 
BRANCH  35  37
HETATM   37  C   UNL     1     -11.343  11.744  63.974  1.00  0.00    -0.381 C  
BRANCH  37  38
HETATM   38  C   UNL     1     -10.420  11.289  62.841  1.00  0.00     0.006 C  
HETATM   39  O   UNL     1      -9.653  12.387  62.353  1.00  0.00     0.406 OA 
HETATM   40  H   UNL     1      -9.080  12.105  61.649  1.00  0.00     0.000 HD 
ENDBRANCH  37  38
ENDBRANCH  35  37
ENDBRANCH  34  35
ENDBRANCH  33  34
ENDBRANCH  31  33
ENDBRANCH  14  31
ENDBRANCH   9  11
ENDBRANCH   8   9
ENDBRANCH   7   8
ENDBRANCH   5   7
ENDBRANCH   4   5
ENDBRANCH   3   4
TORSDOF 12
ENDMDL
MODEL      234
REMARK 921   NORMALIZED FREE ENERGY PREDICTED BY IDOCK:   17.45 KCAL/MOL
REMARK 922        TOTAL FREE ENERGY PREDICTED BY IDOCK:   27.43 KCAL/MOL
REMARK 923 INTER-LIGAND FREE ENERGY PREDICTED BY IDOCK:    3.86 KCAL/MOL
REMARK 924 INTRA-LIGAND FREE ENERGY PREDICTED BY IDOCK:   23.57 KCAL/MOL
REMARK 927      BINDING AFFINITY PREDICTED BY RF-SCORE:    0.00 PKD
ROOT
HETATM    1  O   UNL     1      -9.679   7.839  64.594  1.00  0.00     1.333 OA 
HETATM    2  H   UNL     1      -9.438   8.602  65.106  1.00  0.00     0.000 HD 
HETATM    3  C   UNL     1      -8.517   7.244  64.020  1.00  0.00     0.311 C  
ENDROOT
BRANCH   3   4
HETATM    4  C   UNL     1      -8.906   6.014  63.195  1.00  0.00     0.485 C  
BRANCH   4   5
HETATM    5  N   UNL     1     -10.358   5.795  63.121  1.00  0.00     2.405 NA 
HETATM    6  H   UNL     1     -10.686   5.808  62.155  1.00  0.00     0.000 HD 
BRANCH   5   7
HETATM    7  C   UNL     1     -10.762   4.560  63.806  1.00  0.00     0.465 C  
BRANCH   7   8
HETATM    8  C   UNL     1     -10.761   4.761  65.326  1.00  0.00     0.018 C  
BRANCH   8   9
HETATM    9  N   UNL     1      -9.543   4.235  65.917  1.00  0.00    -0.174 NA 
HETATM   10  H   UNL     1      -9.036   3.501  65.422  1.00  0.00     0.000 HD 
BRANCH   9  11
HETATM   11  C   UNL     1      -9.039   4.688  67.127  1.00  0.00    -0.122 A  
HETATM   12  C   UNL     1      -9.202   3.905  68.269  1.00  0.00    -0.209 A  
HETATM   13  C   UNL     1      -8.746   4.333  69.504  1.00  0.00    -0.121 A  
HETATM   14  C   UNL     1      -8.180   5.598  69.673  1.00  0.00    -0.107 A  
HETATM   15  H   UNL     1      -5.944  11.317  68.900  1.00  0.00     0.000 HD 
HETATM   16  C   UNL     1      -8.031   6.424  68.528  1.00  0.00    -0.106 A  
HETATM   17  C   UNL     1      -8.406   5.952  67.257  1.00  0.00    -0.105 A  
HETATM   18  C   UNL     1      -6.779  10.262  65.224  1.00  0.00    -0.126 A  
HETATM   19  O   UNL     1      -7.234   8.295  69.757  1.00  0.00    -0.058 OA 
HETATM   20  C   UNL     1      -7.345   8.994  65.071  1.00  0.00    -0.096 A  
HETATM   21  C   UNL     1      -8.079   6.761  66.044  1.00  0.00    -0.119 C  
HETATM   22  O   UNL     1      -8.154   6.244  64.933  1.00  0.00    -0.126 OA 
HETATM   23  C   UNL     1      -6.444  10.718  66.490  1.00  0.00    -0.119 A  
HETATM   24  C   UNL     1      -7.562   8.146  66.185  1.00  0.00    -0.089 A  
HETATM   25  O   UNL     1      -6.324  10.452  68.804  1.00  0.00    -0.047 OA 
HETATM   26  H   UNL     1      -7.521   9.155  63.061  1.00  0.00     0.000 HD 
HETATM   27  C   UNL     1      -7.244   8.625  67.456  1.00  0.00    -0.081 A  
HETATM   28  O   UNL     1      -7.666   8.586  63.808  1.00  0.00    -0.126 OA 
HETATM   29  C   UNL     1      -6.680   9.909  67.598  1.00  0.00    -0.073 A  
HETATM   30  C   UNL     1      -7.471   7.797  68.655  1.00  0.00    -0.100 C  
BRANCH  14  31
HETATM   31  N   UNL     1      -7.701   5.947  70.923  1.00  0.00    -0.096 NA 
HETATM   32  H   UNL     1      -7.694   5.237  71.657  1.00  0.00     0.000 HD 
BRANCH  31  33
HETATM   33  C   UNL     1      -7.208   7.279  71.240  1.00  0.00    -0.072 C  
BRANCH  33  34
HETATM   34  C   UNL     1      -7.876   7.819  72.515  1.00  0.00    -0.108 C  
BRANCH  34  35
HETATM   35  N   UNL     1      -6.879   8.141  73.547  1.00  0.00    -0.116 NA 
HETATM   36  H   UNL     1      -6.426   7.303  73.912  1.00  0.00     0.000 HD 
BRANCH  35  37
HETATM   37  C   UNL     1      -5.905   9.111  73.031  1.00  0.00     0.028 C  
BRANCH  37  38
HETATM   38  C   UNL     1      -6.603  10.173  72.179  1.00  0.00     1.576 C  
HETATM   39  O   UNL     1      -5.689  11.211  71.830  1.00  0.00    -0.266 OA 
HETATM   40  H   UNL     1      -6.122  11.870  71.301  1.00  0.00     0.000 HD 
ENDBRANCH  37  38
ENDBRANCH  35  37
ENDBRANCH  34  35
ENDBRANCH  33  34
ENDBRANCH  31  33
ENDBRANCH  14  31
ENDBRANCH   9  11
ENDBRANCH   8   9
ENDBRANCH   7   8
ENDBRANCH   5   7
ENDBRANCH   4   5
ENDBRANCH   3   4
TORSDOF 12
ENDMDL
MODEL      235
REMARK 921   NORMALIZED FREE ENERGY PREDICTED BY IDOCK:   20.63 KCAL/MOL
REMARK 922        TOTAL FREE ENERGY PREDICTED BY IDOCK:   32.84 KCAL/MOL
REMARK 923 INTER-LIGAND FREE ENERGY PREDICTED BY IDOCK:   13.95 KCAL/MOL
REMARK 924 INTRA-LIGAND FREE ENERGY PREDICTED BY IDOCK:   18.88 KCAL/MOL
REMARK 927      BINDING AFFINITY PREDICTED BY RF-SCORE:    0.00 PKD
ROOT
HETATM    1  O   UNL     1     -13.625  14.193  64.895  1.00  0.00     0.080 OA 
HETATM    2  H   UNL     1     -14.423  13.814  64.546  1.00  0.00     0.000 HD 
HETATM    3  C   UNL     1     -13.916  14.970  66.055  1.00  0.00     4.458 C  
ENDROOT
BRANCH   3   4
HETATM    4  C   UNL     1     -12.630  15.580  66.619  1.00  0.00     1.762 C  
BRANCH   4   5
HETATM    5  N   UNL     1     -12.513  15.451  68.079  1.00  0.00     0.008 NA 
HETATM    6  H   UNL     1     -12.833  16.296  68.552  1.00  0.00     0.000 HD 
BRANCH   5   7
HETATM    7  C   UNL     1     -13.212  14.261  68.582  1.00  0.00     2.862 C  
BRANCH   7   8
HETATM    8  C   UNL     1     -12.207  13.224  69.099  1.00  0.00    -0.124 C  
BRANCH   8   9
HETATM    9  N   UNL     1     -11.193  12.942  68.098  1.00  0.00    -0.253 NA 
HETATM   10  H   UNL     1     -11.488  12.775  67.137  1.00  0.00     0.000 HD 
BRANCH   9  11
HETATM   11  C   UNL     1      -9.839  12.893  68.396  1.00  0.00    -0.197 A  
HETATM   12  C   UNL     1      -9.308  11.733  68.960  1.00  0.00     0.194 A  
HETATM   13  C   UNL     1      -7.970  11.651  69.304  1.00  0.00     0.265 A  
HETATM   14  C   UNL     1      -7.117  12.749  69.180  1.00  0.00     0.032 A  
HETATM   15  H   UNL     1      -4.616  18.305  68.091  1.00  0.00     0.000 HD 
HETATM   16  C   UNL     1      -7.643  13.949  68.635  1.00  0.00    -0.130 A  
HETATM   17  C   UNL     1      -8.978  14.004  68.194  1.00  0.00    -0.183 A  
HETATM   18  C   UNL     1      -8.238  18.747  66.675  1.00  0.00    -0.298 A  
HETATM   19  O   UNL     1      -5.653  15.198  68.987  1.00  0.00    -0.096 OA 
HETATM   20  C   UNL     1      -9.080  17.640  66.807  1.00  0.00    -0.260 A  
HETATM   21  C   UNL     1      -9.466  15.212  67.463  1.00  0.00    -0.206 C  
HETATM   22  O   UNL     1     -10.526  15.161  66.847  1.00  0.00    -0.271 OA 
HETATM   23  C   UNL     1      -6.934  18.679  67.142  1.00  0.00    -0.211 A  
HETATM   24  C   UNL     1      -8.621  16.432  67.389  1.00  0.00    -0.193 A  
HETATM   25  O   UNL     1      -5.181  17.546  68.181  1.00  0.00    -0.135 OA 
HETATM   26  H   UNL     1     -10.666  18.560  65.950  1.00  0.00     0.000 HD 
HETATM   27  C   UNL     1      -7.315  16.384  67.877  1.00  0.00    -0.146 A  
HETATM   28  O   UNL     1     -10.358  17.751  66.340  1.00  0.00    -0.356 OA 
HETATM   29  C   UNL     1      -6.478  17.511  67.744  1.00  0.00    -0.154 A  
HETATM   30  C   UNL     1      -6.791  15.163  68.515  1.00  0.00    -0.108 C  
BRANCH  14  31
HETATM   31  N   UNL     1      -5.780  12.587  69.497  1.00  0.00    -0.088 NA 
HETATM   32  H   UNL     1      -5.124  12.368  68.746  1.00  0.00     0.000 HD 
BRANCH  31  33
HETATM   33  C   UNL     1      -5.265  12.716  70.853  1.00  0.00    -0.158 C  
BRANCH  33  34
HETATM   34  C   UNL     1      -6.317  13.355  71.776  1.00  0.00     1.671 C  
BRANCH  34  35
HETATM   35  N   UNL     1      -7.596  13.548  71.077  1.00  0.00     2.704 NA 
HETATM   36  H   UNL     1      -8.390  13.270  71.653  1.00  0.00     0.000 HD 
BRANCH  35  37
HETATM   37  C   UNL     1      -7.718  14.935  70.609  1.00  0.00     1.280 C  
BRANCH  37  38
HETATM   38  C   UNL     1      -6.662  15.822  71.274  1.00  0.00     2.005 C  
HETATM   39  O   UNL     1      -5.760  15.030  72.042  1.00  0.00     0.202 OA 
HETATM   40  H   UNL     1      -5.105  15.580  72.455  1.00  0.00     0.000 HD 
ENDBRANCH  37  38
ENDBRANCH  35  37
ENDBRANCH  34  35
ENDBRANCH  33  34
ENDBRANCH  31  33
ENDBRANCH  14  31
ENDBRANCH   9  11
ENDBRANCH   8   9
ENDBRANCH   7   8
ENDBRANCH   5   7
ENDBRANCH   4   5
ENDBRANCH   3   4
TORSDOF 12
ENDMDL
MODEL      236
REMARK 921   NORMALIZED FREE ENERGY PREDICTED BY IDOCK:   21.45 KCAL/MOL
REMARK 922        TOTAL FREE ENERGY PREDICTED BY IDOCK:   34.23 KCAL/MOL
REMARK 923 INTER-LIGAND FREE ENERGY PREDICTED BY IDOCK:   27.00 KCAL/MOL
REMARK 924 INTRA-LIGAND FREE ENERGY PREDICTED BY IDOCK:    7.23 KCAL/MOL
REMARK 927      BINDING AFFINITY PREDICTED BY RF-SCORE:    0.00 PKD
ROOT
HETATM    1  O   UNL     1      -7.149  14.795  67.862  1.00  0.00    -0.124 OA 
HETATM    2  H   UNL     1      -8.003  14.387  67.943  1.00  0.00     0.000 HD 
HETATM    3  C   UNL     1      -7.274  16.088  67.275  1.00  0.00    -0.206 C  
ENDROOT
BRANCH   3   4
HETATM    4  C   UNL     1      -5.897  16.746  67.144  1.00  0.00    -0.171 C  
BRANCH   4   5
HETATM    5  N   UNL     1      -5.525  17.051  65.754  1.00  0.00     0.068 NA 
HETATM    6  H   UNL     1      -4.633  17.542  65.709  1.00  0.00     0.000 HD 
BRANCH   5   7
HETATM    7  C   UNL     1      -5.516  15.847  64.912  1.00  0.00     9.513 C  
BRANCH   7   8
HETATM    8  C   UNL     1      -5.248  14.598  65.760  1.00  0.00     8.159 C  
BRANCH   8   9
HETATM    9  N   UNL     1      -6.305  13.617  65.585  1.00  0.00     6.700 NA 
HETATM   10  H   UNL     1      -6.705  13.490  64.656  1.00  0.00     0.000 HD 
BRANCH   9  11
HETATM   11  C   UNL     1      -6.793  12.846  66.629  1.00  0.00     1.183 A  
HETATM   12  C   UNL     1      -5.945  11.932  67.255  1.00  0.00    -0.134 A  
HETATM   13  C   UNL     1      -6.398  11.118  68.278  1.00  0.00    -0.049 A  
HETATM   14  C   UNL     1      -7.738  11.116  68.669  1.00  0.00    -0.135 A  
HETATM   15  H   UNL     1     -13.802  12.189  69.295  1.00  0.00     0.000 HD 
HETATM   16  C   UNL     1      -8.626  12.018  68.026  1.00  0.00    -0.170 A  
HETATM   17  C   UNL     1      -8.146  12.915  67.053  1.00  0.00    -0.057 A  
HETATM   18  C   UNL     1     -12.766  14.876  66.644  1.00  0.00     0.936 A  
HETATM   19  O   UNL     1     -10.559  11.195  69.135  1.00  0.00    -0.213 OA 
HETATM   20  C   UNL     1     -11.423  14.864  66.262  1.00  0.00    -0.269 A  
HETATM   21  C   UNL     1      -9.052  13.974  66.515  1.00  0.00    -0.150 C  
HETATM   22  O   UNL     1      -8.578  14.913  65.883  1.00  0.00     0.307 OA 
HETATM   23  C   UNL     1     -13.222  13.963  67.584  1.00  0.00     3.294 A  
HETATM   24  C   UNL     1     -10.502  13.952  66.836  1.00  0.00    -0.276 A  
HETATM   25  O   UNL     1     -12.886  12.177  69.044  1.00  0.00     0.609 OA 
HETATM   26  H   UNL     1     -11.632  16.385  64.944  1.00  0.00     0.000 HD 
HETATM   27  C   UNL     1     -10.978  13.023  67.762  1.00  0.00    -0.273 A  
HETATM   28  O   UNL     1     -11.016  15.774  65.329  1.00  0.00    -0.364 OA 
HETATM   29  C   UNL     1     -12.338  13.041  68.134  1.00  0.00     0.215 A  
HETATM   30  C   UNL     1     -10.072  12.033  68.374  1.00  0.00    -0.210 C  
BRANCH  14  31
HETATM   31  N   UNL     1      -8.117  10.313  69.730  1.00  0.00    -0.309 NA 
HETATM   32  H   UNL     1      -8.874  10.631  70.336  1.00  0.00     0.000 HD 
BRANCH  31  33
HETATM   33  C   UNL     1      -7.485   9.034  70.021  1.00  0.00    -0.062 C  
BRANCH  33  34
HETATM   34  C   UNL     1      -8.542   7.964  70.343  1.00  0.00    -0.132 C  
BRANCH  34  35
HETATM   35  N   UNL     1      -8.919   7.205  69.142  1.00  0.00    -0.138 NA 
HETATM   36  H   UNL     1      -8.925   6.200  69.313  1.00  0.00     0.000 HD 
BRANCH  35  37
HETATM   37  C   UNL     1     -10.207   7.679  68.620  1.00  0.00    -0.199 C  
BRANCH  37  38
HETATM   38  C   UNL     1      -9.991   8.634  67.443  1.00  0.00    -0.210 C  
HETATM   39  O   UNL     1      -8.934   8.165  66.609  1.00  0.00    -0.136 OA 
HETATM   40  H   UNL     1      -8.800   8.758  65.879  1.00  0.00     0.000 HD 
ENDBRANCH  37  38
ENDBRANCH  35  37
ENDBRANCH  34  35
ENDBRANCH  33  34
ENDBRANCH  31  33
ENDBRANCH  14  31
ENDBRANCH   9  11
ENDBRANCH   8   9
ENDBRANCH   7   8
ENDBRANCH   5   7
ENDBRANCH   4   5
ENDBRANCH   3   4
TORSDOF 12
ENDMDL
MODEL      237
REMARK 921   NORMALIZED FREE ENERGY PREDICTED BY IDOCK:   21.48 KCAL/MOL
REMARK 922        TOTAL FREE ENERGY PREDICTED BY IDOCK:   34.29 KCAL/MOL
REMARK 923 INTER-LIGAND FREE ENERGY PREDICTED BY IDOCK:   27.85 KCAL/MOL
REMARK 924 INTRA-LIGAND FREE ENERGY PREDICTED BY IDOCK:    6.44 KCAL/MOL
REMARK 927      BINDING AFFINITY PREDICTED BY RF-SCORE:    0.00 PKD
ROOT
HETATM    1  O   UNL     1      -7.061  19.356  64.017  1.00  0.00     0.978 OA 
HETATM    2  H   UNL     1      -7.537  18.538  64.098  1.00  0.00     0.000 HD 
HETATM    3  C   UNL     1      -6.590  19.521  62.681  1.00  0.00     2.576 C  
ENDROOT
BRANCH   3   4
HETATM    4  C   UNL     1      -5.823  20.839  62.550  1.00  0.00    -0.239 C  
BRANCH   4   5
HETATM    5  N   UNL     1      -5.281  21.330  63.826  1.00  0.00    -0.208 NA 
HETATM    6  H   UNL     1      -5.560  22.296  64.000  1.00  0.00     0.000 HD 
BRANCH   5   7
HETATM    7  C   UNL     1      -5.648  20.457  64.949  1.00  0.00    -0.191 C  
BRANCH   7   8
HETATM    8  C   UNL     1      -7.167  20.456  65.158  1.00  0.00    -0.013 C  
BRANCH   8   9
HETATM    9  N   UNL     1      -7.500  20.169  66.541  1.00  0.00    -0.274 NA 
HETATM   10  H   UNL     1      -7.745  20.944  67.156  1.00  0.00     0.000 HD 
BRANCH   9  11
HETATM   11  C   UNL     1      -7.500  18.883  67.062  1.00  0.00    -0.216 A  
HETATM   12  C   UNL     1      -6.333  18.381  67.636  1.00  0.00    -0.191 A  
HETATM   13  C   UNL     1      -6.276  17.092  68.138  1.00  0.00    -0.136 A  
HETATM   14  C   UNL     1      -7.356  16.215  68.015  1.00  0.00    -0.129 A  
HETATM   15  H   UNL     1     -12.800  13.545  66.772  1.00  0.00     0.000 HD 
HETATM   16  C   UNL     1      -8.545  16.696  67.407  1.00  0.00    -0.203 A  
HETATM   17  C   UNL     1      -8.636  18.035  66.985  1.00  0.00    -0.254 A  
HETATM   18  C   UNL     1     -13.410  17.230  65.600  1.00  0.00    11.296 A  
HETATM   19  O   UNL     1      -9.644  14.590  67.464  1.00  0.00    -0.206 OA 
HETATM   20  C   UNL     1     -12.321  18.095  65.728  1.00  0.00     6.955 A  
HETATM   21  C   UNL     1      -9.948  18.573  66.513  1.00  0.00    -0.380 C  
HETATM   22  O   UNL     1     -10.102  19.785  66.403  1.00  0.00    -0.412 OA 
HETATM   23  C   UNL     1     -13.288  15.906  65.997  1.00  0.00     4.380 A  
HETATM   24  C   UNL     1     -11.093  17.655  66.283  1.00  0.00     0.517 A  
HETATM   25  O   UNL     1     -12.056  14.128  66.867  1.00  0.00    -0.430 OA 
HETATM   26  H   UNL     1     -13.303  19.682  64.948  1.00  0.00     0.000 HD 
HETATM   27  C   UNL     1     -10.974  16.316  66.655  1.00  0.00    -0.016 A  
HETATM   28  O   UNL     1     -12.480  19.387  65.320  1.00  0.00     5.417 OA 
HETATM   29  C   UNL     1     -12.079  15.451  66.514  1.00  0.00     0.600 A  
HETATM   30  C   UNL     1      -9.713  15.795  67.214  1.00  0.00    -0.223 C  
BRANCH  14  31
HETATM   31  N   UNL     1      -7.252  14.956  68.579  1.00  0.00    -0.108 NA 
HETATM   32  H   UNL     1      -7.671  14.797  69.495  1.00  0.00     0.000 HD 
BRANCH  31  33
HETATM   33  C   UNL     1      -6.574  13.847  67.923  1.00  0.00    -0.161 C  
BRANCH  33  34
HETATM   34  C   UNL     1      -7.568  12.723  67.584  1.00  0.00    -0.152 C  
BRANCH  34  35
HETATM   35  N   UNL     1      -6.904  11.617  66.879  1.00  0.00    -0.227 NA 
HETATM   36  H   UNL     1      -6.477  10.955  67.527  1.00  0.00     0.000 HD 
BRANCH  35  37
HETATM   37  C   UNL     1      -7.844  10.957  65.963  1.00  0.00    -0.121 C  
BRANCH  37  38
HETATM   38  C   UNL     1      -9.255  10.947  66.557  1.00  0.00    -0.171 C  
HETATM   39  O   UNL     1      -9.830   9.647  66.450  1.00  0.00    -0.208 OA 
HETATM   40  H   UNL     1     -10.706   9.641  66.818  1.00  0.00     0.000 HD 
ENDBRANCH  37  38
ENDBRANCH  35  37
ENDBRANCH  34  35
ENDBRANCH  33  34
ENDBRANCH  31  33
ENDBRANCH  14  31
ENDBRANCH   9  11
ENDBRANCH   8   9
ENDBRANCH   7   8
ENDBRANCH   5   7
ENDBRANCH   4   5
ENDBRANCH   3   4
TORSDOF 12
ENDMDL
MODEL      238
REMARK 921   NORMALIZED FREE ENERGY PREDICTED BY IDOCK:   28.66 KCAL/MOL
REMARK 922        TOTAL FREE ENERGY PREDICTED BY IDOCK:   46.51 KCAL/MOL
REMARK 923 INTER-LIGAND FREE ENERGY PREDICTED BY IDOCK:   16.95 KCAL/MOL
REMARK 924 INTRA-LIGAND FREE ENERGY PREDICTED BY IDOCK:   29.56 KCAL/MOL
REMARK 927      BINDING AFFINITY PREDICTED BY RF-SCORE:    0.00 PKD
ROOT
HETATM    1  O   UNL     1     -11.387  16.275  65.662  1.00  0.00     0.082 OA 
HETATM    2  H   UNL     1     -12.058  16.171  64.998  1.00  0.00     0.000 HD 
HETATM    3  C   UNL     1     -10.219  16.863  65.094  1.00  0.00     0.296 C  
ENDROOT
BRANCH   3   4
HETATM    4  C   UNL     1      -9.138  17.031  66.165  1.00  0.00    -0.204 C  
BRANCH   4   5
HETATM    5  N   UNL     1      -9.320  16.144  67.324  1.00  0.00    -0.212 NA 
HETATM    6  H   UNL     1      -8.973  16.577  68.180  1.00  0.00     0.000 HD 
BRANCH   5   7
HETATM    7  C   UNL     1     -10.717  15.713  67.471  1.00  0.00    -0.303 C  
BRANCH   7   8
HETATM    8  C   UNL     1     -11.506  16.722  68.314  1.00  0.00     0.094 C  
BRANCH   8   9
HETATM    9  N   UNL     1     -10.934  16.847  69.643  1.00  0.00    -0.365 NA 
HETATM   10  H   UNL     1     -11.222  17.631  70.227  1.00  0.00     0.000 HD 
BRANCH   9  11
HETATM   11  C   UNL     1     -10.012  15.943  70.151  1.00  0.00     0.091 A  
HETATM   12  C   UNL     1      -9.512  16.132  71.439  1.00  0.00     4.350 A  
HETATM   13  C   UNL     1      -8.566  15.276  71.974  1.00  0.00     6.284 A  
HETATM   14  C   UNL     1      -8.011  14.240  71.219  1.00  0.00     4.258 A  
HETATM   15  H   UNL     1      -6.506  10.197  66.781  1.00  0.00     0.000 HD 
HETATM   16  C   UNL     1      -8.484  14.048  69.895  1.00  0.00     1.409 A  
HETATM   17  C   UNL     1      -9.515  14.857  69.383  1.00  0.00    -0.068 A  
HETATM   18  C   UNL     1      -9.428  12.195  65.110  1.00  0.00     0.049 A  
HETATM   19  O   UNL     1      -6.924  12.327  69.393  1.00  0.00    -0.050 OA 
HETATM   20  C   UNL     1      -9.972  13.227  65.877  1.00  0.00    -0.272 A  
HETATM   21  C   UNL     1     -10.123  14.529  68.058  1.00  0.00    -0.226 C  
HETATM   22  O   UNL     1     -11.184  15.051  67.733  1.00  0.00    -0.299 OA 
HETATM   23  C   UNL     1      -8.393  11.428  65.625  1.00  0.00     0.168 A  
HETATM   24  C   UNL     1      -9.505  13.496  67.188  1.00  0.00    -0.244 A  
HETATM   25  O   UNL     1      -6.873  10.895  67.311  1.00  0.00    -0.076 OA 
HETATM   26  H   UNL     1     -11.299  13.783  64.453  1.00  0.00     0.000 HD 
HETATM   27  C   UNL     1      -8.447  12.735  67.684  1.00  0.00    -0.178 A  
HETATM   28  O   UNL     1     -10.985  13.962  65.332  1.00  0.00    -0.300 OA 
HETATM   29  C   UNL     1      -7.902  11.700  66.898  1.00  0.00    -0.156 A  
HETATM   30  C   UNL     1      -7.901  12.985  69.031  1.00  0.00     0.249 C  
BRANCH  14  31
HETATM   31  N   UNL     1      -7.104  13.391  71.828  1.00  0.00     3.048 NA 
HETATM   32  H   UNL     1      -7.301  12.390  71.829  1.00  0.00     0.000 HD 
BRANCH  31  33
HETATM   33  C   UNL     1      -5.883  13.861  72.467  1.00  0.00     0.265 C  
BRANCH  33  34
HETATM   34  C   UNL     1      -5.170  14.898  71.583  1.00  0.00    -0.109 C  
BRANCH  34  35
HETATM   35  N   UNL     1      -5.862  15.071  70.297  1.00  0.00    -0.141 NA 
HETATM   36  H   UNL     1      -6.875  15.001  70.398  1.00  0.00     0.000 HD 
BRANCH  35  37
HETATM   37  C   UNL     1      -5.461  16.335  69.666  1.00  0.00    -0.140 C  
BRANCH  37  38
HETATM   38  C   UNL     1      -6.332  16.625  68.441  1.00  0.00    -0.133 C  
HETATM   39  O   UNL     1      -6.892  17.933  68.528  1.00  0.00    -0.217 OA 
HETATM   40  H   UNL     1      -7.433  18.113  67.768  1.00  0.00     0.000 HD 
ENDBRANCH  37  38
ENDBRANCH  35  37
ENDBRANCH  34  35
ENDBRANCH  33  34
ENDBRANCH  31  33
ENDBRANCH  14  31
ENDBRANCH   9  11
ENDBRANCH   8   9
ENDBRANCH   7   8
ENDBRANCH   5   7
ENDBRANCH   4   5
ENDBRANCH   3   4
TORSDOF 12
ENDMDL
MODEL      239
REMARK 921   NORMALIZED FREE ENERGY PREDICTED BY IDOCK:   39.66 KCAL/MOL
REMARK 922        TOTAL FREE ENERGY PREDICTED BY IDOCK:   65.22 KCAL/MOL
REMARK 923 INTER-LIGAND FREE ENERGY PREDICTED BY IDOCK:   58.27 KCAL/MOL
REMARK 924 INTRA-LIGAND FREE ENERGY PREDICTED BY IDOCK:    6.95 KCAL/MOL
REMARK 927      BINDING AFFINITY PREDICTED BY RF-SCORE:    0.00 PKD
ROOT
HETATM    1  O   UNL     1     -13.869  10.362  67.738  1.00  0.00     9.910 OA 
HETATM    2  H   UNL     1     -13.822  10.848  68.553  1.00  0.00     0.000 HD 
HETATM    3  C   UNL     1     -14.098  11.251  66.647  1.00  0.00    17.742 C  
ENDROOT
BRANCH   3   4
HETATM    4  C   UNL     1     -14.174  10.468  65.334  1.00  0.00    16.188 C  
BRANCH   4   5
HETATM    5  N   UNL     1     -12.880   9.912  64.910  1.00  0.00     9.759 NA 
HETATM    6  H   UNL     1     -12.958   8.919  64.690  1.00  0.00     0.000 HD 
BRANCH   5   7
HETATM    7  C   UNL     1     -12.301  10.663  63.788  1.00  0.00     3.550 C  
BRANCH   7   8
HETATM    8  C   UNL     1     -10.938  11.248  64.177  1.00  0.00    -0.305 C  
BRANCH   8   9
HETATM    9  N   UNL     1     -11.013  12.691  64.315  1.00  0.00    -0.340 NA 
HETATM   10  H   UNL     1     -11.744  13.193  63.810  1.00  0.00     0.000 HD 
BRANCH   9  11
HETATM   11  C   UNL     1     -10.133  13.416  65.104  1.00  0.00    -0.246 A  
HETATM   12  C   UNL     1     -10.145  14.809  65.035  1.00  0.00    -0.308 A  
HETATM   13  C   UNL     1      -9.263  15.572  65.778  1.00  0.00    -0.216 A  
HETATM   14  C   UNL     1      -8.271  14.981  66.563  1.00  0.00     0.150 A  
HETATM   15  H   UNL     1      -4.508  11.048  69.510  1.00  0.00     0.000 HD 
HETATM   16  C   UNL     1      -8.221  13.564  66.626  1.00  0.00     0.348 A  
HETATM   17  C   UNL     1      -9.179  12.788  65.947  1.00  0.00     0.102 A  
HETATM   18  C   UNL     1      -7.082   8.619  67.838  1.00  0.00    -0.083 A  
HETATM   19  O   UNL     1      -6.238  13.508  67.933  1.00  0.00    -0.124 OA 
HETATM   20  C   UNL     1      -8.068   9.225  67.056  1.00  0.00    -0.112 A  
HETATM   21  C   UNL     1      -9.222  11.311  66.166  1.00  0.00    -0.206 C  
HETATM   22  O   UNL     1     -10.205  10.673  65.800  1.00  0.00    -0.253 OA 
HETATM   23  C   UNL     1      -6.131   9.402  68.475  1.00  0.00    -0.044 A  
HETATM   24  C   UNL     1      -8.134  10.634  66.918  1.00  0.00    -0.124 A  
HETATM   25  O   UNL     1      -5.178  11.469  68.984  1.00  0.00    -0.044 OA 
HETATM   26  H   UNL     1      -8.936   7.474  66.533  1.00  0.00     0.000 HD 
HETATM   27  C   UNL     1      -7.158  11.410  67.543  1.00  0.00    -0.106 A  
HETATM   28  O   UNL     1      -8.981   8.418  66.440  1.00  0.00    -0.150 OA 
HETATM   29  C   UNL     1      -6.164  10.785  68.324  1.00  0.00    -0.053 A  
HETATM   30  C   UNL     1      -7.162  12.879  67.415  1.00  0.00    -0.126 C  
BRANCH  14  31
HETATM   31  N   UNL     1      -7.450  15.799  67.319  1.00  0.00    -0.197 NA 
HETATM   32  H   UNL     1      -7.764  16.748  67.523  1.00  0.00     0.000 HD 
BRANCH  31  33
HETATM   33  C   UNL     1      -6.160  15.367  67.837  1.00  0.00    -0.150 C  
BRANCH  33  34
HETATM   34  C   UNL     1      -5.916  15.944  69.242  1.00  0.00    -0.128 C  
BRANCH  34  35
HETATM   35  N   UNL     1      -6.431  17.316  69.354  1.00  0.00    -0.242 NA 
HETATM   36  H   UNL     1      -7.447  17.335  69.443  1.00  0.00     0.000 HD 
BRANCH  35  37
HETATM   37  C   UNL     1      -5.771  18.022  70.460  1.00  0.00    -0.104 C  
BRANCH  37  38
HETATM   38  C   UNL     1      -6.776  18.336  71.572  1.00  0.00     3.488 C  
HETATM   39  O   UNL     1      -6.111  18.908  72.696  1.00  0.00     0.694 OA 
HETATM   40  H   UNL     1      -6.734  19.103  73.386  1.00  0.00     0.000 HD 
ENDBRANCH  37  38
ENDBRANCH  35  37
ENDBRANCH  34  35
ENDBRANCH  33  34
ENDBRANCH  31  33
ENDBRANCH  14  31
ENDBRANCH   9  11
ENDBRANCH   8   9
ENDBRANCH   7   8
ENDBRANCH   5   7
ENDBRANCH   4   5
ENDBRANCH   3   4
TORSDOF 12
ENDMDL
MODEL      240
REMARK 921   NORMALIZED FREE ENERGY PREDICTED BY IDOCK:   46.87 KCAL/MOL
REMARK 922        TOTAL FREE ENERGY PREDICTED BY IDOCK:   77.49 KCAL/MOL
REMARK 923 INTER-LIGAND FREE ENERGY PREDICTED BY IDOCK:   59.56 KCAL/MOL
REMARK 924 INTRA-LIGAND FREE ENERGY PREDICTED BY IDOCK:   17.92 KCAL/MOL
REMARK 927      BINDING AFFINITY PREDICTED BY RF-SCORE:    0.00 PKD
ROOT
HETATM    1  O   UNL     1      -8.106   4.942  68.358  1.00  0.00    -0.085 OA 
HETATM    2  H   UNL     1      -7.464   5.631  68.240  1.00  0.00     0.000 HD 
HETATM    3  C   UNL     1      -9.417   5.440  68.101  1.00  0.00    -0.118 C  
ENDROOT
BRANCH   3   4
HETATM    4  C   UNL     1     -10.452   4.328  68.290  1.00  0.00     0.742 C  
BRANCH   4   5
HETATM    5  N   UNL     1     -10.071   3.060  67.650  1.00  0.00     0.227 NA 
HETATM    6  H   UNL     1      -9.358   2.571  68.192  1.00  0.00     0.000 HD 
BRANCH   5   7
HETATM    7  C   UNL     1     -11.236   2.199  67.401  1.00  0.00     8.722 C  
BRANCH   7   8
HETATM    8  C   UNL     1     -12.506   3.044  67.243  1.00  0.00    21.983 C  
BRANCH   8   9
HETATM    9  N   UNL     1     -12.223   4.277  66.532  1.00  0.00     6.247 NA 
HETATM   10  H   UNL     1     -12.354   4.300  65.520  1.00  0.00     0.000 HD 
BRANCH   9  11
HETATM   11  C   UNL     1     -11.782   5.427  67.169  1.00  0.00     2.915 A  
HETATM   12  C   UNL     1     -12.189   5.678  68.479  1.00  0.00     5.354 A  
HETATM   13  C   UNL     1     -11.801   6.829  69.143  1.00  0.00     0.365 A  
HETATM   14  C   UNL     1     -11.059   7.823  68.504  1.00  0.00     0.328 A  
HETATM   15  H   UNL     1      -7.855  11.255  64.470  1.00  0.00     0.000 HD 
HETATM   16  C   UNL     1     -10.658   7.602  67.160  1.00  0.00    -0.410 A  
HETATM   17  C   UNL     1     -10.969   6.391  66.516  1.00  0.00    -0.014 A  
HETATM   18  C   UNL     1      -8.460   7.961  62.443  1.00  0.00    -0.035 A  
HETATM   19  O   UNL     1      -9.701   9.761  66.898  1.00  0.00    -0.174 OA 
HETATM   20  C   UNL     1      -9.205   6.976  63.095  1.00  0.00     1.938 A  
HETATM   21  C   UNL     1     -10.390   6.101  65.169  1.00  0.00     2.253 C  
HETATM   22  O   UNL     1     -10.431   4.957  64.726  1.00  0.00     0.250 OA 
HETATM   23  C   UNL     1      -8.190   9.159  63.087  1.00  0.00    -0.176 A  
HETATM   24  C   UNL     1      -9.672   7.164  64.420  1.00  0.00     3.337 A  
HETATM   25  O   UNL     1      -8.359  10.588  64.922  1.00  0.00    -0.170 OA 
HETATM   26  H   UNL     1      -9.141   5.688  61.536  1.00  0.00     0.000 HD 
HETATM   27  C   UNL     1      -9.416   8.382  65.049  1.00  0.00     0.706 A  
HETATM   28  O   UNL     1      -9.454   5.814  62.423  1.00  0.00     0.397 OA 
HETATM   29  C   UNL     1      -8.669   9.371  64.376  1.00  0.00    -0.199 A  
HETATM   30  C   UNL     1      -9.899   8.644  66.417  1.00  0.00    -0.270 C  
BRANCH  14  31
HETATM   31  N   UNL     1     -10.663   8.928  69.237  1.00  0.00    -0.345 NA 
HETATM   32  H   UNL     1     -10.040   8.787  70.033  1.00  0.00     0.000 HD 
BRANCH  31  33
HETATM   33  C   UNL     1     -11.096  10.283  68.926  1.00  0.00    -0.231 C  
BRANCH  33  34
HETATM   34  C   UNL     1     -11.570  10.381  67.466  1.00  0.00     0.464 C  
BRANCH  34  35
HETATM   35  N   UNL     1     -12.771  11.221  67.349  1.00  0.00     2.175 NA 
HETATM   36  H   UNL     1     -12.924  11.785  68.185  1.00  0.00     0.000 HD 
BRANCH  35  37
HETATM   37  C   UNL     1     -12.702  12.047  66.137  1.00  0.00     2.132 C  
BRANCH  37  38
HETATM   38  C   UNL     1     -13.052  13.503  66.457  1.00  0.00     1.198 C  
HETATM   39  O   UNL     1     -13.923  14.035  65.462  1.00  0.00     0.061 OA 
HETATM   40  H   UNL     1     -14.140  14.939  65.660  1.00  0.00     0.000 HD 
ENDBRANCH  37  38
ENDBRANCH  35  37
ENDBRANCH  34  35
ENDBRANCH  33  34
ENDBRANCH  31  33
ENDBRANCH  14  31
ENDBRANCH   9  11
ENDBRANCH   8   9
ENDBRANCH   7   8
ENDBRANCH   5   7
ENDBRANCH   4   5
ENDBRANCH   3   4
TORSDOF 12
ENDMDL
