MODEL        1
REMARK 921   NORMALIZED FREE ENERGY PREDICTED BY IDOCK:   -8.32 KCAL/MOL
REMARK 922        TOTAL FREE ENERGY PREDICTED BY IDOCK:  -12.16 KCAL/MOL
REMARK 923 INTER-LIGAND FREE ENERGY PREDICTED BY IDOCK:  -10.75 KCAL/MOL
REMARK 924 INTRA-LIGAND FREE ENERGY PREDICTED BY IDOCK:   -1.41 KCAL/MOL
REMARK 927      BINDING AFFINITY PREDICTED BY RF-SCORE:    0.00 PKD
ROOT
HETATM    1  C   UNL     1     -11.205  16.338  64.671  1.00  0.00    -0.254 C  
HETATM    2  N   UNL     1     -10.478  16.159  65.946  1.00  0.00    -0.346 NA 
ENDROOT
BRANCH   2   3
HETATM    3  C   UNL     1     -10.006  14.760  66.164  1.00  0.00    -0.304 C  
HETATM    4  C   UNL     1     -11.124  13.739  66.011  1.00  0.00    -0.291 C  
HETATM    5  C   UNL     1      -9.137  14.525  67.391  1.00  0.00    -0.201 C  
HETATM    6  C   UNL     1     -11.874  13.433  67.294  1.00  0.00    -0.376 C  
HETATM    7  N   UNL     1     -10.983  13.077  68.399  1.00  0.00    -0.251 NA 
HETATM    8  C   UNL     1      -9.750  13.824  68.603  1.00  0.00    -0.140 C  
BRANCH   7   9
HETATM    9  C   UNL     1     -11.367  12.030  69.207  1.00  0.00    -0.268 A  
HETATM   10  C   UNL     1     -11.394  10.076  70.149  1.00  0.00    -0.291 A  
HETATM   11  N   UNL     1     -10.888  10.802  69.103  1.00  0.00    -0.220 NA 
HETATM   12  C   UNL     1     -12.275  10.841  70.896  1.00  0.00    -0.384 A  
HETATM   13  N   UNL     1     -12.300  12.064  70.242  1.00  0.00    -0.240 NA 
HETATM   14  C   UNL     1     -12.922  10.352  72.043  1.00  0.00    -0.499 A  
HETATM   15  C   UNL     1     -12.633   9.040  72.431  1.00  0.00    -0.403 A  
HETATM   16  C   UNL     1     -11.755   8.249  71.689  1.00  0.00    -0.341 A  
HETATM   17  C   UNL     1     -11.135   8.753  70.538  1.00  0.00    -0.278 A  
BRANCH  13  18
HETATM   18  C   UNL     1     -13.271  13.095  70.587  1.00  0.00     0.353 C  
BRANCH  18  19
HETATM   19  C   UNL     1     -12.739  14.127  71.562  1.00  0.00    -0.436 A  
HETATM   20  C   UNL     1     -13.046  13.980  72.924  1.00  0.00    -0.481 A  
HETATM   21  C   UNL     1     -12.758  15.005  73.825  1.00  0.00    -0.612 A  
HETATM   22  C   UNL     1     -12.133  16.161  73.373  1.00  0.00    -0.483 A  
HETATM   23  F   UNL     1     -11.938  17.180  74.219  1.00  0.00    -0.506 F  
HETATM   24  C   UNL     1     -11.725  16.281  72.053  1.00  0.00    -0.528 A  
HETATM   25  C   UNL     1     -12.004  15.255  71.153  1.00  0.00    -0.400 A  
ENDBRANCH  18  19
ENDBRANCH  13  18
ENDBRANCH   7   9
ENDBRANCH   2   3
BRANCH   2  26
HETATM   26  C   UNL     1      -9.780  17.270  66.381  1.00  0.00    -0.290 C  
HETATM   27  C   UNL     1      -7.946  18.645  66.446  1.00  0.00    -0.277 C  
HETATM   28  H   UNL     1     -11.361  17.867  67.544  1.00  0.00     0.000 HD 
HETATM   29  C   UNL     1      -9.873  19.268  67.712  1.00  0.00    -0.340 C  
HETATM   30  N   UNL     1      -8.566  17.523  65.968  1.00  0.00    -0.527 NA 
HETATM   31  O   UNL     1     -10.471  20.035  68.459  1.00  0.00    -0.411 OA 
HETATM   32  N   UNL     1     -10.420  18.113  67.239  1.00  0.00    -0.392 N  
HETATM   33  C   UNL     1      -8.500  19.533  67.269  1.00  0.00    -0.333 C  
ENDBRANCH   2  26
TORSDOF 5
ENDMDL
MODEL        2
REMARK 921   NORMALIZED FREE ENERGY PREDICTED BY IDOCK:   -8.20 KCAL/MOL
REMARK 922        TOTAL FREE ENERGY PREDICTED BY IDOCK:  -12.00 KCAL/MOL
REMARK 923 INTER-LIGAND FREE ENERGY PREDICTED BY IDOCK:  -10.40 KCAL/MOL
REMARK 924 INTRA-LIGAND FREE ENERGY PREDICTED BY IDOCK:   -1.60 KCAL/MOL
REMARK 927      BINDING AFFINITY PREDICTED BY RF-SCORE:    0.00 PKD
ROOT
HETATM    1  C   UNL     1     -10.020  20.077  66.095  1.00  0.00    -0.468 C  
HETATM    2  N   UNL     1      -8.854  19.374  66.671  1.00  0.00    -0.322 NA 
ENDROOT
BRANCH   2   3
HETATM    3  C   UNL     1      -8.984  17.888  66.630  1.00  0.00    -0.268 C  
HETATM    4  C   UNL     1     -10.436  17.431  66.619  1.00  0.00    -0.253 C  
HETATM    5  C   UNL     1      -8.113  17.107  67.603  1.00  0.00    -0.187 C  
HETATM    6  C   UNL     1     -11.033  17.207  67.996  1.00  0.00    -0.229 C  
HETATM    7  N   UNL     1     -10.212  16.332  68.833  1.00  0.00    -0.241 NA 
HETATM    8  C   UNL     1      -8.764  16.488  68.839  1.00  0.00    -0.247 C  
BRANCH   7   9
HETATM    9  C   UNL     1     -10.867  15.386  69.590  1.00  0.00    -0.283 A  
HETATM   10  C   UNL     1     -12.147  14.505  71.103  1.00  0.00    -0.344 A  
HETATM   11  N   UNL     1     -11.514  15.655  70.710  1.00  0.00    -0.344 NA 
HETATM   12  C   UNL     1     -11.836  13.459  70.251  1.00  0.00    -0.245 A  
HETATM   13  N   UNL     1     -10.962  14.020  69.330  1.00  0.00    -0.201 NA 
HETATM   14  C   UNL     1     -12.368  12.168  70.407  1.00  0.00    -0.315 A  
HETATM   15  C   UNL     1     -13.258  11.965  71.465  1.00  0.00    -0.283 A  
HETATM   16  C   UNL     1     -13.580  13.003  72.340  1.00  0.00    -0.628 A  
HETATM   17  C   UNL     1     -13.023  14.278  72.176  1.00  0.00    -0.456 A  
BRANCH  13  18
HETATM   18  C   UNL     1     -10.229  13.200  68.375  1.00  0.00    -0.247 C  
BRANCH  18  19
HETATM   19  C   UNL     1     -10.734  13.327  66.952  1.00  0.00    -0.274 A  
HETATM   20  C   UNL     1     -11.989  12.780  66.636  1.00  0.00    -0.411 A  
HETATM   21  C   UNL     1     -12.402  12.691  65.308  1.00  0.00    -0.528 A  
HETATM   22  C   UNL     1     -11.581  13.176  64.297  1.00  0.00    -0.392 A  
HETATM   23  F   UNL     1     -11.938  13.008  63.018  1.00  0.00    -0.601 F  
HETATM   24  C   UNL     1     -10.388  13.816  64.596  1.00  0.00    -0.393 A  
HETATM   25  C   UNL     1      -9.975  13.915  65.923  1.00  0.00    -0.317 A  
ENDBRANCH  18  19
ENDBRANCH  13  18
ENDBRANCH   7   9
ENDBRANCH   2   3
BRANCH   2  26
HETATM   26  C   UNL     1      -7.647  20.033  66.533  1.00  0.00    -0.288 C  
HETATM   27  C   UNL     1      -5.919  21.332  67.298  1.00  0.00    -0.345 C  
HETATM   28  H   UNL     1      -7.471  19.401  64.589  1.00  0.00     0.000 HD 
HETATM   29  C   UNL     1      -5.798  20.485  65.068  1.00  0.00    -0.225 C  
HETATM   30  N   UNL     1      -7.118  20.710  67.518  1.00  0.00    -0.332 NA 
HETATM   31  O   UNL     1      -5.220  20.355  63.994  1.00  0.00    -0.167 OA 
HETATM   32  N   UNL     1      -7.012  19.927  65.332  1.00  0.00    -0.309 N  
HETATM   33  C   UNL     1      -5.220  21.267  66.167  1.00  0.00    -0.257 C  
ENDBRANCH   2  26
TORSDOF 5
ENDMDL
MODEL        3
REMARK 921   NORMALIZED FREE ENERGY PREDICTED BY IDOCK:   -8.00 KCAL/MOL
REMARK 922        TOTAL FREE ENERGY PREDICTED BY IDOCK:  -11.75 KCAL/MOL
REMARK 923 INTER-LIGAND FREE ENERGY PREDICTED BY IDOCK:  -10.57 KCAL/MOL
REMARK 924 INTRA-LIGAND FREE ENERGY PREDICTED BY IDOCK:   -1.18 KCAL/MOL
REMARK 927      BINDING AFFINITY PREDICTED BY RF-SCORE:    0.00 PKD
ROOT
HETATM    1  C   UNL     1     -13.288   8.187  72.070  1.00  0.00    -0.282 C  
HETATM    2  N   UNL     1     -11.815   8.102  71.976  1.00  0.00    -0.316 NA 
ENDROOT
BRANCH   2   3
HETATM    3  C   UNL     1     -11.167   9.413  71.682  1.00  0.00    -0.361 C  
HETATM    4  C   UNL     1     -12.177  10.494  71.326  1.00  0.00    -0.472 C  
HETATM    5  C   UNL     1      -9.967   9.377  70.747  1.00  0.00    -0.358 C  
HETATM    6  C   UNL     1     -12.499  10.590  69.847  1.00  0.00    -0.122 C  
HETATM    7  N   UNL     1     -11.301  10.694  69.013  1.00  0.00    -0.263 NA 
HETATM    8  C   UNL     1     -10.140   9.867  69.309  1.00  0.00    -0.203 C  
BRANCH   7   9
HETATM    9  C   UNL     1     -11.336  11.589  67.967  1.00  0.00    -0.298 A  
HETATM   10  C   UNL     1     -11.712  12.424  66.000  1.00  0.00    -0.410 A  
HETATM   11  N   UNL     1     -11.649  11.263  66.725  1.00  0.00    -0.394 NA 
HETATM   12  C   UNL     1     -11.358  13.510  66.783  1.00  0.00    -0.328 A  
HETATM   13  N   UNL     1     -11.053  12.953  68.017  1.00  0.00    -0.241 NA 
HETATM   14  C   UNL     1     -11.359  14.828  66.298  1.00  0.00    -0.334 A  
HETATM   15  C   UNL     1     -11.752  15.023  64.971  1.00  0.00    -0.291 A  
HETATM   16  C   UNL     1     -12.106  13.942  64.162  1.00  0.00    -0.464 A  
HETATM   17  C   UNL     1     -12.081  12.634  64.663  1.00  0.00    -0.484 A  
BRANCH  13  18
HETATM   18  C   UNL     1     -10.430  13.737  69.076  1.00  0.00    -0.098 C  
BRANCH  18  19
HETATM   19  C   UNL     1     -11.424  14.474  69.950  1.00  0.00    -0.320 A  
HETATM   20  C   UNL     1     -10.979  15.596  70.669  1.00  0.00    -0.364 A  
HETATM   21  C   UNL     1     -11.794  16.179  71.638  1.00  0.00    -0.557 A  
HETATM   22  C   UNL     1     -13.065  15.666  71.866  1.00  0.00    -0.464 A  
HETATM   23  F   UNL     1     -13.812  16.169  72.857  1.00  0.00    -0.630 F  
HETATM   24  C   UNL     1     -13.564  14.628  71.094  1.00  0.00    -0.404 A  
HETATM   25  C   UNL     1     -12.754  14.048  70.119  1.00  0.00    -0.207 A  
ENDBRANCH  18  19
ENDBRANCH  13  18
ENDBRANCH   7   9
ENDBRANCH   2   3
BRANCH   2  26
HETATM   26  C   UNL     1     -11.235   7.132  72.772  1.00  0.00    -0.275 C  
HETATM   27  C   UNL     1      -9.840   6.415  74.446  1.00  0.00    -0.319 C  
HETATM   28  H   UNL     1     -12.297   5.653  71.826  1.00  0.00     0.000 HD 
HETATM   29  C   UNL     1     -11.175   4.791  73.311  1.00  0.00    -0.340 C  
HETATM   30  N   UNL     1     -10.366   7.435  73.700  1.00  0.00    -0.349 NA 
HETATM   31  O   UNL     1     -11.560   3.639  73.143  1.00  0.00    -0.018 OA 
HETATM   32  N   UNL     1     -11.627   5.842  72.572  1.00  0.00    -0.303 N  
HETATM   33  C   UNL     1     -10.179   5.132  74.332  1.00  0.00    -0.301 C  
ENDBRANCH   2  26
TORSDOF 5
ENDMDL
MODEL        4
REMARK 921   NORMALIZED FREE ENERGY PREDICTED BY IDOCK:   -7.90 KCAL/MOL
REMARK 922        TOTAL FREE ENERGY PREDICTED BY IDOCK:  -11.62 KCAL/MOL
REMARK 923 INTER-LIGAND FREE ENERGY PREDICTED BY IDOCK:  -10.24 KCAL/MOL
REMARK 924 INTRA-LIGAND FREE ENERGY PREDICTED BY IDOCK:   -1.37 KCAL/MOL
REMARK 927      BINDING AFFINITY PREDICTED BY RF-SCORE:    0.00 PKD
ROOT
HETATM    1  C   UNL     1     -10.082  20.208  67.004  1.00  0.00    -0.459 C  
HETATM    2  N   UNL     1      -8.846  19.751  67.675  1.00  0.00    -0.322 NA 
ENDROOT
BRANCH   2   3
HETATM    3  C   UNL     1      -8.952  18.368  68.226  1.00  0.00    -0.312 C  
HETATM    4  C   UNL     1      -7.998  17.396  67.546  1.00  0.00    -0.205 C  
HETATM    5  C   UNL     1     -10.360  17.815  68.394  1.00  0.00    -0.378 C  
HETATM    6  C   UNL     1      -8.576  16.700  66.328  1.00  0.00    -0.324 C  
HETATM    7  N   UNL     1      -9.868  16.068  66.598  1.00  0.00    -0.248 NA 
HETATM    8  C   UNL     1     -10.861  16.767  67.401  1.00  0.00    -0.176 C  
BRANCH   7   9
HETATM    9  C   UNL     1     -10.082  14.817  66.065  1.00  0.00    -0.308 A  
HETATM   10  C   UNL     1     -10.539  13.254  64.631  1.00  0.00    -0.404 A  
HETATM   11  N   UNL     1     -10.610  14.601  64.873  1.00  0.00    -0.435 NA 
HETATM   12  C   UNL     1     -10.021  12.586  65.728  1.00  0.00    -0.259 A  
HETATM   13  N   UNL     1      -9.798  13.588  66.661  1.00  0.00    -0.272 NA 
HETATM   14  C   UNL     1      -9.817  11.196  65.744  1.00  0.00    -0.279 A  
HETATM   15  C   UNL     1     -10.146  10.486  64.586  1.00  0.00    -0.408 A  
HETATM   16  C   UNL     1     -10.677  11.138  63.472  1.00  0.00    -0.340 A  
HETATM   17  C   UNL     1     -10.888  12.523  63.485  1.00  0.00    -0.443 A  
BRANCH  13  18
HETATM   18  C   UNL     1      -9.447  13.282  68.042  1.00  0.00    -0.219 C  
BRANCH  18  19
HETATM   19  C   UNL     1     -10.647  13.002  68.925  1.00  0.00    -0.157 A  
HETATM   20  C   UNL     1     -11.287  14.086  69.547  1.00  0.00    -0.298 A  
HETATM   21  C   UNL     1     -12.257  13.864  70.523  1.00  0.00    -0.443 A  
HETATM   22  C   UNL     1     -12.613  12.562  70.855  1.00  0.00    -0.241 A  
HETATM   23  F   UNL     1     -13.478  12.348  71.854  1.00  0.00    -0.514 F  
HETATM   24  C   UNL     1     -12.071  11.481  70.177  1.00  0.00    -0.432 A  
HETATM   25  C   UNL     1     -11.107  11.700  69.195  1.00  0.00    -0.302 A  
ENDBRANCH  18  19
ENDBRANCH  13  18
ENDBRANCH   7   9
ENDBRANCH   2   3
BRANCH   2  26
HETATM   26  C   UNL     1      -7.675  20.273  67.159  1.00  0.00    -0.323 C  
HETATM   27  C   UNL     1      -5.627  21.288  67.339  1.00  0.00    -0.327 C  
HETATM   28  H   UNL     1      -8.249  19.796  65.248  1.00  0.00     0.000 HD 
HETATM   29  C   UNL     1      -6.377  20.629  65.169  1.00  0.00    -0.265 C  
HETATM   30  N   UNL     1      -6.758  20.795  67.930  1.00  0.00    -0.315 NA 
HETATM   31  O   UNL     1      -6.216  20.527  63.958  1.00  0.00    -0.281 OA 
HETATM   32  N   UNL     1      -7.499  20.198  65.810  1.00  0.00    -0.294 N  
HETATM   33  C   UNL     1      -5.362  21.240  66.035  1.00  0.00    -0.256 C  
ENDBRANCH   2  26
TORSDOF 5
ENDMDL
MODEL        5
REMARK 921   NORMALIZED FREE ENERGY PREDICTED BY IDOCK:   -7.76 KCAL/MOL
REMARK 922        TOTAL FREE ENERGY PREDICTED BY IDOCK:  -11.45 KCAL/MOL
REMARK 923 INTER-LIGAND FREE ENERGY PREDICTED BY IDOCK:   -9.90 KCAL/MOL
REMARK 924 INTRA-LIGAND FREE ENERGY PREDICTED BY IDOCK:   -1.55 KCAL/MOL
REMARK 927      BINDING AFFINITY PREDICTED BY RF-SCORE:    0.00 PKD
ROOT
HETATM    1  C   UNL     1     -10.530   8.664  66.712  1.00  0.00    -0.228 C  
HETATM    2  N   UNL     1     -10.546  10.074  66.267  1.00  0.00    -0.107 NA 
ENDROOT
BRANCH   2   3
HETATM    3  C   UNL     1     -10.505  11.048  67.396  1.00  0.00    -0.218 C  
HETATM    4  C   UNL     1     -11.636  12.065  67.328  1.00  0.00    -0.383 C  
HETATM    5  C   UNL     1      -9.151  11.672  67.700  1.00  0.00    -0.174 C  
HETATM    6  C   UNL     1     -11.304  13.321  66.545  1.00  0.00    -0.322 C  
HETATM    7  N   UNL     1     -10.058  13.949  66.984  1.00  0.00    -0.252 NA 
HETATM    8  C   UNL     1      -8.898  13.121  67.286  1.00  0.00    -0.208 C  
BRANCH   7   9
HETATM    9  C   UNL     1     -10.046  15.321  67.091  1.00  0.00    -0.240 A  
HETATM   10  C   UNL     1     -10.157  17.418  66.543  1.00  0.00    -0.320 A  
HETATM   11  N   UNL     1     -10.022  16.144  66.057  1.00  0.00    -0.326 NA 
HETATM   12  C   UNL     1     -10.193  17.413  67.927  1.00  0.00    -0.348 A  
HETATM   13  N   UNL     1     -10.052  16.074  68.265  1.00  0.00    -0.226 NA 
HETATM   14  C   UNL     1     -10.349  18.583  68.687  1.00  0.00    -0.271 A  
HETATM   15  C   UNL     1     -10.486  19.787  67.989  1.00  0.00    -0.523 A  
HETATM   16  C   UNL     1     -10.445  19.816  66.595  1.00  0.00    -0.615 A  
HETATM   17  C   UNL     1     -10.271  18.637  65.858  1.00  0.00    -0.284 A  
BRANCH  13  18
HETATM   18  C   UNL     1      -9.829  15.653  69.642  1.00  0.00    -0.280 C  
BRANCH  18  19
HETATM   19  C   UNL     1     -11.097  15.245  70.364  1.00  0.00    -0.324 A  
HETATM   20  C   UNL     1     -11.691  16.164  71.244  1.00  0.00    -0.480 A  
HETATM   21  C   UNL     1     -12.732  15.764  72.081  1.00  0.00    -0.520 A  
HETATM   22  C   UNL     1     -13.203  14.458  72.017  1.00  0.00    -0.369 A  
HETATM   23  F   UNL     1     -14.140  14.050  72.881  1.00  0.00    -0.460 F  
HETATM   24  C   UNL     1     -12.703  13.566  71.081  1.00  0.00    -0.425 A  
HETATM   25  C   UNL     1     -11.667  13.965  70.237  1.00  0.00    -0.294 A  
ENDBRANCH  18  19
ENDBRANCH  13  18
ENDBRANCH   7   9
ENDBRANCH   2   3
BRANCH   2  26
HETATM   26  C   UNL     1      -9.946  10.306  65.044  1.00  0.00    -0.323 C  
HETATM   27  C   UNL     1      -9.822  11.279  62.971  1.00  0.00    -0.341 C  
HETATM   28  H   UNL     1      -8.380   9.069  65.523  1.00  0.00     0.000 HD 
HETATM   29  C   UNL     1      -8.027   9.866  63.667  1.00  0.00    -0.147 C  
HETATM   30  N   UNL     1     -10.481  11.102  64.156  1.00  0.00    -0.356 NA 
HETATM   31  O   UNL     1      -6.938   9.334  63.478  1.00  0.00    -0.090 OA 
HETATM   32  N   UNL     1      -8.752   9.693  64.807  1.00  0.00    -0.179 N  
HETATM   33  C   UNL     1      -8.646  10.737  62.662  1.00  0.00    -0.266 C  
ENDBRANCH   2  26
TORSDOF 5
ENDMDL
MODEL        6
REMARK 921   NORMALIZED FREE ENERGY PREDICTED BY IDOCK:   -7.75 KCAL/MOL
REMARK 922        TOTAL FREE ENERGY PREDICTED BY IDOCK:  -11.43 KCAL/MOL
REMARK 923 INTER-LIGAND FREE ENERGY PREDICTED BY IDOCK:  -10.27 KCAL/MOL
REMARK 924 INTRA-LIGAND FREE ENERGY PREDICTED BY IDOCK:   -1.17 KCAL/MOL
REMARK 927      BINDING AFFINITY PREDICTED BY RF-SCORE:    0.00 PKD
ROOT
HETATM    1  C   UNL     1      -9.345   9.414  69.345  1.00  0.00    -0.169 C  
HETATM    2  N   UNL     1     -10.328  10.512  69.452  1.00  0.00    -0.231 NA 
ENDROOT
BRANCH   2   3
HETATM    3  C   UNL     1     -10.448  11.318  68.202  1.00  0.00    -0.189 C  
HETATM    4  C   UNL     1      -9.223  12.186  67.949  1.00  0.00    -0.188 C  
HETATM    5  C   UNL     1     -11.763  12.057  67.999  1.00  0.00    -0.398 C  
HETATM    6  C   UNL     1      -9.296  13.570  68.567  1.00  0.00    -0.108 C  
HETATM    7  N   UNL     1     -10.527  14.281  68.216  1.00  0.00    -0.241 NA 
HETATM    8  C   UNL     1     -11.797  13.570  68.215  1.00  0.00    -0.366 C  
BRANCH   7   9
HETATM    9  C   UNL     1     -10.415  15.616  67.899  1.00  0.00    -0.267 A  
HETATM   10  C   UNL     1     -10.422  17.776  68.106  1.00  0.00    -0.377 A  
HETATM   11  N   UNL     1     -10.818  16.599  68.685  1.00  0.00    -0.340 NA 
HETATM   12  C   UNL     1      -9.817  17.540  66.883  1.00  0.00    -0.302 A  
HETATM   13  N   UNL     1      -9.881  16.162  66.732  1.00  0.00    -0.237 NA 
HETATM   14  C   UNL     1      -9.294  18.570  66.083  1.00  0.00    -0.152 A  
HETATM   15  C   UNL     1      -9.390  19.875  66.575  1.00  0.00    -0.501 A  
HETATM   16  C   UNL     1     -10.003  20.136  67.801  1.00  0.00    -0.549 A  
HETATM   17  C   UNL     1     -10.533  19.094  68.573  1.00  0.00    -0.231 A  
BRANCH  13  18
HETATM   18  C   UNL     1      -9.538  15.514  65.473  1.00  0.00    -0.221 C  
BRANCH  18  19
HETATM   19  C   UNL     1     -10.543  14.468  65.035  1.00  0.00    -0.458 A  
HETATM   20  C   UNL     1     -10.095  13.152  64.835  1.00  0.00    -0.236 A  
HETATM   21  C   UNL     1     -10.930  12.208  64.238  1.00  0.00    -0.391 A  
HETATM   22  C   UNL     1     -12.222  12.567  63.872  1.00  0.00    -0.503 A  
HETATM   23  F   UNL     1     -12.991  11.687  63.219  1.00  0.00    -0.680 F  
HETATM   24  C   UNL     1     -12.719  13.829  64.159  1.00  0.00     0.018 A  
HETATM   25  C   UNL     1     -11.890  14.772  64.762  1.00  0.00    -0.425 A  
ENDBRANCH  18  19
ENDBRANCH  13  18
ENDBRANCH   7   9
ENDBRANCH   2   3
BRANCH   2  26
HETATM   26  C   UNL     1     -11.393  10.262  70.297  1.00  0.00    -0.323 C  
HETATM   27  C   UNL     1     -12.831   8.884  71.434  1.00  0.00    -0.289 C  
HETATM   28  H   UNL     1     -11.705  12.271  70.575  1.00  0.00     0.000 HD 
HETATM   29  C   UNL     1     -13.056  11.243  71.726  1.00  0.00    -0.422 C  
HETATM   30  N   UNL     1     -11.768   9.044  70.587  1.00  0.00    -0.244 NA 
HETATM   31  O   UNL     1     -13.594  12.220  72.236  1.00  0.00    -0.472 OA 
HETATM   32  N   UNL     1     -12.023  11.340  70.843  1.00  0.00    -0.293 N  
HETATM   33  C   UNL     1     -13.492   9.875  72.027  1.00  0.00    -0.478 C  
ENDBRANCH   2  26
TORSDOF 5
ENDMDL
MODEL        7
REMARK 921   NORMALIZED FREE ENERGY PREDICTED BY IDOCK:   -7.74 KCAL/MOL
REMARK 922        TOTAL FREE ENERGY PREDICTED BY IDOCK:  -11.41 KCAL/MOL
REMARK 923 INTER-LIGAND FREE ENERGY PREDICTED BY IDOCK:  -10.59 KCAL/MOL
REMARK 924 INTRA-LIGAND FREE ENERGY PREDICTED BY IDOCK:   -0.82 KCAL/MOL
REMARK 927      BINDING AFFINITY PREDICTED BY RF-SCORE:    0.00 PKD
ROOT
HETATM    1  C   UNL     1     -11.061  10.678  68.153  1.00  0.00    -0.285 C  
HETATM    2  N   UNL     1     -10.879  10.303  66.735  1.00  0.00    -0.144 NA 
ENDROOT
BRANCH   2   3
HETATM    3  C   UNL     1     -10.685  11.477  65.835  1.00  0.00    -0.272 C  
HETATM    4  C   UNL     1      -9.415  12.252  66.156  1.00  0.00    -0.221 C  
HETATM    5  C   UNL     1     -11.899  12.369  65.620  1.00  0.00    -0.468 C  
HETATM    6  C   UNL     1      -9.598  13.363  67.174  1.00  0.00    -0.241 C  
HETATM    7  N   UNL     1     -10.696  14.268  66.831  1.00  0.00    -0.288 NA 
HETATM    8  C   UNL     1     -11.947  13.727  66.321  1.00  0.00    -0.429 C  
BRANCH   7   9
HETATM    9  C   UNL     1     -10.482  15.616  67.015  1.00  0.00    -0.303 A  
HETATM   10  C   UNL     1     -10.363  17.743  66.606  1.00  0.00    -0.345 A  
HETATM   11  N   UNL     1     -10.463  16.502  66.035  1.00  0.00    -0.328 NA 
HETATM   12  C   UNL     1     -10.240  17.640  67.982  1.00  0.00    -0.362 A  
HETATM   13  N   UNL     1     -10.248  16.274  68.222  1.00  0.00    -0.245 NA 
HETATM   14  C   UNL     1     -10.144  18.762  68.822  1.00  0.00    -0.407 A  
HETATM   15  C   UNL     1     -10.192  20.022  68.217  1.00  0.00    -0.527 A  
HETATM   16  C   UNL     1     -10.307  20.148  66.832  1.00  0.00    -0.503 A  
HETATM   17  C   UNL     1     -10.384  19.014  66.013  1.00  0.00    -0.512 A  
BRANCH  13  18
HETATM   18  C   UNL     1      -9.930  15.727  69.535  1.00  0.00    -0.283 C  
BRANCH  18  19
HETATM   19  C   UNL     1     -11.145  15.250  70.304  1.00  0.00    -0.316 A  
HETATM   20  C   UNL     1     -11.741  16.129  71.224  1.00  0.00    -0.480 A  
HETATM   21  C   UNL     1     -12.726  15.670  72.098  1.00  0.00    -0.513 A  
HETATM   22  C   UNL     1     -13.139  14.345  72.034  1.00  0.00    -0.361 A  
HETATM   23  F   UNL     1     -14.018  13.883  72.932  1.00  0.00    -0.513 F  
HETATM   24  C   UNL     1     -12.641  13.490  71.063  1.00  0.00    -0.438 A  
HETATM   25  C   UNL     1     -11.663  13.948  70.182  1.00  0.00    -0.314 A  
ENDBRANCH  18  19
ENDBRANCH  13  18
ENDBRANCH   7   9
ENDBRANCH   2   3
BRANCH   2  26
HETATM   26  C   UNL     1     -10.265   9.081  66.529  1.00  0.00    -0.248 C  
HETATM   27  C   UNL     1      -8.636   7.725  65.654  1.00  0.00    -0.127 C  
HETATM   28  H   UNL     1     -11.674   8.127  67.675  1.00  0.00     0.000 HD 
HETATM   29  C   UNL     1     -10.299   6.738  67.056  1.00  0.00    -0.268 C  
HETATM   30  N   UNL     1      -9.181   8.971  65.807  1.00  0.00    -0.222 NA 
HETATM   31  O   UNL     1     -10.789   5.772  67.631  1.00  0.00    -0.258 OA 
HETATM   32  N   UNL     1     -10.820   7.994  67.134  1.00  0.00    -0.203 N  
HETATM   33  C   UNL     1      -9.098   6.614  66.222  1.00  0.00    -0.168 C  
ENDBRANCH   2  26
TORSDOF 5
ENDMDL
MODEL        8
REMARK 921   NORMALIZED FREE ENERGY PREDICTED BY IDOCK:   -7.67 KCAL/MOL
REMARK 922        TOTAL FREE ENERGY PREDICTED BY IDOCK:  -11.33 KCAL/MOL
REMARK 923 INTER-LIGAND FREE ENERGY PREDICTED BY IDOCK:   -9.77 KCAL/MOL
REMARK 924 INTRA-LIGAND FREE ENERGY PREDICTED BY IDOCK:   -1.55 KCAL/MOL
REMARK 927      BINDING AFFINITY PREDICTED BY RF-SCORE:    0.00 PKD
ROOT
HETATM    1  C   UNL     1     -12.356  11.952  63.497  1.00  0.00    -0.490 C  
HETATM    2  N   UNL     1     -10.940  12.353  63.639  1.00  0.00    -0.444 NA 
ENDROOT
BRANCH   2   3
HETATM    3  C   UNL     1     -10.759  13.601  64.437  1.00  0.00    -0.354 C  
HETATM    4  C   UNL     1      -9.915  13.377  65.684  1.00  0.00    -0.249 C  
HETATM    5  C   UNL     1     -12.012  14.424  64.695  1.00  0.00    -0.475 C  
HETATM    6  C   UNL     1     -10.710  12.987  66.916  1.00  0.00    -0.262 C  
HETATM    7  N   UNL     1     -11.818  13.903  67.187  1.00  0.00    -0.389 NA 
HETATM    8  C   UNL     1     -12.640  14.389  66.089  1.00  0.00    -0.154 C  
BRANCH   7   9
HETATM    9  C   UNL     1     -12.031  14.265  68.499  1.00  0.00    -0.317 A  
HETATM   10  C   UNL     1     -12.556  14.129  70.599  1.00  0.00    -0.351 A  
HETATM   11  N   UNL     1     -12.657  13.508  69.383  1.00  0.00     0.064 NA 
HETATM   12  C   UNL     1     -11.915  15.350  70.474  1.00  0.00    -0.357 A  
HETATM   13  N   UNL     1     -11.647  15.455  69.117  1.00  0.00    -0.318 NA 
HETATM   14  C   UNL     1     -11.656  16.188  71.571  1.00  0.00    -0.502 A  
HETATM   15  C   UNL     1     -12.062  15.739  72.831  1.00  0.00    -0.596 A  
HETATM   16  C   UNL     1     -12.717  14.516  72.979  1.00  0.00    -0.491 A  
HETATM   17  C   UNL     1     -12.980  13.704  71.868  1.00  0.00    -0.432 A  
BRANCH  13  18
HETATM   18  C   UNL     1     -11.160  16.695  68.527  1.00  0.00    -0.301 C  
BRANCH  18  19
HETATM   19  C   UNL     1      -9.752  16.593  67.977  1.00  0.00    -0.241 A  
HETATM   20  C   UNL     1      -8.697  16.366  68.875  1.00  0.00    -0.253 A  
HETATM   21  C   UNL     1      -7.374  16.470  68.448  1.00  0.00    -0.179 A  
HETATM   22  C   UNL     1      -7.103  16.767  67.118  1.00  0.00    -0.187 A  
HETATM   23  F   UNL     1      -5.836  16.955  66.729  1.00  0.00    -0.176 F  
HETATM   24  C   UNL     1      -8.127  16.890  66.192  1.00  0.00    -0.295 A  
HETATM   25  C   UNL     1      -9.451  16.778  66.615  1.00  0.00    -0.275 A  
ENDBRANCH  18  19
ENDBRANCH  13  18
ENDBRANCH   7   9
ENDBRANCH   2   3
BRANCH   2  26
HETATM   26  C   UNL     1     -10.036  11.308  63.652  1.00  0.00    -0.382 C  
HETATM   27  C   UNL     1      -8.254  10.125  62.823  1.00  0.00    -0.153 C  
HETATM   28  H   UNL     1     -10.875  10.541  65.359  1.00  0.00     0.000 HD 
HETATM   29  C   UNL     1      -9.277   9.364  64.842  1.00  0.00    -0.183 C  
HETATM   30  N   UNL     1      -9.111  11.189  62.736  1.00  0.00    -0.324 NA 
HETATM   31  O   UNL     1      -9.350   8.586  65.787  1.00  0.00    -0.195 OA 
HETATM   32  N   UNL     1     -10.128  10.415  64.677  1.00  0.00    -0.345 N  
HETATM   33  C   UNL     1      -8.258   9.218  63.797  1.00  0.00    -0.166 C  
ENDBRANCH   2  26
TORSDOF 5
ENDMDL
MODEL        9
REMARK 921   NORMALIZED FREE ENERGY PREDICTED BY IDOCK:   -7.66 KCAL/MOL
REMARK 922        TOTAL FREE ENERGY PREDICTED BY IDOCK:  -11.31 KCAL/MOL
REMARK 923 INTER-LIGAND FREE ENERGY PREDICTED BY IDOCK:   -9.36 KCAL/MOL
REMARK 924 INTRA-LIGAND FREE ENERGY PREDICTED BY IDOCK:   -1.95 KCAL/MOL
REMARK 927      BINDING AFFINITY PREDICTED BY RF-SCORE:    0.00 PKD
ROOT
HETATM    1  C   UNL     1      -7.355   8.332  65.841  1.00  0.00    -0.076 C  
HETATM    2  N   UNL     1      -8.327   8.753  66.872  1.00  0.00    -0.108 NA 
ENDROOT
BRANCH   2   3
HETATM    3  C   UNL     1      -8.791  10.162  66.703  1.00  0.00    -0.132 C  
HETATM    4  C   UNL     1      -8.334  11.065  67.840  1.00  0.00    -0.124 C  
HETATM    5  C   UNL     1     -10.254  10.350  66.333  1.00  0.00    -0.292 C  
HETATM    6  C   UNL     1      -9.299  11.138  69.009  1.00  0.00    -0.049 C  
HETATM    7  N   UNL     1     -10.664  11.462  68.594  1.00  0.00    -0.196 NA 
HETATM    8  C   UNL     1     -11.227  10.837  67.406  1.00  0.00    -0.241 C  
BRANCH   7   9
HETATM    9  C   UNL     1     -11.361  12.362  69.369  1.00  0.00    -0.220 A  
HETATM   10  C   UNL     1     -12.653  13.157  70.921  1.00  0.00    -0.295 A  
HETATM   11  N   UNL     1     -12.283  12.019  70.253  1.00  0.00    -0.298 NA 
HETATM   12  C   UNL     1     -12.005  14.264  70.399  1.00  0.00    -0.332 A  
HETATM   13  N   UNL     1     -11.237  13.751  69.364  1.00  0.00    -0.236 NA 
HETATM   14  C   UNL     1     -12.183  15.559  70.913  1.00  0.00    -0.450 A  
HETATM   15  C   UNL     1     -13.043  15.704  72.006  1.00  0.00    -0.541 A  
HETATM   16  C   UNL     1     -13.711  14.603  72.542  1.00  0.00    -0.572 A  
HETATM   17  C   UNL     1     -13.532  13.323  72.002  1.00  0.00    -0.596 A  
BRANCH  13  18
HETATM   18  C   UNL     1     -10.555  14.621  68.415  1.00  0.00    -0.241 C  
BRANCH  18  19
HETATM   19  C   UNL     1     -10.950  14.374  66.973  1.00  0.00    -0.304 A  
HETATM   20  C   UNL     1     -12.316  14.280  66.660  1.00  0.00    -0.320 A  
HETATM   21  C   UNL     1     -12.721  13.852  65.397  1.00  0.00    -0.525 A  
HETATM   22  C   UNL     1     -11.764  13.549  64.435  1.00  0.00    -0.407 A  
HETATM   23  F   UNL     1     -12.151  13.053  63.253  1.00  0.00    -0.558 F  
HETATM   24  C   UNL     1     -10.414  13.738  64.688  1.00  0.00    -0.433 A  
HETATM   25  C   UNL     1     -10.007  14.174  65.948  1.00  0.00    -0.331 A  
ENDBRANCH  18  19
ENDBRANCH  13  18
ENDBRANCH   7   9
ENDBRANCH   2   3
BRANCH   2  26
HETATM   26  C   UNL     1      -9.135   7.744  67.360  1.00  0.00    -0.126 C  
HETATM   27  C   UNL     1     -10.289   6.660  69.019  1.00  0.00    -0.192 C  
HETATM   28  H   UNL     1      -9.267   6.886  65.501  1.00  0.00     0.000 HD 
HETATM   29  C   UNL     1     -10.416   5.791  66.799  1.00  0.00    -0.287 C  
HETATM   30  N   UNL     1      -9.486   7.693  68.618  1.00  0.00    -0.151 NA 
HETATM   31  O   UNL     1     -10.835   4.978  65.982  1.00  0.00    -0.283 OA 
HETATM   32  N   UNL     1      -9.579   6.813  66.469  1.00  0.00    -0.165 N  
HETATM   33  C   UNL     1     -10.784   5.721  68.217  1.00  0.00    -0.285 C  
ENDBRANCH   2  26
TORSDOF 5
ENDMDL
MODEL       10
REMARK 921   NORMALIZED FREE ENERGY PREDICTED BY IDOCK:   -7.60 KCAL/MOL
REMARK 922        TOTAL FREE ENERGY PREDICTED BY IDOCK:  -11.23 KCAL/MOL
REMARK 923 INTER-LIGAND FREE ENERGY PREDICTED BY IDOCK:   -9.44 KCAL/MOL
REMARK 924 INTRA-LIGAND FREE ENERGY PREDICTED BY IDOCK:   -1.79 KCAL/MOL
REMARK 927      BINDING AFFINITY PREDICTED BY RF-SCORE:    0.00 PKD
ROOT
HETATM    1  C   UNL     1      -9.622  11.547  63.145  1.00  0.00    -0.360 C  
HETATM    2  N   UNL     1     -10.099  11.410  64.537  1.00  0.00    -0.267 NA 
ENDROOT
BRANCH   2   3
HETATM    3  C   UNL     1      -9.184  10.605  65.397  1.00  0.00    -0.193 C  
HETATM    4  C   UNL     1      -9.736   9.219  65.697  1.00  0.00    -0.302 C  
HETATM    5  C   UNL     1      -8.618  11.308  66.623  1.00  0.00    -0.167 C  
HETATM    6  C   UNL     1     -10.593   9.142  66.947  1.00  0.00    -0.167 C  
HETATM    7  N   UNL     1      -9.931   9.710  68.122  1.00  0.00    -0.154 NA 
HETATM    8  C   UNL     1      -9.181  10.952  67.999  1.00  0.00    -0.156 C  
BRANCH   7   9
HETATM    9  C   UNL     1     -10.056   9.025  69.310  1.00  0.00    -0.195 A  
HETATM   10  C   UNL     1      -9.564   7.768  71.008  1.00  0.00    -0.159 A  
HETATM   11  N   UNL     1      -9.183   8.132  69.743  1.00  0.00    -0.151 NA 
HETATM   12  C   UNL     1     -10.751   8.389  71.360  1.00  0.00    -0.237 A  
HETATM   13  N   UNL     1     -11.089   9.134  70.240  1.00  0.00    -0.243 NA 
HETATM   14  C   UNL     1     -11.358   8.212  72.614  1.00  0.00    -0.450 A  
HETATM   15  C   UNL     1     -10.706   7.380  73.530  1.00  0.00    -0.347 A  
HETATM   16  C   UNL     1      -9.514   6.738  73.194  1.00  0.00    -0.166 A  
HETATM   17  C   UNL     1      -8.936   6.916  71.930  1.00  0.00    -0.139 A  
BRANCH  13  18
HETATM   18  C   UNL     1     -12.389   9.781  70.116  1.00  0.00     0.170 C  
BRANCH  18  19
HETATM   19  C   UNL     1     -12.398  11.219  70.594  1.00  0.00    -0.477 A  
HETATM   20  C   UNL     1     -13.043  11.517  71.805  1.00  0.00    -0.503 A  
HETATM   21  C   UNL     1     -13.257  12.843  72.181  1.00  0.00    -0.552 A  
HETATM   22  C   UNL     1     -12.798  13.871  71.366  1.00  0.00    -0.361 A  
HETATM   23  F   UNL     1     -13.083  15.140  71.682  1.00  0.00    -0.335 F  
HETATM   24  C   UNL     1     -12.066  13.599  70.221  1.00  0.00    -0.427 A  
HETATM   25  C   UNL     1     -11.844  12.274  69.847  1.00  0.00    -0.383 A  
ENDBRANCH  18  19
ENDBRANCH  13  18
ENDBRANCH   7   9
ENDBRANCH   2   3
BRANCH   2  26
HETATM   26  C   UNL     1     -10.836  12.480  65.009  1.00  0.00    -0.290 C  
HETATM   27  C   UNL     1     -12.508  13.427  66.261  1.00  0.00    -0.276 C  
HETATM   28  H   UNL     1      -9.694  13.802  63.934  1.00  0.00     0.000 HD 
HETATM   29  C   UNL     1     -11.072  14.871  65.013  1.00  0.00    -0.414 C  
HETATM   30  N   UNL     1     -11.831  12.315  65.841  1.00  0.00    -0.546 NA 
HETATM   31  O   UNL     1     -10.710  15.987  64.658  1.00  0.00    -0.601 OA 
HETATM   32  N   UNL     1     -10.467  13.724  64.595  1.00  0.00    -0.431 N  
HETATM   33  C   UNL     1     -12.206  14.679  65.924  1.00  0.00    -0.165 C  
ENDBRANCH   2  26
TORSDOF 5
ENDMDL
MODEL       11
REMARK 921   NORMALIZED FREE ENERGY PREDICTED BY IDOCK:   -7.60 KCAL/MOL
REMARK 922        TOTAL FREE ENERGY PREDICTED BY IDOCK:  -11.23 KCAL/MOL
REMARK 923 INTER-LIGAND FREE ENERGY PREDICTED BY IDOCK:  -10.48 KCAL/MOL
REMARK 924 INTRA-LIGAND FREE ENERGY PREDICTED BY IDOCK:   -0.75 KCAL/MOL
REMARK 927      BINDING AFFINITY PREDICTED BY RF-SCORE:    0.00 PKD
ROOT
HETATM    1  C   UNL     1     -11.931  14.701  64.213  1.00  0.00    -0.386 C  
HETATM    2  N   UNL     1     -11.224  14.651  65.510  1.00  0.00    -0.333 NA 
ENDROOT
BRANCH   2   3
HETATM    3  C   UNL     1     -10.373  13.436  65.671  1.00  0.00    -0.290 C  
HETATM    4  C   UNL     1     -11.196  12.169  65.853  1.00  0.00    -0.384 C  
HETATM    5  C   UNL     1      -9.214  13.550  66.650  1.00  0.00    -0.221 C  
HETATM    6  C   UNL     1     -11.526  11.838  67.296  1.00  0.00    -0.303 C  
HETATM    7  N   UNL     1     -10.343  11.827  68.158  1.00  0.00    -0.193 NA 
HETATM    8  C   UNL     1      -9.331  12.862  68.010  1.00  0.00    -0.213 C  
BRANCH   7   9
HETATM    9  C   UNL     1     -10.250  10.814  69.087  1.00  0.00    -0.211 A  
HETATM   10  C   UNL     1      -9.420   9.207  70.285  1.00  0.00    -0.219 A  
HETATM   11  N   UNL     1      -9.230   9.977  69.168  1.00  0.00    -0.179 NA 
HETATM   12  C   UNL     1     -10.629   9.510  70.889  1.00  0.00    -0.325 A  
HETATM   13  N   UNL     1     -11.179  10.489  70.074  1.00  0.00    -0.295 NA 
HETATM   14  C   UNL     1     -11.066   8.885  72.068  1.00  0.00    -0.421 A  
HETATM   15  C   UNL     1     -10.219   7.931  72.641  1.00  0.00    -0.361 A  
HETATM   16  C   UNL     1      -9.001   7.605  72.045  1.00  0.00    -0.158 A  
HETATM   17  C   UNL     1      -8.593   8.230  70.859  1.00  0.00    -0.152 A  
BRANCH  13  18
HETATM   18  C   UNL     1     -12.555  10.938  70.242  1.00  0.00    -0.265 C  
BRANCH  18  19
HETATM   19  C   UNL     1     -12.672  12.312  70.869  1.00  0.00    -0.277 A  
HETATM   20  C   UNL     1     -13.323  12.429  72.109  1.00  0.00    -0.508 A  
HETATM   21  C   UNL     1     -13.636  13.686  72.623  1.00  0.00    -0.596 A  
HETATM   22  C   UNL     1     -13.271  14.828  71.919  1.00  0.00    -0.345 A  
HETATM   23  F   UNL     1     -13.651  16.030  72.369  1.00  0.00    -0.532 F  
HETATM   24  C   UNL     1     -12.535  14.737  70.748  1.00  0.00    -0.402 A  
HETATM   25  C   UNL     1     -12.213  13.481  70.235  1.00  0.00    -0.417 A  
ENDBRANCH  18  19
ENDBRANCH  13  18
ENDBRANCH   7   9
ENDBRANCH   2   3
BRANCH   2  26
HETATM   26  C   UNL     1     -10.893  15.883  66.042  1.00  0.00    -0.225 C  
HETATM   27  C   UNL     1     -10.303  18.094  65.885  1.00  0.00    -0.277 C  
HETATM   28  H   UNL     1     -11.098  15.167  67.953  1.00  0.00     0.000 HD 
HETATM   29  C   UNL     1     -10.631  17.161  68.059  1.00  0.00    -0.374 C  
HETATM   30  N   UNL     1     -10.619  16.909  65.279  1.00  0.00    -0.650 NA 
HETATM   31  O   UNL     1     -10.664  17.260  69.281  1.00  0.00    -0.260 OA 
HETATM   32  N   UNL     1     -10.892  15.998  67.399  1.00  0.00    -0.307 N  
HETATM   33  C   UNL     1     -10.295  18.302  67.200  1.00  0.00    -0.402 C  
ENDBRANCH   2  26
TORSDOF 5
ENDMDL
MODEL       12
REMARK 921   NORMALIZED FREE ENERGY PREDICTED BY IDOCK:   -7.54 KCAL/MOL
REMARK 922        TOTAL FREE ENERGY PREDICTED BY IDOCK:  -11.16 KCAL/MOL
REMARK 923 INTER-LIGAND FREE ENERGY PREDICTED BY IDOCK:   -9.63 KCAL/MOL
REMARK 924 INTRA-LIGAND FREE ENERGY PREDICTED BY IDOCK:   -1.53 KCAL/MOL
REMARK 927      BINDING AFFINITY PREDICTED BY RF-SCORE:    0.00 PKD
ROOT
HETATM    1  C   UNL     1     -10.069   8.722  66.620  1.00  0.00    -0.288 C  
HETATM    2  N   UNL     1      -9.673   9.848  67.492  1.00  0.00    -0.156 NA 
ENDROOT
BRANCH   2   3
HETATM    3  C   UNL     1      -9.032  10.972  66.749  1.00  0.00    -0.157 C  
HETATM    4  C   UNL     1      -8.145  11.829  67.640  1.00  0.00    -0.144 C  
HETATM    5  C   UNL     1      -9.942  11.786  65.841  1.00  0.00    -0.266 C  
HETATM    6  C   UNL     1      -8.859  12.991  68.305  1.00  0.00    -0.172 C  
HETATM    7  N   UNL     1      -9.604  13.816  67.353  1.00  0.00    -0.223 NA 
HETATM    8  C   UNL     1     -10.374  13.181  66.293  1.00  0.00    -0.287 C  
BRANCH   7   9
HETATM    9  C   UNL     1      -9.535  15.182  67.514  1.00  0.00    -0.206 A  
HETATM   10  C   UNL     1      -8.775  17.213  67.456  1.00  0.00    -0.207 A  
HETATM   11  N   UNL     1      -8.432  15.891  67.349  1.00  0.00    -0.167 NA 
HETATM   12  C   UNL     1     -10.117  17.347  67.771  1.00  0.00    -0.323 A  
HETATM   13  N   UNL     1     -10.573  16.040  67.873  1.00  0.00    -0.292 NA 
HETATM   14  C   UNL     1     -10.742  18.596  67.918  1.00  0.00    -0.347 A  
HETATM   15  C   UNL     1      -9.955  19.735  67.717  1.00  0.00    -0.535 A  
HETATM   16  C   UNL     1      -8.599  19.623  67.408  1.00  0.00    -0.353 A  
HETATM   17  C   UNL     1      -7.993  18.366  67.283  1.00  0.00    -0.239 A  
BRANCH  13  18
HETATM   18  C   UNL     1     -11.897  15.732  68.398  1.00  0.00    -0.168 C  
BRANCH  18  19
HETATM   19  C   UNL     1     -11.902  15.406  69.877  1.00  0.00    -0.373 A  
HETATM   20  C   UNL     1     -12.441  14.176  70.290  1.00  0.00    -0.416 A  
HETATM   21  C   UNL     1     -12.655  13.920  71.643  1.00  0.00    -0.387 A  
HETATM   22  C   UNL     1     -12.300  14.876  72.588  1.00  0.00    -0.327 A  
HETATM   23  F   UNL     1     -12.588  14.667  73.879  1.00  0.00    -0.593 F  
HETATM   24  C   UNL     1     -11.668  16.051  72.210  1.00  0.00    -0.581 A  
HETATM   25  C   UNL     1     -11.446  16.306  70.858  1.00  0.00    -0.336 A  
ENDBRANCH  18  19
ENDBRANCH  13  18
ENDBRANCH   7   9
ENDBRANCH   2   3
BRANCH   2  26
HETATM   26  C   UNL     1     -10.472  10.035  68.604  1.00  0.00    -0.204 C  
HETATM   27  C   UNL     1     -12.351  10.796  69.676  1.00  0.00    -0.192 C  
HETATM   28  H   UNL     1      -9.121   9.055  69.798  1.00  0.00     0.000 HD 
HETATM   29  C   UNL     1     -10.733   9.586  70.950  1.00  0.00    -0.333 C  
HETATM   30  N   UNL     1     -11.620  10.655  68.528  1.00  0.00    -0.351 NA 
HETATM   31  O   UNL     1     -10.339   9.090  72.000  1.00  0.00    -0.339 OA 
HETATM   32  N   UNL     1     -10.030   9.519  69.785  1.00  0.00    -0.199 N  
HETATM   33  C   UNL     1     -12.007  10.309  70.866  1.00  0.00    -0.473 C  
ENDBRANCH   2  26
TORSDOF 5
ENDMDL
MODEL       13
REMARK 921   NORMALIZED FREE ENERGY PREDICTED BY IDOCK:   -7.43 KCAL/MOL
REMARK 922        TOTAL FREE ENERGY PREDICTED BY IDOCK:  -11.01 KCAL/MOL
REMARK 923 INTER-LIGAND FREE ENERGY PREDICTED BY IDOCK:   -9.34 KCAL/MOL
REMARK 924 INTRA-LIGAND FREE ENERGY PREDICTED BY IDOCK:   -1.67 KCAL/MOL
REMARK 927      BINDING AFFINITY PREDICTED BY RF-SCORE:    0.00 PKD
ROOT
HETATM    1  C   UNL     1     -11.044  15.900  64.591  1.00  0.00    -0.354 C  
HETATM    2  N   UNL     1     -10.401  15.839  65.921  1.00  0.00    -0.332 NA 
ENDROOT
BRANCH   2   3
HETATM    3  C   UNL     1      -9.914  14.474  66.278  1.00  0.00    -0.305 C  
HETATM    4  C   UNL     1     -11.020  13.430  66.228  1.00  0.00    -0.296 C  
HETATM    5  C   UNL     1      -9.044  14.373  67.522  1.00  0.00    -0.195 C  
HETATM    6  C   UNL     1     -11.769  13.246  67.535  1.00  0.00    -0.366 C  
HETATM    7  N   UNL     1     -10.875  13.012  68.670  1.00  0.00    -0.254 NA 
HETATM    8  C   UNL     1      -9.651  13.790  68.798  1.00  0.00    -0.040 C  
BRANCH   7   9
HETATM    9  C   UNL     1     -11.248  12.047  69.578  1.00  0.00    -0.150 A  
HETATM   10  C   UNL     1     -12.422  10.962  71.044  1.00  0.00    -0.411 A  
HETATM   11  N   UNL     1     -12.281  12.160  70.394  1.00  0.00    -0.330 NA 
HETATM   12  C   UNL     1     -11.408  10.089  70.688  1.00  0.00    -0.348 A  
HETATM   13  N   UNL     1     -10.627  10.819  69.804  1.00  0.00    -0.193 NA 
HETATM   14  C   UNL     1     -11.323   8.779  71.189  1.00  0.00    -0.345 A  
HETATM   15  C   UNL     1     -12.325   8.363  72.070  1.00  0.00    -0.413 A  
HETATM   16  C   UNL     1     -13.352   9.228  72.448  1.00  0.00    -0.521 A  
HETATM   17  C   UNL     1     -13.407  10.536  71.949  1.00  0.00    -0.461 A  
BRANCH  13  18
HETATM   18  C   UNL     1      -9.330  10.334  69.351  1.00  0.00    -0.199 C  
BRANCH  18  19
HETATM   19  C   UNL     1      -9.256  10.108  67.854  1.00  0.00    -0.144 A  
HETATM   20  C   UNL     1     -10.074   9.117  67.286  1.00  0.00    -0.295 A  
HETATM   21  C   UNL     1      -9.894   8.734  65.958  1.00  0.00    -0.234 A  
HETATM   22  C   UNL     1      -8.923   9.361  65.186  1.00  0.00    -0.212 A  
HETATM   23  F   UNL     1      -8.690   8.930  63.940  1.00  0.00    -0.199 F  
HETATM   24  C   UNL     1      -8.179  10.414  65.696  1.00  0.00    -0.158 A  
HETATM   25  C   UNL     1      -8.362  10.805  67.021  1.00  0.00    -0.129 A  
ENDBRANCH  18  19
ENDBRANCH  13  18
ENDBRANCH   7   9
ENDBRANCH   2   3
BRANCH   2  26
HETATM   26  C   UNL     1      -9.760  16.999  66.313  1.00  0.00    -0.283 C  
HETATM   27  C   UNL     1      -8.033  18.506  66.260  1.00  0.00    -0.246 C  
HETATM   28  H   UNL     1     -11.297  17.475  67.586  1.00  0.00     0.000 HD 
HETATM   29  C   UNL     1      -9.909  18.983  67.659  1.00  0.00    -0.332 C  
HETATM   30  N   UNL     1      -8.599  17.341  65.820  1.00  0.00    -0.497 NA 
HETATM   31  O   UNL     1     -10.510  19.703  68.449  1.00  0.00    -0.419 OA 
HETATM   32  N   UNL     1     -10.400  17.791  67.218  1.00  0.00    -0.353 N  
HETATM   33  C   UNL     1      -8.593  19.350  67.124  1.00  0.00    -0.325 C  
ENDBRANCH   2  26
TORSDOF 5
ENDMDL
MODEL       14
REMARK 921   NORMALIZED FREE ENERGY PREDICTED BY IDOCK:   -7.41 KCAL/MOL
REMARK 922        TOTAL FREE ENERGY PREDICTED BY IDOCK:  -10.99 KCAL/MOL
REMARK 923 INTER-LIGAND FREE ENERGY PREDICTED BY IDOCK:   -9.23 KCAL/MOL
REMARK 924 INTRA-LIGAND FREE ENERGY PREDICTED BY IDOCK:   -1.76 KCAL/MOL
REMARK 927      BINDING AFFINITY PREDICTED BY RF-SCORE:    0.00 PKD
ROOT
HETATM    1  C   UNL     1      -8.565  10.025  69.358  1.00  0.00    -0.175 C  
HETATM    2  N   UNL     1      -9.975  10.357  69.652  1.00  0.00    -0.211 NA 
ENDROOT
BRANCH   2   3
HETATM    3  C   UNL     1     -10.591  11.261  68.637  1.00  0.00    -0.202 C  
HETATM    4  C   UNL     1      -9.550  11.967  67.780  1.00  0.00    -0.190 C  
HETATM    5  C   UNL     1     -11.690  12.186  69.137  1.00  0.00    -0.384 C  
HETATM    6  C   UNL     1      -9.080  13.299  68.334  1.00  0.00    -0.137 C  
HETATM    7  N   UNL     1     -10.188  14.196  68.663  1.00  0.00    -0.238 NA 
HETATM    8  C   UNL     1     -11.373  13.670  69.326  1.00  0.00    -0.269 C  
BRANCH   7   9
HETATM    9  C   UNL     1     -10.048  15.523  68.323  1.00  0.00    -0.218 A  
HETATM   10  C   UNL     1      -9.257  17.542  68.240  1.00  0.00    -0.277 A  
HETATM   11  N   UNL     1      -9.228  16.361  68.934  1.00  0.00    -0.251 NA 
HETATM   12  C   UNL     1     -10.175  17.479  67.204  1.00  0.00    -0.323 A  
HETATM   13  N   UNL     1     -10.721  16.208  67.312  1.00  0.00    -0.304 NA 
HETATM   14  C   UNL     1     -10.392  18.545  66.316  1.00  0.00    -0.459 A  
HETATM   15  C   UNL     1      -9.625  19.700  66.501  1.00  0.00    -0.483 A  
HETATM   16  C   UNL     1      -8.701  19.788  67.542  1.00  0.00    -0.388 A  
HETATM   17  C   UNL     1      -8.514  18.717  68.427  1.00  0.00    -0.374 A  
BRANCH  13  18
HETATM   18  C   UNL     1     -11.886  15.809  66.532  1.00  0.00     0.720 C  
BRANCH  18  19
HETATM   19  C   UNL     1     -11.644  14.593  65.661  1.00  0.00    -0.328 A  
HETATM   20  C   UNL     1     -12.614  13.577  65.645  1.00  0.00    -0.512 A  
HETATM   21  C   UNL     1     -12.345  12.357  65.026  1.00  0.00    -0.441 A  
HETATM   22  C   UNL     1     -11.122  12.161  64.395  1.00  0.00    -0.333 A  
HETATM   23  F   UNL     1     -10.830  10.961  63.880  1.00  0.00    -0.438 F  
HETATM   24  C   UNL     1     -10.194  13.187  64.306  1.00  0.00    -0.283 A  
HETATM   25  C   UNL     1     -10.463  14.411  64.917  1.00  0.00    -0.448 A  
ENDBRANCH  18  19
ENDBRANCH  13  18
ENDBRANCH   7   9
ENDBRANCH   2   3
BRANCH   2  26
HETATM   26  C   UNL     1     -10.681   9.370  70.315  1.00  0.00    -0.253 C  
HETATM   27  C   UNL     1     -12.005   8.585  72.015  1.00  0.00    -0.361 C  
HETATM   28  H   UNL     1     -10.163   7.981  68.898  1.00  0.00     0.000 HD 
HETATM   29  C   UNL     1     -11.387   7.075  70.271  1.00  0.00    -0.295 C  
HETATM   30  N   UNL     1     -11.331   9.617  71.422  1.00  0.00    -0.379 NA 
HETATM   31  O   UNL     1     -11.420   5.970  69.739  1.00  0.00    -0.395 OA 
HETATM   32  N   UNL     1     -10.697   8.129  69.754  1.00  0.00    -0.245 N  
HETATM   33  C   UNL     1     -12.092   7.349  71.528  1.00  0.00    -0.357 C  
ENDBRANCH   2  26
TORSDOF 5
ENDMDL
MODEL       15
REMARK 921   NORMALIZED FREE ENERGY PREDICTED BY IDOCK:   -7.38 KCAL/MOL
REMARK 922        TOTAL FREE ENERGY PREDICTED BY IDOCK:  -10.95 KCAL/MOL
REMARK 923 INTER-LIGAND FREE ENERGY PREDICTED BY IDOCK:   -9.10 KCAL/MOL
REMARK 924 INTRA-LIGAND FREE ENERGY PREDICTED BY IDOCK:   -1.86 KCAL/MOL
REMARK 927      BINDING AFFINITY PREDICTED BY RF-SCORE:    0.00 PKD
ROOT
HETATM    1  C   UNL     1      -7.410   7.965  66.296  1.00  0.00    -0.075 C  
HETATM    2  N   UNL     1      -8.334   8.454  67.340  1.00  0.00    -0.123 NA 
ENDROOT
BRANCH   2   3
HETATM    3  C   UNL     1      -8.955   9.770  67.009  1.00  0.00    -0.138 C  
HETATM    4  C   UNL     1      -8.472  10.888  67.922  1.00  0.00    -0.129 C  
HETATM    5  C   UNL     1     -10.462   9.771  66.798  1.00  0.00    -0.259 C  
HETATM    6  C   UNL     1      -9.306  11.079  69.175  1.00  0.00    -0.021 C  
HETATM    7  N   UNL     1     -10.735  11.213  68.888  1.00  0.00    -0.197 NA 
HETATM    8  C   UNL     1     -11.357  10.351  67.894  1.00  0.00    -0.173 C  
BRANCH   7   9
HETATM    9  C   UNL     1     -11.431  12.171  69.590  1.00  0.00    -0.238 A  
HETATM   10  C   UNL     1     -12.676  13.093  71.109  1.00  0.00    -0.300 A  
HETATM   11  N   UNL     1     -12.289  11.899  70.559  1.00  0.00    -0.317 NA 
HETATM   12  C   UNL     1     -12.108  14.155  70.426  1.00  0.00    -0.346 A  
HETATM   13  N   UNL     1     -11.372  13.553  69.416  1.00  0.00    -0.254 NA 
HETATM   14  C   UNL     1     -12.318  15.494  70.793  1.00  0.00    -0.463 A  
HETATM   15  C   UNL     1     -13.127  15.734  71.909  1.00  0.00    -0.492 A  
HETATM   16  C   UNL     1     -13.715  14.679  72.607  1.00  0.00    -0.545 A  
HETATM   17  C   UNL     1     -13.505  13.351  72.211  1.00  0.00    -0.683 A  
BRANCH  13  18
HETATM   18  C   UNL     1     -10.780  14.330  68.334  1.00  0.00    -0.251 C  
BRANCH  18  19
HETATM   19  C   UNL     1     -11.183  13.852  66.954  1.00  0.00    -0.324 A  
HETATM   20  C   UNL     1     -10.170  13.556  66.027  1.00  0.00    -0.308 A  
HETATM   21  C   UNL     1     -10.488  13.314  64.691  1.00  0.00    -0.420 A  
HETATM   22  C   UNL     1     -11.817  13.334  64.286  1.00  0.00    -0.417 A  
HETATM   23  F   UNL     1     -12.115  13.191  62.989  1.00  0.00    -0.615 F  
HETATM   24  C   UNL     1     -12.839  13.518  65.205  1.00  0.00    -0.410 A  
HETATM   25  C   UNL     1     -12.525  13.752  66.543  1.00  0.00    -0.356 A  
ENDBRANCH  18  19
ENDBRANCH  13  18
ENDBRANCH   7   9
ENDBRANCH   2   3
BRANCH   2  26
HETATM   26  C   UNL     1      -8.989   7.465  68.049  1.00  0.00    -0.132 C  
HETATM   27  C   UNL     1     -10.100   5.467  68.236  1.00  0.00    -0.173 C  
HETATM   28  H   UNL     1      -8.720   8.483  69.810  1.00  0.00     0.000 HD 
HETATM   29  C   UNL     1      -9.673   6.715  70.227  1.00  0.00    -0.171 C  
HETATM   30  N   UNL     1      -9.466   6.400  67.461  1.00  0.00    -0.117 NA 
HETATM   31  O   UNL     1      -9.733   6.858  71.443  1.00  0.00    -0.174 OA 
HETATM   32  N   UNL     1      -9.095   7.628  69.398  1.00  0.00    -0.143 N  
HETATM   33  C   UNL     1     -10.232   5.535  69.558  1.00  0.00    -0.331 C  
ENDBRANCH   2  26
TORSDOF 5
ENDMDL
MODEL       16
REMARK 921   NORMALIZED FREE ENERGY PREDICTED BY IDOCK:   -7.34 KCAL/MOL
REMARK 922        TOTAL FREE ENERGY PREDICTED BY IDOCK:  -10.89 KCAL/MOL
REMARK 923 INTER-LIGAND FREE ENERGY PREDICTED BY IDOCK:   -9.53 KCAL/MOL
REMARK 924 INTRA-LIGAND FREE ENERGY PREDICTED BY IDOCK:   -1.37 KCAL/MOL
REMARK 927      BINDING AFFINITY PREDICTED BY RF-SCORE:    0.00 PKD
ROOT
HETATM    1  C   UNL     1     -10.621  19.135  67.420  1.00  0.00    -0.481 C  
HETATM    2  N   UNL     1      -9.525  18.786  68.348  1.00  0.00    -0.333 NA 
ENDROOT
BRANCH   2   3
HETATM    3  C   UNL     1      -9.531  17.350  68.754  1.00  0.00    -0.256 C  
HETATM    4  C   UNL     1      -8.406  16.557  68.104  1.00  0.00    -0.186 C  
HETATM    5  C   UNL     1     -10.877  16.641  68.703  1.00  0.00    -0.344 C  
HETATM    6  C   UNL     1      -8.767  15.936  66.767  1.00  0.00    -0.269 C  
HETATM    7  N   UNL     1     -10.000  15.151  66.824  1.00  0.00    -0.235 NA 
HETATM    8  C   UNL     1     -11.147  15.657  67.565  1.00  0.00    -0.289 C  
BRANCH   7   9
HETATM    9  C   UNL     1     -10.012  13.946  66.156  1.00  0.00    -0.310 A  
HETATM   10  C   UNL     1     -10.274  12.487  64.572  1.00  0.00    -0.307 A  
HETATM   11  N   UNL     1     -10.582  13.759  64.979  1.00  0.00    -0.365 NA 
HETATM   12  C   UNL     1      -9.552  11.822  65.549  1.00  0.00    -0.201 A  
HETATM   13  N   UNL     1      -9.452  12.742  66.583  1.00  0.00    -0.245 NA 
HETATM   14  C   UNL     1      -9.086  10.508  65.385  1.00  0.00    -0.215 A  
HETATM   15  C   UNL     1      -9.364   9.875  64.170  1.00  0.00    -0.295 A  
HETATM   16  C   UNL     1     -10.096  10.524  63.175  1.00  0.00    -0.081 A  
HETATM   17  C   UNL     1     -10.566  11.829  63.368  1.00  0.00    -0.479 A  
BRANCH  13  18
HETATM   18  C   UNL     1      -8.942  12.366  67.894  1.00  0.00    -0.184 C  
BRANCH  18  19
HETATM   19  C   UNL     1      -9.936  11.586  68.731  1.00  0.00    -0.169 A  
HETATM   20  C   UNL     1     -11.161  12.192  69.053  1.00  0.00    -0.290 A  
HETATM   21  C   UNL     1     -12.015  11.602  69.984  1.00  0.00    -0.429 A  
HETATM   22  C   UNL     1     -11.663  10.392  70.568  1.00  0.00    -0.344 A  
HETATM   23  F   UNL     1     -12.439   9.872  71.527  1.00  0.00    -0.380 F  
HETATM   24  C   UNL     1     -10.510   9.724  70.185  1.00  0.00    -0.338 A  
HETATM   25  C   UNL     1      -9.659  10.307  69.249  1.00  0.00    -0.239 A  
ENDBRANCH  18  19
ENDBRANCH  13  18
ENDBRANCH   7   9
ENDBRANCH   2   3
BRANCH   2  26
HETATM   26  C   UNL     1      -8.366  19.522  68.187  1.00  0.00    -0.324 C  
HETATM   27  C   UNL     1      -6.885  20.775  66.964  1.00  0.00    -0.323 C  
HETATM   28  H   UNL     1      -7.857  19.241  70.154  1.00  0.00     0.000 HD 
HETATM   29  C   UNL     1      -6.431  20.430  69.283  1.00  0.00    -0.202 C  
HETATM   30  N   UNL     1      -8.049  20.060  67.039  1.00  0.00    -0.306 NA 
HETATM   31  O   UNL     1      -5.745  20.602  70.285  1.00  0.00    -0.438 OA 
HETATM   32  N   UNL     1      -7.576  19.692  69.284  1.00  0.00    -0.273 N  
HETATM   33  C   UNL     1      -6.064  21.008  67.985  1.00  0.00    -0.398 C  
ENDBRANCH   2  26
TORSDOF 5
ENDMDL
MODEL       17
REMARK 921   NORMALIZED FREE ENERGY PREDICTED BY IDOCK:   -7.28 KCAL/MOL
REMARK 922        TOTAL FREE ENERGY PREDICTED BY IDOCK:  -10.82 KCAL/MOL
REMARK 923 INTER-LIGAND FREE ENERGY PREDICTED BY IDOCK:   -9.05 KCAL/MOL
REMARK 924 INTRA-LIGAND FREE ENERGY PREDICTED BY IDOCK:   -1.77 KCAL/MOL
REMARK 927      BINDING AFFINITY PREDICTED BY RF-SCORE:    0.00 PKD
ROOT
HETATM    1  C   UNL     1      -6.231  10.040  65.910  1.00  0.00    -0.085 C  
HETATM    2  N   UNL     1      -7.622   9.726  66.299  1.00  0.00    -0.098 NA 
ENDROOT
BRANCH   2   3
HETATM    3  C   UNL     1      -8.555  10.878  66.131  1.00  0.00    -0.169 C  
HETATM    4  C   UNL     1      -8.250  12.019  67.091  1.00  0.00    -0.181 C  
HETATM    5  C   UNL     1     -10.036  10.540  66.046  1.00  0.00    -0.317 C  
HETATM    6  C   UNL     1      -8.977  11.931  68.420  1.00  0.00    -0.163 C  
HETATM    7  N   UNL     1     -10.420  11.745  68.264  1.00  0.00    -0.199 NA 
HETATM    8  C   UNL     1     -10.926  10.825  67.256  1.00  0.00    -0.297 C  
BRANCH   7   9
HETATM    9  C   UNL     1     -11.243  12.467  69.099  1.00  0.00    -0.239 A  
HETATM   10  C   UNL     1     -12.578  12.950  70.740  1.00  0.00    -0.232 A  
HETATM   11  N   UNL     1     -12.018  11.926  70.023  1.00  0.00    -0.339 NA 
HETATM   12  C   UNL     1     -12.208  14.176  70.213  1.00  0.00    -0.349 A  
HETATM   13  N   UNL     1     -11.412  13.851  69.123  1.00  0.00    -0.279 NA 
HETATM   14  C   UNL     1     -12.622  15.398  70.769  1.00  0.00    -0.497 A  
HETATM   15  C   UNL     1     -13.427  15.343  71.910  1.00  0.00    -0.571 A  
HETATM   16  C   UNL     1     -13.817  14.119  72.454  1.00  0.00    -0.638 A  
HETATM   17  C   UNL     1     -13.407  12.913  71.871  1.00  0.00    -0.530 A  
BRANCH  13  18
HETATM   18  C   UNL     1     -10.985  14.858  68.162  1.00  0.00    -0.272 C  
BRANCH  18  19
HETATM   19  C   UNL     1     -11.242  14.468  66.720  1.00  0.00    -0.336 A  
HETATM   20  C   UNL     1     -12.532  14.046  66.361  1.00  0.00    -0.395 A  
HETATM   21  C   UNL     1     -12.765  13.485  65.106  1.00  0.00    -0.453 A  
HETATM   22  C   UNL     1     -11.720  13.376  64.197  1.00  0.00    -0.419 A  
HETATM   23  F   UNL     1     -11.924  12.756  63.028  1.00  0.00    -0.561 F  
HETATM   24  C   UNL     1     -10.464  13.883  64.492  1.00  0.00    -0.334 A  
HETATM   25  C   UNL     1     -10.230  14.453  65.742  1.00  0.00    -0.355 A  
ENDBRANCH  18  19
ENDBRANCH  13  18
ENDBRANCH   7   9
ENDBRANCH   2   3
BRANCH   2  26
HETATM   26  C   UNL     1      -8.000   8.411  66.104  1.00  0.00    -0.100 C  
HETATM   27  C   UNL     1      -8.315   6.535  64.823  1.00  0.00    -0.017 C  
HETATM   28  H   UNL     1      -8.489   8.208  68.086  1.00  0.00     0.000 HD 
HETATM   29  C   UNL     1      -8.792   6.404  67.160  1.00  0.00    -0.113 C  
HETATM   30  N   UNL     1      -7.922   7.841  64.930  1.00  0.00    -0.133 NA 
HETATM   31  O   UNL     1      -9.149   5.780  68.154  1.00  0.00    -0.111 OA 
HETATM   32  N   UNL     1      -8.432   7.717  67.194  1.00  0.00    -0.120 N  
HETATM   33  C   UNL     1      -8.731   5.776  65.835  1.00  0.00    -0.149 C  
ENDBRANCH   2  26
TORSDOF 5
ENDMDL
MODEL       18
REMARK 921   NORMALIZED FREE ENERGY PREDICTED BY IDOCK:   -7.27 KCAL/MOL
REMARK 922        TOTAL FREE ENERGY PREDICTED BY IDOCK:  -10.81 KCAL/MOL
REMARK 923 INTER-LIGAND FREE ENERGY PREDICTED BY IDOCK:   -9.20 KCAL/MOL
REMARK 924 INTRA-LIGAND FREE ENERGY PREDICTED BY IDOCK:   -1.61 KCAL/MOL
REMARK 927      BINDING AFFINITY PREDICTED BY RF-SCORE:    0.00 PKD
ROOT
HETATM    1  C   UNL     1      -9.782  11.338  63.159  1.00  0.00    -0.386 C  
HETATM    2  N   UNL     1     -10.051  11.247  64.610  1.00  0.00    -0.268 NA 
ENDROOT
BRANCH   2   3
HETATM    3  C   UNL     1      -8.982  10.529  65.364  1.00  0.00    -0.186 C  
HETATM    4  C   UNL     1      -9.430   9.156  65.843  1.00  0.00    -0.326 C  
HETATM    5  C   UNL     1      -8.253  11.334  66.430  1.00  0.00    -0.150 C  
HETATM    6  C   UNL     1     -10.072   9.151  67.218  1.00  0.00    -0.233 C  
HETATM    7  N   UNL     1      -9.251   9.820  68.228  1.00  0.00    -0.129 NA 
HETATM    8  C   UNL     1      -8.575  11.067  67.900  1.00  0.00    -0.133 C  
BRANCH   7   9
HETATM    9  C   UNL     1      -9.160   9.221  69.464  1.00  0.00    -0.160 A  
HETATM   10  C   UNL     1      -8.305   8.342  71.254  1.00  0.00    -0.131 A  
HETATM   11  N   UNL     1      -8.042   8.726  69.966  1.00  0.00    -0.104 NA 
HETATM   12  C   UNL     1      -9.644   8.529  71.557  1.00  0.00    -0.228 A  
HETATM   13  N   UNL     1     -10.191   9.026  70.383  1.00  0.00    -0.196 NA 
HETATM   14  C   UNL     1     -10.184   8.240  72.821  1.00  0.00    -0.325 A  
HETATM   15  C   UNL     1      -9.307   7.758  73.798  1.00  0.00    -0.286 A  
HETATM   16  C   UNL     1      -7.957   7.554  73.512  1.00  0.00    -0.158 A  
HETATM   17  C   UNL     1      -7.444   7.834  72.239  1.00  0.00    -0.094 A  
BRANCH  13  18
HETATM   18  C   UNL     1     -11.631   9.164  70.210  1.00  0.00    -0.086 C  
BRANCH  18  19
HETATM   19  C   UNL     1     -12.152  10.548  70.539  1.00  0.00    -0.437 A  
HETATM   20  C   UNL     1     -11.718  11.630  69.756  1.00  0.00    -0.425 A  
HETATM   21  C   UNL     1     -12.004  12.938  70.144  1.00  0.00    -0.373 A  
HETATM   22  C   UNL     1     -12.750  13.167  71.294  1.00  0.00    -0.306 A  
HETATM   23  F   UNL     1     -12.947  14.423  71.715  1.00  0.00    -0.354 F  
HETATM   24  C   UNL     1     -13.278  12.112  72.022  1.00  0.00    -0.496 A  
HETATM   25  C   UNL     1     -13.002  10.802  71.632  1.00  0.00    -0.581 A  
ENDBRANCH  18  19
ENDBRANCH  13  18
ENDBRANCH   7   9
ENDBRANCH   2   3
BRANCH   2  26
HETATM   26  C   UNL     1     -10.771  12.302  65.137  1.00  0.00    -0.293 C  
HETATM   27  C   UNL     1     -12.360  13.217  66.515  1.00  0.00    -0.248 C  
HETATM   28  H   UNL     1      -9.746  13.645  63.973  1.00  0.00     0.000 HD 
HETATM   29  C   UNL     1     -11.058  14.687  65.156  1.00  0.00    -0.377 C  
HETATM   30  N   UNL     1     -11.694  12.119  66.045  1.00  0.00    -0.504 NA 
HETATM   31  O   UNL     1     -10.749  15.810  64.772  1.00  0.00    -0.500 OA 
HETATM   32  N   UNL     1     -10.463  13.553  64.693  1.00  0.00    -0.421 N  
HETATM   33  C   UNL     1     -12.112  14.474  66.154  1.00  0.00    -0.300 C  
ENDBRANCH   2  26
TORSDOF 5
ENDMDL
MODEL       19
REMARK 921   NORMALIZED FREE ENERGY PREDICTED BY IDOCK:   -7.25 KCAL/MOL
REMARK 922        TOTAL FREE ENERGY PREDICTED BY IDOCK:  -10.78 KCAL/MOL
REMARK 923 INTER-LIGAND FREE ENERGY PREDICTED BY IDOCK:   -9.82 KCAL/MOL
REMARK 924 INTRA-LIGAND FREE ENERGY PREDICTED BY IDOCK:   -0.96 KCAL/MOL
REMARK 927      BINDING AFFINITY PREDICTED BY RF-SCORE:    0.00 PKD
ROOT
HETATM    1  C   UNL     1      -9.344  15.173  66.433  1.00  0.00    -0.301 C  
HETATM    2  N   UNL     1     -10.614  15.929  66.429  1.00  0.00    -0.309 NA 
ENDROOT
BRANCH   2   3
HETATM    3  C   UNL     1     -11.763  15.152  66.980  1.00  0.00    -0.110 C  
HETATM    4  C   UNL     1     -11.800  15.169  68.502  1.00  0.00    -0.307 C  
HETATM    5  C   UNL     1     -11.990  13.770  66.386  1.00  0.00    -0.473 C  
HETATM    6  C   UNL     1     -11.028  14.040  69.160  1.00  0.00    -0.230 C  
HETATM    7  N   UNL     1     -11.397  12.724  68.638  1.00  0.00    -0.271 NA 
HETATM    8  C   UNL     1     -11.597  12.542  67.208  1.00  0.00    -0.367 C  
BRANCH   7   9
HETATM    9  C   UNL     1     -11.539  11.701  69.550  1.00  0.00    -0.331 A  
HETATM   10  C   UNL     1     -12.430  10.385  71.026  1.00  0.00    -0.388 A  
HETATM   11  N   UNL     1     -12.565  11.583  70.375  1.00  0.00    -0.202 NA 
HETATM   12  C   UNL     1     -11.250   9.759  70.661  1.00  0.00    -0.334 A  
HETATM   13  N   UNL     1     -10.658  10.643  69.771  1.00  0.00    -0.220 NA 
HETATM   14  C   UNL     1     -10.871   8.502  71.162  1.00  0.00    -0.298 A  
HETATM   15  C   UNL     1     -11.749   7.875  72.051  1.00  0.00    -0.360 A  
HETATM   16  C   UNL     1     -12.939   8.491  72.438  1.00  0.00    -0.354 A  
HETATM   17  C   UNL     1     -13.288   9.753  71.940  1.00  0.00    -0.530 A  
BRANCH  13  18
HETATM   18  C   UNL     1      -9.290  10.458  69.306  1.00  0.00    -0.187 C  
BRANCH  18  19
HETATM   19  C   UNL     1      -9.195  10.003  67.864  1.00  0.00    -0.145 A  
HETATM   20  C   UNL     1      -8.407  10.753  66.976  1.00  0.00    -0.129 A  
HETATM   21  C   UNL     1      -8.453  10.498  65.606  1.00  0.00    -0.179 A  
HETATM   22  C   UNL     1      -9.259   9.473  65.125  1.00  0.00    -0.244 A  
HETATM   23  F   UNL     1      -9.372   9.287  63.804  1.00  0.00    -0.202 F  
HETATM   24  C   UNL     1      -9.962   8.652  65.993  1.00  0.00    -0.090 A  
HETATM   25  C   UNL     1      -9.912   8.900  67.364  1.00  0.00    -0.267 A  
ENDBRANCH  18  19
ENDBRANCH  13  18
ENDBRANCH   7   9
ENDBRANCH   2   3
BRANCH   2  26
HETATM   26  C   UNL     1     -10.480  17.295  66.583  1.00  0.00    -0.257 C  
HETATM   27  C   UNL     1     -10.446  19.454  65.809  1.00  0.00    -0.392 C  
HETATM   28  H   UNL     1     -10.162  17.085  68.599  1.00  0.00     0.000 HD 
HETATM   29  C   UNL     1     -10.148  19.086  68.150  1.00  0.00    -0.395 C  
HETATM   30  N   UNL     1     -10.591  18.115  65.571  1.00  0.00    -0.590 NA 
HETATM   31  O   UNL     1      -9.978  19.496  69.293  1.00  0.00    -0.427 OA 
HETATM   32  N   UNL     1     -10.256  17.763  67.843  1.00  0.00    -0.343 N  
HETATM   33  C   UNL     1     -10.245  20.000  67.006  1.00  0.00    -0.587 C  
ENDBRANCH   2  26
TORSDOF 5
ENDMDL
MODEL       20
REMARK 921   NORMALIZED FREE ENERGY PREDICTED BY IDOCK:   -7.24 KCAL/MOL
REMARK 922        TOTAL FREE ENERGY PREDICTED BY IDOCK:  -10.77 KCAL/MOL
REMARK 923 INTER-LIGAND FREE ENERGY PREDICTED BY IDOCK:   -9.39 KCAL/MOL
REMARK 924 INTRA-LIGAND FREE ENERGY PREDICTED BY IDOCK:   -1.38 KCAL/MOL
REMARK 927      BINDING AFFINITY PREDICTED BY RF-SCORE:    0.00 PKD
ROOT
HETATM    1  C   UNL     1     -10.946  15.361  64.955  1.00  0.00    -0.437 C  
HETATM    2  N   UNL     1     -10.958  15.809  66.364  1.00  0.00    -0.224 NA 
ENDROOT
BRANCH   2   3
HETATM    3  C   UNL     1     -11.221  14.703  67.331  1.00  0.00    -0.342 C  
HETATM    4  C   UNL     1      -9.941  14.137  67.929  1.00  0.00    -0.231 C  
HETATM    5  C   UNL     1     -12.202  13.632  66.880  1.00  0.00    -0.398 C  
HETATM    6  C   UNL     1      -9.337  12.987  67.144  1.00  0.00    -0.230 C  
HETATM    7  N   UNL     1     -10.303  11.925  66.864  1.00  0.00    -0.208 NA 
HETATM    8  C   UNL     1     -11.658  12.268  66.455  1.00  0.00    -0.377 C  
BRANCH   7   9
HETATM    9  C   UNL     1      -9.870  10.625  67.005  1.00  0.00    -0.185 A  
HETATM   10  C   UNL     1      -9.237   8.613  66.499  1.00  0.00    -0.187 A  
HETATM   11  N   UNL     1      -9.855   9.740  66.024  1.00  0.00    -0.256 NA 
HETATM   12  C   UNL     1      -8.918   8.757  67.839  1.00  0.00    -0.140 A  
HETATM   13  N   UNL     1      -9.390  10.020  68.166  1.00  0.00    -0.131 NA 
HETATM   14  C   UNL     1      -8.256   7.759  68.573  1.00  0.00    -0.128 A  
HETATM   15  C   UNL     1      -7.903   6.589  67.893  1.00  0.00    -0.108 A  
HETATM   16  C   UNL     1      -8.222   6.420  66.545  1.00  0.00    -0.113 A  
HETATM   17  C   UNL     1      -8.899   7.422  65.837  1.00  0.00    -0.149 A  
BRANCH  13  18
HETATM   18  C   UNL     1      -9.440  10.482  69.547  1.00  0.00    -0.080 C  
BRANCH  18  19
HETATM   19  C   UNL     1     -10.679  10.030  70.293  1.00  0.00    -0.367 A  
HETATM   20  C   UNL     1     -11.849  10.798  70.176  1.00  0.00    -0.427 A  
HETATM   21  C   UNL     1     -12.944  10.542  70.999  1.00  0.00    -0.475 A  
HETATM   22  C   UNL     1     -12.886   9.499  71.915  1.00  0.00    -0.420 A  
HETATM   23  F   UNL     1     -13.903   9.310  72.766  1.00  0.00    -0.465 F  
HETATM   24  C   UNL     1     -11.783   8.661  71.973  1.00  0.00    -0.439 A  
HETATM   25  C   UNL     1     -10.689   8.910  71.145  1.00  0.00    -0.333 A  
ENDBRANCH  18  19
ENDBRANCH  13  18
ENDBRANCH   7   9
ENDBRANCH   2   3
BRANCH   2  26
HETATM   26  C   UNL     1     -10.129  16.879  66.643  1.00  0.00    -0.304 C  
HETATM   27  C   UNL     1      -8.244  18.148  66.336  1.00  0.00    -0.253 C  
HETATM   28  H   UNL     1     -11.417  17.562  68.086  1.00  0.00     0.000 HD 
HETATM   29  C   UNL     1      -9.850  18.877  67.947  1.00  0.00    -0.345 C  
HETATM   30  N   UNL     1      -9.006  17.063  65.999  1.00  0.00    -0.515 NA 
HETATM   31  O   UNL     1     -10.247  19.676  68.788  1.00  0.00    -0.437 OA 
HETATM   32  N   UNL     1     -10.541  17.756  67.601  1.00  0.00    -0.391 N  
HETATM   33  C   UNL     1      -8.576  19.064  67.242  1.00  0.00    -0.298 C  
ENDBRANCH   2  26
TORSDOF 5
ENDMDL
MODEL       21
REMARK 921   NORMALIZED FREE ENERGY PREDICTED BY IDOCK:   -7.22 KCAL/MOL
REMARK 922        TOTAL FREE ENERGY PREDICTED BY IDOCK:  -10.74 KCAL/MOL
REMARK 923 INTER-LIGAND FREE ENERGY PREDICTED BY IDOCK:   -9.85 KCAL/MOL
REMARK 924 INTRA-LIGAND FREE ENERGY PREDICTED BY IDOCK:   -0.89 KCAL/MOL
REMARK 927      BINDING AFFINITY PREDICTED BY RF-SCORE:    0.00 PKD
ROOT
HETATM    1  C   UNL     1     -10.186  10.720  64.251  1.00  0.00    -0.354 C  
HETATM    2  N   UNL     1      -9.846  10.394  65.653  1.00  0.00    -0.242 NA 
ENDROOT
BRANCH   2   3
HETATM    3  C   UNL     1     -10.482  11.312  66.642  1.00  0.00    -0.247 C  
HETATM    4  C   UNL     1     -11.314  12.399  65.975  1.00  0.00    -0.397 C  
HETATM    5  C   UNL     1      -9.583  11.836  67.752  1.00  0.00    -0.184 C  
HETATM    6  C   UNL     1     -10.546  13.666  65.650  1.00  0.00    -0.293 C  
HETATM    7  N   UNL     1      -9.814  14.195  66.802  1.00  0.00    -0.264 NA 
HETATM    8  C   UNL     1      -9.098  13.284  67.684  1.00  0.00    -0.204 C  
BRANCH   7   9
HETATM    9  C   UNL     1      -9.841  15.558  66.994  1.00  0.00    -0.232 A  
HETATM   10  C   UNL     1      -9.986  17.681  66.573  1.00  0.00    -0.332 A  
HETATM   11  N   UNL     1      -9.803  16.444  66.014  1.00  0.00    -0.335 NA 
HETATM   12  C   UNL     1     -10.067  17.588  67.952  1.00  0.00    -0.330 A  
HETATM   13  N   UNL     1      -9.903  16.235  68.211  1.00  0.00    -0.223 NA 
HETATM   14  C   UNL     1     -10.277  18.705  68.777  1.00  0.00    -0.316 A  
HETATM   15  C   UNL     1     -10.421  19.947  68.152  1.00  0.00    -0.472 A  
HETATM   16  C   UNL     1     -10.335  20.065  66.764  1.00  0.00    -0.564 A  
HETATM   17  C   UNL     1     -10.107  18.939  65.962  1.00  0.00    -0.372 A  
BRANCH  13  18
HETATM   18  C   UNL     1      -9.716  15.734  69.566  1.00  0.00    -0.276 C  
BRANCH  18  19
HETATM   19  C   UNL     1     -11.010  15.364  70.261  1.00  0.00    -0.336 A  
HETATM   20  C   UNL     1     -11.491  16.209  71.275  1.00  0.00    -0.433 A  
HETATM   21  C   UNL     1     -12.558  15.808  72.078  1.00  0.00    -0.524 A  
HETATM   22  C   UNL     1     -13.167  14.580  71.849  1.00  0.00    -0.359 A  
HETATM   23  F   UNL     1     -14.131  14.157  72.676  1.00  0.00    -0.534 F  
HETATM   24  C   UNL     1     -12.778  13.779  70.786  1.00  0.00    -0.361 A  
HETATM   25  C   UNL     1     -11.717  14.181  69.976  1.00  0.00    -0.358 A  
ENDBRANCH  18  19
ENDBRANCH  13  18
ENDBRANCH   7   9
ENDBRANCH   2   3
BRANCH   2  26
HETATM   26  C   UNL     1      -9.618   9.054  65.901  1.00  0.00    -0.247 C  
HETATM   27  C   UNL     1     -10.094   7.039  66.889  1.00  0.00    -0.226 C  
HETATM   28  H   UNL     1      -7.986   9.052  64.657  1.00  0.00     0.000 HD 
HETATM   29  C   UNL     1      -8.253   7.149  65.372  1.00  0.00    -0.137 C  
HETATM   30  N   UNL     1     -10.389   8.362  66.698  1.00  0.00    -0.286 NA 
HETATM   31  O   UNL     1      -7.326   6.626  64.762  1.00  0.00    -0.073 OA 
HETATM   32  N   UNL     1      -8.569   8.469  65.258  1.00  0.00    -0.176 N  
HETATM   33  C   UNL     1      -9.104   6.383  66.289  1.00  0.00    -0.167 C  
ENDBRANCH   2  26
TORSDOF 5
ENDMDL
MODEL       22
REMARK 921   NORMALIZED FREE ENERGY PREDICTED BY IDOCK:   -7.21 KCAL/MOL
REMARK 922        TOTAL FREE ENERGY PREDICTED BY IDOCK:  -10.73 KCAL/MOL
REMARK 923 INTER-LIGAND FREE ENERGY PREDICTED BY IDOCK:   -9.51 KCAL/MOL
REMARK 924 INTRA-LIGAND FREE ENERGY PREDICTED BY IDOCK:   -1.22 KCAL/MOL
REMARK 927      BINDING AFFINITY PREDICTED BY RF-SCORE:    0.00 PKD
ROOT
HETATM    1  C   UNL     1      -8.473   7.534  65.864  1.00  0.00    -0.147 C  
HETATM    2  N   UNL     1      -9.111   8.852  66.064  1.00  0.00    -0.199 NA 
ENDROOT
BRANCH   2   3
HETATM    3  C   UNL     1      -8.994   9.357  67.464  1.00  0.00    -0.121 C  
HETATM    4  C   UNL     1     -10.254   9.105  68.280  1.00  0.00    -0.242 C  
HETATM    5  C   UNL     1      -8.439  10.764  67.629  1.00  0.00    -0.119 C  
HETATM    6  C   UNL     1     -11.278  10.223  68.215  1.00  0.00    -0.232 C  
HETATM    7  N   UNL     1     -10.704  11.533  68.522  1.00  0.00    -0.199 NA 
HETATM    8  C   UNL     1      -9.402  11.897  67.983  1.00  0.00    -0.193 C  
BRANCH   7   9
HETATM    9  C   UNL     1     -11.444  12.373  69.324  1.00  0.00    -0.288 A  
HETATM   10  C   UNL     1     -12.601  13.099  71.009  1.00  0.00    -0.312 A  
HETATM   11  N   UNL     1     -12.105  11.978  70.398  1.00  0.00    -0.355 NA 
HETATM   12  C   UNL     1     -12.313  14.231  70.265  1.00  0.00    -0.354 A  
HETATM   13  N   UNL     1     -11.634  13.744  69.157  1.00  0.00    -0.294 NA 
HETATM   14  C   UNL     1     -12.686  15.522  70.672  1.00  0.00    -0.487 A  
HETATM   15  C   UNL     1     -13.362  15.641  71.890  1.00  0.00    -0.537 A  
HETATM   16  C   UNL     1     -13.669  14.514  72.652  1.00  0.00    -0.543 A  
HETATM   17  C   UNL     1     -13.302  13.233  72.217  1.00  0.00    -0.630 A  
BRANCH  13  18
HETATM   18  C   UNL     1     -11.331  14.594  68.013  1.00  0.00    -0.311 C  
BRANCH  18  19
HETATM   19  C   UNL     1     -10.344  15.700  68.324  1.00  0.00    -0.244 A  
HETATM   20  C   UNL     1     -10.653  17.008  67.916  1.00  0.00    -0.365 A  
HETATM   21  C   UNL     1      -9.693  18.016  67.994  1.00  0.00    -0.309 A  
HETATM   22  C   UNL     1      -8.435  17.728  68.509  1.00  0.00    -0.296 A  
HETATM   23  F   UNL     1      -7.486  18.672  68.500  1.00  0.00    -0.270 F  
HETATM   24  C   UNL     1      -8.144  16.470  69.016  1.00  0.00    -0.214 A  
HETATM   25  C   UNL     1      -9.105  15.463  68.947  1.00  0.00    -0.218 A  
ENDBRANCH  18  19
ENDBRANCH  13  18
ENDBRANCH   7   9
ENDBRANCH   2   3
BRANCH   2  26
HETATM   26  C   UNL     1      -9.100   9.680  64.957  1.00  0.00    -0.233 C  
HETATM   27  C   UNL     1      -8.172  10.531  63.041  1.00  0.00    -0.136 C  
HETATM   28  H   UNL     1     -10.935  10.450  65.457  1.00  0.00     0.000 HD 
HETATM   29  C   UNL     1     -10.335  11.307  63.693  1.00  0.00    -0.408 C  
HETATM   30  N   UNL     1      -8.103   9.683  64.112  1.00  0.00    -0.140 NA 
HETATM   31  O   UNL     1     -11.333  11.996  63.511  1.00  0.00    -0.418 OA 
HETATM   32  N   UNL     1     -10.188  10.477  64.762  1.00  0.00    -0.341 N  
HETATM   33  C   UNL     1      -9.201  11.329  62.762  1.00  0.00    -0.354 C  
ENDBRANCH   2  26
TORSDOF 5
ENDMDL
MODEL       23
REMARK 921   NORMALIZED FREE ENERGY PREDICTED BY IDOCK:   -7.20 KCAL/MOL
REMARK 922        TOTAL FREE ENERGY PREDICTED BY IDOCK:  -10.72 KCAL/MOL
REMARK 923 INTER-LIGAND FREE ENERGY PREDICTED BY IDOCK:   -9.17 KCAL/MOL
REMARK 924 INTRA-LIGAND FREE ENERGY PREDICTED BY IDOCK:   -1.55 KCAL/MOL
REMARK 927      BINDING AFFINITY PREDICTED BY RF-SCORE:    0.00 PKD
ROOT
HETATM    1  C   UNL     1      -7.277   6.235  70.617  1.00  0.00    -0.074 C  
HETATM    2  N   UNL     1      -8.228   7.298  70.226  1.00  0.00    -0.131 NA 
ENDROOT
BRANCH   2   3
HETATM    3  C   UNL     1      -8.315   7.497  68.750  1.00  0.00    -0.129 C  
HETATM    4  C   UNL     1      -7.657   8.792  68.297  1.00  0.00    -0.096 C  
HETATM    5  C   UNL     1      -9.677   7.258  68.117  1.00  0.00    -0.155 C  
HETATM    6  C   UNL     1      -8.585   9.992  68.274  1.00  0.00    -0.115 C  
HETATM    7  N   UNL     1      -9.818   9.739  67.528  1.00  0.00    -0.160 NA 
HETATM    8  C   UNL     1     -10.507   8.466  67.681  1.00  0.00    -0.239 C  
BRANCH   7   9
HETATM    9  C   UNL     1     -10.272  10.742  66.701  1.00  0.00    -0.233 A  
HETATM   10  C   UNL     1     -11.067  11.748  64.951  1.00  0.00    -0.285 A  
HETATM   11  N   UNL     1     -10.499  10.588  65.408  1.00  0.00    -0.206 NA 
HETATM   12  C   UNL     1     -11.137  12.691  65.963  1.00  0.00    -0.287 A  
HETATM   13  N   UNL     1     -10.562  12.058  67.056  1.00  0.00    -0.221 NA 
HETATM   14  C   UNL     1     -11.698  13.965  65.777  1.00  0.00    -0.369 A  
HETATM   15  C   UNL     1     -12.213  14.260  64.511  1.00  0.00    -0.476 A  
HETATM   16  C   UNL     1     -12.147  13.328  63.475  1.00  0.00    -0.550 A  
HETATM   17  C   UNL     1     -11.566  12.069  63.680  1.00  0.00    -0.578 A  
BRANCH  13  18
HETATM   18  C   UNL     1     -10.248  12.783  68.280  1.00  0.00    -0.244 C  
BRANCH  18  19
HETATM   19  C   UNL     1     -11.356  12.740  69.313  1.00  0.00    -0.307 A  
HETATM   20  C   UNL     1     -11.923  13.953  69.738  1.00  0.00    -0.398 A  
HETATM   21  C   UNL     1     -12.793  13.979  70.826  1.00  0.00    -0.355 A  
HETATM   22  C   UNL     1     -13.125  12.793  71.470  1.00  0.00    -0.286 A  
HETATM   23  F   UNL     1     -13.889  12.830  72.569  1.00  0.00    -0.621 F  
HETATM   24  C   UNL     1     -12.662  11.574  71.000  1.00  0.00    -0.426 A  
HETATM   25  C   UNL     1     -11.798  11.544  69.907  1.00  0.00    -0.430 A  
ENDBRANCH  18  19
ENDBRANCH  13  18
ENDBRANCH   7   9
ENDBRANCH   2   3
BRANCH   2  26
HETATM   26  C   UNL     1      -9.305   7.459  71.077  1.00  0.00    -0.157 C  
HETATM   27  C   UNL     1     -10.824   8.716  72.249  1.00  0.00    -0.322 C  
HETATM   28  H   UNL     1      -9.513   5.428  71.275  1.00  0.00     0.000 HD 
HETATM   29  C   UNL     1     -11.003   6.336  72.352  1.00  0.00    -0.254 C  
HETATM   30  N   UNL     1      -9.752   8.644  71.402  1.00  0.00    -0.219 NA 
HETATM   31  O   UNL     1     -11.555   5.312  72.741  1.00  0.00    -0.284 OA 
HETATM   32  N   UNL     1      -9.906   6.330  71.545  1.00  0.00    -0.173 N  
HETATM   33  C   UNL     1     -11.484   7.668  72.738  1.00  0.00    -0.384 C  
ENDBRANCH   2  26
TORSDOF 5
ENDMDL
MODEL       24
REMARK 921   NORMALIZED FREE ENERGY PREDICTED BY IDOCK:   -7.20 KCAL/MOL
REMARK 922        TOTAL FREE ENERGY PREDICTED BY IDOCK:  -10.71 KCAL/MOL
REMARK 923 INTER-LIGAND FREE ENERGY PREDICTED BY IDOCK:   -9.26 KCAL/MOL
REMARK 924 INTRA-LIGAND FREE ENERGY PREDICTED BY IDOCK:   -1.45 KCAL/MOL
REMARK 927      BINDING AFFINITY PREDICTED BY RF-SCORE:    0.00 PKD
ROOT
HETATM    1  C   UNL     1      -5.131  18.865  69.693  1.00  0.00    -0.183 C  
HETATM    2  N   UNL     1      -5.997  18.466  68.563  1.00  0.00    -0.188 NA 
ENDROOT
BRANCH   2   3
HETATM    3  C   UNL     1      -7.230  17.742  68.994  1.00  0.00    -0.207 C  
HETATM    4  C   UNL     1      -7.145  16.245  68.736  1.00  0.00    -0.164 C  
HETATM    5  C   UNL     1      -8.555  18.355  68.565  1.00  0.00    -0.341 C  
HETATM    6  C   UNL     1      -7.653  15.813  67.373  1.00  0.00    -0.191 C  
HETATM    7  N   UNL     1      -8.994  16.323  67.083  1.00  0.00    -0.191 NA 
HETATM    8  C   UNL     1      -9.338  17.694  67.431  1.00  0.00    -0.247 C  
BRANCH   7   9
HETATM    9  C   UNL     1      -9.881  15.458  66.481  1.00  0.00    -0.272 A  
HETATM   10  C   UNL     1     -11.200  14.586  64.995  1.00  0.00    -0.382 A  
HETATM   11  N   UNL     1     -10.520  15.720  65.355  1.00  0.00    -0.394 NA 
HETATM   12  C   UNL     1     -11.049  13.600  65.956  1.00  0.00    -0.293 A  
HETATM   13  N   UNL     1     -10.261  14.194  66.932  1.00  0.00    -0.264 NA 
HETATM   14  C   UNL     1     -11.621  12.323  65.831  1.00  0.00    -0.450 A  
HETATM   15  C   UNL     1     -12.356  12.061  64.670  1.00  0.00    -0.244 A  
HETATM   16  C   UNL     1     -12.528  13.042  63.694  1.00  0.00    -0.400 A  
HETATM   17  C   UNL     1     -11.961  14.315  63.849  1.00  0.00    -0.219 A  
BRANCH  13  18
HETATM   18  C   UNL     1     -10.039  13.561  68.225  1.00  0.00    -0.247 C  
BRANCH  18  19
HETATM   19  C   UNL     1     -10.890  14.138  69.337  1.00  0.00    -0.169 A  
HETATM   20  C   UNL     1     -11.952  13.366  69.836  1.00  0.00    -0.408 A  
HETATM   21  C   UNL     1     -12.883  13.930  70.707  1.00  0.00    -0.329 A  
HETATM   22  C   UNL     1     -12.736  15.252  71.108  1.00  0.00    -0.410 A  
HETATM   23  F   UNL     1     -13.678  15.819  71.873  1.00  0.00    -0.515 F  
HETATM   24  C   UNL     1     -11.637  15.998  70.713  1.00  0.00    -0.431 A  
HETATM   25  C   UNL     1     -10.700  15.435  69.849  1.00  0.00    -0.315 A  
ENDBRANCH  18  19
ENDBRANCH  13  18
ENDBRANCH   7   9
ENDBRANCH   2   3
BRANCH   2  26
HETATM   26  C   UNL     1      -5.958  19.311  67.471  1.00  0.00    -0.193 C  
HETATM   27  C   UNL     1      -5.760  21.366  66.473  1.00  0.00    -0.301 C  
HETATM   28  H   UNL     1      -6.219  17.736  66.183  1.00  0.00     0.000 HD 
HETATM   29  C   UNL     1      -6.007  19.447  65.073  1.00  0.00    -0.247 C  
HETATM   30  N   UNL     1      -5.788  20.600  67.606  1.00  0.00    -0.224 NA 
HETATM   31  O   UNL     1      -6.080  18.921  63.967  1.00  0.00    -0.409 OA 
HETATM   32  N   UNL     1      -6.073  18.744  66.237  1.00  0.00    -0.163 N  
HETATM   33  C   UNL     1      -5.845  20.897  65.230  1.00  0.00    -0.273 C  
ENDBRANCH   2  26
TORSDOF 5
ENDMDL
MODEL       25
REMARK 921   NORMALIZED FREE ENERGY PREDICTED BY IDOCK:   -7.18 KCAL/MOL
REMARK 922        TOTAL FREE ENERGY PREDICTED BY IDOCK:  -10.69 KCAL/MOL
REMARK 923 INTER-LIGAND FREE ENERGY PREDICTED BY IDOCK:   -9.21 KCAL/MOL
REMARK 924 INTRA-LIGAND FREE ENERGY PREDICTED BY IDOCK:   -1.48 KCAL/MOL
REMARK 927      BINDING AFFINITY PREDICTED BY RF-SCORE:    0.00 PKD
ROOT
HETATM    1  C   UNL     1     -10.405  10.754  64.382  1.00  0.00    -0.335 C  
HETATM    2  N   UNL     1      -9.980  10.424  65.759  1.00  0.00    -0.255 NA 
ENDROOT
BRANCH   2   3
HETATM    3  C   UNL     1     -10.568  11.330  66.789  1.00  0.00    -0.260 C  
HETATM    4  C   UNL     1     -11.042  12.651  66.200  1.00  0.00    -0.327 C  
HETATM    5  C   UNL     1      -9.773  11.493  68.076  1.00  0.00    -0.187 C  
HETATM    6  C   UNL     1      -9.989  13.744  66.183  1.00  0.00    -0.308 C  
HETATM    7  N   UNL     1      -9.362  13.944  67.490  1.00  0.00    -0.209 NA 
HETATM    8  C   UNL     1      -9.000  12.792  68.303  1.00  0.00    -0.175 C  
BRANCH   7   9
HETATM    9  C   UNL     1      -9.141  15.243  67.890  1.00  0.00    -0.175 A  
HETATM   10  C   UNL     1      -8.117  17.109  68.310  1.00  0.00    -0.239 A  
HETATM   11  N   UNL     1      -7.942  15.777  68.039  1.00  0.00    -0.134 NA 
HETATM   12  C   UNL     1      -9.464  17.415  68.410  1.00  0.00    -0.293 A  
HETATM   13  N   UNL     1     -10.104  16.200  68.209  1.00  0.00    -0.228 NA 
HETATM   14  C   UNL     1      -9.931  18.716  68.659  1.00  0.00    -0.431 A  
HETATM   15  C   UNL     1      -8.973  19.727  68.793  1.00  0.00    -0.221 A  
HETATM   16  C   UNL     1      -7.611  19.439  68.703  1.00  0.00    -0.398 A  
HETATM   17  C   UNL     1      -7.168  18.130  68.471  1.00  0.00    -0.274 A  
BRANCH  13  18
HETATM   18  C   UNL     1     -11.534  16.042  68.441  1.00  0.00    -0.331 C  
BRANCH  18  19
HETATM   19  C   UNL     1     -11.862  15.280  69.709  1.00  0.00    -0.357 A  
HETATM   20  C   UNL     1     -12.194  13.919  69.604  1.00  0.00    -0.374 A  
HETATM   21  C   UNL     1     -12.700  13.232  70.707  1.00  0.00    -0.284 A  
HETATM   22  C   UNL     1     -12.843  13.892  71.922  1.00  0.00    -0.322 A  
HETATM   23  F   UNL     1     -13.412  13.258  72.954  1.00  0.00    -0.582 F  
HETATM   24  C   UNL     1     -12.420  15.204  72.074  1.00  0.00    -0.414 A  
HETATM   25  C   UNL     1     -11.906  15.891  70.975  1.00  0.00    -0.468 A  
ENDBRANCH  18  19
ENDBRANCH  13  18
ENDBRANCH   7   9
ENDBRANCH   2   3
BRANCH   2  26
HETATM   26  C   UNL     1      -9.723   9.086  65.986  1.00  0.00    -0.269 C  
HETATM   27  C   UNL     1      -8.467   7.176  65.792  1.00  0.00    -0.146 C  
HETATM   28  H   UNL     1     -11.454   8.887  67.069  1.00  0.00     0.000 HD 
HETATM   29  C   UNL     1     -10.475   7.085  67.082  1.00  0.00    -0.312 C  
HETATM   30  N   UNL     1      -8.648   8.505  65.521  1.00  0.00    -0.172 NA 
HETATM   31  O   UNL     1     -11.276   6.483  67.789  1.00  0.00    -0.305 OA 
HETATM   32  N   UNL     1     -10.623   8.395  66.741  1.00  0.00    -0.253 N  
HETATM   33  C   UNL     1      -9.282   6.430  66.534  1.00  0.00    -0.174 C  
ENDBRANCH   2  26
TORSDOF 5
ENDMDL
MODEL       26
REMARK 921   NORMALIZED FREE ENERGY PREDICTED BY IDOCK:   -7.12 KCAL/MOL
REMARK 922        TOTAL FREE ENERGY PREDICTED BY IDOCK:  -10.61 KCAL/MOL
REMARK 923 INTER-LIGAND FREE ENERGY PREDICTED BY IDOCK:   -9.29 KCAL/MOL
REMARK 924 INTRA-LIGAND FREE ENERGY PREDICTED BY IDOCK:   -1.32 KCAL/MOL
REMARK 927      BINDING AFFINITY PREDICTED BY RF-SCORE:    0.00 PKD
ROOT
HETATM    1  C   UNL     1      -8.813  14.400  66.940  1.00  0.00    -0.223 C  
HETATM    2  N   UNL     1      -9.288  13.038  66.614  1.00  0.00    -0.250 NA 
ENDROOT
BRANCH   2   3
HETATM    3  C   UNL     1      -9.323  12.129  67.797  1.00  0.00    -0.193 C  
HETATM    4  C   UNL     1      -8.194  11.109  67.780  1.00  0.00    -0.119 C  
HETATM    5  C   UNL     1     -10.676  11.525  68.143  1.00  0.00    -0.242 C  
HETATM    6  C   UNL     1      -8.531   9.811  67.070  1.00  0.00    -0.117 C  
HETATM    7  N   UNL     1      -9.775   9.210  67.551  1.00  0.00    -0.153 NA 
HETATM    8  C   UNL     1     -10.932  10.055  67.811  1.00  0.00    -0.249 C  
BRANCH   7   9
HETATM    9  C   UNL     1      -9.787   7.846  67.734  1.00  0.00    -0.163 A  
HETATM   10  C   UNL     1      -9.795   5.722  67.293  1.00  0.00    -0.141 A  
HETATM   11  N   UNL     1      -9.990   6.971  66.765  1.00  0.00    -0.204 NA 
HETATM   12  C   UNL     1      -9.534   5.799  68.651  1.00  0.00    -0.123 A  
HETATM   13  N   UNL     1      -9.601   7.156  68.932  1.00  0.00    -0.142 NA 
HETATM   14  C   UNL     1      -9.273   4.667  69.440  1.00  0.00    -0.179 A  
HETATM   15  C   UNL     1      -9.267   3.425  68.798  1.00  0.00    -0.229 A  
HETATM   16  C   UNL     1      -9.534   3.323  67.432  1.00  0.00    -0.198 A  
HETATM   17  C   UNL     1      -9.810   4.465  66.668  1.00  0.00    -0.246 A  
BRANCH  13  18
HETATM   18  C   UNL     1      -9.592   7.654  70.301  1.00  0.00    -0.172 C  
BRANCH  18  19
HETATM   19  C   UNL     1     -10.962   8.050  70.812  1.00  0.00    -0.259 A  
HETATM   20  C   UNL     1     -11.189   9.396  71.146  1.00  0.00    -0.427 A  
HETATM   21  C   UNL     1     -12.358   9.769  71.809  1.00  0.00    -0.470 A  
HETATM   22  C   UNL     1     -13.314   8.807  72.110  1.00  0.00    -0.423 A  
HETATM   23  F   UNL     1     -14.393   9.149  72.825  1.00  0.00    -0.464 F  
HETATM   24  C   UNL     1     -13.159   7.493  71.695  1.00  0.00    -0.401 A  
HETATM   25  C   UNL     1     -11.995   7.119  71.024  1.00  0.00    -0.387 A  
ENDBRANCH  18  19
ENDBRANCH  13  18
ENDBRANCH   7   9
ENDBRANCH   2   3
BRANCH   2  26
HETATM   26  C   UNL     1     -10.201  12.971  65.579  1.00  0.00    -0.285 C  
HETATM   27  C   UNL     1     -11.354  11.874  63.928  1.00  0.00    -0.428 C  
HETATM   28  H   UNL     1     -10.652  14.962  65.784  1.00  0.00     0.000 HD 
HETATM   29  C   UNL     1     -11.836  14.182  64.303  1.00  0.00    -0.397 C  
HETATM   30  N   UNL     1     -10.433  11.855  64.939  1.00  0.00    -0.274 NA 
HETATM   31  O   UNL     1     -12.461  15.208  64.053  1.00  0.00    -0.771 OA 
HETATM   32  N   UNL     1     -10.877  14.112  65.267  1.00  0.00    -0.329 N  
HETATM   33  C   UNL     1     -12.072  12.935  63.568  1.00  0.00    -0.633 C  
ENDBRANCH   2  26
TORSDOF 5
ENDMDL
MODEL       27
REMARK 921   NORMALIZED FREE ENERGY PREDICTED BY IDOCK:   -7.10 KCAL/MOL
REMARK 922        TOTAL FREE ENERGY PREDICTED BY IDOCK:  -10.59 KCAL/MOL
REMARK 923 INTER-LIGAND FREE ENERGY PREDICTED BY IDOCK:  -10.10 KCAL/MOL
REMARK 924 INTRA-LIGAND FREE ENERGY PREDICTED BY IDOCK:   -0.49 KCAL/MOL
REMARK 927      BINDING AFFINITY PREDICTED BY RF-SCORE:    0.00 PKD
ROOT
HETATM    1  C   UNL     1     -11.527  16.050  69.930  1.00  0.00    -0.326 C  
HETATM    2  N   UNL     1     -10.635  16.206  68.761  1.00  0.00    -0.262 NA 
ENDROOT
BRANCH   2   3
HETATM    3  C   UNL     1     -10.723  15.071  67.797  1.00  0.00    -0.278 C  
HETATM    4  C   UNL     1     -11.876  14.128  68.113  1.00  0.00    -0.387 C  
HETATM    5  C   UNL     1      -9.421  14.349  67.484  1.00  0.00    -0.207 C  
HETATM    6  C   UNL     1     -11.517  12.992  69.052  1.00  0.00    -0.303 C  
HETATM    7  N   UNL     1     -10.334  12.250  68.616  1.00  0.00    -0.215 NA 
HETATM    8  C   UNL     1      -9.180  12.969  68.097  1.00  0.00    -0.212 C  
BRANCH   7   9
HETATM    9  C   UNL     1     -10.376  10.878  68.722  1.00  0.00    -0.198 A  
HETATM   10  C   UNL     1     -10.765   8.898  69.520  1.00  0.00    -0.199 A  
HETATM   11  N   UNL     1     -10.698  10.231  69.829  1.00  0.00    -0.268 NA 
HETATM   12  C   UNL     1     -10.403   8.682  68.201  1.00  0.00    -0.216 A  
HETATM   13  N   UNL     1     -10.090   9.947  67.724  1.00  0.00    -0.170 NA 
HETATM   14  C   UNL     1     -10.405   7.407  67.612  1.00  0.00    -0.297 A  
HETATM   15  C   UNL     1     -10.808   6.332  68.410  1.00  0.00    -0.394 A  
HETATM   16  C   UNL     1     -11.170   6.526  69.743  1.00  0.00    -0.456 A  
HETATM   17  C   UNL     1     -11.143   7.805  70.315  1.00  0.00    -0.242 A  
BRANCH  13  18
HETATM   18  C   UNL     1      -9.457  10.139  66.426  1.00  0.00    -0.176 C  
BRANCH  18  19
HETATM   19  C   UNL     1     -10.339  10.852  65.420  1.00  0.00    -0.326 A  
HETATM   20  C   UNL     1      -9.917  10.910  64.082  1.00  0.00    -0.403 A  
HETATM   21  C   UNL     1     -10.584  11.724  63.168  1.00  0.00    -0.341 A  
HETATM   22  C   UNL     1     -11.693  12.454  63.580  1.00  0.00    -0.514 A  
HETATM   23  F   UNL     1     -12.278  13.304  62.727  1.00  0.00    -0.509 F  
HETATM   24  C   UNL     1     -12.190  12.328  64.868  1.00  0.00    -0.410 A  
HETATM   25  C   UNL     1     -11.530  11.508  65.782  1.00  0.00    -0.076 A  
ENDBRANCH  18  19
ENDBRANCH  13  18
ENDBRANCH   7   9
ENDBRANCH   2   3
BRANCH   2  26
HETATM   26  C   UNL     1     -10.404  17.513  68.374  1.00  0.00    -0.378 C  
HETATM   27  C   UNL     1      -9.730  19.674  68.743  1.00  0.00    -0.405 C  
HETATM   28  H   UNL     1     -11.047  17.111  66.468  1.00  0.00     0.000 HD 
HETATM   29  C   UNL     1     -10.442  19.069  66.544  1.00  0.00    -0.443 C  
HETATM   30  N   UNL     1      -9.930  18.402  69.207  1.00  0.00    -0.177 NA 
HETATM   31  O   UNL     1     -10.649  19.338  65.366  1.00  0.00    -0.492 OA 
HETATM   32  N   UNL     1     -10.664  17.835  67.076  1.00  0.00    -0.253 N  
HETATM   33  C   UNL     1      -9.937  20.071  67.489  1.00  0.00    -0.565 C  
ENDBRANCH   2  26
TORSDOF 5
ENDMDL
MODEL       28
REMARK 921   NORMALIZED FREE ENERGY PREDICTED BY IDOCK:   -7.10 KCAL/MOL
REMARK 922        TOTAL FREE ENERGY PREDICTED BY IDOCK:  -10.59 KCAL/MOL
REMARK 923 INTER-LIGAND FREE ENERGY PREDICTED BY IDOCK:   -9.30 KCAL/MOL
REMARK 924 INTRA-LIGAND FREE ENERGY PREDICTED BY IDOCK:   -1.28 KCAL/MOL
REMARK 927      BINDING AFFINITY PREDICTED BY RF-SCORE:    0.00 PKD
ROOT
HETATM    1  C   UNL     1      -7.986   7.207  66.314  1.00  0.00    -0.110 C  
HETATM    2  N   UNL     1      -8.823   8.412  66.492  1.00  0.00    -0.139 NA 
ENDROOT
BRANCH   2   3
HETATM    3  C   UNL     1      -8.788   8.955  67.881  1.00  0.00    -0.133 C  
HETATM    4  C   UNL     1     -10.123   8.809  68.597  1.00  0.00    -0.207 C  
HETATM    5  C   UNL     1      -8.158  10.329  68.053  1.00  0.00    -0.106 C  
HETATM    6  C   UNL     1     -11.064   9.986  68.415  1.00  0.00    -0.182 C  
HETATM    7  N   UNL     1     -10.433  11.268  68.733  1.00  0.00    -0.202 NA 
HETATM    8  C   UNL     1      -9.070  11.532  68.293  1.00  0.00    -0.185 C  
BRANCH   7   9
HETATM    9  C   UNL     1     -11.180  12.179  69.446  1.00  0.00    -0.182 A  
HETATM   10  C   UNL     1     -12.547  12.998  70.918  1.00  0.00    -0.280 A  
HETATM   11  N   UNL     1     -12.125  11.846  70.308  1.00  0.00    -0.344 NA 
HETATM   12  C   UNL     1     -11.907  14.101  70.377  1.00  0.00    -0.297 A  
HETATM   13  N   UNL     1     -11.088  13.569  69.391  1.00  0.00    -0.174 NA 
HETATM   14  C   UNL     1     -12.134  15.410  70.833  1.00  0.00    -0.413 A  
HETATM   15  C   UNL     1     -13.037  15.575  71.888  1.00  0.00    -0.539 A  
HETATM   16  C   UNL     1     -13.699  14.478  72.442  1.00  0.00    -0.583 A  
HETATM   17  C   UNL     1     -13.469  13.183  71.959  1.00  0.00    -0.598 A  
BRANCH  13  18
HETATM   18  C   UNL     1     -10.392  14.419  68.435  1.00  0.00    -0.244 C  
BRANCH  18  19
HETATM   19  C   UNL     1     -10.930  14.310  67.022  1.00  0.00    -0.305 A  
HETATM   20  C   UNL     1     -12.277  13.951  66.845  1.00  0.00    -0.415 A  
HETATM   21  C   UNL     1     -12.760  13.639  65.576  1.00  0.00    -0.514 A  
HETATM   22  C   UNL     1     -11.911  13.716  64.478  1.00  0.00    -0.412 A  
HETATM   23  F   UNL     1     -12.351  13.329  63.274  1.00  0.00    -0.581 F  
HETATM   24  C   UNL     1     -10.608  14.171  64.616  1.00  0.00    -0.391 A  
HETATM   25  C   UNL     1     -10.125  14.492  65.883  1.00  0.00    -0.346 A  
ENDBRANCH  18  19
ENDBRANCH  13  18
ENDBRANCH   7   9
ENDBRANCH   2   3
BRANCH   2  26
HETATM   26  C   UNL     1      -8.942   9.211  65.370  1.00  0.00    -0.207 C  
HETATM   27  C   UNL     1     -10.078  10.631  63.972  1.00  0.00    -0.310 C  
HETATM   28  H   UNL     1      -7.018   8.779  64.801  1.00  0.00     0.000 HD 
HETATM   29  C   UNL     1      -7.808  10.102  63.448  1.00  0.00    -0.155 C  
HETATM   30  N   UNL     1     -10.044   9.862  65.103  1.00  0.00    -0.236 NA 
HETATM   31  O   UNL     1      -6.809  10.215  62.746  1.00  0.00    -0.124 OA 
HETATM   32  N   UNL     1      -7.851   9.317  64.561  1.00  0.00    -0.112 N  
HETATM   33  C   UNL     1      -9.056  10.808  63.138  1.00  0.00    -0.276 C  
ENDBRANCH   2  26
TORSDOF 5
ENDMDL
MODEL       29
REMARK 921   NORMALIZED FREE ENERGY PREDICTED BY IDOCK:   -7.09 KCAL/MOL
REMARK 922        TOTAL FREE ENERGY PREDICTED BY IDOCK:  -10.57 KCAL/MOL
REMARK 923 INTER-LIGAND FREE ENERGY PREDICTED BY IDOCK:   -9.76 KCAL/MOL
REMARK 924 INTRA-LIGAND FREE ENERGY PREDICTED BY IDOCK:   -0.81 KCAL/MOL
REMARK 927      BINDING AFFINITY PREDICTED BY RF-SCORE:    0.00 PKD
ROOT
HETATM    1  C   UNL     1     -10.613   7.920  67.006  1.00  0.00    -0.311 C  
HETATM    2  N   UNL     1     -10.240   9.073  67.853  1.00  0.00    -0.208 NA 
ENDROOT
BRANCH   2   3
HETATM    3  C   UNL     1     -10.866  10.354  67.413  1.00  0.00    -0.286 C  
HETATM    4  C   UNL     1      -9.895  11.245  66.652  1.00  0.00    -0.235 C  
HETATM    5  C   UNL     1     -11.678  11.102  68.460  1.00  0.00    -0.368 C  
HETATM    6  C   UNL     1      -9.108  12.205  67.525  1.00  0.00    -0.180 C  
HETATM    7  N   UNL     1      -9.965  12.995  68.411  1.00  0.00    -0.232 NA 
HETATM    8  C   UNL     1     -11.081  12.357  69.095  1.00  0.00    -0.203 C  
BRANCH   7   9
HETATM    9  C   UNL     1      -9.663  14.331  68.553  1.00  0.00    -0.225 A  
HETATM   10  C   UNL     1      -8.527  16.179  68.594  1.00  0.00    -0.216 A  
HETATM   11  N   UNL     1      -8.432  14.812  68.578  1.00  0.00    -0.153 NA 
HETATM   12  C   UNL     1      -9.852  16.577  68.656  1.00  0.00    -0.250 A  
HETATM   13  N   UNL     1     -10.563  15.386  68.700  1.00  0.00    -0.233 NA 
HETATM   14  C   UNL     1     -10.240  17.927  68.661  1.00  0.00    -0.387 A  
HETATM   15  C   UNL     1      -9.225  18.886  68.584  1.00  0.00    -0.399 A  
HETATM   16  C   UNL     1      -7.884  18.507  68.529  1.00  0.00    -0.341 A  
HETATM   17  C   UNL     1      -7.520  17.154  68.543  1.00  0.00    -0.238 A  
BRANCH  13  18
HETATM   18  C   UNL     1     -11.992  15.359  68.981  1.00  0.00    -0.288 C  
BRANCH  18  19
HETATM   19  C   UNL     1     -12.319  15.347  70.460  1.00  0.00    -0.452 A  
HETATM   20  C   UNL     1     -11.587  16.188  71.314  1.00  0.00    -0.470 A  
HETATM   21  C   UNL     1     -11.708  16.063  72.697  1.00  0.00    -0.513 A  
HETATM   22  C   UNL     1     -12.582  15.123  73.229  1.00  0.00    -0.499 A  
HETATM   23  F   UNL     1     -12.630  14.942  74.555  1.00  0.00    -0.552 F  
HETATM   24  C   UNL     1     -13.392  14.357  72.405  1.00  0.00    -0.546 A  
HETATM   25  C   UNL     1     -13.280  14.486  71.021  1.00  0.00    -0.414 A  
ENDBRANCH  18  19
ENDBRANCH  13  18
ENDBRANCH   7   9
ENDBRANCH   2   3
BRANCH   2  26
HETATM   26  C   UNL     1      -9.990   8.767  69.177  1.00  0.00    -0.191 C  
HETATM   27  C   UNL     1      -8.809   8.940  71.135  1.00  0.00    -0.237 C  
HETATM   28  H   UNL     1     -11.614   7.516  69.244  1.00  0.00     0.000 HD 
HETATM   29  C   UNL     1     -10.757   7.558  71.106  1.00  0.00    -0.227 C  
HETATM   30  N   UNL     1      -8.985   9.294  69.826  1.00  0.00    -0.158 NA 
HETATM   31  O   UNL     1     -11.559   6.813  71.660  1.00  0.00    -0.264 OA 
HETATM   32  N   UNL     1     -10.853   7.913  69.795  1.00  0.00    -0.235 N  
HETATM   33  C   UNL     1      -9.611   8.129  71.822  1.00  0.00    -0.249 C  
ENDBRANCH   2  26
TORSDOF 5
ENDMDL
MODEL       30
REMARK 921   NORMALIZED FREE ENERGY PREDICTED BY IDOCK:   -7.02 KCAL/MOL
REMARK 922        TOTAL FREE ENERGY PREDICTED BY IDOCK:  -10.48 KCAL/MOL
REMARK 923 INTER-LIGAND FREE ENERGY PREDICTED BY IDOCK:   -9.32 KCAL/MOL
REMARK 924 INTRA-LIGAND FREE ENERGY PREDICTED BY IDOCK:   -1.17 KCAL/MOL
REMARK 927      BINDING AFFINITY PREDICTED BY RF-SCORE:    0.00 PKD
ROOT
HETATM    1  C   UNL     1     -10.292   8.460  66.725  1.00  0.00    -0.287 C  
HETATM    2  N   UNL     1     -10.488   9.861  66.295  1.00  0.00    -0.154 NA 
ENDROOT
BRANCH   2   3
HETATM    3  C   UNL     1     -10.642  10.810  67.436  1.00  0.00    -0.242 C  
HETATM    4  C   UNL     1     -11.572  11.970  67.106  1.00  0.00    -0.387 C  
HETATM    5  C   UNL     1      -9.360  11.243  68.132  1.00  0.00    -0.181 C  
HETATM    6  C   UNL     1     -10.878  13.178  66.504  1.00  0.00    -0.280 C  
HETATM    7  N   UNL     1      -9.735  13.628  67.300  1.00  0.00    -0.237 NA 
HETATM    8  C   UNL     1      -8.821  12.650  67.871  1.00  0.00    -0.182 C  
BRANCH   7   9
HETATM    9  C   UNL     1      -9.582  14.986  67.470  1.00  0.00    -0.203 A  
HETATM   10  C   UNL     1      -8.695  16.965  67.431  1.00  0.00    -0.203 A  
HETATM   11  N   UNL     1      -8.435  15.625  67.318  1.00  0.00    -0.177 NA 
HETATM   12  C   UNL     1     -10.028  17.182  67.737  1.00  0.00    -0.290 A  
HETATM   13  N   UNL     1     -10.566  15.906  67.827  1.00  0.00    -0.295 NA 
HETATM   14  C   UNL     1     -10.573  18.467  67.888  1.00  0.00    -0.385 A  
HETATM   15  C   UNL     1      -9.715  19.555  67.700  1.00  0.00    -0.450 A  
HETATM   16  C   UNL     1      -8.367  19.359  67.399  1.00  0.00    -0.325 A  
HETATM   17  C   UNL     1      -7.840  18.067  67.271  1.00  0.00    -0.224 A  
BRANCH  13  18
HETATM   18  C   UNL     1     -11.911  15.679  68.341  1.00  0.00    -0.197 C  
BRANCH  18  19
HETATM   19  C   UNL     1     -11.945  15.322  69.813  1.00  0.00    -0.374 A  
HETATM   20  C   UNL     1     -12.473  14.075  70.187  1.00  0.00    -0.380 A  
HETATM   21  C   UNL     1     -12.715  13.787  71.530  1.00  0.00    -0.432 A  
HETATM   22  C   UNL     1     -12.400  14.729  72.502  1.00  0.00    -0.300 A  
HETATM   23  F   UNL     1     -12.715  14.489  73.781  1.00  0.00    -0.584 F  
HETATM   24  C   UNL     1     -11.780  15.922  72.163  1.00  0.00    -0.586 A  
HETATM   25  C   UNL     1     -11.529  16.209  70.823  1.00  0.00    -0.408 A  
ENDBRANCH  18  19
ENDBRANCH  13  18
ENDBRANCH   7   9
ENDBRANCH   2   3
BRANCH   2  26
HETATM   26  C   UNL     1      -9.867  10.199  65.107  1.00  0.00    -0.325 C  
HETATM   27  C   UNL     1      -9.838  11.046  62.976  1.00  0.00    -0.337 C  
HETATM   28  H   UNL     1      -8.057   9.534  65.808  1.00  0.00     0.000 HD 
HETATM   29  C   UNL     1      -7.778  10.296  63.925  1.00  0.00    -0.101 C  
HETATM   30  N   UNL     1     -10.528  10.740  64.118  1.00  0.00    -0.329 NA 
HETATM   31  O   UNL     1      -6.567  10.117  63.867  1.00  0.00    -0.132 OA 
HETATM   32  N   UNL     1      -8.527   9.972  65.016  1.00  0.00    -0.150 N  
HETATM   33  C   UNL     1      -8.529  10.877  62.806  1.00  0.00    -0.184 C  
ENDBRANCH   2  26
TORSDOF 5
ENDMDL
MODEL       31
REMARK 921   NORMALIZED FREE ENERGY PREDICTED BY IDOCK:   -6.98 KCAL/MOL
REMARK 922        TOTAL FREE ENERGY PREDICTED BY IDOCK:  -10.43 KCAL/MOL
REMARK 923 INTER-LIGAND FREE ENERGY PREDICTED BY IDOCK:   -9.57 KCAL/MOL
REMARK 924 INTRA-LIGAND FREE ENERGY PREDICTED BY IDOCK:   -0.86 KCAL/MOL
REMARK 927      BINDING AFFINITY PREDICTED BY RF-SCORE:    0.00 PKD
ROOT
HETATM    1  C   UNL     1     -10.373  19.824  66.075  1.00  0.00    -0.511 C  
HETATM    2  N   UNL     1      -9.317  19.809  67.110  1.00  0.00    -0.333 NA 
ENDROOT
BRANCH   2   3
HETATM    3  C   UNL     1      -9.570  18.817  68.195  1.00  0.00    -0.332 C  
HETATM    4  C   UNL     1      -8.378  17.901  68.435  1.00  0.00    -0.307 C  
HETATM    5  C   UNL     1     -10.898  18.077  68.137  1.00  0.00    -0.149 C  
HETATM    6  C   UNL     1      -8.383  16.634  67.600  1.00  0.00    -0.173 C  
HETATM    7  N   UNL     1      -9.644  15.896  67.701  1.00  0.00    -0.220 NA 
HETATM    8  C   UNL     1     -10.908  16.618  67.680  1.00  0.00    -0.258 C  
BRANCH   7   9
HETATM    9  C   UNL     1      -9.565  14.526  67.810  1.00  0.00    -0.215 A  
HETATM   10  C   UNL     1      -8.756  12.513  67.775  1.00  0.00    -0.178 A  
HETATM   11  N   UNL     1      -8.548  13.806  67.371  1.00  0.00    -0.192 NA 
HETATM   12  C   UNL     1      -9.973  12.393  68.424  1.00  0.00    -0.210 A  
HETATM   13  N   UNL     1     -10.510  13.672  68.378  1.00  0.00    -0.242 NA 
HETATM   14  C   UNL     1     -10.430  11.179  68.964  1.00  0.00    -0.233 A  
HETATM   15  C   UNL     1      -9.592  10.067  68.838  1.00  0.00    -0.181 A  
HETATM   16  C   UNL     1      -8.365  10.164  68.181  1.00  0.00    -0.117 A  
HETATM   17  C   UNL     1      -7.939  11.381  67.635  1.00  0.00    -0.123 A  
BRANCH  13  18
HETATM   18  C   UNL     1     -11.888  13.937  68.771  1.00  0.00    -0.361 C  
BRANCH  18  19
HETATM   19  C   UNL     1     -12.050  14.242  70.246  1.00  0.00    -0.403 A  
HETATM   20  C   UNL     1     -12.696  13.295  71.058  1.00  0.00    -0.374 A  
HETATM   21  C   UNL     1     -13.050  13.616  72.368  1.00  0.00    -0.498 A  
HETATM   22  C   UNL     1     -12.730  14.869  72.879  1.00  0.00    -0.435 A  
HETATM   23  F   UNL     1     -13.149  15.208  74.104  1.00  0.00    -0.469 F  
HETATM   24  C   UNL     1     -11.999  15.778  72.130  1.00  0.00    -0.580 A  
HETATM   25  C   UNL     1     -11.636  15.457  70.824  1.00  0.00    -0.381 A  
ENDBRANCH  18  19
ENDBRANCH  13  18
ENDBRANCH   7   9
ENDBRANCH   2   3
BRANCH   2  26
HETATM   26  C   UNL     1      -8.052  20.130  66.656  1.00  0.00    -0.287 C  
HETATM   27  C   UNL     1      -6.059  21.261  66.763  1.00  0.00    -0.327 C  
HETATM   28  H   UNL     1      -8.230  18.820  65.088  1.00  0.00     0.000 HD 
HETATM   29  C   UNL     1      -6.361  19.661  65.015  1.00  0.00    -0.276 C  
HETATM   30  N   UNL     1      -7.300  21.001  67.277  1.00  0.00    -0.399 NA 
HETATM   31  O   UNL     1      -5.956  19.046  64.035  1.00  0.00    -0.452 OA 
HETATM   32  N   UNL     1      -7.602  19.480  65.547  1.00  0.00    -0.123 N  
HETATM   33  C   UNL     1      -5.532  20.660  65.698  1.00  0.00    -0.229 C  
ENDBRANCH   2  26
TORSDOF 5
ENDMDL
MODEL       32
REMARK 921   NORMALIZED FREE ENERGY PREDICTED BY IDOCK:   -6.97 KCAL/MOL
REMARK 922        TOTAL FREE ENERGY PREDICTED BY IDOCK:  -10.42 KCAL/MOL
REMARK 923 INTER-LIGAND FREE ENERGY PREDICTED BY IDOCK:   -8.84 KCAL/MOL
REMARK 924 INTRA-LIGAND FREE ENERGY PREDICTED BY IDOCK:   -1.57 KCAL/MOL
REMARK 927      BINDING AFFINITY PREDICTED BY RF-SCORE:    0.00 PKD
ROOT
HETATM    1  C   UNL     1     -10.785   9.226  66.847  1.00  0.00    -0.094 C  
HETATM    2  N   UNL     1      -9.580   9.483  67.664  1.00  0.00    -0.134 NA 
ENDROOT
BRANCH   2   3
HETATM    3  C   UNL     1      -8.693  10.537  67.090  1.00  0.00    -0.130 C  
HETATM    4  C   UNL     1      -8.216  11.531  68.140  1.00  0.00    -0.149 C  
HETATM    5  C   UNL     1      -9.174  11.198  65.807  1.00  0.00    -0.234 C  
HETATM    6  C   UNL     1      -9.126  12.731  68.326  1.00  0.00    -0.180 C  
HETATM    7  N   UNL     1      -9.436  13.405  67.064  1.00  0.00    -0.239 NA 
HETATM    8  C   UNL     1      -9.738  12.617  65.878  1.00  0.00    -0.207 C  
BRANCH   7   9
HETATM    9  C   UNL     1      -9.426  14.782  67.066  1.00  0.00    -0.231 A  
HETATM   10  C   UNL     1      -8.755  16.824  66.771  1.00  0.00    -0.230 A  
HETATM   11  N   UNL     1      -8.355  15.514  66.814  1.00  0.00    -0.253 NA 
HETATM   12  C   UNL     1     -10.102  16.935  67.076  1.00  0.00    -0.289 A  
HETATM   13  N   UNL     1     -10.501  15.631  67.330  1.00  0.00    -0.284 NA 
HETATM   14  C   UNL     1     -10.780  18.165  67.082  1.00  0.00    -0.309 A  
HETATM   15  C   UNL     1     -10.043  19.306  66.747  1.00  0.00    -0.480 A  
HETATM   16  C   UNL     1      -8.684  19.217  66.443  1.00  0.00    -0.362 A  
HETATM   17  C   UNL     1      -8.024  17.981  66.461  1.00  0.00    -0.294 A  
BRANCH  13  18
HETATM   18  C   UNL     1     -11.809  15.329  67.895  1.00  0.00    -0.125 C  
BRANCH  18  19
HETATM   19  C   UNL     1     -11.789  15.124  69.396  1.00  0.00    -0.357 A  
HETATM   20  C   UNL     1     -12.359  13.952  69.920  1.00  0.00    -0.358 A  
HETATM   21  C   UNL     1     -12.549  13.815  71.294  1.00  0.00    -0.444 A  
HETATM   22  C   UNL     1     -12.140  14.831  72.149  1.00  0.00    -0.297 A  
HETATM   23  F   UNL     1     -12.404  14.739  73.458  1.00  0.00    -0.473 F  
HETATM   24  C   UNL     1     -11.479  15.949  71.663  1.00  0.00    -0.473 A  
HETATM   25  C   UNL     1     -11.280  16.085  70.290  1.00  0.00    -0.397 A  
ENDBRANCH  18  19
ENDBRANCH  13  18
ENDBRANCH   7   9
ENDBRANCH   2   3
BRANCH   2  26
HETATM   26  C   UNL     1      -9.743   9.287  69.022  1.00  0.00    -0.162 C  
HETATM   27  C   UNL     1      -9.088   8.505  71.076  1.00  0.00    -0.179 C  
HETATM   28  H   UNL     1     -11.539  10.278  68.996  1.00  0.00     0.000 HD 
HETATM   29  C   UNL     1     -11.134   9.729  70.930  1.00  0.00    -0.357 C  
HETATM   30  N   UNL     1      -8.850   8.655  69.737  1.00  0.00    -0.135 NA 
HETATM   31  O   UNL     1     -12.130  10.229  71.442  1.00  0.00    -0.372 OA 
HETATM   32  N   UNL     1     -10.864   9.806  69.598  1.00  0.00    -0.240 N  
HETATM   33  C   UNL     1     -10.143   8.994  71.724  1.00  0.00    -0.373 C  
ENDBRANCH   2  26
TORSDOF 5
ENDMDL
MODEL       33
REMARK 921   NORMALIZED FREE ENERGY PREDICTED BY IDOCK:   -6.94 KCAL/MOL
REMARK 922        TOTAL FREE ENERGY PREDICTED BY IDOCK:  -10.39 KCAL/MOL
REMARK 923 INTER-LIGAND FREE ENERGY PREDICTED BY IDOCK:   -9.23 KCAL/MOL
REMARK 924 INTRA-LIGAND FREE ENERGY PREDICTED BY IDOCK:   -1.15 KCAL/MOL
REMARK 927      BINDING AFFINITY PREDICTED BY RF-SCORE:    0.00 PKD
ROOT
HETATM    1  C   UNL     1     -10.291  12.350  63.598  1.00  0.00    -0.403 C  
HETATM    2  N   UNL     1      -9.641  11.407  64.533  1.00  0.00    -0.220 NA 
ENDROOT
BRANCH   2   3
HETATM    3  C   UNL     1     -10.471  11.103  65.735  1.00  0.00    -0.246 C  
HETATM    4  C   UNL     1     -11.711  11.982  65.823  1.00  0.00    -0.313 C  
HETATM    5  C   UNL     1      -9.725  10.977  67.055  1.00  0.00    -0.208 C  
HETATM    6  C   UNL     1     -11.507  13.279  66.584  1.00  0.00    -0.347 C  
HETATM    7  N   UNL     1     -10.914  13.071  67.906  1.00  0.00    -0.234 NA 
HETATM    8  C   UNL     1      -9.825  12.118  68.068  1.00  0.00    -0.202 C  
BRANCH   7   9
HETATM    9  C   UNL     1     -11.427  13.807  68.950  1.00  0.00    -0.304 A  
HETATM   10  C   UNL     1     -12.748  14.445  70.549  1.00  0.00    -0.340 A  
HETATM   11  N   UNL     1     -12.642  13.642  69.443  1.00  0.00     0.029 NA 
HETATM   12  C   UNL     1     -11.597  15.195  70.721  1.00  0.00    -0.317 A  
HETATM   13  N   UNL     1     -10.790  14.828  69.654  1.00  0.00    -0.249 NA 
HETATM   14  C   UNL     1     -11.425  16.087  71.793  1.00  0.00    -0.425 A  
HETATM   15  C   UNL     1     -12.470  16.190  72.716  1.00  0.00    -0.557 A  
HETATM   16  C   UNL     1     -13.642  15.449  72.557  1.00  0.00    -0.634 A  
HETATM   17  C   UNL     1     -13.798  14.578  71.470  1.00  0.00    -0.477 A  
BRANCH  13  18
HETATM   18  C   UNL     1      -9.560  15.546  69.344  1.00  0.00    -0.279 C  
BRANCH  18  19
HETATM   19  C   UNL     1      -9.743  16.648  68.321  1.00  0.00    -0.244 A  
HETATM   20  C   UNL     1     -10.093  17.931  68.774  1.00  0.00    -0.384 A  
HETATM   21  C   UNL     1     -10.471  18.919  67.866  1.00  0.00    -0.459 A  
HETATM   22  C   UNL     1     -10.468  18.640  66.505  1.00  0.00    -0.420 A  
HETATM   23  F   UNL     1     -10.916  19.559  65.641  1.00  0.00    -0.527 F  
HETATM   24  C   UNL     1     -10.023  17.415  66.030  1.00  0.00    -0.230 A  
HETATM   25  C   UNL     1      -9.637  16.428  66.935  1.00  0.00    -0.255 A  
ENDBRANCH  18  19
ENDBRANCH  13  18
ENDBRANCH   7   9
ENDBRANCH   2   3
BRANCH   2  26
HETATM   26  C   UNL     1      -8.802  10.484  63.939  1.00  0.00    -0.194 C  
HETATM   27  C   UNL     1      -8.294   8.867  62.393  1.00  0.00    -0.194 C  
HETATM   28  H   UNL     1      -7.287  10.955  65.240  1.00  0.00     0.000 HD 
HETATM   29  C   UNL     1      -6.590   9.545  63.923  1.00  0.00    -0.101 C  
HETATM   30  N   UNL     1      -9.188   9.757  62.924  1.00  0.00    -0.269 NA 
HETATM   31  O   UNL     1      -5.446   9.482  64.360  1.00  0.00    -0.058 OA 
HETATM   32  N   UNL     1      -7.538  10.378  64.437  1.00  0.00    -0.081 N  
HETATM   33  C   UNL     1      -7.037   8.711  62.802  1.00  0.00    -0.090 C  
ENDBRANCH   2  26
TORSDOF 5
ENDMDL
MODEL       34
REMARK 921   NORMALIZED FREE ENERGY PREDICTED BY IDOCK:   -6.90 KCAL/MOL
REMARK 922        TOTAL FREE ENERGY PREDICTED BY IDOCK:  -10.33 KCAL/MOL
REMARK 923 INTER-LIGAND FREE ENERGY PREDICTED BY IDOCK:   -8.31 KCAL/MOL
REMARK 924 INTRA-LIGAND FREE ENERGY PREDICTED BY IDOCK:   -2.02 KCAL/MOL
REMARK 927      BINDING AFFINITY PREDICTED BY RF-SCORE:    0.00 PKD
ROOT
HETATM    1  C   UNL     1     -10.551   9.777  70.489  1.00  0.00    -0.312 C  
HETATM    2  N   UNL     1     -10.741   9.446  69.061  1.00  0.00    -0.214 NA 
ENDROOT
BRANCH   2   3
HETATM    3  C   UNL     1     -11.205  10.605  68.244  1.00  0.00    -0.301 C  
HETATM    4  C   UNL     1     -10.092  11.197  67.391  1.00  0.00    -0.213 C  
HETATM    5  C   UNL     1     -12.032  11.654  68.971  1.00  0.00    -0.368 C  
HETATM    6  C   UNL     1      -9.299  12.298  68.070  1.00  0.00    -0.195 C  
HETATM    7  N   UNL     1     -10.153  13.349  68.626  1.00  0.00    -0.200 NA 
HETATM    8  C   UNL     1     -11.379  12.990  69.326  1.00  0.00    -0.251 C  
BRANCH   7   9
HETATM    9  C   UNL     1      -9.742  14.651  68.456  1.00  0.00    -0.225 A  
HETATM   10  C   UNL     1      -8.548  16.457  68.605  1.00  0.00    -0.237 A  
HETATM   11  N   UNL     1      -8.759  15.212  69.138  1.00  0.00    -0.215 NA 
HETATM   12  C   UNL     1      -9.470  16.725  67.607  1.00  0.00    -0.234 A  
HETATM   13  N   UNL     1     -10.269  15.591  67.570  1.00  0.00    -0.250 NA 
HETATM   14  C   UNL     1      -9.469  17.923  66.874  1.00  0.00    -0.279 A  
HETATM   15  C   UNL     1      -8.476  18.859  67.177  1.00  0.00    -0.290 A  
HETATM   16  C   UNL     1      -7.542  18.613  68.184  1.00  0.00    -0.292 A  
HETATM   17  C   UNL     1      -7.573  17.417  68.914  1.00  0.00    -0.224 A  
BRANCH  13  18
HETATM   18  C   UNL     1     -11.500  15.549  66.791  1.00  0.00     0.043 C  
BRANCH  18  19
HETATM   19  C   UNL     1     -11.506  14.474  65.723  1.00  0.00    -0.342 A  
HETATM   20  C   UNL     1     -12.662  13.692  65.567  1.00  0.00    -0.514 A  
HETATM   21  C   UNL     1     -12.643  12.565  64.747  1.00  0.00    -0.493 A  
HETATM   22  C   UNL     1     -11.483  12.236  64.056  1.00  0.00    -0.409 A  
HETATM   23  F   UNL     1     -11.438  11.106  63.340  1.00  0.00    -0.401 F  
HETATM   24  C   UNL     1     -10.365  13.055  64.112  1.00  0.00    -0.345 A  
HETATM   25  C   UNL     1     -10.383  14.187  64.925  1.00  0.00    -0.435 A  
ENDBRANCH  18  19
ENDBRANCH  13  18
ENDBRANCH   7   9
ENDBRANCH   2   3
BRANCH   2  26
HETATM   26  C   UNL     1      -9.899   8.464  68.574  1.00  0.00    -0.173 C  
HETATM   27  C   UNL     1      -7.898   7.350  68.455  1.00  0.00    -0.122 C  
HETATM   28  H   UNL     1     -11.380   7.731  67.358  1.00  0.00     0.000 HD 
HETATM   29  C   UNL     1      -9.718   6.552  67.131  1.00  0.00    -0.143 C  
HETATM   30  N   UNL     1      -8.664   8.350  68.987  1.00  0.00    -0.141 NA 
HETATM   31  O   UNL     1     -10.205   5.756  66.334  1.00  0.00    -0.180 OA 
HETATM   32  N   UNL     1     -10.416   7.594  67.661  1.00  0.00    -0.241 N  
HETATM   33  C   UNL     1      -8.324   6.446  67.576  1.00  0.00    -0.117 C  
ENDBRANCH   2  26
TORSDOF 5
ENDMDL
MODEL       35
REMARK 921   NORMALIZED FREE ENERGY PREDICTED BY IDOCK:   -6.90 KCAL/MOL
REMARK 922        TOTAL FREE ENERGY PREDICTED BY IDOCK:  -10.33 KCAL/MOL
REMARK 923 INTER-LIGAND FREE ENERGY PREDICTED BY IDOCK:   -8.29 KCAL/MOL
REMARK 924 INTRA-LIGAND FREE ENERGY PREDICTED BY IDOCK:   -2.04 KCAL/MOL
REMARK 927      BINDING AFFINITY PREDICTED BY RF-SCORE:    0.00 PKD
ROOT
HETATM    1  C   UNL     1     -11.132  15.227  64.754  1.00  0.00    -0.394 C  
HETATM    2  N   UNL     1     -11.100  14.523  66.054  1.00  0.00    -0.323 NA 
ENDROOT
BRANCH   2   3
HETATM    3  C   UNL     1     -10.510  13.155  65.968  1.00  0.00    -0.284 C  
HETATM    4  C   UNL     1     -11.557  12.060  66.114  1.00  0.00    -0.371 C  
HETATM    5  C   UNL     1      -9.258  12.908  66.796  1.00  0.00    -0.230 C  
HETATM    6  C   UNL     1     -11.797  11.609  67.543  1.00  0.00    -0.120 C  
HETATM    7  N   UNL     1     -10.560  11.252  68.238  1.00  0.00    -0.187 NA 
HETATM    8  C   UNL     1      -9.374  12.080  68.076  1.00  0.00    -0.196 C  
BRANCH   7   9
HETATM    9  C   UNL     1     -10.585  10.125  69.029  1.00  0.00    -0.223 A  
HETATM   10  C   UNL     1     -10.722   8.863  70.789  1.00  0.00    -0.233 A  
HETATM   11  N   UNL     1     -10.539  10.148  70.350  1.00  0.00    -0.275 NA 
HETATM   12  C   UNL     1     -10.812   7.988  69.719  1.00  0.00    -0.194 A  
HETATM   13  N   UNL     1     -10.653   8.799  68.604  1.00  0.00    -0.181 NA 
HETATM   14  C   UNL     1     -11.024   6.609  69.880  1.00  0.00    -0.373 A  
HETATM   15  C   UNL     1     -11.161   6.130  71.187  1.00  0.00    -0.355 A  
HETATM   16  C   UNL     1     -11.066   6.992  72.280  1.00  0.00    -0.287 A  
HETATM   17  C   UNL     1     -10.836   8.362  72.095  1.00  0.00    -0.407 A  
BRANCH  13  18
HETATM   18  C   UNL     1     -10.475   8.239  67.271  1.00  0.00    -0.303 C  
BRANCH  18  19
HETATM   19  C   UNL     1      -9.241   8.752  66.557  1.00  0.00    -0.228 A  
HETATM   20  C   UNL     1      -8.003   8.667  67.216  1.00  0.00    -0.101 A  
HETATM   21  C   UNL     1      -6.882   9.308  66.691  1.00  0.00    -0.080 A  
HETATM   22  C   UNL     1      -6.986  10.005  65.493  1.00  0.00    -0.124 A  
HETATM   23  F   UNL     1      -5.932  10.694  65.037  1.00  0.00    -0.123 F  
HETATM   24  C   UNL     1      -8.170  10.011  64.773  1.00  0.00    -0.155 A  
HETATM   25  C   UNL     1      -9.291   9.364  65.291  1.00  0.00    -0.303 A  
ENDBRANCH  18  19
ENDBRANCH  13  18
ENDBRANCH   7   9
ENDBRANCH   2   3
BRANCH   2  26
HETATM   26  C   UNL     1     -10.956  15.343  67.157  1.00  0.00    -0.317 C  
HETATM   27  C   UNL     1     -10.106  17.162  68.265  1.00  0.00    -0.314 C  
HETATM   28  H   UNL     1     -12.237  14.172  68.252  1.00  0.00     0.000 HD 
HETATM   29  C   UNL     1     -11.657  15.757  69.417  1.00  0.00    -0.365 C  
HETATM   30  N   UNL     1     -10.192  16.403  67.130  1.00  0.00    -0.277 NA 
HETATM   31  O   UNL     1     -12.326  15.472  70.405  1.00  0.00    -0.381 OA 
HETATM   32  N   UNL     1     -11.666  15.018  68.274  1.00  0.00    -0.330 N  
HETATM   33  C   UNL     1     -10.777  16.931  69.392  1.00  0.00    -0.258 C  
ENDBRANCH   2  26
TORSDOF 5
ENDMDL
MODEL       36
REMARK 921   NORMALIZED FREE ENERGY PREDICTED BY IDOCK:   -6.88 KCAL/MOL
REMARK 922        TOTAL FREE ENERGY PREDICTED BY IDOCK:  -10.30 KCAL/MOL
REMARK 923 INTER-LIGAND FREE ENERGY PREDICTED BY IDOCK:   -9.11 KCAL/MOL
REMARK 924 INTRA-LIGAND FREE ENERGY PREDICTED BY IDOCK:   -1.19 KCAL/MOL
REMARK 927      BINDING AFFINITY PREDICTED BY RF-SCORE:    0.00 PKD
ROOT
HETATM    1  C   UNL     1      -5.771  18.149  70.336  1.00  0.00    -0.167 C  
HETATM    2  N   UNL     1      -6.226  17.848  68.962  1.00  0.00    -0.213 NA 
ENDROOT
BRANCH   2   3
HETATM    3  C   UNL     1      -6.412  16.389  68.709  1.00  0.00    -0.142 C  
HETATM    4  C   UNL     1      -6.368  16.046  67.227  1.00  0.00    -0.181 C  
HETATM    5  C   UNL     1      -7.557  15.717  69.452  1.00  0.00    -0.221 C  
HETATM    6  C   UNL     1      -7.716  16.096  66.532  1.00  0.00    -0.184 C  
HETATM    7  N   UNL     1      -8.739  15.312  67.225  1.00  0.00    -0.185 NA 
HETATM    8  C   UNL     1      -8.825  15.358  68.677  1.00  0.00    -0.186 C  
BRANCH   7   9
HETATM    9  C   UNL     1      -9.587  14.555  66.448  1.00  0.00    -0.303 A  
HETATM   10  C   UNL     1     -11.078  14.027  64.963  1.00  0.00    -0.363 A  
HETATM   11  N   UNL     1     -10.539  15.060  65.684  1.00  0.00    -0.322 NA 
HETATM   12  C   UNL     1     -10.505  12.821  65.332  1.00  0.00    -0.286 A  
HETATM   13  N   UNL     1      -9.604  13.165  66.330  1.00  0.00    -0.261 NA 
HETATM   14  C   UNL     1     -10.856  11.599  64.735  1.00  0.00    -0.367 A  
HETATM   15  C   UNL     1     -11.815  11.634  63.718  1.00  0.00    -0.382 A  
HETATM   16  C   UNL     1     -12.411  12.837  63.336  1.00  0.00    -0.531 A  
HETATM   17  C   UNL     1     -12.058  14.041  63.958  1.00  0.00    -0.413 A  
BRANCH  13  18
HETATM   18  C   UNL     1      -8.937  12.153  67.138  1.00  0.00    -0.189 C  
BRANCH  18  19
HETATM   19  C   UNL     1      -9.774  11.655  68.299  1.00  0.00    -0.197 A  
HETATM   20  C   UNL     1      -9.409  10.449  68.918  1.00  0.00    -0.190 A  
HETATM   21  C   UNL     1     -10.259   9.848  69.846  1.00  0.00    -0.298 A  
HETATM   22  C   UNL     1     -11.457  10.467  70.181  1.00  0.00    -0.325 A  
HETATM   23  F   UNL     1     -12.313   9.847  71.003  1.00  0.00    -0.346 F  
HETATM   24  C   UNL     1     -11.787  11.710  69.662  1.00  0.00    -0.419 A  
HETATM   25  C   UNL     1     -10.935  12.317  68.741  1.00  0.00    -0.277 A  
ENDBRANCH  18  19
ENDBRANCH  13  18
ENDBRANCH   7   9
ENDBRANCH   2   3
BRANCH   2  26
HETATM   26  C   UNL     1      -7.014  18.824  68.382  1.00  0.00    -0.257 C  
HETATM   27  C   UNL     1      -7.392  20.568  66.942  1.00  0.00    -0.296 C  
HETATM   28  H   UNL     1      -8.631  18.255  69.509  1.00  0.00     0.000 HD 
HETATM   29  C   UNL     1      -9.216  19.776  68.264  1.00  0.00    -0.311 C  
HETATM   30  N   UNL     1      -6.545  19.631  67.466  1.00  0.00    -0.207 NA 
HETATM   31  O   UNL     1     -10.393  19.810  68.609  1.00  0.00    -0.435 OA 
HETATM   32  N   UNL     1      -8.315  18.896  68.781  1.00  0.00    -0.338 N  
HETATM   33  C   UNL     1      -8.679  20.698  67.258  1.00  0.00    -0.322 C  
ENDBRANCH   2  26
TORSDOF 5
ENDMDL
MODEL       37
REMARK 921   NORMALIZED FREE ENERGY PREDICTED BY IDOCK:   -6.88 KCAL/MOL
REMARK 922        TOTAL FREE ENERGY PREDICTED BY IDOCK:  -10.30 KCAL/MOL
REMARK 923 INTER-LIGAND FREE ENERGY PREDICTED BY IDOCK:   -9.03 KCAL/MOL
REMARK 924 INTRA-LIGAND FREE ENERGY PREDICTED BY IDOCK:   -1.27 KCAL/MOL
REMARK 927      BINDING AFFINITY PREDICTED BY RF-SCORE:    0.00 PKD
ROOT
HETATM    1  C   UNL     1     -14.015  13.001  72.327  1.00  0.00    -0.325 C  
HETATM    2  N   UNL     1     -13.131  13.379  71.205  1.00  0.00    -0.231 NA 
ENDROOT
BRANCH   2   3
HETATM    3  C   UNL     1     -12.641  14.786  71.289  1.00  0.00    -0.334 C  
HETATM    4  C   UNL     1     -13.088  15.630  70.104  1.00  0.00     0.219 C  
HETATM    5  C   UNL     1     -11.171  14.968  71.640  1.00  0.00    -0.221 C  
HETATM    6  C   UNL     1     -12.129  15.617  68.928  1.00  0.00    -0.161 C  
HETATM    7  N   UNL     1     -10.755  15.939  69.315  1.00  0.00    -0.238 NA 
HETATM    8  C   UNL     1     -10.196  15.373  70.535  1.00  0.00     0.117 C  
BRANCH   7   9
HETATM    9  C   UNL     1     -10.047  16.779  68.486  1.00  0.00    -0.281 A  
HETATM   10  C   UNL     1      -9.213  18.595  67.640  1.00  0.00    -0.281 A  
HETATM   11  N   UNL     1     -10.162  18.096  68.493  1.00  0.00    -0.390 NA 
HETATM   12  C   UNL     1      -8.524  17.567  67.018  1.00  0.00    -0.234 A  
HETATM   13  N   UNL     1      -9.114  16.414  67.515  1.00  0.00    -0.193 NA 
HETATM   14  C   UNL     1      -7.478  17.795  66.109  1.00  0.00    -0.322 A  
HETATM   15  C   UNL     1      -7.129  19.125  65.853  1.00  0.00    -0.301 A  
HETATM   16  C   UNL     1      -7.815  20.176  66.463  1.00  0.00    -0.317 A  
HETATM   17  C   UNL     1      -8.867  19.924  67.353  1.00  0.00    -0.411 A  
BRANCH  13  18
HETATM   18  C   UNL     1      -8.820  15.102  66.954  1.00  0.00    -0.256 C  
BRANCH  18  19
HETATM   19  C   UNL     1      -9.928  14.555  66.077  1.00  0.00    -0.343 A  
HETATM   20  C   UNL     1      -9.987  13.169  65.859  1.00  0.00    -0.275 A  
HETATM   21  C   UNL     1     -10.855  12.643  64.903  1.00  0.00    -0.329 A  
HETATM   22  C   UNL     1     -11.687  13.495  64.187  1.00  0.00    -0.411 A  
HETATM   23  F   UNL     1     -12.454  13.001  63.207  1.00  0.00    -0.549 F  
HETATM   24  C   UNL     1     -11.721  14.854  64.462  1.00  0.00    -0.388 A  
HETATM   25  C   UNL     1     -10.861  15.382  65.423  1.00  0.00    -0.403 A  
ENDBRANCH  18  19
ENDBRANCH  13  18
ENDBRANCH   7   9
ENDBRANCH   2   3
BRANCH   2  26
HETATM   26  C   UNL     1     -12.378  12.345  70.681  1.00  0.00    -0.279 C  
HETATM   27  C   UNL     1     -11.017  11.394  69.099  1.00  0.00    -0.236 C  
HETATM   28  H   UNL     1     -12.827  11.144  72.283  1.00  0.00     0.000 HD 
HETATM   29  C   UNL     1     -11.561  10.115  71.041  1.00  0.00    -0.376 C  
HETATM   30  N   UNL     1     -11.741  12.466  69.546  1.00  0.00    -0.315 NA 
HETATM   31  O   UNL     1     -11.474   9.098  71.722  1.00  0.00    -0.347 OA 
HETATM   32  N   UNL     1     -12.301  11.197  71.410  1.00  0.00    -0.283 N  
HETATM   33  C   UNL     1     -10.871  10.244  69.753  1.00  0.00    -0.332 C  
ENDBRANCH   2  26
TORSDOF 5
ENDMDL
MODEL       38
REMARK 921   NORMALIZED FREE ENERGY PREDICTED BY IDOCK:   -6.82 KCAL/MOL
REMARK 922        TOTAL FREE ENERGY PREDICTED BY IDOCK:  -10.22 KCAL/MOL
REMARK 923 INTER-LIGAND FREE ENERGY PREDICTED BY IDOCK:   -8.94 KCAL/MOL
REMARK 924 INTRA-LIGAND FREE ENERGY PREDICTED BY IDOCK:   -1.28 KCAL/MOL
REMARK 927      BINDING AFFINITY PREDICTED BY RF-SCORE:    0.00 PKD
ROOT
HETATM    1  C   UNL     1     -12.035  13.710  69.296  1.00  0.00    -0.336 C  
HETATM    2  N   UNL     1     -11.328  12.956  68.240  1.00  0.00    -0.269 NA 
ENDROOT
BRANCH   2   3
HETATM    3  C   UNL     1     -11.665  11.503  68.228  1.00  0.00    -0.301 C  
HETATM    4  C   UNL     1     -12.432  11.073  69.471  1.00  0.00    -0.148 C  
HETATM    5  C   UNL     1     -10.536  10.552  67.857  1.00  0.00    -0.271 C  
HETATM    6  C   UNL     1     -11.556  10.619  70.623  1.00  0.00    -0.336 C  
HETATM    7  N   UNL     1     -10.584   9.600  70.226  1.00  0.00    -0.256 NA 
HETATM    8  C   UNL     1      -9.871   9.733  68.964  1.00  0.00    -0.181 C  
BRANCH   7   9
HETATM    9  C   UNL     1     -10.389   8.544  71.089  1.00  0.00    -0.215 A  
HETATM   10  C   UNL     1      -9.736   7.409  72.818  1.00  0.00    -0.173 A  
HETATM   11  N   UNL     1      -9.563   8.575  72.120  1.00  0.00    -0.290 NA 
HETATM   12  C   UNL     1     -10.641   6.582  72.174  1.00  0.00    -0.214 A  
HETATM   13  N   UNL     1     -10.997   7.291  71.036  1.00  0.00    -0.247 NA 
HETATM   14  C   UNL     1     -11.023   5.331  72.685  1.00  0.00    -0.316 A  
HETATM   15  C   UNL     1     -10.461   4.936  73.903  1.00  0.00    -0.317 A  
HETATM   16  C   UNL     1      -9.541   5.749  74.564  1.00  0.00    -0.195 A  
HETATM   17  C   UNL     1      -9.161   6.987  74.027  1.00  0.00    -0.261 A  
BRANCH  13  18
HETATM   18  C   UNL     1     -11.781   6.680  69.970  1.00  0.00    -0.317 C  
BRANCH  18  19
HETATM   19  C   UNL     1     -10.944   6.194  68.804  1.00  0.00    -0.421 A  
HETATM   20  C   UNL     1      -9.926   5.259  69.055  1.00  0.00    -0.260 A  
HETATM   21  C   UNL     1      -9.003   4.939  68.061  1.00  0.00    -0.121 A  
HETATM   22  C   UNL     1      -9.113   5.527  66.806  1.00  0.00    -0.118 A  
HETATM   23  F   UNL     1      -8.175   5.289  65.881  1.00  0.00    -0.108 F  
HETATM   24  C   UNL     1     -10.172   6.370  66.505  1.00  0.00    -0.147 A  
HETATM   25  C   UNL     1     -11.102   6.684  67.495  1.00  0.00    -0.374 A  
ENDBRANCH  18  19
ENDBRANCH  13  18
ENDBRANCH   7   9
ENDBRANCH   2   3
BRANCH   2  26
HETATM   26  C   UNL     1     -11.050  13.678  67.095  1.00  0.00    -0.297 C  
HETATM   27  C   UNL     1      -9.756  15.070  65.810  1.00  0.00    -0.340 C  
HETATM   28  H   UNL     1     -12.794  13.049  66.217  1.00  0.00     0.000 HD 
HETATM   29  C   UNL     1     -11.783  14.223  64.873  1.00  0.00    -0.397 C  
HETATM   30  N   UNL     1      -9.957  14.386  66.978  1.00  0.00    -0.253 NA 
HETATM   31  O   UNL     1     -12.584  14.120  63.949  1.00  0.00    -0.752 OA 
HETATM   32  N   UNL     1     -11.949  13.602  66.074  1.00  0.00    -0.388 N  
HETATM   33  C   UNL     1     -10.569  15.038  64.757  1.00  0.00    -0.319 C  
ENDBRANCH   2  26
TORSDOF 5
ENDMDL
MODEL       39
REMARK 921   NORMALIZED FREE ENERGY PREDICTED BY IDOCK:   -6.76 KCAL/MOL
REMARK 922        TOTAL FREE ENERGY PREDICTED BY IDOCK:  -10.15 KCAL/MOL
REMARK 923 INTER-LIGAND FREE ENERGY PREDICTED BY IDOCK:   -9.07 KCAL/MOL
REMARK 924 INTRA-LIGAND FREE ENERGY PREDICTED BY IDOCK:   -1.09 KCAL/MOL
REMARK 927      BINDING AFFINITY PREDICTED BY RF-SCORE:    0.00 PKD
ROOT
HETATM    1  C   UNL     1     -11.193   7.561  72.995  1.00  0.00    -0.322 C  
HETATM    2  N   UNL     1     -11.048   7.879  71.559  1.00  0.00    -0.237 NA 
ENDROOT
BRANCH   2   3
HETATM    3  C   UNL     1     -10.637   9.292  71.308  1.00  0.00    -0.347 C  
HETATM    4  C   UNL     1     -11.809  10.175  70.903  1.00  0.00    -0.468 C  
HETATM    5  C   UNL     1      -9.403   9.491  70.440  1.00  0.00    -0.311 C  
HETATM    6  C   UNL     1     -12.064  10.233  69.408  1.00  0.00     0.094 C  
HETATM    7  N   UNL     1     -10.862  10.568  68.643  1.00  0.00    -0.220 NA 
HETATM    8  C   UNL     1      -9.586   9.964  68.998  1.00  0.00    -0.186 C  
BRANCH   7   9
HETATM    9  C   UNL     1     -11.006  11.458  67.602  1.00  0.00    -0.250 A  
HETATM   10  C   UNL     1     -11.589  12.285  65.683  1.00  0.00    -0.380 A  
HETATM   11  N   UNL     1     -11.455  11.128  66.404  1.00  0.00    -0.196 NA 
HETATM   12  C   UNL     1     -11.144  13.373  66.416  1.00  0.00    -0.299 A  
HETATM   13  N   UNL     1     -10.710  12.821  67.612  1.00  0.00    -0.217 NA 
HETATM   14  C   UNL     1     -11.189  14.688  65.926  1.00  0.00    -0.336 A  
HETATM   15  C   UNL     1     -11.724  14.879  64.649  1.00  0.00    -0.406 A  
HETATM   16  C   UNL     1     -12.172  13.797  63.890  1.00  0.00    -0.402 A  
HETATM   17  C   UNL     1     -12.101  12.491  64.393  1.00  0.00    -0.500 A  
BRANCH  13  18
HETATM   18  C   UNL     1      -9.969  13.605  68.592  1.00  0.00    -0.161 C  
BRANCH  18  19
HETATM   19  C   UNL     1     -10.841  14.194  69.682  1.00  0.00    -0.059 A  
HETATM   20  C   UNL     1     -11.915  13.429  70.166  1.00  0.00    -0.396 A  
HETATM   21  C   UNL     1     -12.861  14.003  71.014  1.00  0.00    -0.410 A  
HETATM   22  C   UNL     1     -12.719  15.328  71.406  1.00  0.00    -0.392 A  
HETATM   23  F   UNL     1     -13.674  15.904  72.147  1.00  0.00    -0.526 F  
HETATM   24  C   UNL     1     -11.609  16.068  71.027  1.00  0.00    -0.472 A  
HETATM   25  C   UNL     1     -10.657  15.494  70.186  1.00  0.00    -0.336 A  
ENDBRANCH  18  19
ENDBRANCH  13  18
ENDBRANCH   7   9
ENDBRANCH   2   3
BRANCH   2  26
HETATM   26  C   UNL     1     -10.648   6.821  70.764  1.00  0.00    -0.222 C  
HETATM   27  C   UNL     1     -10.710   5.550  68.856  1.00  0.00    -0.137 C  
HETATM   28  H   UNL     1      -9.311   6.195  72.188  1.00  0.00     0.000 HD 
HETATM   29  C   UNL     1      -9.149   4.956  70.563  1.00  0.00    -0.130 C  
HETATM   30  N   UNL     1     -11.162   6.620  69.579  1.00  0.00    -0.329 NA 
HETATM   31  O   UNL     1      -8.247   4.249  71.000  1.00  0.00    -0.073 OA 
HETATM   32  N   UNL     1      -9.671   6.007  71.253  1.00  0.00    -0.171 N  
HETATM   33  C   UNL     1      -9.749   4.716  69.245  1.00  0.00    -0.266 C  
ENDBRANCH   2  26
TORSDOF 5
ENDMDL
MODEL       40
REMARK 921   NORMALIZED FREE ENERGY PREDICTED BY IDOCK:   -6.74 KCAL/MOL
REMARK 922        TOTAL FREE ENERGY PREDICTED BY IDOCK:  -10.12 KCAL/MOL
REMARK 923 INTER-LIGAND FREE ENERGY PREDICTED BY IDOCK:   -9.50 KCAL/MOL
REMARK 924 INTRA-LIGAND FREE ENERGY PREDICTED BY IDOCK:   -0.62 KCAL/MOL
REMARK 927      BINDING AFFINITY PREDICTED BY RF-SCORE:    0.00 PKD
ROOT
HETATM    1  C   UNL     1     -10.670  16.299  65.143  1.00  0.00    -0.331 C  
HETATM    2  N   UNL     1     -10.331  14.928  65.581  1.00  0.00    -0.323 NA 
ENDROOT
BRANCH   2   3
HETATM    3  C   UNL     1     -10.108  14.818  67.052  1.00  0.00    -0.245 C  
HETATM    4  C   UNL     1      -9.297  13.586  67.427  1.00  0.00    -0.228 C  
HETATM    5  C   UNL     1     -11.328  15.029  67.937  1.00  0.00    -0.344 C  
HETATM    6  C   UNL     1     -10.128  12.346  67.699  1.00  0.00    -0.198 C  
HETATM    7  N   UNL     1     -11.200  12.586  68.667  1.00  0.00    -0.258 NA 
HETATM    8  C   UNL     1     -11.980  13.812  68.593  1.00  0.00    -0.366 C  
BRANCH   7   9
HETATM    9  C   UNL     1     -11.418  11.615  69.619  1.00  0.00    -0.288 A  
HETATM   10  C   UNL     1     -12.401  10.441  71.156  1.00  0.00    -0.400 A  
HETATM   11  N   UNL     1     -12.437  11.621  70.461  1.00  0.00    -0.289 NA 
HETATM   12  C   UNL     1     -11.288   9.697  70.801  1.00  0.00    -0.340 A  
HETATM   13  N   UNL     1     -10.633  10.491  69.870  1.00  0.00    -0.245 NA 
HETATM   14  C   UNL     1     -11.016   8.431  71.344  1.00  0.00    -0.311 A  
HETATM   15  C   UNL     1     -11.932   7.919  72.268  1.00  0.00    -0.387 A  
HETATM   16  C   UNL     1     -13.056   8.655  72.646  1.00  0.00    -0.265 A  
HETATM   17  C   UNL     1     -13.297   9.924  72.104  1.00  0.00    -0.498 A  
BRANCH  13  18
HETATM   18  C   UNL     1      -9.294  10.165  69.396  1.00  0.00    -0.219 C  
BRANCH  18  19
HETATM   19  C   UNL     1      -9.253   8.960  68.478  1.00  0.00    -0.137 A  
HETATM   20  C   UNL     1     -10.295   8.788  67.552  1.00  0.00    -0.334 A  
HETATM   21  C   UNL     1     -10.409   7.597  66.834  1.00  0.00    -0.388 A  
HETATM   22  C   UNL     1      -9.466   6.593  67.015  1.00  0.00    -0.144 A  
HETATM   23  F   UNL     1      -9.626   5.417  66.395  1.00  0.00    -0.136 F  
HETATM   24  C   UNL     1      -8.371   6.784  67.844  1.00  0.00    -0.120 A  
HETATM   25  C   UNL     1      -8.249   7.976  68.556  1.00  0.00    -0.126 A  
ENDBRANCH  18  19
ENDBRANCH  13  18
ENDBRANCH   7   9
ENDBRANCH   2   3
BRANCH   2  26
HETATM   26  C   UNL     1     -10.891  13.918  64.822  1.00  0.00    -0.419 C  
HETATM   27  C   UNL     1     -12.658  12.755  63.938  1.00  0.00    -0.289 C  
HETATM   28  H   UNL     1      -9.035  13.221  64.295  1.00  0.00     0.000 HD 
HETATM   29  C   UNL     1     -10.446  12.074  63.347  1.00  0.00    -0.433 C  
HETATM   30  N   UNL     1     -12.186  13.780  64.710  1.00  0.00    -0.423 NA 
HETATM   31  O   UNL     1      -9.668  11.349  62.737  1.00  0.00    -0.335 OA 
HETATM   32  N   UNL     1     -10.037  13.083  64.166  1.00  0.00    -0.263 N  
HETATM   33  C   UNL     1     -11.900  11.905  63.248  1.00  0.00    -0.418 C  
ENDBRANCH   2  26
TORSDOF 5
ENDMDL
MODEL       41
REMARK 921   NORMALIZED FREE ENERGY PREDICTED BY IDOCK:   -6.73 KCAL/MOL
REMARK 922        TOTAL FREE ENERGY PREDICTED BY IDOCK:  -10.11 KCAL/MOL
REMARK 923 INTER-LIGAND FREE ENERGY PREDICTED BY IDOCK:   -9.05 KCAL/MOL
REMARK 924 INTRA-LIGAND FREE ENERGY PREDICTED BY IDOCK:   -1.06 KCAL/MOL
REMARK 927      BINDING AFFINITY PREDICTED BY RF-SCORE:    0.00 PKD
ROOT
HETATM    1  C   UNL     1     -10.857   7.594  73.155  1.00  0.00    -0.382 C  
HETATM    2  N   UNL     1     -10.884   7.884  71.706  1.00  0.00    -0.230 NA 
ENDROOT
BRANCH   2   3
HETATM    3  C   UNL     1     -10.539   9.299  71.381  1.00  0.00    -0.347 C  
HETATM    4  C   UNL     1     -11.759  10.121  70.991  1.00  0.00    -0.470 C  
HETATM    5  C   UNL     1      -9.349   9.508  70.456  1.00  0.00    -0.296 C  
HETATM    6  C   UNL     1     -12.075  10.107  69.507  1.00  0.00     0.139 C  
HETATM    7  N   UNL     1     -10.919  10.455  68.679  1.00  0.00    -0.229 NA 
HETATM    8  C   UNL     1      -9.608   9.913  69.005  1.00  0.00    -0.186 C  
BRANCH   7   9
HETATM    9  C   UNL     1     -11.138  11.294  67.610  1.00  0.00    -0.277 A  
HETATM   10  C   UNL     1     -11.357  11.992  65.568  1.00  0.00    -0.328 A  
HETATM   11  N   UNL     1     -10.890  10.971  66.353  1.00  0.00    -0.232 NA 
HETATM   12  C   UNL     1     -11.848  13.025  66.348  1.00  0.00    -0.405 A  
HETATM   13  N   UNL     1     -11.639  12.595  67.651  1.00  0.00    -0.337 NA 
HETATM   14  C   UNL     1     -12.411  14.189  65.800  1.00  0.00    -0.481 A  
HETATM   15  C   UNL     1     -12.478  14.275  64.406  1.00  0.00    -0.328 A  
HETATM   16  C   UNL     1     -11.982  13.249  63.601  1.00  0.00    -0.547 A  
HETATM   17  C   UNL     1     -11.408  12.104  64.170  1.00  0.00    -0.449 A  
BRANCH  13  18
HETATM   18  C   UNL     1     -11.827  13.485  68.789  1.00  0.00    -0.355 C  
BRANCH  18  19
HETATM   19  C   UNL     1     -10.775  14.571  68.890  1.00  0.00    -0.259 A  
HETATM   20  C   UNL     1     -11.199  15.897  69.082  1.00  0.00    -0.334 A  
HETATM   21  C   UNL     1     -10.289  16.948  68.976  1.00  0.00    -0.333 A  
HETATM   22  C   UNL     1      -8.952  16.676  68.711  1.00  0.00    -0.253 A  
HETATM   23  F   UNL     1      -8.098  17.689  68.520  1.00  0.00    -0.247 F  
HETATM   24  C   UNL     1      -8.494  15.370  68.625  1.00  0.00    -0.170 A  
HETATM   25  C   UNL     1      -9.400  14.317  68.739  1.00  0.00    -0.119 A  
ENDBRANCH  18  19
ENDBRANCH  13  18
ENDBRANCH   7   9
ENDBRANCH   2   3
BRANCH   2  26
HETATM   26  C   UNL     1     -10.553   6.818  70.891  1.00  0.00    -0.220 C  
HETATM   27  C   UNL     1      -9.634   4.757  70.482  1.00  0.00    -0.187 C  
HETATM   28  H   UNL     1     -11.410   7.731  69.266  1.00  0.00     0.000 HD 
HETATM   29  C   UNL     1     -10.716   5.893  68.680  1.00  0.00    -0.269 C  
HETATM   30  N   UNL     1      -9.924   5.770  71.354  1.00  0.00    -0.181 NA 
HETATM   31  O   UNL     1     -11.092   5.953  67.515  1.00  0.00    -0.245 OA 
HETATM   32  N   UNL     1     -10.934   6.887  69.585  1.00  0.00    -0.256 N  
HETATM   33  C   UNL     1      -9.984   4.731  69.198  1.00  0.00    -0.233 C  
ENDBRANCH   2  26
TORSDOF 5
ENDMDL
MODEL       42
REMARK 921   NORMALIZED FREE ENERGY PREDICTED BY IDOCK:   -6.70 KCAL/MOL
REMARK 922        TOTAL FREE ENERGY PREDICTED BY IDOCK:  -10.07 KCAL/MOL
REMARK 923 INTER-LIGAND FREE ENERGY PREDICTED BY IDOCK:   -9.09 KCAL/MOL
REMARK 924 INTRA-LIGAND FREE ENERGY PREDICTED BY IDOCK:   -0.98 KCAL/MOL
REMARK 927      BINDING AFFINITY PREDICTED BY RF-SCORE:    0.00 PKD
ROOT
HETATM    1  C   UNL     1      -9.383  14.944  66.048  1.00  0.00    -0.241 C  
HETATM    2  N   UNL     1     -10.610  15.761  66.154  1.00  0.00    -0.311 NA 
ENDROOT
BRANCH   2   3
HETATM    3  C   UNL     1     -11.764  15.018  66.738  1.00  0.00    -0.154 C  
HETATM    4  C   UNL     1     -11.754  15.031  68.261  1.00  0.00    -0.338 C  
HETATM    5  C   UNL     1     -12.049  13.644  66.149  1.00  0.00    -0.477 C  
HETATM    6  C   UNL     1     -10.996  13.878  68.893  1.00  0.00    -0.263 C  
HETATM    7  N   UNL     1     -11.420  12.575  68.380  1.00  0.00    -0.287 NA 
HETATM    8  C   UNL     1     -11.668  12.404  66.956  1.00  0.00    -0.353 C  
BRANCH   7   9
HETATM    9  C   UNL     1     -11.564  11.555  69.294  1.00  0.00    -0.322 A  
HETATM   10  C   UNL     1     -12.329  10.390  70.956  1.00  0.00    -0.387 A  
HETATM   11  N   UNL     1     -12.329  11.628  70.369  1.00  0.00    -0.312 NA 
HETATM   12  C   UNL     1     -11.485   9.526  70.279  1.00  0.00    -0.206 A  
HETATM   13  N   UNL     1     -10.950  10.303  69.261  1.00  0.00    -0.229 NA 
HETATM   14  C   UNL     1     -11.312   8.183  70.653  1.00  0.00    -0.256 A  
HETATM   15  C   UNL     1     -12.048   7.723  71.750  1.00  0.00    -0.332 A  
HETATM   16  C   UNL     1     -12.899   8.578  72.451  1.00  0.00    -0.373 A  
HETATM   17  C   UNL     1     -13.042   9.919  72.070  1.00  0.00    -0.545 A  
BRANCH  13  18
HETATM   18  C   UNL     1      -9.846   9.828  68.437  1.00  0.00    -0.152 C  
BRANCH  18  19
HETATM   19  C   UNL     1      -8.542  10.556  68.692  1.00  0.00    -0.139 A  
HETATM   20  C   UNL     1      -7.674  10.050  69.673  1.00  0.00    -0.158 A  
HETATM   21  C   UNL     1      -6.569  10.793  70.085  1.00  0.00    -0.144 A  
HETATM   22  C   UNL     1      -6.310  12.025  69.496  1.00  0.00    -0.123 A  
HETATM   23  F   UNL     1      -5.302  12.777  69.954  1.00  0.00    -0.076 F  
HETATM   24  C   UNL     1      -7.093  12.494  68.452  1.00  0.00    -0.107 A  
HETATM   25  C   UNL     1      -8.193  11.749  68.032  1.00  0.00    -0.152 A  
ENDBRANCH  18  19
ENDBRANCH  13  18
ENDBRANCH   7   9
ENDBRANCH   2   3
BRANCH   2  26
HETATM   26  C   UNL     1     -10.396  17.111  66.360  1.00  0.00    -0.307 C  
HETATM   27  C   UNL     1     -10.525  19.323  65.767  1.00  0.00    -0.359 C  
HETATM   28  H   UNL     1      -9.511  16.743  68.174  1.00  0.00     0.000 HD 
HETATM   29  C   UNL     1      -9.570  18.772  67.886  1.00  0.00    -0.308 C  
HETATM   30  N   UNL     1     -10.773  18.007  65.486  1.00  0.00    -0.536 NA 
HETATM   31  O   UNL     1      -9.062  19.092  68.955  1.00  0.00    -0.326 OA 
HETATM   32  N   UNL     1      -9.801  17.478  67.529  1.00  0.00    -0.285 N  
HETATM   33  C   UNL     1      -9.967  19.773  66.889  1.00  0.00    -0.537 C  
ENDBRANCH   2  26
TORSDOF 5
ENDMDL
MODEL       43
REMARK 921   NORMALIZED FREE ENERGY PREDICTED BY IDOCK:   -6.70 KCAL/MOL
REMARK 922        TOTAL FREE ENERGY PREDICTED BY IDOCK:  -10.07 KCAL/MOL
REMARK 923 INTER-LIGAND FREE ENERGY PREDICTED BY IDOCK:   -8.70 KCAL/MOL
REMARK 924 INTRA-LIGAND FREE ENERGY PREDICTED BY IDOCK:   -1.37 KCAL/MOL
REMARK 927      BINDING AFFINITY PREDICTED BY RF-SCORE:    0.00 PKD
ROOT
HETATM    1  C   UNL     1      -8.296  12.519  67.123  1.00  0.00    -0.179 C  
HETATM    2  N   UNL     1      -9.096  12.085  65.958  1.00  0.00    -0.150 NA 
ENDROOT
BRANCH   2   3
HETATM    3  C   UNL     1      -8.805  10.685  65.532  1.00  0.00    -0.188 C  
HETATM    4  C   UNL     1     -10.034   9.790  65.597  1.00  0.00    -0.352 C  
HETATM    5  C   UNL     1      -7.560  10.045  66.127  1.00  0.00    -0.109 C  
HETATM    6  C   UNL     1     -10.232   9.092  66.929  1.00  0.00    -0.269 C  
HETATM    7  N   UNL     1      -9.036   8.377  67.375  1.00  0.00    -0.133 NA 
HETATM    8  C   UNL     1      -7.726   8.994  67.225  1.00  0.00    -0.096 C  
BRANCH   7   9
HETATM    9  C   UNL     1      -9.217   7.129  67.928  1.00  0.00    -0.129 A  
HETATM   10  C   UNL     1      -9.419   4.975  68.097  1.00  0.00    -0.132 A  
HETATM   11  N   UNL     1      -9.423   6.030  67.223  1.00  0.00    -0.112 NA 
HETATM   12  C   UNL     1      -9.281   5.420  69.401  1.00  0.00    -0.117 A  
HETATM   13  N   UNL     1      -9.222   6.802  69.284  1.00  0.00    -0.142 NA 
HETATM   14  C   UNL     1      -9.222   4.547  70.499  1.00  0.00    -0.190 A  
HETATM   15  C   UNL     1      -9.294   3.176  70.233  1.00  0.00    -0.236 A  
HETATM   16  C   UNL     1      -9.441   2.706  68.928  1.00  0.00    -0.166 A  
HETATM   17  C   UNL     1      -9.515   3.597  67.849  1.00  0.00    -0.224 A  
BRANCH  13  18
HETATM   18  C   UNL     1      -9.287   7.671  70.451  1.00  0.00    -0.160 C  
BRANCH  18  19
HETATM   19  C   UNL     1     -10.693   8.113  70.801  1.00  0.00    -0.242 A  
HETATM   20  C   UNL     1     -10.961   9.489  70.882  1.00  0.00    -0.407 A  
HETATM   21  C   UNL     1     -12.175   9.941  71.398  1.00  0.00    -0.499 A  
HETATM   22  C   UNL     1     -13.135   9.020  71.802  1.00  0.00    -0.381 A  
HETATM   23  F   UNL     1     -14.262   9.453  72.380  1.00  0.00    -0.434 F  
HETATM   24  C   UNL     1     -12.933   7.659  71.632  1.00  0.00    -0.385 A  
HETATM   25  C   UNL     1     -11.723   7.205  71.108  1.00  0.00    -0.350 A  
ENDBRANCH  18  19
ENDBRANCH  13  18
ENDBRANCH   7   9
ENDBRANCH   2   3
BRANCH   2  26
HETATM   26  C   UNL     1     -10.349  12.661  65.865  1.00  0.00    -0.276 C  
HETATM   27  C   UNL     1     -12.272  13.545  66.748  1.00  0.00    -0.340 C  
HETATM   28  H   UNL     1     -10.260  12.635  63.815  1.00  0.00     0.000 HD 
HETATM   29  C   UNL     1     -12.026  13.517  64.372  1.00  0.00    -0.422 C  
HETATM   30  N   UNL     1     -11.040  12.978  66.928  1.00  0.00    -0.270 NA 
HETATM   31  O   UNL     1     -12.433  13.768  63.243  1.00  0.00    -0.819 OA 
HETATM   32  N   UNL     1     -10.829  12.913  64.615  1.00  0.00    -0.322 N  
HETATM   33  C   UNL     1     -12.810  13.845  65.568  1.00  0.00    -0.471 C  
ENDBRANCH   2  26
TORSDOF 5
ENDMDL
MODEL       44
REMARK 921   NORMALIZED FREE ENERGY PREDICTED BY IDOCK:   -6.67 KCAL/MOL
REMARK 922        TOTAL FREE ENERGY PREDICTED BY IDOCK:  -10.03 KCAL/MOL
REMARK 923 INTER-LIGAND FREE ENERGY PREDICTED BY IDOCK:   -8.78 KCAL/MOL
REMARK 924 INTRA-LIGAND FREE ENERGY PREDICTED BY IDOCK:   -1.25 KCAL/MOL
REMARK 927      BINDING AFFINITY PREDICTED BY RF-SCORE:    0.00 PKD
ROOT
HETATM    1  C   UNL     1     -10.245   6.162  72.868  1.00  0.00    -0.189 C  
HETATM    2  N   UNL     1     -10.515   7.250  71.903  1.00  0.00    -0.199 NA 
ENDROOT
BRANCH   2   3
HETATM    3  C   UNL     1      -9.650   7.188  70.689  1.00  0.00    -0.165 C  
HETATM    4  C   UNL     1      -8.941   8.506  70.413  1.00  0.00    -0.161 C  
HETATM    5  C   UNL     1     -10.273   6.567  69.448  1.00  0.00    -0.214 C  
HETATM    6  C   UNL     1      -9.715   9.461  69.523  1.00  0.00    -0.183 C  
HETATM    7  N   UNL     1     -10.165   8.834  68.279  1.00  0.00    -0.196 NA 
HETATM    8  C   UNL     1     -10.709   7.484  68.306  1.00  0.00    -0.073 C  
BRANCH   7   9
HETATM    9  C   UNL     1     -10.049   9.573  67.123  1.00  0.00    -0.229 A  
HETATM   10  C   UNL     1      -9.470  10.152  65.114  1.00  0.00    -0.260 A  
HETATM   11  N   UNL     1      -9.207   9.289  66.146  1.00  0.00    -0.180 NA 
HETATM   12  C   UNL     1     -10.455  11.057  65.472  1.00  0.00    -0.238 A  
HETATM   13  N   UNL     1     -10.766  10.719  66.781  1.00  0.00    -0.251 NA 
HETATM   14  C   UNL     1     -10.937  12.042  64.594  1.00  0.00    -0.367 A  
HETATM   15  C   UNL     1     -10.391  12.076  63.307  1.00  0.00    -0.398 A  
HETATM   16  C   UNL     1      -9.392  11.179  62.928  1.00  0.00    -0.385 A  
HETATM   17  C   UNL     1      -8.915  10.216  63.827  1.00  0.00    -0.270 A  
BRANCH  13  18
HETATM   18  C   UNL     1     -11.618  11.565  67.607  1.00  0.00    -0.247 C  
BRANCH  18  19
HETATM   19  C   UNL     1     -11.026  12.932  67.887  1.00  0.00    -0.266 A  
HETATM   20  C   UNL     1     -11.855  14.059  67.757  1.00  0.00    -0.419 A  
HETATM   21  C   UNL     1     -11.310  15.342  67.802  1.00  0.00    -0.331 A  
HETATM   22  C   UNL     1      -9.945  15.502  68.008  1.00  0.00    -0.214 A  
HETATM   23  F   UNL     1      -9.409  16.728  67.961  1.00  0.00    -0.216 F  
HETATM   24  C   UNL     1      -9.127  14.407  68.245  1.00  0.00    -0.193 A  
HETATM   25  C   UNL     1      -9.670  13.124  68.209  1.00  0.00    -0.223 A  
ENDBRANCH  18  19
ENDBRANCH  13  18
ENDBRANCH   7   9
ENDBRANCH   2   3
BRANCH   2  26
HETATM   26  C   UNL     1     -11.822   7.698  71.881  1.00  0.00    -0.294 C  
HETATM   27  C   UNL     1     -14.092   7.397  71.760  1.00  0.00    -0.380 C  
HETATM   28  H   UNL     1     -11.207   9.646  72.071  1.00  0.00     0.000 HD 
HETATM   29  C   UNL     1     -13.257   9.617  72.044  1.00  0.00    -0.453 C  
HETATM   30  N   UNL     1     -12.829   6.872  71.773  1.00  0.00    -0.352 NA 
HETATM   31  O   UNL     1     -13.428  10.823  72.188  1.00  0.00    -0.379 OA 
HETATM   32  N   UNL     1     -12.025   9.040  72.004  1.00  0.00    -0.368 N  
HETATM   33  C   UNL     1     -14.384   8.689  71.894  1.00  0.00    -0.492 C  
ENDBRANCH   2  26
TORSDOF 5
ENDMDL
MODEL       45
REMARK 921   NORMALIZED FREE ENERGY PREDICTED BY IDOCK:   -6.66 KCAL/MOL
REMARK 922        TOTAL FREE ENERGY PREDICTED BY IDOCK:  -10.02 KCAL/MOL
REMARK 923 INTER-LIGAND FREE ENERGY PREDICTED BY IDOCK:   -8.23 KCAL/MOL
REMARK 924 INTRA-LIGAND FREE ENERGY PREDICTED BY IDOCK:   -1.80 KCAL/MOL
REMARK 927      BINDING AFFINITY PREDICTED BY RF-SCORE:    0.00 PKD
ROOT
HETATM    1  C   UNL     1      -9.449  15.335  66.040  1.00  0.00    -0.337 C  
HETATM    2  N   UNL     1      -9.714  13.909  66.331  1.00  0.00    -0.291 NA 
ENDROOT
BRANCH   2   3
HETATM    3  C   UNL     1     -10.006  13.647  67.771  1.00  0.00    -0.235 C  
HETATM    4  C   UNL     1      -8.899  12.857  68.454  1.00  0.00    -0.120 C  
HETATM    5  C   UNL     1     -11.401  13.132  68.092  1.00  0.00    -0.328 C  
HETATM    6  C   UNL     1      -9.070  11.351  68.390  1.00  0.00    -0.179 C  
HETATM    7  N   UNL     1     -10.390  10.912  68.847  1.00  0.00    -0.196 NA 
HETATM    8  C   UNL     1     -11.577  11.656  68.451  1.00  0.00    -0.312 C  
BRANCH   7   9
HETATM    9  C   UNL     1     -10.440   9.792  69.646  1.00  0.00    -0.242 A  
HETATM   10  C   UNL     1     -10.536   8.546  71.419  1.00  0.00    -0.245 A  
HETATM   11  N   UNL     1     -10.288   9.813  70.958  1.00  0.00    -0.216 NA 
HETATM   12  C   UNL     1     -10.779   7.680  70.366  1.00  0.00    -0.236 A  
HETATM   13  N   UNL     1     -10.645   8.475  69.236  1.00  0.00    -0.210 NA 
HETATM   14  C   UNL     1     -11.085   6.323  70.554  1.00  0.00    -0.399 A  
HETATM   15  C   UNL     1     -11.156   5.857  71.871  1.00  0.00    -0.325 A  
HETATM   16  C   UNL     1     -10.907   6.710  72.946  1.00  0.00    -0.293 A  
HETATM   17  C   UNL     1     -10.586   8.058  72.734  1.00  0.00    -0.420 A  
BRANCH  13  18
HETATM   18  C   UNL     1     -10.617   7.901  67.897  1.00  0.00    -0.149 C  
BRANCH  18  19
HETATM   19  C   UNL     1      -9.265   8.004  67.222  1.00  0.00    -0.164 A  
HETATM   20  C   UNL     1      -8.128   7.589  67.934  1.00  0.00    -0.119 A  
HETATM   21  C   UNL     1      -6.852   7.854  67.439  1.00  0.00    -0.070 A  
HETATM   22  C   UNL     1      -6.710   8.502  66.218  1.00  0.00    -0.069 A  
HETATM   23  F   UNL     1      -5.487   8.836  65.786  1.00  0.00    -0.035 F  
HETATM   24  C   UNL     1      -7.817   8.824  65.449  1.00  0.00    -0.100 A  
HETATM   25  C   UNL     1      -9.094   8.553  65.937  1.00  0.00    -0.237 A  
ENDBRANCH  18  19
ENDBRANCH  13  18
ENDBRANCH   7   9
ENDBRANCH   2   3
BRANCH   2  26
HETATM   26  C   UNL     1     -10.299  13.202  65.298  1.00  0.00    -0.305 C  
HETATM   27  C   UNL     1     -10.621  11.325  64.021  1.00  0.00    -0.386 C  
HETATM   28  H   UNL     1     -11.426  14.830  64.759  1.00  0.00     0.000 HD 
HETATM   29  C   UNL     1     -11.922  13.266  63.528  1.00  0.00    -0.474 C  
HETATM   30  N   UNL     1      -9.995  11.953  65.062  1.00  0.00    -0.256 NA 
HETATM   31  O   UNL     1     -12.783  13.851  62.880  1.00  0.00    -0.521 OA 
HETATM   32  N   UNL     1     -11.232  13.851  64.547  1.00  0.00    -0.375 N  
HETATM   33  C   UNL     1     -11.556  11.873  63.249  1.00  0.00    -0.380 C  
ENDBRANCH   2  26
TORSDOF 5
ENDMDL
MODEL       46
REMARK 921   NORMALIZED FREE ENERGY PREDICTED BY IDOCK:   -6.64 KCAL/MOL
REMARK 922        TOTAL FREE ENERGY PREDICTED BY IDOCK:   -9.99 KCAL/MOL
REMARK 923 INTER-LIGAND FREE ENERGY PREDICTED BY IDOCK:   -9.00 KCAL/MOL
REMARK 924 INTRA-LIGAND FREE ENERGY PREDICTED BY IDOCK:   -0.99 KCAL/MOL
REMARK 927      BINDING AFFINITY PREDICTED BY RF-SCORE:    0.00 PKD
ROOT
HETATM    1  C   UNL     1      -7.913  16.019  66.087  1.00  0.00     0.207 C  
HETATM    2  N   UNL     1      -9.314  16.489  66.120  1.00  0.00    -0.351 NA 
ENDROOT
BRANCH   2   3
HETATM    3  C   UNL     1     -10.281  15.429  66.530  1.00  0.00    -0.280 C  
HETATM    4  C   UNL     1     -10.301  15.211  68.036  1.00  0.00    -0.240 C  
HETATM    5  C   UNL     1     -10.240  14.134  65.733  1.00  0.00    -0.347 C  
HETATM    6  C   UNL     1      -9.315  14.170  68.532  1.00  0.00    -0.191 C  
HETATM    7  N   UNL     1      -9.425  12.899  67.814  1.00  0.00    -0.195 NA 
HETATM    8  C   UNL     1      -9.603  12.898  66.369  1.00  0.00    -0.252 C  
BRANCH   7   9
HETATM    9  C   UNL     1      -9.352  11.745  68.560  1.00  0.00    -0.156 A  
HETATM   10  C   UNL     1      -8.523  10.066  69.656  1.00  0.00    -0.180 A  
HETATM   11  N   UNL     1      -8.236  11.065  68.764  1.00  0.00    -0.147 NA 
HETATM   12  C   UNL     1      -9.871  10.062  69.972  1.00  0.00    -0.197 A  
HETATM   13  N   UNL     1     -10.400  11.096  69.212  1.00  0.00    -0.170 NA 
HETATM   14  C   UNL     1     -10.435   9.155  70.884  1.00  0.00    -0.347 A  
HETATM   15  C   UNL     1      -9.573   8.239  71.494  1.00  0.00    -0.247 A  
HETATM   16  C   UNL     1      -8.213   8.219  71.184  1.00  0.00    -0.137 A  
HETATM   17  C   UNL     1      -7.675   9.123  70.258  1.00  0.00    -0.115 A  
BRANCH  13  18
HETATM   18  C   UNL     1     -11.838  11.297  69.092  1.00  0.00    -0.355 C  
BRANCH  18  19
HETATM   19  C   UNL     1     -12.409  12.230  70.141  1.00  0.00    -0.212 A  
HETATM   20  C   UNL     1     -12.273  13.615  69.950  1.00  0.00    -0.367 A  
HETATM   21  C   UNL     1     -12.595  14.501  70.977  1.00  0.00    -0.410 A  
HETATM   22  C   UNL     1     -13.084  14.010  72.181  1.00  0.00    -0.411 A  
HETATM   23  F   UNL     1     -13.307  14.854  73.197  1.00  0.00    -0.489 F  
HETATM   24  C   UNL     1     -13.326  12.656  72.352  1.00  0.00    -0.424 A  
HETATM   25  C   UNL     1     -13.013  11.768  71.324  1.00  0.00    -0.353 A  
ENDBRANCH  18  19
ENDBRANCH  13  18
ENDBRANCH   7   9
ENDBRANCH   2   3
BRANCH   2  26
HETATM   26  C   UNL     1      -9.475  17.824  66.438  1.00  0.00    -0.264 C  
HETATM   27  C   UNL     1     -10.434  19.892  66.188  1.00  0.00    -0.473 C  
HETATM   28  H   UNL     1      -8.046  17.696  67.905  1.00  0.00     0.000 HD 
HETATM   29  C   UNL     1      -8.800  19.602  67.906  1.00  0.00    -0.324 C  
HETATM   30  N   UNL     1     -10.337  18.581  65.811  1.00  0.00    -0.609 NA 
HETATM   31  O   UNL     1      -8.135  20.028  68.844  1.00  0.00    -0.111 OA 
HETATM   32  N   UNL     1      -8.716  18.320  67.455  1.00  0.00    -0.252 N  
HETATM   33  C   UNL     1      -9.749  20.455  67.181  1.00  0.00    -0.601 C  
ENDBRANCH   2  26
TORSDOF 5
ENDMDL
MODEL       47
REMARK 921   NORMALIZED FREE ENERGY PREDICTED BY IDOCK:   -6.63 KCAL/MOL
REMARK 922        TOTAL FREE ENERGY PREDICTED BY IDOCK:   -9.99 KCAL/MOL
REMARK 923 INTER-LIGAND FREE ENERGY PREDICTED BY IDOCK:   -8.47 KCAL/MOL
REMARK 924 INTRA-LIGAND FREE ENERGY PREDICTED BY IDOCK:   -1.52 KCAL/MOL
REMARK 927      BINDING AFFINITY PREDICTED BY RF-SCORE:    0.00 PKD
ROOT
HETATM    1  C   UNL     1     -11.457  10.643  70.462  1.00  0.00    -0.317 C  
HETATM    2  N   UNL     1     -10.724  10.010  69.345  1.00  0.00    -0.220 NA 
ENDROOT
BRANCH   2   3
HETATM    3  C   UNL     1     -10.656  10.866  68.125  1.00  0.00    -0.198 C  
HETATM    4  C   UNL     1      -9.349  11.640  68.029  1.00  0.00    -0.178 C  
HETATM    5  C   UNL     1     -11.883  11.714  67.827  1.00  0.00    -0.247 C  
HETATM    6  C   UNL     1      -9.378  13.004  68.695  1.00  0.00     0.014 C  
HETATM    7  N   UNL     1     -10.509  13.823  68.257  1.00  0.00    -0.241 NA 
HETATM    8  C   UNL     1     -11.823  13.217  68.102  1.00  0.00    -0.348 C  
BRANCH   7   9
HETATM    9  C   UNL     1     -10.264  15.155  68.009  1.00  0.00    -0.230 A  
HETATM   10  C   UNL     1     -10.096  17.296  68.316  1.00  0.00    -0.321 A  
HETATM   11  N   UNL     1     -10.625  16.136  68.819  1.00  0.00    -0.262 NA 
HETATM   12  C   UNL     1      -9.445  17.059  67.117  1.00  0.00    -0.242 A  
HETATM   13  N   UNL     1      -9.620  15.700  66.899  1.00  0.00    -0.225 NA 
HETATM   14  C   UNL     1      -8.792  18.071  66.395  1.00  0.00    -0.251 A  
HETATM   15  C   UNL     1      -8.802  19.358  66.942  1.00  0.00    -0.345 A  
HETATM   16  C   UNL     1      -9.458  19.621  68.145  1.00  0.00    -0.449 A  
HETATM   17  C   UNL     1     -10.119  18.598  68.839  1.00  0.00    -0.357 A  
BRANCH  13  18
HETATM   18  C   UNL     1      -9.264  15.078  65.631  1.00  0.00     0.144 C  
BRANCH  18  19
HETATM   19  C   UNL     1     -10.322  14.132  65.100  1.00  0.00    -0.429 A  
HETATM   20  C   UNL     1      -9.964  12.796  64.857  1.00  0.00    -0.159 A  
HETATM   21  C   UNL     1     -10.838  11.946  64.181  1.00  0.00    -0.412 A  
HETATM   22  C   UNL     1     -12.081  12.417  63.776  1.00  0.00    -0.529 A  
HETATM   23  F   UNL     1     -12.882  11.629  63.049  1.00  0.00    -0.697 F  
HETATM   24  C   UNL     1     -12.496  13.700  64.100  1.00  0.00    -0.292 A  
HETATM   25  C   UNL     1     -11.628  14.550  64.784  1.00  0.00    -0.414 A  
ENDBRANCH  18  19
ENDBRANCH  13  18
ENDBRANCH   7   9
ENDBRANCH   2   3
BRANCH   2  26
HETATM   26  C   UNL     1      -9.710   9.152  69.726  1.00  0.00    -0.181 C  
HETATM   27  C   UNL     1      -8.303   7.369  69.407  1.00  0.00    -0.132 C  
HETATM   28  H   UNL     1      -9.466  10.150  71.501  1.00  0.00     0.000 HD 
HETATM   29  C   UNL     1      -8.073   8.648  71.411  1.00  0.00    -0.151 C  
HETATM   30  N   UNL     1      -9.314   8.172  68.956  1.00  0.00    -0.148 NA 
HETATM   31  O   UNL     1      -7.524   8.886  72.481  1.00  0.00    -0.349 OA 
HETATM   32  N   UNL     1      -9.114   9.383  70.929  1.00  0.00    -0.214 N  
HETATM   33  C   UNL     1      -7.652   7.532  70.557  1.00  0.00    -0.085 C  
ENDBRANCH   2  26
TORSDOF 5
ENDMDL
MODEL       48
REMARK 921   NORMALIZED FREE ENERGY PREDICTED BY IDOCK:   -6.63 KCAL/MOL
REMARK 922        TOTAL FREE ENERGY PREDICTED BY IDOCK:   -9.98 KCAL/MOL
REMARK 923 INTER-LIGAND FREE ENERGY PREDICTED BY IDOCK:   -8.20 KCAL/MOL
REMARK 924 INTRA-LIGAND FREE ENERGY PREDICTED BY IDOCK:   -1.78 KCAL/MOL
REMARK 927      BINDING AFFINITY PREDICTED BY RF-SCORE:    0.00 PKD
ROOT
HETATM    1  C   UNL     1      -9.409   3.314  69.116  1.00  0.00    -0.163 C  
HETATM    2  N   UNL     1      -9.655   4.374  68.114  1.00  0.00    -0.153 NA 
ENDROOT
BRANCH   2   3
HETATM    3  C   UNL     1      -9.620   5.749  68.692  1.00  0.00    -0.127 C  
HETATM    4  C   UNL     1     -10.889   6.537  68.395  1.00  0.00    -0.357 C  
HETATM    5  C   UNL     1      -8.346   6.546  68.458  1.00  0.00    -0.121 C  
HETATM    6  C   UNL     1     -10.844   7.334  67.104  1.00  0.00    -0.308 C  
HETATM    7  N   UNL     1      -9.659   8.187  67.007  1.00  0.00    -0.180 NA 
HETATM    8  C   UNL     1      -8.363   7.674  67.425  1.00  0.00    -0.116 C  
BRANCH   7   9
HETATM    9  C   UNL     1      -9.837   9.460  66.513  1.00  0.00    -0.258 A  
HETATM   10  C   UNL     1     -10.285  11.076  65.137  1.00  0.00    -0.291 A  
HETATM   11  N   UNL     1     -10.003   9.739  65.231  1.00  0.00    -0.278 NA 
HETATM   12  C   UNL     1     -10.223  11.679  66.382  1.00  0.00    -0.221 A  
HETATM   13  N   UNL     1      -9.868  10.648  67.241  1.00  0.00    -0.172 NA 
HETATM   14  C   UNL     1     -10.492  13.044  66.579  1.00  0.00    -0.284 A  
HETATM   15  C   UNL     1     -10.848  13.796  65.456  1.00  0.00    -0.299 A  
HETATM   16  C   UNL     1     -10.909  13.211  64.191  1.00  0.00    -0.407 A  
HETATM   17  C   UNL     1     -10.619  11.851  64.016  1.00  0.00    -0.422 A  
BRANCH  13  18
HETATM   18  C   UNL     1      -9.492  10.903  68.625  1.00  0.00    -0.190 C  
BRANCH  18  19
HETATM   19  C   UNL     1     -10.463  10.323  69.634  1.00  0.00    -0.286 A  
HETATM   20  C   UNL     1     -11.777  10.820  69.659  1.00  0.00    -0.395 A  
HETATM   21  C   UNL     1     -12.641  10.470  70.695  1.00  0.00    -0.457 A  
HETATM   22  C   UNL     1     -12.208   9.598  71.688  1.00  0.00    -0.402 A  
HETATM   23  F   UNL     1     -13.006   9.334  72.729  1.00  0.00    -0.453 F  
HETATM   24  C   UNL     1     -10.952   9.014  71.623  1.00  0.00    -0.435 A  
HETATM   25  C   UNL     1     -10.089   9.356  70.584  1.00  0.00    -0.356 A  
ENDBRANCH  18  19
ENDBRANCH  13  18
ENDBRANCH   7   9
ENDBRANCH   2   3
BRANCH   2  26
HETATM   26  C   UNL     1      -9.225   4.078  66.835  1.00  0.00    -0.167 C  
HETATM   27  C   UNL     1      -7.644   3.458  65.293  1.00  0.00    -0.077 C  
HETATM   28  H   UNL     1     -11.101   4.413  66.075  1.00  0.00     0.000 HD 
HETATM   29  C   UNL     1      -9.881   3.818  64.538  1.00  0.00    -0.190 C  
HETATM   30  N   UNL     1      -7.988   3.737  66.588  1.00  0.00    -0.095 NA 
HETATM   31  O   UNL     1     -10.731   3.835  63.654  1.00  0.00    -0.259 OA 
HETATM   32  N   UNL     1     -10.152   4.128  65.837  1.00  0.00    -0.189 N  
HETATM   33  C   UNL     1      -8.485   3.463  64.262  1.00  0.00    -0.089 C  
ENDBRANCH   2  26
TORSDOF 5
ENDMDL
MODEL       49
REMARK 921   NORMALIZED FREE ENERGY PREDICTED BY IDOCK:   -6.59 KCAL/MOL
REMARK 922        TOTAL FREE ENERGY PREDICTED BY IDOCK:   -9.92 KCAL/MOL
REMARK 923 INTER-LIGAND FREE ENERGY PREDICTED BY IDOCK:   -8.70 KCAL/MOL
REMARK 924 INTRA-LIGAND FREE ENERGY PREDICTED BY IDOCK:   -1.22 KCAL/MOL
REMARK 927      BINDING AFFINITY PREDICTED BY RF-SCORE:    0.00 PKD
ROOT
HETATM    1  C   UNL     1      -8.747  12.702  67.274  1.00  0.00    -0.198 C  
HETATM    2  N   UNL     1      -9.730  12.178  66.302  1.00  0.00    -0.234 NA 
ENDROOT
BRANCH   2   3
HETATM    3  C   UNL     1     -10.254  10.828  66.664  1.00  0.00    -0.233 C  
HETATM    4  C   UNL     1     -11.161  10.865  67.886  1.00  0.00    -0.387 C  
HETATM    5  C   UNL     1      -9.237   9.697  66.701  1.00  0.00    -0.187 C  
HETATM    6  C   UNL     1     -10.441  10.679  69.208  1.00  0.00    -0.227 C  
HETATM    7  N   UNL     1      -9.585   9.491  69.223  1.00  0.00    -0.168 NA 
HETATM    8  C   UNL     1      -8.770   9.173  68.059  1.00  0.00    -0.129 C  
BRANCH   7   9
HETATM    9  C   UNL     1      -9.596   8.720  70.363  1.00  0.00    -0.182 A  
HETATM   10  C   UNL     1      -9.152   8.033  72.373  1.00  0.00    -0.192 A  
HETATM   11  N   UNL     1      -8.754   8.877  71.370  1.00  0.00    -0.262 NA 
HETATM   12  C   UNL     1     -10.231   7.265  71.967  1.00  0.00    -0.190 A  
HETATM   13  N   UNL     1     -10.459   7.666  70.658  1.00  0.00    -0.214 NA 
HETATM   14  C   UNL     1     -10.857   6.331  72.808  1.00  0.00    -0.281 A  
HETATM   15  C   UNL     1     -10.358   6.202  74.108  1.00  0.00    -0.308 A  
HETATM   16  C   UNL     1      -9.267   6.960  74.535  1.00  0.00    -0.224 A  
HETATM   17  C   UNL     1      -8.647   7.874  73.672  1.00  0.00    -0.316 A  
BRANCH  13  18
HETATM   18  C   UNL     1     -11.385   6.950  69.791  1.00  0.00    -0.237 C  
BRANCH  18  19
HETATM   19  C   UNL     1     -10.699   6.036  68.795  1.00  0.00    -0.375 A  
HETATM   20  C   UNL     1     -10.774   6.357  67.430  1.00  0.00    -0.411 A  
HETATM   21  C   UNL     1     -10.340   5.447  66.468  1.00  0.00    -0.320 A  
HETATM   22  C   UNL     1      -9.800   4.230  66.867  1.00  0.00    -0.193 A  
HETATM   23  F   UNL     1      -9.467   3.320  65.943  1.00  0.00    -0.160 F  
HETATM   24  C   UNL     1      -9.618   3.938  68.210  1.00  0.00    -0.178 A  
HETATM   25  C   UNL     1     -10.043   4.850  69.174  1.00  0.00    -0.229 A  
ENDBRANCH  18  19
ENDBRANCH  13  18
ENDBRANCH   7   9
ENDBRANCH   2   3
BRANCH   2  26
HETATM   26  C   UNL     1     -10.491  13.140  65.665  1.00  0.00    -0.282 C  
HETATM   27  C   UNL     1     -12.298  13.851  64.445  1.00  0.00    -0.361 C  
HETATM   28  H   UNL     1      -9.167  14.611  66.206  1.00  0.00     0.000 HD 
HETATM   29  C   UNL     1     -10.718  15.483  65.186  1.00  0.00    -0.440 C  
HETATM   30  N   UNL     1     -11.604  12.839  65.050  1.00  0.00    -0.322 NA 
HETATM   31  O   UNL     1     -10.327  16.642  65.276  1.00  0.00    -0.609 OA 
HETATM   32  N   UNL     1     -10.049  14.427  65.727  1.00  0.00    -0.324 N  
HETATM   33  C   UNL     1     -11.952  15.136  64.471  1.00  0.00    -0.326 C  
ENDBRANCH   2  26
TORSDOF 5
ENDMDL
MODEL       50
REMARK 921   NORMALIZED FREE ENERGY PREDICTED BY IDOCK:   -6.57 KCAL/MOL
REMARK 922        TOTAL FREE ENERGY PREDICTED BY IDOCK:   -9.91 KCAL/MOL
REMARK 923 INTER-LIGAND FREE ENERGY PREDICTED BY IDOCK:   -8.95 KCAL/MOL
REMARK 924 INTRA-LIGAND FREE ENERGY PREDICTED BY IDOCK:   -0.96 KCAL/MOL
REMARK 927      BINDING AFFINITY PREDICTED BY RF-SCORE:    0.00 PKD
ROOT
HETATM    1  C   UNL     1      -6.265  18.094  68.317  1.00  0.00    -0.184 C  
HETATM    2  N   UNL     1      -7.540  17.355  68.205  1.00  0.00    -0.224 NA 
ENDROOT
BRANCH   2   3
HETATM    3  C   UNL     1      -7.632  16.194  69.138  1.00  0.00    -0.230 C  
HETATM    4  C   UNL     1      -6.633  15.096  68.802  1.00  0.00    -0.094 C  
HETATM    5  C   UNL     1      -9.031  15.669  69.426  1.00  0.00    -0.265 C  
HETATM    6  C   UNL     1      -7.151  14.053  67.830  1.00  0.00    -0.160 C  
HETATM    7  N   UNL     1      -8.437  13.487  68.242  1.00  0.00    -0.167 NA 
HETATM    8  C   UNL     1      -9.473  14.359  68.775  1.00  0.00    -0.161 C  
BRANCH   7   9
HETATM    9  C   UNL     1      -8.602  12.127  68.098  1.00  0.00    -0.177 A  
HETATM   10  C   UNL     1      -8.135  10.014  67.944  1.00  0.00    -0.109 A  
HETATM   11  N   UNL     1      -7.609  11.278  67.900  1.00  0.00    -0.097 NA 
HETATM   12  C   UNL     1      -9.511  10.062  68.099  1.00  0.00    -0.138 A  
HETATM   13  N   UNL     1      -9.802  11.418  68.126  1.00  0.00    -0.184 NA 
HETATM   14  C   UNL     1     -10.304   8.907  68.197  1.00  0.00    -0.261 A  
HETATM   15  C   UNL     1      -9.649   7.673  68.149  1.00  0.00    -0.158 A  
HETATM   16  C   UNL     1      -8.266   7.601  67.985  1.00  0.00    -0.124 A  
HETATM   17  C   UNL     1      -7.496   8.767  67.872  1.00  0.00    -0.093 A  
BRANCH  13  18
HETATM   18  C   UNL     1     -11.174  11.906  68.066  1.00  0.00    -0.257 C  
BRANCH  18  19
HETATM   19  C   UNL     1     -11.616  12.304  66.673  1.00  0.00    -0.438 A  
HETATM   20  C   UNL     1     -11.269  11.471  65.597  1.00  0.00    -0.212 A  
HETATM   21  C   UNL     1     -11.471  11.895  64.284  1.00  0.00    -0.423 A  
HETATM   22  C   UNL     1     -12.051  13.135  64.045  1.00  0.00    -0.446 A  
HETATM   23  F   UNL     1     -12.163  13.579  62.787  1.00  0.00    -0.469 F  
HETATM   24  C   UNL     1     -12.499  13.926  65.091  1.00  0.00    -0.479 A  
HETATM   25  C   UNL     1     -12.305  13.501  66.404  1.00  0.00    -0.413 A  
ENDBRANCH  18  19
ENDBRANCH  13  18
ENDBRANCH   7   9
ENDBRANCH   2   3
BRANCH   2  26
HETATM   26  C   UNL     1      -8.630  18.124  67.843  1.00  0.00    -0.254 C  
HETATM   27  C   UNL     1     -10.129  19.832  68.151  1.00  0.00    -0.452 C  
HETATM   28  H   UNL     1      -8.896  17.026  66.131  1.00  0.00     0.000 HD 
HETATM   29  C   UNL     1     -10.299  18.521  66.162  1.00  0.00    -0.426 C  
HETATM   30  N   UNL     1      -9.043  19.120  68.582  1.00  0.00    -0.362 NA 
HETATM   31  O   UNL     1     -10.824  18.259  65.085  1.00  0.00    -0.656 OA 
HETATM   32  N   UNL     1      -9.245  17.821  66.666  1.00  0.00    -0.262 N  
HETATM   33  C   UNL     1     -10.777  19.620  67.008  1.00  0.00    -0.575 C  
ENDBRANCH   2  26
TORSDOF 5
ENDMDL
MODEL       51
REMARK 921   NORMALIZED FREE ENERGY PREDICTED BY IDOCK:   -6.54 KCAL/MOL
REMARK 922        TOTAL FREE ENERGY PREDICTED BY IDOCK:   -9.87 KCAL/MOL
REMARK 923 INTER-LIGAND FREE ENERGY PREDICTED BY IDOCK:   -9.11 KCAL/MOL
REMARK 924 INTRA-LIGAND FREE ENERGY PREDICTED BY IDOCK:   -0.76 KCAL/MOL
REMARK 927      BINDING AFFINITY PREDICTED BY RF-SCORE:    0.00 PKD
ROOT
HETATM    1  C   UNL     1     -12.832   7.948  71.503  1.00  0.00    -0.317 C  
HETATM    2  N   UNL     1     -11.356   7.936  71.581  1.00  0.00    -0.251 NA 
ENDROOT
BRANCH   2   3
HETATM    3  C   UNL     1     -10.735   9.234  71.187  1.00  0.00    -0.333 C  
HETATM    4  C   UNL     1     -11.771  10.316  70.918  1.00  0.00    -0.472 C  
HETATM    5  C   UNL     1      -9.644   9.166  70.129  1.00  0.00    -0.235 C  
HETATM    6  C   UNL     1     -12.251  10.381  69.480  1.00  0.00     0.003 C  
HETATM    7  N   UNL     1     -11.149  10.455  68.519  1.00  0.00    -0.263 NA 
HETATM    8  C   UNL     1      -9.968   9.625  68.707  1.00  0.00    -0.173 C  
BRANCH   7   9
HETATM    9  C   UNL     1     -11.291  11.326  67.462  1.00  0.00    -0.288 A  
HETATM   10  C   UNL     1     -11.358  12.086  65.431  1.00  0.00    -0.321 A  
HETATM   11  N   UNL     1     -10.945  11.043  66.219  1.00  0.00    -0.178 NA 
HETATM   12  C   UNL     1     -11.914  13.092  66.203  1.00  0.00    -0.427 A  
HETATM   13  N   UNL     1     -11.802  12.623  67.504  1.00  0.00    -0.389 NA 
HETATM   14  C   UNL     1     -12.441  14.270  65.649  1.00  0.00    -0.432 A  
HETATM   15  C   UNL     1     -12.402  14.398  64.257  1.00  0.00    -0.402 A  
HETATM   16  C   UNL     1     -11.839  13.400  63.461  1.00  0.00    -0.399 A  
HETATM   17  C   UNL     1     -11.303  12.240  64.038  1.00  0.00    -0.469 A  
BRANCH  13  18
HETATM   18  C   UNL     1     -12.083  13.477  68.651  1.00  0.00    -0.268 C  
BRANCH  18  19
HETATM   19  C   UNL     1     -11.006  14.509  68.917  1.00  0.00    -0.268 A  
HETATM   20  C   UNL     1     -11.375  15.863  68.971  1.00  0.00    -0.371 A  
HETATM   21  C   UNL     1     -10.399  16.857  69.006  1.00  0.00    -0.333 A  
HETATM   22  C   UNL     1      -9.055  16.502  69.022  1.00  0.00    -0.229 A  
HETATM   23  F   UNL     1      -8.119  17.457  68.966  1.00  0.00    -0.259 F  
HETATM   24  C   UNL     1      -8.672  15.170  69.078  1.00  0.00    -0.215 A  
HETATM   25  C   UNL     1      -9.646  14.174  69.051  1.00  0.00     0.029 A  
ENDBRANCH  18  19
ENDBRANCH  13  18
ENDBRANCH   7   9
ENDBRANCH   2   3
BRANCH   2  26
HETATM   26  C   UNL     1     -10.830   7.109  72.556  1.00  0.00    -0.264 C  
HETATM   27  C   UNL     1      -9.595   6.689  74.442  1.00  0.00    -0.278 C  
HETATM   28  H   UNL     1     -11.734   5.468  71.720  1.00  0.00     0.000 HD 
HETATM   29  C   UNL     1     -10.746   4.867  73.413  1.00  0.00    -0.268 C  
HETATM   30  N   UNL     1     -10.074   7.575  73.516  1.00  0.00    -0.330 NA 
HETATM   31  O   UNL     1     -11.070   3.685  73.367  1.00  0.00    -0.213 OA 
HETATM   32  N   UNL     1     -11.153   5.787  72.496  1.00  0.00    -0.264 N  
HETATM   33  C   UNL     1      -9.874   5.388  74.472  1.00  0.00    -0.233 C  
ENDBRANCH   2  26
TORSDOF 5
ENDMDL
MODEL       52
REMARK 921   NORMALIZED FREE ENERGY PREDICTED BY IDOCK:   -6.52 KCAL/MOL
REMARK 922        TOTAL FREE ENERGY PREDICTED BY IDOCK:   -9.84 KCAL/MOL
REMARK 923 INTER-LIGAND FREE ENERGY PREDICTED BY IDOCK:   -8.98 KCAL/MOL
REMARK 924 INTRA-LIGAND FREE ENERGY PREDICTED BY IDOCK:   -0.85 KCAL/MOL
REMARK 927      BINDING AFFINITY PREDICTED BY RF-SCORE:    0.00 PKD
ROOT
HETATM    1  C   UNL     1      -9.762   8.762  72.340  1.00  0.00    -0.145 C  
HETATM    2  N   UNL     1     -10.809   7.746  72.098  1.00  0.00    -0.240 NA 
ENDROOT
BRANCH   2   3
HETATM    3  C   UNL     1     -11.753   8.122  71.005  1.00  0.00    -0.274 C  
HETATM    4  C   UNL     1     -11.086   8.124  69.637  1.00  0.00    -0.015 C  
HETATM    5  C   UNL     1     -12.622   9.345  71.256  1.00  0.00    -0.403 C  
HETATM    6  C   UNL     1     -10.472   9.454  69.241  1.00  0.00    -0.218 C  
HETATM    7  N   UNL     1     -11.409  10.571  69.373  1.00  0.00    -0.254 NA 
HETATM    8  C   UNL     1     -12.281  10.649  70.536  1.00  0.00    -0.358 C  
BRANCH   7   9
HETATM    9  C   UNL     1     -11.416  11.511  68.367  1.00  0.00    -0.298 A  
HETATM   10  C   UNL     1     -11.751  12.436  66.433  1.00  0.00    -0.391 A  
HETATM   11  N   UNL     1     -11.715  11.244  67.107  1.00  0.00    -0.502 NA 
HETATM   12  C   UNL     1     -11.392  13.481  67.267  1.00  0.00    -0.315 A  
HETATM   13  N   UNL     1     -11.114  12.867  68.480  1.00  0.00    -0.252 NA 
HETATM   14  C   UNL     1     -11.366  14.819  66.840  1.00  0.00    -0.358 A  
HETATM   15  C   UNL     1     -11.737  15.077  65.517  1.00  0.00    -0.145 A  
HETATM   16  C   UNL     1     -12.095  14.039  64.658  1.00  0.00    -0.462 A  
HETATM   17  C   UNL     1     -12.096  12.709  65.101  1.00  0.00    -0.508 A  
BRANCH  13  18
HETATM   18  C   UNL     1     -10.494  13.594  69.581  1.00  0.00     0.480 C  
BRANCH  18  19
HETATM   19  C   UNL     1     -11.482  14.374  70.424  1.00  0.00    -0.228 A  
HETATM   20  C   UNL     1     -11.049  15.562  71.035  1.00  0.00    -0.387 A  
HETATM   21  C   UNL     1     -11.851  16.201  71.980  1.00  0.00    -0.615 A  
HETATM   22  C   UNL     1     -13.099  15.675  72.290  1.00  0.00    -0.456 A  
HETATM   23  F   UNL     1     -13.830  16.237  73.261  1.00  0.00    -0.673 F  
HETATM   24  C   UNL     1     -13.590  14.564  71.621  1.00  0.00    -0.469 A  
HETATM   25  C   UNL     1     -12.794  13.928  70.670  1.00  0.00    -0.291 A  
ENDBRANCH  18  19
ENDBRANCH  13  18
ENDBRANCH   7   9
ENDBRANCH   2   3
BRANCH   2  26
HETATM   26  C   UNL     1     -10.428   6.443  72.356  1.00  0.00    -0.198 C  
HETATM   27  C   UNL     1     -10.832   4.269  72.965  1.00  0.00    -0.183 C  
HETATM   28  H   UNL     1      -8.475   6.872  71.893  1.00  0.00     0.000 HD 
HETATM   29  C   UNL     1      -8.606   4.876  72.345  1.00  0.00    -0.123 C  
HETATM   30  N   UNL     1     -11.291   5.537  72.732  1.00  0.00    -0.305 NA 
HETATM   31  O   UNL     1      -7.428   4.598  72.147  1.00  0.00    -0.077 OA 
HETATM   32  N   UNL     1      -9.114   6.128  72.174  1.00  0.00    -0.142 N  
HETATM   33  C   UNL     1      -9.573   3.869  72.795  1.00  0.00    -0.176 C  
ENDBRANCH   2  26
TORSDOF 5
ENDMDL
MODEL       53
REMARK 921   NORMALIZED FREE ENERGY PREDICTED BY IDOCK:   -6.49 KCAL/MOL
REMARK 922        TOTAL FREE ENERGY PREDICTED BY IDOCK:   -9.80 KCAL/MOL
REMARK 923 INTER-LIGAND FREE ENERGY PREDICTED BY IDOCK:   -8.84 KCAL/MOL
REMARK 924 INTRA-LIGAND FREE ENERGY PREDICTED BY IDOCK:   -0.95 KCAL/MOL
REMARK 927      BINDING AFFINITY PREDICTED BY RF-SCORE:    0.00 PKD
ROOT
HETATM    1  C   UNL     1     -10.834  13.348  68.618  1.00  0.00    -0.263 C  
HETATM    2  N   UNL     1      -9.866  13.792  67.592  1.00  0.00    -0.229 NA 
ENDROOT
BRANCH   2   3
HETATM    3  C   UNL     1      -9.383  12.683  66.718  1.00  0.00    -0.232 C  
HETATM    4  C   UNL     1     -10.515  11.783  66.242  1.00  0.00    -0.281 C  
HETATM    5  C   UNL     1      -8.168  11.913  67.214  1.00  0.00    -0.170 C  
HETATM    6  C   UNL     1     -10.814  10.612  67.160  1.00  0.00    -0.270 C  
HETATM    7  N   UNL     1      -9.620   9.830  67.485  1.00  0.00    -0.147 NA 
HETATM    8  C   UNL     1      -8.370  10.512  67.790  1.00  0.00    -0.111 C  
BRANCH   7   9
HETATM    9  C   UNL     1      -9.746   8.459  67.486  1.00  0.00    -0.162 A  
HETATM   10  C   UNL     1      -9.925   6.420  66.767  1.00  0.00    -0.171 A  
HETATM   11  N   UNL     1     -10.013   7.740  66.410  1.00  0.00    -0.157 NA 
HETATM   12  C   UNL     1      -9.669   6.295  68.123  1.00  0.00    -0.122 A  
HETATM   13  N   UNL     1      -9.626   7.604  68.581  1.00  0.00    -0.151 NA 
HETATM   14  C   UNL     1      -9.507   5.051  68.753  1.00  0.00    -0.192 A  
HETATM   15  C   UNL     1      -9.599   3.909  67.952  1.00  0.00    -0.193 A  
HETATM   16  C   UNL     1      -9.864   4.011  66.587  1.00  0.00    -0.169 A  
HETATM   17  C   UNL     1     -10.040   5.263  65.982  1.00  0.00    -0.163 A  
BRANCH  13  18
HETATM   18  C   UNL     1      -9.585   7.914  70.005  1.00  0.00    -0.168 C  
BRANCH  18  19
HETATM   19  C   UNL     1     -10.932   8.305  70.579  1.00  0.00    -0.253 A  
HETATM   20  C   UNL     1     -11.197   9.667  70.796  1.00  0.00    -0.403 A  
HETATM   21  C   UNL     1     -12.330  10.059  71.507  1.00  0.00    -0.513 A  
HETATM   22  C   UNL     1     -13.216   9.095  71.974  1.00  0.00    -0.441 A  
HETATM   23  F   UNL     1     -14.254   9.465  72.734  1.00  0.00    -0.422 F  
HETATM   24  C   UNL     1     -13.029   7.753  71.679  1.00  0.00    -0.374 A  
HETATM   25  C   UNL     1     -11.902   7.359  70.960  1.00  0.00    -0.336 A  
ENDBRANCH  18  19
ENDBRANCH  13  18
ENDBRANCH   7   9
ENDBRANCH   2   3
BRANCH   2  26
HETATM   26  C   UNL     1     -10.044  15.087  67.144  1.00  0.00    -0.239 C  
HETATM   27  C   UNL     1      -9.850  17.365  67.322  1.00  0.00    -0.278 C  
HETATM   28  H   UNL     1     -10.953  14.419  65.430  1.00  0.00     0.000 HD 
HETATM   29  C   UNL     1     -10.837  16.465  65.343  1.00  0.00    -0.239 C  
HETATM   30  N   UNL     1      -9.636  16.116  67.838  1.00  0.00    -0.222 NA 
HETATM   31  O   UNL     1     -11.344  16.598  64.234  1.00  0.00    -1.116 OA 
HETATM   32  N   UNL     1     -10.639  15.251  65.929  1.00  0.00    -0.318 N  
HETATM   33  C   UNL     1     -10.404  17.618  66.139  1.00  0.00    -0.334 C  
ENDBRANCH   2  26
TORSDOF 5
ENDMDL
MODEL       54
REMARK 921   NORMALIZED FREE ENERGY PREDICTED BY IDOCK:   -6.46 KCAL/MOL
REMARK 922        TOTAL FREE ENERGY PREDICTED BY IDOCK:   -9.76 KCAL/MOL
REMARK 923 INTER-LIGAND FREE ENERGY PREDICTED BY IDOCK:   -8.60 KCAL/MOL
REMARK 924 INTRA-LIGAND FREE ENERGY PREDICTED BY IDOCK:   -1.16 KCAL/MOL
REMARK 927      BINDING AFFINITY PREDICTED BY RF-SCORE:    0.00 PKD
ROOT
HETATM    1  C   UNL     1     -11.353  15.772  64.293  1.00  0.00    -0.179 C  
HETATM    2  N   UNL     1     -10.984  15.457  65.689  1.00  0.00    -0.337 NA 
ENDROOT
BRANCH   2   3
HETATM    3  C   UNL     1     -10.508  14.054  65.870  1.00  0.00    -0.309 C  
HETATM    4  C   UNL     1     -11.652  13.076  66.099  1.00  0.00    -0.412 C  
HETATM    5  C   UNL     1      -9.344  13.856  66.830  1.00  0.00    -0.286 C  
HETATM    6  C   UNL     1     -12.031  12.884  67.555  1.00  0.00    -0.296 C  
HETATM    7  N   UNL     1     -10.882  12.557  68.400  1.00  0.00    -0.233 NA 
HETATM    8  C   UNL     1      -9.621  13.259  68.209  1.00  0.00    -0.221 C  
BRANCH   7   9
HETATM    9  C   UNL     1     -11.059  11.580  69.354  1.00  0.00    -0.226 A  
HETATM   10  C   UNL     1     -12.015  10.314  70.834  1.00  0.00    -0.375 A  
HETATM   11  N   UNL     1     -12.137  11.471  70.110  1.00  0.00    -0.346 NA 
HETATM   12  C   UNL     1     -10.794   9.709  70.587  1.00  0.00    -0.320 A  
HETATM   13  N   UNL     1     -10.166  10.564  69.693  1.00  0.00    -0.207 NA 
HETATM   14  C   UNL     1     -10.416   8.493  71.180  1.00  0.00    -0.278 A  
HETATM   15  C   UNL     1     -11.336   7.885  72.040  1.00  0.00    -0.343 A  
HETATM   16  C   UNL     1     -12.568   8.481  72.308  1.00  0.00    -0.438 A  
HETATM   17  C   UNL     1     -12.917   9.703  71.718  1.00  0.00    -0.514 A  
BRANCH  13  18
HETATM   18  C   UNL     1      -8.763  10.399  69.336  1.00  0.00    -0.124 C  
BRANCH  18  19
HETATM   19  C   UNL     1      -8.545   9.506  68.131  1.00  0.00    -0.120 A  
HETATM   20  C   UNL     1      -9.451   9.592  67.062  1.00  0.00    -0.197 A  
HETATM   21  C   UNL     1      -9.413   8.654  66.031  1.00  0.00    -0.278 A  
HETATM   22  C   UNL     1      -8.451   7.651  66.049  1.00  0.00    -0.144 A  
HETATM   23  F   UNL     1      -8.472   6.699  65.108  1.00  0.00    -0.139 F  
HETATM   24  C   UNL     1      -7.481   7.612  67.039  1.00  0.00    -0.095 A  
HETATM   25  C   UNL     1      -7.511   8.554  68.066  1.00  0.00    -0.097 A  
ENDBRANCH  18  19
ENDBRANCH  13  18
ENDBRANCH   7   9
ENDBRANCH   2   3
BRANCH   2  26
HETATM   26  C   UNL     1     -10.493  16.524  66.418  1.00  0.00    -0.274 C  
HETATM   27  C   UNL     1     -10.370  17.849  68.286  1.00  0.00    -0.383 C  
HETATM   28  H   UNL     1      -9.254  17.068  64.877  1.00  0.00     0.000 HD 
HETATM   29  C   UNL     1      -8.929  18.347  66.447  1.00  0.00    -0.249 C  
HETATM   30  N   UNL     1     -10.907  16.774  67.632  1.00  0.00    -0.298 NA 
HETATM   31  O   UNL     1      -8.044  19.012  65.920  1.00  0.00    -0.458 OA 
HETATM   32  N   UNL     1      -9.535  17.293  65.831  1.00  0.00    -0.095 N  
HETATM   33  C   UNL     1      -9.418  18.641  67.798  1.00  0.00    -0.326 C  
ENDBRANCH   2  26
TORSDOF 5
ENDMDL
MODEL       55
REMARK 921   NORMALIZED FREE ENERGY PREDICTED BY IDOCK:   -6.43 KCAL/MOL
REMARK 922        TOTAL FREE ENERGY PREDICTED BY IDOCK:   -9.73 KCAL/MOL
REMARK 923 INTER-LIGAND FREE ENERGY PREDICTED BY IDOCK:   -8.13 KCAL/MOL
REMARK 924 INTRA-LIGAND FREE ENERGY PREDICTED BY IDOCK:   -1.60 KCAL/MOL
REMARK 927      BINDING AFFINITY PREDICTED BY RF-SCORE:    0.00 PKD
ROOT
HETATM    1  C   UNL     1      -7.418   8.726  65.589  1.00  0.00    -0.085 C  
HETATM    2  N   UNL     1      -8.425   9.016  66.631  1.00  0.00    -0.121 NA 
ENDROOT
BRANCH   2   3
HETATM    3  C   UNL     1      -8.990  10.395  66.537  1.00  0.00    -0.145 C  
HETATM    4  C   UNL     1      -8.550  11.284  67.692  1.00  0.00    -0.124 C  
HETATM    5  C   UNL     1     -10.477  10.495  66.230  1.00  0.00    -0.250 C  
HETATM    6  C   UNL     1      -9.469  11.246  68.898  1.00  0.00    -0.089 C  
HETATM    7  N   UNL     1     -10.869  11.489  68.549  1.00  0.00    -0.202 NA 
HETATM    8  C   UNL     1     -11.436  10.872  67.359  1.00  0.00    -0.091 C  
BRANCH   7   9
HETATM    9  C   UNL     1     -11.594  12.309  69.386  1.00  0.00    -0.314 A  
HETATM   10  C   UNL     1     -12.658  13.017  71.139  1.00  0.00    -0.297 A  
HETATM   11  N   UNL     1     -12.143  11.908  70.519  1.00  0.00    -0.372 NA 
HETATM   12  C   UNL     1     -12.498  14.140  70.345  1.00  0.00    -0.357 A  
HETATM   13  N   UNL     1     -11.880  13.661  69.199  1.00  0.00    -0.329 NA 
HETATM   14  C   UNL     1     -12.916  15.420  70.747  1.00  0.00    -0.510 A  
HETATM   15  C   UNL     1     -13.500  15.536  72.012  1.00  0.00    -0.578 A  
HETATM   16  C   UNL     1     -13.677  14.416  72.825  1.00  0.00    -0.466 A  
HETATM   17  C   UNL     1     -13.269  13.146  72.396  1.00  0.00    -0.519 A  
BRANCH  13  18
HETATM   18  C   UNL     1     -11.720  14.491  68.013  1.00  0.00    -0.342 C  
BRANCH  18  19
HETATM   19  C   UNL     1     -10.503  15.393  68.063  1.00  0.00    -0.257 A  
HETATM   20  C   UNL     1      -9.243  14.805  68.260  1.00  0.00    -0.187 A  
HETATM   21  C   UNL     1      -8.128  15.602  68.519  1.00  0.00    -0.147 A  
HETATM   22  C   UNL     1      -8.263  16.984  68.547  1.00  0.00    -0.259 A  
HETATM   23  F   UNL     1      -7.212  17.743  68.883  1.00  0.00    -0.241 F  
HETATM   24  C   UNL     1      -9.475  17.588  68.249  1.00  0.00    -0.296 A  
HETATM   25  C   UNL     1     -10.589  16.795  67.983  1.00  0.00    -0.347 A  
ENDBRANCH  18  19
ENDBRANCH  13  18
ENDBRANCH   7   9
ENDBRANCH   2   3
BRANCH   2  26
HETATM   26  C   UNL     1      -9.160   7.925  67.054  1.00  0.00    -0.137 C  
HETATM   27  C   UNL     1     -10.467   6.072  66.707  1.00  0.00    -0.267 C  
HETATM   28  H   UNL     1      -8.738   8.341  69.018  1.00  0.00     0.000 HD 
HETATM   29  C   UNL     1      -9.857   6.624  68.949  1.00  0.00    -0.139 C  
HETATM   30  N   UNL     1      -9.761   7.132  66.206  1.00  0.00    -0.061 NA 
HETATM   31  O   UNL     1      -9.869   6.402  70.155  1.00  0.00    -0.165 OA 
HETATM   32  N   UNL     1      -9.211   7.686  68.394  1.00  0.00    -0.140 N  
HETATM   33  C   UNL     1     -10.555   5.753  67.996  1.00  0.00    -0.295 C  
ENDBRANCH   2  26
TORSDOF 5
ENDMDL
MODEL       56
REMARK 921   NORMALIZED FREE ENERGY PREDICTED BY IDOCK:   -6.43 KCAL/MOL
REMARK 922        TOTAL FREE ENERGY PREDICTED BY IDOCK:   -9.72 KCAL/MOL
REMARK 923 INTER-LIGAND FREE ENERGY PREDICTED BY IDOCK:   -8.39 KCAL/MOL
REMARK 924 INTRA-LIGAND FREE ENERGY PREDICTED BY IDOCK:   -1.33 KCAL/MOL
REMARK 927      BINDING AFFINITY PREDICTED BY RF-SCORE:    0.00 PKD
ROOT
HETATM    1  C   UNL     1      -7.484   6.691  71.588  1.00  0.00    -0.088 C  
HETATM    2  N   UNL     1      -8.558   7.453  70.916  1.00  0.00    -0.134 NA 
ENDROOT
BRANCH   2   3
HETATM    3  C   UNL     1      -8.242   7.789  69.497  1.00  0.00    -0.128 C  
HETATM    4  C   UNL     1      -7.893   9.259  69.312  1.00  0.00    -0.085 C  
HETATM    5  C   UNL     1      -9.209   7.262  68.447  1.00  0.00    -0.137 C  
HETATM    6  C   UNL     1      -9.082  10.153  69.011  1.00  0.00    -0.173 C  
HETATM    7  N   UNL     1      -9.892   9.660  67.897  1.00  0.00    -0.149 NA 
HETATM    8  C   UNL     1     -10.184   8.238  67.789  1.00  0.00    -0.223 C  
BRANCH   7   9
HETATM    9  C   UNL     1     -10.347  10.589  66.988  1.00  0.00    -0.237 A  
HETATM   10  C   UNL     1     -10.729  11.587  65.100  1.00  0.00    -0.289 A  
HETATM   11  N   UNL     1      -9.974  10.627  65.720  1.00  0.00    -0.244 NA 
HETATM   12  C   UNL     1     -11.551  12.229  66.012  1.00  0.00    -0.393 A  
HETATM   13  N   UNL     1     -11.246  11.628  67.225  1.00  0.00    -0.289 NA 
HETATM   14  C   UNL     1     -12.450  13.243  65.642  1.00  0.00    -0.510 A  
HETATM   15  C   UNL     1     -12.506  13.588  64.288  1.00  0.00    -0.311 A  
HETATM   16  C   UNL     1     -11.681  12.961  63.354  1.00  0.00    -0.526 A  
HETATM   17  C   UNL     1     -10.779  11.963  63.749  1.00  0.00    -0.476 A  
BRANCH  13  18
HETATM   18  C   UNL     1     -11.744  12.158  68.487  1.00  0.00    -0.330 C  
BRANCH  18  19
HETATM   19  C   UNL     1     -11.176  13.518  68.840  1.00  0.00    -0.316 A  
HETATM   20  C   UNL     1     -12.036  14.478  69.399  1.00  0.00    -0.362 A  
HETATM   21  C   UNL     1     -11.614  15.798  69.548  1.00  0.00    -0.368 A  
HETATM   22  C   UNL     1     -10.325  16.155  69.170  1.00  0.00    -0.259 A  
HETATM   23  F   UNL     1      -9.952  17.439  69.229  1.00  0.00    -0.272 F  
HETATM   24  C   UNL     1      -9.426  15.202  68.717  1.00  0.00    -0.209 A  
HETATM   25  C   UNL     1      -9.842  13.879  68.575  1.00  0.00    -0.214 A  
ENDBRANCH  18  19
ENDBRANCH  13  18
ENDBRANCH   7   9
ENDBRANCH   2   3
BRANCH   2  26
HETATM   26  C   UNL     1      -9.836   7.176  71.362  1.00  0.00    -0.176 C  
HETATM   27  C   UNL     1     -11.492   5.773  72.103  1.00  0.00    -0.235 C  
HETATM   28  H   UNL     1     -10.360   9.155  71.236  1.00  0.00     0.000 HD 
HETATM   29  C   UNL     1     -11.964   8.110  71.972  1.00  0.00    -0.340 C  
HETATM   30  N   UNL     1     -10.209   5.961  71.668  1.00  0.00    -0.196 NA 
HETATM   31  O   UNL     1     -12.714   9.069  72.123  1.00  0.00    -0.361 OA 
HETATM   32  N   UNL     1     -10.691   8.228  71.501  1.00  0.00    -0.224 N  
HETATM   33  C   UNL     1     -12.387   6.741  72.286  1.00  0.00    -0.137 C  
ENDBRANCH   2  26
TORSDOF 5
ENDMDL
MODEL       57
REMARK 921   NORMALIZED FREE ENERGY PREDICTED BY IDOCK:   -6.41 KCAL/MOL
REMARK 922        TOTAL FREE ENERGY PREDICTED BY IDOCK:   -9.70 KCAL/MOL
REMARK 923 INTER-LIGAND FREE ENERGY PREDICTED BY IDOCK:   -8.10 KCAL/MOL
REMARK 924 INTRA-LIGAND FREE ENERGY PREDICTED BY IDOCK:   -1.61 KCAL/MOL
REMARK 927      BINDING AFFINITY PREDICTED BY RF-SCORE:    0.00 PKD
ROOT
HETATM    1  C   UNL     1     -11.798  14.807  67.057  1.00  0.00    -0.271 C  
HETATM    2  N   UNL     1     -11.158  13.505  66.770  1.00  0.00    -0.295 NA 
ENDROOT
BRANCH   2   3
HETATM    3  C   UNL     1     -10.864  12.710  67.998  1.00  0.00    -0.225 C  
HETATM    4  C   UNL     1      -9.375  12.447  68.179  1.00  0.00    -0.209 C  
HETATM    5  C   UNL     1     -11.726  11.477  68.226  1.00  0.00    -0.371 C  
HETATM    6  C   UNL     1      -8.879  11.173  67.522  1.00  0.00    -0.139 C  
HETATM    7  N   UNL     1      -9.670  10.000  67.896  1.00  0.00    -0.145 NA 
HETATM    8  C   UNL     1     -11.121  10.098  67.966  1.00  0.00    -0.240 C  
BRANCH   7   9
HETATM    9  C   UNL     1      -8.985   8.837  68.167  1.00  0.00    -0.141 A  
HETATM   10  C   UNL     1      -7.842   7.017  67.866  1.00  0.00    -0.114 A  
HETATM   11  N   UNL     1      -8.612   7.966  67.245  1.00  0.00    -0.127 NA 
HETATM   12  C   UNL     1      -7.784   7.249  69.230  1.00  0.00    -0.107 A  
HETATM   13  N   UNL     1      -8.574   8.374  69.417  1.00  0.00    -0.128 NA 
HETATM   14  C   UNL     1      -7.042   6.440  70.106  1.00  0.00    -0.074 A  
HETATM   15  C   UNL     1      -6.330   5.374  69.548  1.00  0.00    -0.030 A  
HETATM   16  C   UNL     1      -6.381   5.117  68.178  1.00  0.00    -0.036 A  
HETATM   17  C   UNL     1      -7.143   5.927  67.325  1.00  0.00    -0.074 A  
BRANCH  13  18
HETATM   18  C   UNL     1      -8.949   8.831  70.748  1.00  0.00    -0.192 C  
BRANCH  18  19
HETATM   19  C   UNL     1     -10.362   8.452  71.144  1.00  0.00    -0.264 A  
HETATM   20  C   UNL     1     -10.721   7.095  71.125  1.00  0.00    -0.252 A  
HETATM   21  C   UNL     1     -12.054   6.717  71.279  1.00  0.00    -0.421 A  
HETATM   22  C   UNL     1     -13.025   7.690  71.486  1.00  0.00    -0.341 A  
HETATM   23  F   UNL     1     -14.314   7.335  71.544  1.00  0.00    -0.486 F  
HETATM   24  C   UNL     1     -12.677   9.026  71.615  1.00  0.00    -0.421 A  
HETATM   25  C   UNL     1     -11.344   9.406  71.470  1.00  0.00    -0.464 A  
ENDBRANCH  18  19
ENDBRANCH  13  18
ENDBRANCH   7   9
ENDBRANCH   2   3
BRANCH   2  26
HETATM   26  C   UNL     1     -11.516  12.932  65.565  1.00  0.00    -0.326 C  
HETATM   27  C   UNL     1     -13.032  12.283  63.971  1.00  0.00    -0.186 C  
HETATM   28  H   UNL     1      -9.554  12.523  65.123  1.00  0.00     0.000 HD 
HETATM   29  C   UNL     1     -10.711  11.915  63.542  1.00  0.00    -0.442 C  
HETATM   30  N   UNL     1     -12.763  12.865  65.180  1.00  0.00    -0.722 NA 
HETATM   31  O   UNL     1      -9.796  11.525  62.825  1.00  0.00    -0.307 OA 
HETATM   32  N   UNL     1     -10.511  12.462  64.773  1.00  0.00    -0.293 N  
HETATM   33  C   UNL     1     -12.115  11.816  63.127  1.00  0.00    -0.252 C  
ENDBRANCH   2  26
TORSDOF 5
ENDMDL
MODEL       58
REMARK 921   NORMALIZED FREE ENERGY PREDICTED BY IDOCK:   -6.41 KCAL/MOL
REMARK 922        TOTAL FREE ENERGY PREDICTED BY IDOCK:   -9.69 KCAL/MOL
REMARK 923 INTER-LIGAND FREE ENERGY PREDICTED BY IDOCK:   -8.58 KCAL/MOL
REMARK 924 INTRA-LIGAND FREE ENERGY PREDICTED BY IDOCK:   -1.11 KCAL/MOL
REMARK 927      BINDING AFFINITY PREDICTED BY RF-SCORE:    0.00 PKD
ROOT
HETATM    1  C   UNL     1      -8.570   9.765  69.282  1.00  0.00    -0.158 C  
HETATM    2  N   UNL     1      -9.155   9.622  67.932  1.00  0.00    -0.125 NA 
ENDROOT
BRANCH   2   3
HETATM    3  C   UNL     1      -8.633  10.622  66.955  1.00  0.00    -0.126 C  
HETATM    4  C   UNL     1      -7.708  11.642  67.604  1.00  0.00    -0.133 C  
HETATM    5  C   UNL     1      -9.656  11.245  66.016  1.00  0.00    -0.245 C  
HETATM    6  C   UNL     1      -8.411  12.879  68.132  1.00  0.00    -0.168 C  
HETATM    7  N   UNL     1      -9.272  13.510  67.132  1.00  0.00    -0.227 NA 
HETATM    8  C   UNL     1     -10.106  12.684  66.270  1.00  0.00    -0.253 C  
BRANCH   7   9
HETATM    9  C   UNL     1      -9.249  14.885  67.057  1.00  0.00    -0.234 A  
HETATM   10  C   UNL     1      -8.548  16.901  66.672  1.00  0.00    -0.247 A  
HETATM   11  N   UNL     1      -8.162  15.593  66.804  1.00  0.00    -0.255 NA 
HETATM   12  C   UNL     1      -9.903  17.040  66.922  1.00  0.00    -0.271 A  
HETATM   13  N   UNL     1     -10.324  15.755  67.234  1.00  0.00    -0.283 NA 
HETATM   14  C   UNL     1     -10.569  18.274  66.835  1.00  0.00    -0.356 A  
HETATM   15  C   UNL     1      -9.809  19.388  66.463  1.00  0.00    -0.471 A  
HETATM   16  C   UNL     1      -8.442  19.272  66.215  1.00  0.00    -0.328 A  
HETATM   17  C   UNL     1      -7.795  18.034  66.325  1.00  0.00    -0.288 A  
BRANCH  13  18
HETATM   18  C   UNL     1     -11.655  15.496  67.768  1.00  0.00    -0.187 C  
BRANCH  18  19
HETATM   19  C   UNL     1     -11.669  15.234  69.260  1.00  0.00    -0.359 A  
HETATM   20  C   UNL     1     -12.107  13.979  69.715  1.00  0.00    -0.405 A  
HETATM   21  C   UNL     1     -12.333  13.763  71.074  1.00  0.00    -0.452 A  
HETATM   22  C   UNL     1     -12.091  14.786  71.982  1.00  0.00    -0.325 A  
HETATM   23  F   UNL     1     -12.393  14.608  73.274  1.00  0.00    -0.429 F  
HETATM   24  C   UNL     1     -11.557  15.996  71.566  1.00  0.00    -0.529 A  
HETATM   25  C   UNL     1     -11.322  16.212  70.209  1.00  0.00    -0.363 A  
ENDBRANCH  18  19
ENDBRANCH  13  18
ENDBRANCH   7   9
ENDBRANCH   2   3
BRANCH   2  26
HETATM   26  C   UNL     1      -9.506   8.332  67.582  1.00  0.00    -0.149 C  
HETATM   27  C   UNL     1     -11.004   6.708  66.968  1.00  0.00    -0.393 C  
HETATM   28  H   UNL     1      -7.558   7.709  67.742  1.00  0.00     0.000 HD 
HETATM   29  C   UNL     1      -8.696   6.117  67.129  1.00  0.00    -0.106 C  
HETATM   30  N   UNL     1     -10.742   8.007  67.308  1.00  0.00    -0.274 NA 
HETATM   31  O   UNL     1      -7.782   5.305  67.032  1.00  0.00    -0.094 OA 
HETATM   32  N   UNL     1      -8.505   7.412  67.505  1.00  0.00    -0.116 N  
HETATM   33  C   UNL     1     -10.089   5.749  66.850  1.00  0.00    -0.231 C  
ENDBRANCH   2  26
TORSDOF 5
ENDMDL
MODEL       59
REMARK 921   NORMALIZED FREE ENERGY PREDICTED BY IDOCK:   -6.40 KCAL/MOL
REMARK 922        TOTAL FREE ENERGY PREDICTED BY IDOCK:   -9.68 KCAL/MOL
REMARK 923 INTER-LIGAND FREE ENERGY PREDICTED BY IDOCK:   -8.23 KCAL/MOL
REMARK 924 INTRA-LIGAND FREE ENERGY PREDICTED BY IDOCK:   -1.44 KCAL/MOL
REMARK 927      BINDING AFFINITY PREDICTED BY RF-SCORE:    0.00 PKD
ROOT
HETATM    1  C   UNL     1     -10.978   6.471  67.128  1.00  0.00    -0.408 C  
HETATM    2  N   UNL     1      -9.903   6.423  68.141  1.00  0.00    -0.125 NA 
ENDROOT
BRANCH   2   3
HETATM    3  C   UNL     1      -8.763   7.336  67.834  1.00  0.00    -0.123 C  
HETATM    4  C   UNL     1      -8.462   8.295  68.977  1.00  0.00    -0.131 C  
HETATM    5  C   UNL     1      -8.788   8.010  66.470  1.00  0.00    -0.175 C  
HETATM    6  C   UNL     1      -9.222   9.607  68.911  1.00  0.00    -0.147 C  
HETATM    7  N   UNL     1      -9.087  10.273  67.615  1.00  0.00    -0.137 NA 
HETATM    8  C   UNL     1      -9.158   9.491  66.389  1.00  0.00    -0.159 C  
BRANCH   7   9
HETATM    9  C   UNL     1      -8.897  11.637  67.623  1.00  0.00    -0.159 A  
HETATM   10  C   UNL     1      -7.906  13.565  67.552  1.00  0.00    -0.178 A  
HETATM   11  N   UNL     1      -7.714  12.218  67.712  1.00  0.00    -0.127 NA 
HETATM   12  C   UNL     1      -9.254  13.857  67.433  1.00  0.00    -0.224 A  
HETATM   13  N   UNL     1      -9.880  12.624  67.550  1.00  0.00    -0.200 NA 
HETATM   14  C   UNL     1      -9.734  15.162  67.235  1.00  0.00    -0.210 A  
HETATM   15  C   UNL     1      -8.788  16.187  67.143  1.00  0.00    -0.218 A  
HETATM   16  C   UNL     1      -7.425  15.916  67.268  1.00  0.00    -0.244 A  
HETATM   17  C   UNL     1      -6.970  14.608  67.483  1.00  0.00    -0.193 A  
BRANCH  13  18
HETATM   18  C   UNL     1     -11.326  12.511  67.688  1.00  0.00    -0.306 C  
BRANCH  18  19
HETATM   19  C   UNL     1     -11.803  12.559  69.126  1.00  0.00    -0.348 A  
HETATM   20  C   UNL     1     -11.988  11.346  69.810  1.00  0.00    -0.422 A  
HETATM   21  C   UNL     1     -12.617  11.330  71.054  1.00  0.00    -0.495 A  
HETATM   22  C   UNL     1     -13.031  12.525  71.631  1.00  0.00    -0.302 A  
HETATM   23  F   UNL     1     -13.714  12.500  72.782  1.00  0.00    -0.477 F  
HETATM   24  C   UNL     1     -12.762  13.741  71.022  1.00  0.00    -0.416 A  
HETATM   25  C   UNL     1     -12.125  13.761  69.782  1.00  0.00    -0.400 A  
ENDBRANCH  18  19
ENDBRANCH  13  18
ENDBRANCH   7   9
ENDBRANCH   2   3
BRANCH   2  26
HETATM   26  C   UNL     1     -10.325   6.144  69.427  1.00  0.00    -0.227 C  
HETATM   27  C   UNL     1     -10.149   5.106  71.465  1.00  0.00    -0.193 C  
HETATM   28  H   UNL     1     -11.937   7.396  69.220  1.00  0.00     0.000 HD 
HETATM   29  C   UNL     1     -11.952   6.635  71.125  1.00  0.00    -0.357 C  
HETATM   30  N   UNL     1      -9.664   5.327  70.205  1.00  0.00    -0.179 NA 
HETATM   31  O   UNL     1     -12.945   7.237  71.520  1.00  0.00    -0.365 OA 
HETATM   32  N   UNL     1     -11.447   6.778  69.868  1.00  0.00    -0.319 N  
HETATM   33  C   UNL     1     -11.224   5.695  71.984  1.00  0.00    -0.271 C  
ENDBRANCH   2  26
TORSDOF 5
ENDMDL
MODEL       60
REMARK 921   NORMALIZED FREE ENERGY PREDICTED BY IDOCK:   -6.36 KCAL/MOL
REMARK 922        TOTAL FREE ENERGY PREDICTED BY IDOCK:   -9.64 KCAL/MOL
REMARK 923 INTER-LIGAND FREE ENERGY PREDICTED BY IDOCK:   -9.02 KCAL/MOL
REMARK 924 INTRA-LIGAND FREE ENERGY PREDICTED BY IDOCK:   -0.62 KCAL/MOL
REMARK 927      BINDING AFFINITY PREDICTED BY RF-SCORE:    0.00 PKD
ROOT
HETATM    1  C   UNL     1     -10.776   6.754  73.415  1.00  0.00    -0.305 C  
HETATM    2  N   UNL     1     -11.332   5.972  72.291  1.00  0.00    -0.290 NA 
ENDROOT
BRANCH   2   3
HETATM    3  C   UNL     1     -11.919   6.823  71.215  1.00  0.00    -0.365 C  
HETATM    4  C   UNL     1     -10.973   7.928  70.766  1.00  0.00    -0.259 C  
HETATM    5  C   UNL     1     -13.346   7.303  71.438  1.00  0.00    -0.399 C  
HETATM    6  C   UNL     1     -11.112   9.225  71.541  1.00  0.00    -0.373 C  
HETATM    7  N   UNL     1     -12.494   9.705  71.597  1.00  0.00    -0.379 NA 
HETATM    8  C   UNL     1     -13.577   8.762  71.832  1.00  0.00    -0.424 C  
BRANCH   7   9
HETATM    9  C   UNL     1     -12.700  11.055  71.422  1.00  0.00    -0.429 A  
HETATM   10  C   UNL     1     -13.169  13.127  71.861  1.00  0.00    -0.431 A  
HETATM   11  N   UNL     1     -13.256  11.842  72.327  1.00  0.00    -0.286 NA 
HETATM   12  C   UNL     1     -12.610  13.152  70.594  1.00  0.00    -0.211 A  
HETATM   13  N   UNL     1     -12.380  11.816  70.298  1.00  0.00    -0.273 NA 
HETATM   14  C   UNL     1     -12.383  14.345  69.888  1.00  0.00    -0.365 A  
HETATM   15  C   UNL     1     -12.730  15.542  70.522  1.00  0.00    -0.436 A  
HETATM   16  C   UNL     1     -13.301  15.539  71.795  1.00  0.00    -0.577 A  
HETATM   17  C   UNL     1     -13.536  14.336  72.473  1.00  0.00    -0.613 A  
BRANCH  13  18
HETATM   18  C   UNL     1     -11.988  11.386  68.963  1.00  0.00    -0.320 C  
BRANCH  18  19
HETATM   19  C   UNL     1     -10.543  11.695  68.626  1.00  0.00    -0.236 A  
HETATM   20  C   UNL     1     -10.272  12.780  67.776  1.00  0.00    -0.223 A  
HETATM   21  C   UNL     1      -8.985  12.976  67.275  1.00  0.00    -0.212 A  
HETATM   22  C   UNL     1      -7.963  12.112  67.648  1.00  0.00    -0.157 A  
HETATM   23  F   UNL     1      -6.750  12.247  67.097  1.00  0.00    -0.126 F  
HETATM   24  C   UNL     1      -8.186  11.100  68.569  1.00  0.00    -0.149 A  
HETATM   25  C   UNL     1      -9.469  10.906  69.078  1.00  0.00    -0.160 A  
ENDBRANCH  18  19
ENDBRANCH  13  18
ENDBRANCH   7   9
ENDBRANCH   2   3
BRANCH   2  26
HETATM   26  C   UNL     1     -10.694   4.771  72.043  1.00  0.00    -0.046 C  
HETATM   27  C   UNL     1      -9.945   2.685  72.633  1.00  0.00    -0.148 C  
HETATM   28  H   UNL     1     -10.286   5.332  70.112  1.00  0.00     0.000 HD 
HETATM   29  C   UNL     1      -9.584   3.425  70.391  1.00  0.00    -0.157 C  
HETATM   30  N   UNL     1     -10.592   3.846  72.960  1.00  0.00    -0.173 NA 
HETATM   31  O   UNL     1      -9.169   3.248  69.251  1.00  0.00    -0.124 OA 
HETATM   32  N   UNL     1     -10.196   4.575  70.790  1.00  0.00    -0.157 N  
HETATM   33  C   UNL     1      -9.447   2.401  71.432  1.00  0.00    -0.213 C  
ENDBRANCH   2  26
TORSDOF 5
ENDMDL
MODEL       61
REMARK 921   NORMALIZED FREE ENERGY PREDICTED BY IDOCK:   -6.36 KCAL/MOL
REMARK 922        TOTAL FREE ENERGY PREDICTED BY IDOCK:   -9.63 KCAL/MOL
REMARK 923 INTER-LIGAND FREE ENERGY PREDICTED BY IDOCK:   -8.18 KCAL/MOL
REMARK 924 INTRA-LIGAND FREE ENERGY PREDICTED BY IDOCK:   -1.45 KCAL/MOL
REMARK 927      BINDING AFFINITY PREDICTED BY RF-SCORE:    0.00 PKD
ROOT
HETATM    1  C   UNL     1      -7.620   5.268  69.657  1.00  0.00    -0.069 C  
HETATM    2  N   UNL     1      -8.682   5.847  68.807  1.00  0.00    -0.110 NA 
ENDROOT
BRANCH   2   3
HETATM    3  C   UNL     1      -9.001   7.265  69.147  1.00  0.00    -0.135 C  
HETATM    4  C   UNL     1     -10.425   7.648  68.770  1.00  0.00    -0.208 C  
HETATM    5  C   UNL     1      -7.968   8.305  68.738  1.00  0.00    -0.114 C  
HETATM    6  C   UNL     1     -10.575   8.200  67.365  1.00  0.00    -0.255 C  
HETATM    7  N   UNL     1      -9.644   9.294  67.085  1.00  0.00    -0.151 NA 
HETATM    8  C   UNL     1      -8.263   9.201  67.535  1.00  0.00    -0.108 C  
BRANCH   7   9
HETATM    9  C   UNL     1     -10.135  10.378  66.394  1.00  0.00    -0.228 A  
HETATM   10  C   UNL     1     -11.002  11.567  64.799  1.00  0.00    -0.273 A  
HETATM   11  N   UNL     1     -10.410  10.369  65.101  1.00  0.00    -0.261 NA 
HETATM   12  C   UNL     1     -11.037  12.390  65.912  1.00  0.00    -0.313 A  
HETATM   13  N   UNL     1     -10.418  11.644  66.905  1.00  0.00    -0.220 NA 
HETATM   14  C   UNL     1     -11.612  13.671  65.891  1.00  0.00    -0.346 A  
HETATM   15  C   UNL     1     -12.177  14.101  64.686  1.00  0.00    -0.465 A  
HETATM   16  C   UNL     1     -12.146  13.291  63.550  1.00  0.00    -0.550 A  
HETATM   17  C   UNL     1     -11.551  12.023  63.591  1.00  0.00    -0.578 A  
BRANCH  13  18
HETATM   18  C   UNL     1     -10.061  12.231  68.190  1.00  0.00    -0.211 C  
BRANCH  18  19
HETATM   19  C   UNL     1     -11.181  12.187  69.209  1.00  0.00    -0.288 A  
HETATM   20  C   UNL     1     -11.591  13.390  69.806  1.00  0.00    -0.305 A  
HETATM   21  C   UNL     1     -12.467  13.376  70.890  1.00  0.00    -0.439 A  
HETATM   22  C   UNL     1     -12.961  12.164  71.358  1.00  0.00    -0.257 A  
HETATM   23  F   UNL     1     -13.731  12.143  72.454  1.00  0.00    -0.561 F  
HETATM   24  C   UNL     1     -12.654  10.974  70.716  1.00  0.00    -0.463 A  
HETATM   25  C   UNL     1     -11.785  10.986  69.627  1.00  0.00    -0.401 A  
ENDBRANCH  18  19
ENDBRANCH  13  18
ENDBRANCH   7   9
ENDBRANCH   2   3
BRANCH   2  26
HETATM   26  C   UNL     1      -8.738   5.346  67.520  1.00  0.00    -0.107 C  
HETATM   27  C   UNL     1      -9.661   4.067  65.855  1.00  0.00    -0.193 C  
HETATM   28  H   UNL     1      -7.069   6.411  66.982  1.00  0.00     0.000 HD 
HETATM   29  C   UNL     1      -7.749   5.400  65.332  1.00  0.00    -0.092 C  
HETATM   30  N   UNL     1      -9.676   4.516  67.147  1.00  0.00    -0.189 NA 
HETATM   31  O   UNL     1      -6.909   5.818  64.542  1.00  0.00    -0.048 OA 
HETATM   32  N   UNL     1      -7.790   5.774  66.641  1.00  0.00    -0.100 N  
HETATM   33  C   UNL     1      -8.786   4.446  64.925  1.00  0.00    -0.143 C  
ENDBRANCH   2  26
TORSDOF 5
ENDMDL
MODEL       62
REMARK 921   NORMALIZED FREE ENERGY PREDICTED BY IDOCK:   -6.34 KCAL/MOL
REMARK 922        TOTAL FREE ENERGY PREDICTED BY IDOCK:   -9.61 KCAL/MOL
REMARK 923 INTER-LIGAND FREE ENERGY PREDICTED BY IDOCK:   -9.03 KCAL/MOL
REMARK 924 INTRA-LIGAND FREE ENERGY PREDICTED BY IDOCK:   -0.58 KCAL/MOL
REMARK 927      BINDING AFFINITY PREDICTED BY RF-SCORE:    0.00 PKD
ROOT
HETATM    1  C   UNL     1     -13.567  12.386  72.155  1.00  0.00    -0.306 C  
HETATM    2  N   UNL     1     -12.505  12.343  71.128  1.00  0.00    -0.303 NA 
ENDROOT
BRANCH   2   3
HETATM    3  C   UNL     1     -12.444  11.044  70.397  1.00  0.00    -0.313 C  
HETATM    4  C   UNL     1     -13.233   9.946  71.096  1.00  0.00    -0.424 C  
HETATM    5  C   UNL     1     -11.066  10.595  69.933  1.00  0.00    -0.364 C  
HETATM    6  C   UNL     1     -12.433   9.144  72.106  1.00  0.00    -0.366 C  
HETATM    7  N   UNL     1     -11.183   8.623  71.550  1.00  0.00    -0.268 NA 
HETATM    8  C   UNL     1     -10.366   9.467  70.691  1.00  0.00    -0.302 C  
BRANCH   7   9
HETATM    9  C   UNL     1     -10.837   7.331  71.879  1.00  0.00    -0.226 A  
HETATM   10  C   UNL     1     -10.854   5.394  72.857  1.00  0.00    -0.270 A  
HETATM   11  N   UNL     1     -11.309   6.685  72.931  1.00  0.00    -0.189 NA 
HETATM   12  C   UNL     1     -10.010   5.235  71.770  1.00  0.00    -0.190 A  
HETATM   13  N   UNL     1      -9.954   6.496  71.196  1.00  0.00    -0.182 NA 
HETATM   14  C   UNL     1      -9.419   4.003  71.443  1.00  0.00    -0.230 A  
HETATM   15  C   UNL     1      -9.724   2.908  72.257  1.00  0.00    -0.225 A  
HETATM   16  C   UNL     1     -10.565   3.049  73.361  1.00  0.00    -0.269 A  
HETATM   17  C   UNL     1     -11.130   4.291  73.679  1.00  0.00    -0.351 A  
BRANCH  13  18
HETATM   18  C   UNL     1      -9.003   6.813  70.139  1.00  0.00    -0.149 C  
BRANCH  18  19
HETATM   19  C   UNL     1      -9.432   6.324  68.770  1.00  0.00    -0.124 A  
HETATM   20  C   UNL     1     -10.595   6.868  68.200  1.00  0.00    -0.262 A  
HETATM   21  C   UNL     1     -11.140   6.307  67.045  1.00  0.00    -0.379 A  
HETATM   22  C   UNL     1     -10.508   5.227  66.441  1.00  0.00    -0.292 A  
HETATM   23  F   UNL     1     -11.080   4.633  65.386  1.00  0.00    -0.351 F  
HETATM   24  C   UNL     1      -9.302   4.745  66.926  1.00  0.00    -0.141 A  
HETATM   25  C   UNL     1      -8.750   5.308  68.075  1.00  0.00    -0.102 A  
ENDBRANCH  18  19
ENDBRANCH  13  18
ENDBRANCH   7   9
ENDBRANCH   2   3
BRANCH   2  26
HETATM   26  C   UNL     1     -12.215  13.559  70.537  1.00  0.00    -0.361 C  
HETATM   27  C   UNL     1     -11.778  15.810  70.583  1.00  0.00    -0.385 C  
HETATM   28  H   UNL     1     -12.206  12.704  68.672  1.00  0.00     0.000 HD 
HETATM   29  C   UNL     1     -11.734  14.690  68.473  1.00  0.00    -0.316 C  
HETATM   30  N   UNL     1     -12.064  14.647  71.245  1.00  0.00    -0.336 NA 
HETATM   31  O   UNL     1     -11.569  14.686  67.258  1.00  0.00    -0.365 OA 
HETATM   32  N   UNL     1     -12.064  13.576  69.183  1.00  0.00    -0.320 N  
HETATM   33  C   UNL     1     -11.594  15.915  69.269  1.00  0.00    -0.372 C  
ENDBRANCH   2  26
TORSDOF 5
ENDMDL
MODEL       63
REMARK 921   NORMALIZED FREE ENERGY PREDICTED BY IDOCK:   -6.34 KCAL/MOL
REMARK 922        TOTAL FREE ENERGY PREDICTED BY IDOCK:   -9.61 KCAL/MOL
REMARK 923 INTER-LIGAND FREE ENERGY PREDICTED BY IDOCK:   -8.83 KCAL/MOL
REMARK 924 INTRA-LIGAND FREE ENERGY PREDICTED BY IDOCK:   -0.77 KCAL/MOL
REMARK 927      BINDING AFFINITY PREDICTED BY RF-SCORE:    0.00 PKD
ROOT
HETATM    1  C   UNL     1     -10.778  16.715  66.451  1.00  0.00    -0.123 C  
HETATM    2  N   UNL     1     -10.269  17.240  67.736  1.00  0.00    -0.317 NA 
ENDROOT
BRANCH   2   3
HETATM    3  C   UNL     1     -10.445  16.290  68.872  1.00  0.00    -0.273 C  
HETATM    4  C   UNL     1      -9.240  15.379  69.061  1.00  0.00    -0.235 C  
HETATM    5  C   UNL     1     -11.774  15.552  68.935  1.00  0.00    -0.385 C  
HETATM    6  C   UNL     1      -9.305  14.082  68.276  1.00  0.00    -0.208 C  
HETATM    7  N   UNL     1     -10.555  13.353  68.492  1.00  0.00    -0.250 NA 
HETATM    8  C   UNL     1     -11.817  14.077  68.534  1.00  0.00    -0.364 C  
BRANCH   7   9
HETATM    9  C   UNL     1     -10.470  11.987  68.647  1.00  0.00    -0.218 A  
HETATM   10  C   UNL     1     -10.762   9.998  69.462  1.00  0.00    -0.244 A  
HETATM   11  N   UNL     1     -10.877  11.338  69.724  1.00  0.00    -0.110 NA 
HETATM   12  C   UNL     1     -10.198   9.789  68.215  1.00  0.00    -0.183 A  
HETATM   13  N   UNL     1      -9.953  11.068  67.735  1.00  0.00    -0.171 NA 
HETATM   14  C   UNL     1      -9.986   8.507  67.683  1.00  0.00    -0.253 A  
HETATM   15  C   UNL     1     -10.385   7.415  68.460  1.00  0.00    -0.221 A  
HETATM   16  C   UNL     1     -10.948   7.603  69.723  1.00  0.00    -0.178 A  
HETATM   17  C   UNL     1     -11.134   8.891  70.241  1.00  0.00    -0.251 A  
BRANCH  13  18
HETATM   18  C   UNL     1      -9.167  11.293  66.529  1.00  0.00    -0.188 C  
BRANCH  18  19
HETATM   19  C   UNL     1      -9.971  11.865  65.379  1.00  0.00    -0.281 A  
HETATM   20  C   UNL     1     -10.062  13.261  65.254  1.00  0.00    -0.254 A  
HETATM   21  C   UNL     1     -10.951  13.830  64.344  1.00  0.00    -0.356 A  
HETATM   22  C   UNL     1     -11.726  13.007  63.535  1.00  0.00    -0.471 A  
HETATM   23  F   UNL     1     -12.643  13.552  62.726  1.00  0.00    -0.364 F  
HETATM   24  C   UNL     1     -11.575  11.630  63.567  1.00  0.00    -0.408 A  
HETATM   25  C   UNL     1     -10.680  11.058  64.470  1.00  0.00    -0.335 A  
ENDBRANCH  18  19
ENDBRANCH  13  18
ENDBRANCH   7   9
ENDBRANCH   2   3
BRANCH   2  26
HETATM   26  C   UNL     1      -9.193  18.101  67.628  1.00  0.00    -0.259 C  
HETATM   27  C   UNL     1      -7.738  19.679  68.438  1.00  0.00    -0.331 C  
HETATM   28  H   UNL     1      -8.862  17.521  65.688  1.00  0.00     0.000 HD 
HETATM   29  C   UNL     1      -7.416  18.878  66.210  1.00  0.00    -0.265 C  
HETATM   30  N   UNL     1      -8.814  18.855  68.627  1.00  0.00    -0.347 NA 
HETATM   31  O   UNL     1      -6.799  18.858  65.151  1.00  0.00    -0.496 OA 
HETATM   32  N   UNL     1      -8.520  18.115  66.443  1.00  0.00    -0.261 N  
HETATM   33  C   UNL     1      -7.012  19.743  67.324  1.00  0.00    -0.236 C  
ENDBRANCH   2  26
TORSDOF 5
ENDMDL
MODEL       64
REMARK 921   NORMALIZED FREE ENERGY PREDICTED BY IDOCK:   -6.31 KCAL/MOL
REMARK 922        TOTAL FREE ENERGY PREDICTED BY IDOCK:   -9.56 KCAL/MOL
REMARK 923 INTER-LIGAND FREE ENERGY PREDICTED BY IDOCK:   -8.08 KCAL/MOL
REMARK 924 INTRA-LIGAND FREE ENERGY PREDICTED BY IDOCK:   -1.49 KCAL/MOL
REMARK 927      BINDING AFFINITY PREDICTED BY RF-SCORE:    0.00 PKD
ROOT
HETATM    1  C   UNL     1     -11.956  14.826  64.687  1.00  0.00    -0.440 C  
HETATM    2  N   UNL     1     -11.477  14.824  66.086  1.00  0.00    -0.338 NA 
ENDROOT
BRANCH   2   3
HETATM    3  C   UNL     1     -11.538  13.479  66.728  1.00  0.00    -0.363 C  
HETATM    4  C   UNL     1     -11.222  13.529  68.216  1.00  0.00    -0.305 C  
HETATM    5  C   UNL     1     -10.824  12.351  65.997  1.00  0.00    -0.308 C  
HETATM    6  C   UNL     1      -9.752  13.361  68.552  1.00  0.00    -0.156 C  
HETATM    7  N   UNL     1      -9.162  12.176  67.928  1.00  0.00    -0.182 NA 
HETATM    8  C   UNL     1      -9.491  11.845  66.549  1.00  0.00    -0.217 C  
BRANCH   7   9
HETATM    9  C   UNL     1      -8.305  11.419  68.696  1.00  0.00    -0.136 A  
HETATM   10  C   UNL     1      -6.594  10.863  69.908  1.00  0.00    -0.148 A  
HETATM   11  N   UNL     1      -7.088  11.801  69.040  1.00  0.00    -0.111 NA 
HETATM   12  C   UNL     1      -7.491   9.819  70.063  1.00  0.00    -0.154 A  
HETATM   13  N   UNL     1      -8.548  10.154  69.230  1.00  0.00    -0.163 NA 
HETATM   14  C   UNL     1      -7.248   8.730  70.916  1.00  0.00    -0.083 A  
HETATM   15  C   UNL     1      -6.051   8.735  71.638  1.00  0.00    -0.062 A  
HETATM   16  C   UNL     1      -5.130   9.773  71.491  1.00  0.00    -0.071 A  
HETATM   17  C   UNL     1      -5.385  10.840  70.620  1.00  0.00    -0.093 A  
BRANCH  13  18
HETATM   18  C   UNL     1      -9.620   9.211  68.938  1.00  0.00    -0.152 C  
BRANCH  18  19
HETATM   19  C   UNL     1     -10.828   9.368  69.838  1.00  0.00    -0.259 A  
HETATM   20  C   UNL     1     -11.725  10.418  69.578  1.00  0.00    -0.259 A  
HETATM   21  C   UNL     1     -12.730  10.728  70.492  1.00  0.00    -0.388 A  
HETATM   22  C   UNL     1     -12.863   9.971  71.650  1.00  0.00    -0.440 A  
HETATM   23  F   UNL     1     -13.770  10.324  72.569  1.00  0.00    -0.399 F  
HETATM   24  C   UNL     1     -12.058   8.865  71.875  1.00  0.00    -0.443 A  
HETATM   25  C   UNL     1     -11.057   8.547  70.958  1.00  0.00    -0.306 A  
ENDBRANCH  18  19
ENDBRANCH  13  18
ENDBRANCH   7   9
ENDBRANCH   2   3
BRANCH   2  26
HETATM   26  C   UNL     1     -10.494  15.754  66.367  1.00  0.00    -0.303 C  
HETATM   27  C   UNL     1      -8.362  16.589  66.237  1.00  0.00    -0.329 C  
HETATM   28  H   UNL     1     -11.811  16.886  67.461  1.00  0.00     0.000 HD 
HETATM   29  C   UNL     1     -10.001  17.850  67.432  1.00  0.00    -0.325 C  
HETATM   30  N   UNL     1      -9.275  15.623  65.914  1.00  0.00    -0.333 NA 
HETATM   31  O   UNL     1     -10.343  18.834  68.080  1.00  0.00    -0.374 OA 
HETATM   32  N   UNL     1     -10.852  16.835  67.116  1.00  0.00    -0.176 N  
HETATM   33  C   UNL     1      -8.627  17.685  66.945  1.00  0.00    -0.260 C  
ENDBRANCH   2  26
TORSDOF 5
ENDMDL
MODEL       65
REMARK 921   NORMALIZED FREE ENERGY PREDICTED BY IDOCK:   -6.30 KCAL/MOL
REMARK 922        TOTAL FREE ENERGY PREDICTED BY IDOCK:   -9.56 KCAL/MOL
REMARK 923 INTER-LIGAND FREE ENERGY PREDICTED BY IDOCK:   -8.75 KCAL/MOL
REMARK 924 INTRA-LIGAND FREE ENERGY PREDICTED BY IDOCK:   -0.81 KCAL/MOL
REMARK 927      BINDING AFFINITY PREDICTED BY RF-SCORE:    0.00 PKD
ROOT
HETATM    1  C   UNL     1     -10.988  10.287  66.903  1.00  0.00    -0.070 C  
HETATM    2  N   UNL     1     -10.195   9.903  68.090  1.00  0.00    -0.170 NA 
ENDROOT
BRANCH   2   3
HETATM    3  C   UNL     1      -9.795  11.068  68.932  1.00  0.00    -0.177 C  
HETATM    4  C   UNL     1     -10.954  12.016  69.203  1.00  0.00    -0.231 C  
HETATM    5  C   UNL     1      -8.513  11.781  68.530  1.00  0.00    -0.125 C  
HETATM    6  C   UNL     1     -11.116  13.119  68.174  1.00  0.00    -0.255 C  
HETATM    7  N   UNL     1      -9.875  13.858  67.938  1.00  0.00    -0.222 NA 
HETATM    8  C   UNL     1      -8.614  13.139  67.834  1.00  0.00    -0.185 C  
BRANCH   7   9
HETATM    9  C   UNL     1      -9.969  15.227  67.822  1.00  0.00    -0.224 A  
HETATM   10  C   UNL     1     -10.166  17.318  68.366  1.00  0.00    -0.358 A  
HETATM   11  N   UNL     1     -10.316  16.031  68.812  1.00  0.00    -0.226 NA 
HETATM   12  C   UNL     1      -9.787  17.334  67.034  1.00  0.00    -0.281 A  
HETATM   13  N   UNL     1      -9.732  15.993  66.681  1.00  0.00    -0.233 NA 
HETATM   14  C   UNL     1      -9.541  18.523  66.329  1.00  0.00    -0.279 A  
HETATM   15  C   UNL     1      -9.678  19.725  67.030  1.00  0.00    -0.503 A  
HETATM   16  C   UNL     1     -10.067  19.732  68.370  1.00  0.00    -0.568 A  
HETATM   17  C   UNL     1     -10.325  18.533  69.048  1.00  0.00    -0.055 A  
BRANCH  13  18
HETATM   18  C   UNL     1      -9.571  15.574  65.295  1.00  0.00     0.033 C  
BRANCH  18  19
HETATM   19  C   UNL     1     -10.563  14.514  64.862  1.00  0.00    -0.450 A  
HETATM   20  C   UNL     1     -10.084  13.223  64.585  1.00  0.00    -0.249 A  
HETATM   21  C   UNL     1     -10.917  12.276  63.990  1.00  0.00    -0.438 A  
HETATM   22  C   UNL     1     -12.236  12.605  63.703  1.00  0.00    -0.536 A  
HETATM   23  F   UNL     1     -13.009  11.727  63.051  1.00  0.00    -0.685 F  
HETATM   24  C   UNL     1     -12.758  13.837  64.066  1.00  0.00     0.063 A  
HETATM   25  C   UNL     1     -11.930  14.783  64.668  1.00  0.00    -0.448 A  
ENDBRANCH  18  19
ENDBRANCH  13  18
ENDBRANCH   7   9
ENDBRANCH   2   3
BRANCH   2  26
HETATM   26  C   UNL     1     -10.491   8.658  68.611  1.00  0.00    -0.177 C  
HETATM   27  C   UNL     1     -11.078   7.229  70.306  1.00  0.00    -0.266 C  
HETATM   28  H   UNL     1     -10.220   7.775  66.779  1.00  0.00     0.000 HD 
HETATM   29  C   UNL     1     -10.794   6.327  68.113  1.00  0.00    -0.320 C  
HETATM   30  N   UNL     1     -10.797   8.495  69.871  1.00  0.00    -0.230 NA 
HETATM   31  O   UNL     1     -10.812   5.390  67.322  1.00  0.00    -0.176 OA 
HETATM   32  N   UNL     1     -10.479   7.601  67.750  1.00  0.00    -0.221 N  
HETATM   33  C   UNL     1     -11.109   6.145  69.534  1.00  0.00    -0.490 C  
ENDBRANCH   2  26
TORSDOF 5
ENDMDL
MODEL       66
REMARK 921   NORMALIZED FREE ENERGY PREDICTED BY IDOCK:   -6.30 KCAL/MOL
REMARK 922        TOTAL FREE ENERGY PREDICTED BY IDOCK:   -9.55 KCAL/MOL
REMARK 923 INTER-LIGAND FREE ENERGY PREDICTED BY IDOCK:   -8.05 KCAL/MOL
REMARK 924 INTRA-LIGAND FREE ENERGY PREDICTED BY IDOCK:   -1.50 KCAL/MOL
REMARK 927      BINDING AFFINITY PREDICTED BY RF-SCORE:    0.00 PKD
ROOT
HETATM    1  C   UNL     1     -10.423   6.575  73.759  1.00  0.00    -0.315 C  
HETATM    2  N   UNL     1     -10.461   7.511  72.616  1.00  0.00    -0.244 NA 
ENDROOT
BRANCH   2   3
HETATM    3  C   UNL     1      -9.322   7.331  71.669  1.00  0.00    -0.151 C  
HETATM    4  C   UNL     1      -8.651   8.649  71.308  1.00  0.00    -0.236 C  
HETATM    5  C   UNL     1      -9.580   6.436  70.466  1.00  0.00    -0.179 C  
HETATM    6  C   UNL     1      -9.241   9.341  70.094  1.00  0.00    -0.225 C  
HETATM    7  N   UNL     1      -9.332   8.459  68.929  1.00  0.00    -0.147 NA 
HETATM    8  C   UNL     1      -9.779   7.084  69.096  1.00  0.00    -0.156 C  
BRANCH   7   9
HETATM    9  C   UNL     1      -8.982   8.990  67.708  1.00  0.00    -0.127 A  
HETATM   10  C   UNL     1      -7.826   9.442  65.928  1.00  0.00    -0.099 A  
HETATM   11  N   UNL     1      -7.762   8.941  67.202  1.00  0.00    -0.095 NA 
HETATM   12  C   UNL     1      -9.104   9.891  65.643  1.00  0.00    -0.178 A  
HETATM   13  N   UNL     1      -9.814   9.660  66.812  1.00  0.00    -0.198 NA 
HETATM   14  C   UNL     1      -9.458  10.434  64.396  1.00  0.00    -0.343 A  
HETATM   15  C   UNL     1      -8.461  10.496  63.418  1.00  0.00    -0.148 A  
HETATM   16  C   UNL     1      -7.164  10.056  63.687  1.00  0.00    -0.128 A  
HETATM   17  C   UNL     1      -6.830   9.535  64.944  1.00  0.00    -0.102 A  
BRANCH  13  18
HETATM   18  C   UNL     1     -11.160  10.185  67.005  1.00  0.00     0.009 C  
BRANCH  18  19
HETATM   19  C   UNL     1     -11.205  11.690  67.176  1.00  0.00    -0.371 A  
HETATM   20  C   UNL     1     -10.610  12.252  68.318  1.00  0.00    -0.243 A  
HETATM   21  C   UNL     1     -10.804  13.599  68.622  1.00  0.00    -0.283 A  
HETATM   22  C   UNL     1     -11.561  14.393  67.770  1.00  0.00    -0.356 A  
HETATM   23  F   UNL     1     -11.821  15.662  68.108  1.00  0.00    -0.351 F  
HETATM   24  C   UNL     1     -12.067  13.885  66.583  1.00  0.00    -0.485 A  
HETATM   25  C   UNL     1     -11.868  12.541  66.273  1.00  0.00    -0.453 A  
ENDBRANCH  18  19
ENDBRANCH  13  18
ENDBRANCH   7   9
ENDBRANCH   2   3
BRANCH   2  26
HETATM   26  C   UNL     1     -11.728   7.890  72.214  1.00  0.00    -0.355 C  
HETATM   27  C   UNL     1     -13.839   7.473  71.420  1.00  0.00    -0.338 C  
HETATM   28  H   UNL     1     -11.316   9.861  72.609  1.00  0.00     0.000 HD 
HETATM   29  C   UNL     1     -13.261   9.724  71.975  1.00  0.00    -0.460 C  
HETATM   30  N   UNL     1     -12.606   7.016  71.799  1.00  0.00    -0.356 NA 
HETATM   31  O   UNL     1     -13.540  10.913  72.081  1.00  0.00    -0.280 OA 
HETATM   32  N   UNL     1     -12.039   9.214  72.293  1.00  0.00    -0.298 N  
HETATM   33  C   UNL     1     -14.235   8.743  71.482  1.00  0.00    -0.364 C  
ENDBRANCH   2  26
TORSDOF 5
ENDMDL
MODEL       67
REMARK 921   NORMALIZED FREE ENERGY PREDICTED BY IDOCK:   -6.28 KCAL/MOL
REMARK 922        TOTAL FREE ENERGY PREDICTED BY IDOCK:   -9.53 KCAL/MOL
REMARK 923 INTER-LIGAND FREE ENERGY PREDICTED BY IDOCK:   -8.30 KCAL/MOL
REMARK 924 INTRA-LIGAND FREE ENERGY PREDICTED BY IDOCK:   -1.23 KCAL/MOL
REMARK 927      BINDING AFFINITY PREDICTED BY RF-SCORE:    0.00 PKD
ROOT
HETATM    1  C   UNL     1      -8.432   8.194  66.766  1.00  0.00    -0.123 C  
HETATM    2  N   UNL     1      -8.444   7.189  67.850  1.00  0.00    -0.121 NA 
ENDROOT
BRANCH   2   3
HETATM    3  C   UNL     1      -8.940   7.730  69.149  1.00  0.00    -0.145 C  
HETATM    4  C   UNL     1     -10.453   7.897  69.169  1.00  0.00    -0.218 C  
HETATM    5  C   UNL     1      -8.193   8.931  69.709  1.00  0.00    -0.119 C  
HETATM    6  C   UNL     1     -10.941   9.251  68.690  1.00  0.00     0.005 C  
HETATM    7  N   UNL     1     -10.279  10.364  69.372  1.00  0.00    -0.227 NA 
HETATM    8  C   UNL     1      -8.845  10.310  69.620  1.00  0.00    -0.103 C  
BRANCH   7   9
HETATM    9  C   UNL     1     -11.065  11.429  69.751  1.00  0.00    -0.126 A  
HETATM   10  C   UNL     1     -12.513  12.615  70.848  1.00  0.00    -0.278 A  
HETATM   11  N   UNL     1     -12.057  11.343  70.621  1.00  0.00    -0.377 NA 
HETATM   12  C   UNL     1     -11.845  13.526  70.047  1.00  0.00    -0.301 A  
HETATM   13  N   UNL     1     -10.972  12.746  69.302  1.00  0.00    -0.134 NA 
HETATM   14  C   UNL     1     -12.098  14.906  70.093  1.00  0.00    -0.379 A  
HETATM   15  C   UNL     1     -13.059  15.352  71.005  1.00  0.00    -0.565 A  
HETATM   16  C   UNL     1     -13.750  14.452  71.816  1.00  0.00    -0.504 A  
HETATM   17  C   UNL     1     -13.493  13.076  71.741  1.00  0.00    -0.401 A  
BRANCH  13  18
HETATM   18  C   UNL     1     -10.224  13.296  68.179  1.00  0.00    -0.243 C  
BRANCH  18  19
HETATM   19  C   UNL     1     -10.852  13.006  66.832  1.00  0.00    -0.282 A  
HETATM   20  C   UNL     1     -12.020  13.699  66.474  1.00  0.00    -0.465 A  
HETATM   21  C   UNL     1     -12.745  13.322  65.345  1.00  0.00    -0.460 A  
HETATM   22  C   UNL     1     -12.288  12.275  64.553  1.00  0.00    -0.384 A  
HETATM   23  F   UNL     1     -13.031  11.855  63.522  1.00  0.00    -0.648 F  
HETATM   24  C   UNL     1     -11.082  11.648  64.828  1.00  0.00    -0.328 A  
HETATM   25  C   UNL     1     -10.351  12.029  65.951  1.00  0.00    -0.278 A  
ENDBRANCH  18  19
ENDBRANCH  13  18
ENDBRANCH   7   9
ENDBRANCH   2   3
BRANCH   2  26
HETATM   26  C   UNL     1      -8.664   5.888  67.437  1.00  0.00    -0.108 C  
HETATM   27  C   UNL     1      -8.387   3.616  67.579  1.00  0.00    -0.094 C  
HETATM   28  H   UNL     1      -9.891   6.526  65.922  1.00  0.00     0.000 HD 
HETATM   29  C   UNL     1      -9.843   4.476  65.893  1.00  0.00    -0.226 C  
HETATM   30  N   UNL     1      -8.117   4.872  68.051  1.00  0.00    -0.093 NA 
HETATM   31  O   UNL     1     -10.622   4.319  64.959  1.00  0.00    -0.250 OA 
HETATM   32  N   UNL     1      -9.500   5.701  66.378  1.00  0.00    -0.153 N  
HETATM   33  C   UNL     1      -9.204   3.339  66.566  1.00  0.00    -0.169 C  
ENDBRANCH   2  26
TORSDOF 5
ENDMDL
MODEL       68
REMARK 921   NORMALIZED FREE ENERGY PREDICTED BY IDOCK:   -6.25 KCAL/MOL
REMARK 922        TOTAL FREE ENERGY PREDICTED BY IDOCK:   -9.49 KCAL/MOL
REMARK 923 INTER-LIGAND FREE ENERGY PREDICTED BY IDOCK:   -8.38 KCAL/MOL
REMARK 924 INTRA-LIGAND FREE ENERGY PREDICTED BY IDOCK:   -1.11 KCAL/MOL
REMARK 927      BINDING AFFINITY PREDICTED BY RF-SCORE:    0.00 PKD
ROOT
HETATM    1  C   UNL     1     -10.268  17.432  66.920  1.00  0.00    -0.322 C  
HETATM    2  N   UNL     1      -9.235  17.905  67.865  1.00  0.00    -0.258 NA 
ENDROOT
BRANCH   2   3
HETATM    3  C   UNL     1      -8.860  16.885  68.887  1.00  0.00    -0.216 C  
HETATM    4  C   UNL     1      -7.723  15.986  68.422  1.00  0.00    -0.147 C  
HETATM    5  C   UNL     1     -10.008  16.122  69.531  1.00  0.00    -0.222 C  
HETATM    6  C   UNL     1      -8.172  14.738  67.685  1.00  0.00    -0.175 C  
HETATM    7  N   UNL     1      -9.177  13.975  68.426  1.00  0.00    -0.199 NA 
HETATM    8  C   UNL     1     -10.256  14.674  69.110  1.00  0.00    -0.193 C  
BRANCH   7   9
HETATM    9  C   UNL     1      -9.047  12.604  68.437  1.00  0.00    -0.128 A  
HETATM   10  C   UNL     1      -8.175  10.634  68.690  1.00  0.00    -0.135 A  
HETATM   11  N   UNL     1      -7.897  11.972  68.596  1.00  0.00    -0.121 NA 
HETATM   12  C   UNL     1      -9.529  10.401  68.512  1.00  0.00    -0.159 A  
HETATM   13  N   UNL     1     -10.062  11.661  68.283  1.00  0.00    -0.196 NA 
HETATM   14  C   UNL     1     -10.094   9.117  68.582  1.00  0.00    -0.212 A  
HETATM   15  C   UNL     1      -9.233   8.051  68.858  1.00  0.00    -0.147 A  
HETATM   16  C   UNL     1      -7.865   8.262  69.033  1.00  0.00    -0.103 A  
HETATM   17  C   UNL     1      -7.320   9.550  68.942  1.00  0.00    -0.073 A  
BRANCH  13  18
HETATM   18  C   UNL     1     -11.439  11.839  67.839  1.00  0.00    -0.317 C  
BRANCH  18  19
HETATM   19  C   UNL     1     -11.556  12.379  66.428  1.00  0.00    -0.442 A  
HETATM   20  C   UNL     1     -12.277  13.567  66.224  1.00  0.00    -0.468 A  
HETATM   21  C   UNL     1     -12.586  13.989  64.932  1.00  0.00    -0.369 A  
HETATM   22  C   UNL     1     -12.147  13.246  63.842  1.00  0.00    -0.468 A  
HETATM   23  F   UNL     1     -12.520  13.603  62.607  1.00  0.00    -0.260 F  
HETATM   24  C   UNL     1     -11.344  12.130  64.019  1.00  0.00    -0.468 A  
HETATM   25  C   UNL     1     -11.027  11.710  65.309  1.00  0.00    -0.327 A  
ENDBRANCH  18  19
ENDBRANCH  13  18
ENDBRANCH   7   9
ENDBRANCH   2   3
BRANCH   2  26
HETATM   26  C   UNL     1      -8.339  18.818  67.341  1.00  0.00    -0.264 C  
HETATM   27  C   UNL     1      -7.330  19.945  65.618  1.00  0.00    -0.296 C  
HETATM   28  H   UNL     1      -7.675  19.315  69.218  1.00  0.00     0.000 HD 
HETATM   29  C   UNL     1      -6.684  20.482  67.853  1.00  0.00    -0.308 C  
HETATM   30  N   UNL     1      -8.242  19.023  66.054  1.00  0.00    -0.464 NA 
HETATM   31  O   UNL     1      -6.025  21.131  68.659  1.00  0.00    -0.311 OA 
HETATM   32  N   UNL     1      -7.574  19.520  68.224  1.00  0.00    -0.302 N  
HETATM   33  C   UNL     1      -6.558  20.689  66.407  1.00  0.00    -0.307 C  
ENDBRANCH   2  26
TORSDOF 5
ENDMDL
MODEL       69
REMARK 921   NORMALIZED FREE ENERGY PREDICTED BY IDOCK:   -6.25 KCAL/MOL
REMARK 922        TOTAL FREE ENERGY PREDICTED BY IDOCK:   -9.49 KCAL/MOL
REMARK 923 INTER-LIGAND FREE ENERGY PREDICTED BY IDOCK:   -7.73 KCAL/MOL
REMARK 924 INTRA-LIGAND FREE ENERGY PREDICTED BY IDOCK:   -1.76 KCAL/MOL
REMARK 927      BINDING AFFINITY PREDICTED BY RF-SCORE:    0.00 PKD
ROOT
HETATM    1  C   UNL     1      -9.837  11.576  63.049  1.00  0.00    -0.343 C  
HETATM    2  N   UNL     1     -10.171  11.432  64.482  1.00  0.00    -0.276 NA 
ENDROOT
BRANCH   2   3
HETATM    3  C   UNL     1      -9.168  10.632  65.243  1.00  0.00    -0.197 C  
HETATM    4  C   UNL     1      -9.677   9.242  65.595  1.00  0.00    -0.302 C  
HETATM    5  C   UNL     1      -8.485  11.337  66.406  1.00  0.00    -0.169 C  
HETATM    6  C   UNL     1     -10.402   9.158  66.926  1.00  0.00    -0.251 C  
HETATM    7  N   UNL     1      -9.628   9.730  68.028  1.00  0.00    -0.142 NA 
HETATM    8  C   UNL     1      -8.903  10.977  67.832  1.00  0.00    -0.134 C  
BRANCH   7   9
HETATM    9  C   UNL     1      -9.627   9.042  69.221  1.00  0.00    -0.162 A  
HETATM   10  C   UNL     1     -10.171   8.429  71.230  1.00  0.00    -0.212 A  
HETATM   11  N   UNL     1     -10.302   9.420  70.293  1.00  0.00    -0.225 NA 
HETATM   12  C   UNL     1      -9.331   7.428  70.771  1.00  0.00    -0.159 A  
HETATM   13  N   UNL     1      -8.936   7.867  69.515  1.00  0.00    -0.142 NA 
HETATM   14  C   UNL     1      -9.039   6.278  71.521  1.00  0.00    -0.145 A  
HETATM   15  C   UNL     1      -9.649   6.157  72.774  1.00  0.00    -0.158 A  
HETATM   16  C   UNL     1     -10.492   7.156  73.259  1.00  0.00    -0.391 A  
HETATM   17  C   UNL     1     -10.755   8.304  72.500  1.00  0.00    -0.411 A  
BRANCH  13  18
HETATM   18  C   UNL     1      -7.876   7.199  68.770  1.00  0.00    -0.122 C  
BRANCH  18  19
HETATM   19  C   UNL     1      -8.389   6.254  67.702  1.00  0.00    -0.117 A  
HETATM   20  C   UNL     1      -7.674   6.157  66.496  1.00  0.00    -0.103 A  
HETATM   21  C   UNL     1      -8.214   5.465  65.413  1.00  0.00    -0.130 A  
HETATM   22  C   UNL     1      -9.449   4.841  65.542  1.00  0.00    -0.163 A  
HETATM   23  F   UNL     1     -10.006   4.254  64.475  1.00  0.00    -0.168 F  
HETATM   24  C   UNL     1     -10.121   4.835  66.755  1.00  0.00    -0.261 A  
HETATM   25  C   UNL     1      -9.580   5.519  67.842  1.00  0.00    -0.143 A  
ENDBRANCH  18  19
ENDBRANCH  13  18
ENDBRANCH   7   9
ENDBRANCH   2   3
BRANCH   2  26
HETATM   26  C   UNL     1     -10.866  12.494  65.029  1.00  0.00    -0.290 C  
HETATM   27  C   UNL     1     -12.356  13.434  66.497  1.00  0.00    -0.295 C  
HETATM   28  H   UNL     1      -9.956  13.811  63.745  1.00  0.00     0.000 HD 
HETATM   29  C   UNL     1     -11.188  14.875  64.992  1.00  0.00    -0.404 C  
HETATM   30  N   UNL     1     -11.711  12.329  66.012  1.00  0.00    -0.489 NA 
HETATM   31  O   UNL     1     -10.929  15.988  64.548  1.00  0.00    -0.592 OA 
HETATM   32  N   UNL     1     -10.613  13.733  64.521  1.00  0.00    -0.423 N  
HETATM   33  C   UNL     1     -12.158  14.681  66.076  1.00  0.00    -0.212 C  
ENDBRANCH   2  26
TORSDOF 5
ENDMDL
MODEL       70
REMARK 921   NORMALIZED FREE ENERGY PREDICTED BY IDOCK:   -6.22 KCAL/MOL
REMARK 922        TOTAL FREE ENERGY PREDICTED BY IDOCK:   -9.45 KCAL/MOL
REMARK 923 INTER-LIGAND FREE ENERGY PREDICTED BY IDOCK:   -8.28 KCAL/MOL
REMARK 924 INTRA-LIGAND FREE ENERGY PREDICTED BY IDOCK:   -1.17 KCAL/MOL
REMARK 927      BINDING AFFINITY PREDICTED BY RF-SCORE:    0.00 PKD
ROOT
HETATM    1  C   UNL     1      -5.608  17.964  70.342  1.00  0.00    -0.216 C  
HETATM    2  N   UNL     1      -5.992  17.885  68.916  1.00  0.00    -0.195 NA 
ENDROOT
BRANCH   2   3
HETATM    3  C   UNL     1      -6.133  16.485  68.421  1.00  0.00    -0.127 C  
HETATM    4  C   UNL     1      -6.341  16.418  66.915  1.00  0.00    -0.109 C  
HETATM    5  C   UNL     1      -7.081  15.586  69.202  1.00  0.00    -0.164 C  
HETATM    6  C   UNL     1      -7.794  16.467  66.479  1.00  0.00    -0.303 C  
HETATM    7  N   UNL     1      -8.624  15.480  67.170  1.00  0.00    -0.198 NA 
HETATM    8  C   UNL     1      -8.446  15.256  68.597  1.00  0.00    -0.168 C  
BRANCH   7   9
HETATM    9  C   UNL     1      -9.553  14.798  66.415  1.00  0.00    -0.301 A  
HETATM   10  C   UNL     1     -10.401  13.436  64.955  1.00  0.00    -0.366 A  
HETATM   11  N   UNL     1      -9.251  14.063  65.359  1.00  0.00     0.490 NA 
HETATM   12  C   UNL     1     -11.477  13.840  65.727  1.00  0.00    -0.318 A  
HETATM   13  N   UNL     1     -10.933  14.762  66.610  1.00  0.00    -0.321 NA 
HETATM   14  C   UNL     1     -12.775  13.336  65.544  1.00  0.00    -0.429 A  
HETATM   15  C   UNL     1     -12.955  12.376  64.543  1.00  0.00    -0.165 A  
HETATM   16  C   UNL     1     -11.887  11.961  63.748  1.00  0.00    -0.558 A  
HETATM   17  C   UNL     1     -10.603  12.491  63.937  1.00  0.00    -0.472 A  
BRANCH  13  18
HETATM   18  C   UNL     1     -11.774  15.587  67.467  1.00  0.00     0.002 C  
BRANCH  18  19
HETATM   19  C   UNL     1     -11.819  15.117  68.907  1.00  0.00    -0.337 A  
HETATM   20  C   UNL     1     -12.040  13.753  69.159  1.00  0.00    -0.374 A  
HETATM   21  C   UNL     1     -12.294  13.310  70.456  1.00  0.00    -0.389 A  
HETATM   22  C   UNL     1     -12.294  14.220  71.506  1.00  0.00    -0.339 A  
HETATM   23  F   UNL     1     -12.626  13.809  72.736  1.00  0.00    -0.300 F  
HETATM   24  C   UNL     1     -11.973  15.552  71.294  1.00  0.00    -0.443 A  
HETATM   25  C   UNL     1     -11.710  15.997  70.000  1.00  0.00    -0.284 A  
ENDBRANCH  18  19
ENDBRANCH  13  18
ENDBRANCH   7   9
ENDBRANCH   2   3
BRANCH   2  26
HETATM   26  C   UNL     1      -6.773  18.931  68.464  1.00  0.00    -0.255 C  
HETATM   27  C   UNL     1      -7.119  20.890  67.323  1.00  0.00    -0.370 C  
HETATM   28  H   UNL     1      -8.436  18.145  69.374  1.00  0.00     0.000 HD 
HETATM   29  C   UNL     1      -8.993  19.846  68.373  1.00  0.00    -0.192 C  
HETATM   30  N   UNL     1      -6.277  19.893  67.731  1.00  0.00    -0.203 NA 
HETATM   31  O   UNL     1     -10.188  19.797  68.644  1.00  0.00    -0.445 OA 
HETATM   32  N   UNL     1      -8.097  18.908  68.788  1.00  0.00    -0.341 N  
HETATM   33  C   UNL     1      -8.425  20.939  67.575  1.00  0.00    -0.088 C  
ENDBRANCH   2  26
TORSDOF 5
ENDMDL
MODEL       71
REMARK 921   NORMALIZED FREE ENERGY PREDICTED BY IDOCK:   -6.22 KCAL/MOL
REMARK 922        TOTAL FREE ENERGY PREDICTED BY IDOCK:   -9.45 KCAL/MOL
REMARK 923 INTER-LIGAND FREE ENERGY PREDICTED BY IDOCK:   -8.20 KCAL/MOL
REMARK 924 INTRA-LIGAND FREE ENERGY PREDICTED BY IDOCK:   -1.24 KCAL/MOL
REMARK 927      BINDING AFFINITY PREDICTED BY RF-SCORE:    0.00 PKD
ROOT
HETATM    1  C   UNL     1     -12.135  14.746  68.881  1.00  0.00    -0.205 C  
HETATM    2  N   UNL     1     -11.276  13.872  68.053  1.00  0.00    -0.260 NA 
ENDROOT
BRANCH   2   3
HETATM    3  C   UNL     1     -10.732  12.702  68.801  1.00  0.00    -0.207 C  
HETATM    4  C   UNL     1      -9.290  12.390  68.424  1.00  0.00    -0.158 C  
HETATM    5  C   UNL     1     -11.620  11.468  68.863  1.00  0.00    -0.384 C  
HETATM    6  C   UNL     1      -9.140  11.419  67.268  1.00  0.00    -0.162 C  
HETATM    7  N   UNL     1      -9.913  10.191  67.457  1.00  0.00    -0.183 NA 
HETATM    8  C   UNL     1     -11.265  10.262  67.993  1.00  0.00    -0.235 C  
BRANCH   7   9
HETATM    9  C   UNL     1      -9.307   9.004  67.110  1.00  0.00    -0.147 A  
HETATM   10  C   UNL     1      -8.579   7.355  65.903  1.00  0.00    -0.153 A  
HETATM   11  N   UNL     1      -9.422   8.435  65.923  1.00  0.00    -0.153 NA 
HETATM   12  C   UNL     1      -7.966   7.189  67.133  1.00  0.00    -0.110 A  
HETATM   13  N   UNL     1      -8.493   8.208  67.915  1.00  0.00    -0.131 NA 
HETATM   14  C   UNL     1      -7.033   6.170  67.386  1.00  0.00    -0.069 A  
HETATM   15  C   UNL     1      -6.717   5.313  66.328  1.00  0.00    -0.057 A  
HETATM   16  C   UNL     1      -7.328   5.457  65.082  1.00  0.00    -0.068 A  
HETATM   17  C   UNL     1      -8.270   6.470  64.858  1.00  0.00    -0.097 A  
BRANCH  13  18
HETATM   18  C   UNL     1      -8.265   8.264  69.353  1.00  0.00    -0.117 C  
BRANCH  18  19
HETATM   19  C   UNL     1      -9.522   8.065  70.174  1.00  0.00    -0.160 A  
HETATM   20  C   UNL     1     -10.310   6.928  69.929  1.00  0.00    -0.223 A  
HETATM   21  C   UNL     1     -11.572   6.807  70.508  1.00  0.00    -0.426 A  
HETATM   22  C   UNL     1     -12.035   7.803  71.359  1.00  0.00    -0.306 A  
HETATM   23  F   UNL     1     -13.281   7.731  71.844  1.00  0.00    -0.315 F  
HETATM   24  C   UNL     1     -11.231   8.881  71.699  1.00  0.00    -0.415 A  
HETATM   25  C   UNL     1      -9.966   9.000  71.128  1.00  0.00    -0.365 A  
ENDBRANCH  18  19
ENDBRANCH  13  18
ENDBRANCH   7   9
ENDBRANCH   2   3
BRANCH   2  26
HETATM   26  C   UNL     1     -11.612  13.826  66.713  1.00  0.00    -0.370 C  
HETATM   27  C   UNL     1     -12.534  12.835  64.862  1.00  0.00    -0.497 C  
HETATM   28  H   UNL     1     -10.786  15.676  66.394  1.00  0.00     0.000 HD 
HETATM   29  C   UNL     1     -11.596  15.019  64.628  1.00  0.00    -0.386 C  
HETATM   30  N   UNL     1     -12.238  12.801  66.198  1.00  0.00    -0.556 NA 
HETATM   31  O   UNL     1     -11.328  16.011  63.959  1.00  0.00    -0.542 OA 
HETATM   32  N   UNL     1     -11.288  14.907  65.950  1.00  0.00    -0.332 N  
HETATM   33  C   UNL     1     -12.274  13.855  64.047  1.00  0.00    -0.413 C  
ENDBRANCH   2  26
TORSDOF 5
ENDMDL
MODEL       72
REMARK 921   NORMALIZED FREE ENERGY PREDICTED BY IDOCK:   -6.19 KCAL/MOL
REMARK 922        TOTAL FREE ENERGY PREDICTED BY IDOCK:   -9.42 KCAL/MOL
REMARK 923 INTER-LIGAND FREE ENERGY PREDICTED BY IDOCK:   -7.89 KCAL/MOL
REMARK 924 INTRA-LIGAND FREE ENERGY PREDICTED BY IDOCK:   -1.53 KCAL/MOL
REMARK 927      BINDING AFFINITY PREDICTED BY RF-SCORE:    0.00 PKD
ROOT
HETATM    1  C   UNL     1     -10.007   7.281  73.374  1.00  0.00    -0.296 C  
HETATM    2  N   UNL     1     -10.318   7.633  71.972  1.00  0.00    -0.200 NA 
ENDROOT
BRANCH   2   3
HETATM    3  C   UNL     1     -10.044   6.524  71.012  1.00  0.00    -0.184 C  
HETATM    4  C   UNL     1      -8.621   6.559  70.474  1.00  0.00    -0.143 C  
HETATM    5  C   UNL     1     -11.092   6.292  69.933  1.00  0.00    -0.469 C  
HETATM    6  C   UNL     1      -8.448   7.378  69.209  1.00  0.00    -0.136 C  
HETATM    7  N   UNL     1      -9.398   7.006  68.160  1.00  0.00    -0.126 NA 
HETATM    8  C   UNL     1     -10.788   6.743  68.504  1.00  0.00    -0.222 C  
BRANCH   7   9
HETATM    9  C   UNL     1      -8.917   6.924  66.873  1.00  0.00    -0.122 A  
HETATM   10  C   UNL     1      -8.366   6.099  64.943  1.00  0.00    -0.092 A  
HETATM   11  N   UNL     1      -8.712   5.786  66.231  1.00  0.00    -0.129 NA 
HETATM   12  C   UNL     1      -8.276   7.472  64.780  1.00  0.00    -0.065 A  
HETATM   13  N   UNL     1      -8.562   7.982  66.038  1.00  0.00    -0.138 NA 
HETATM   14  C   UNL     1      -7.959   8.071  63.549  1.00  0.00    -0.131 A  
HETATM   15  C   UNL     1      -7.746   7.222  62.459  1.00  0.00    -0.122 A  
HETATM   16  C   UNL     1      -7.825   5.837  62.602  1.00  0.00    -0.089 A  
HETATM   17  C   UNL     1      -8.125   5.261  63.844  1.00  0.00    -0.117 A  
BRANCH  13  18
HETATM   18  C   UNL     1      -8.370   9.392  66.352  1.00  0.00    -0.115 C  
BRANCH  18  19
HETATM   19  C   UNL     1      -9.610  10.236  66.139  1.00  0.00    -0.248 A  
HETATM   20  C   UNL     1      -9.901  10.682  64.839  1.00  0.00    -0.363 A  
HETATM   21  C   UNL     1     -10.907  11.624  64.627  1.00  0.00    -0.373 A  
HETATM   22  C   UNL     1     -11.645  12.096  65.705  1.00  0.00    -0.355 A  
HETATM   23  F   UNL     1     -12.548  13.065  65.514  1.00  0.00    -0.489 F  
HETATM   24  C   UNL     1     -11.446  11.590  66.981  1.00  0.00    -0.290 A  
HETATM   25  C   UNL     1     -10.447  10.642  67.195  1.00  0.00    -0.295 A  
ENDBRANCH  18  19
ENDBRANCH  13  18
ENDBRANCH   7   9
ENDBRANCH   2   3
BRANCH   2  26
HETATM   26  C   UNL     1     -11.352   8.535  71.812  1.00  0.00    -0.307 C  
HETATM   27  C   UNL     1     -13.505   9.265  72.122  1.00  0.00    -0.473 C  
HETATM   28  H   UNL     1     -10.151   9.795  70.726  1.00  0.00     0.000 HD 
HETATM   29  C   UNL     1     -11.992  10.674  70.925  1.00  0.00    -0.363 C  
HETATM   30  N   UNL     1     -12.535   8.321  72.325  1.00  0.00    -0.346 NA 
HETATM   31  O   UNL     1     -11.730  11.713  70.328  1.00  0.00    -0.325 OA 
HETATM   32  N   UNL     1     -11.084   9.678  71.120  1.00  0.00    -0.359 N  
HETATM   33  C   UNL     1     -13.327  10.416  71.477  1.00  0.00    -0.405 C  
ENDBRANCH   2  26
TORSDOF 5
ENDMDL
MODEL       73
REMARK 921   NORMALIZED FREE ENERGY PREDICTED BY IDOCK:   -6.17 KCAL/MOL
REMARK 922        TOTAL FREE ENERGY PREDICTED BY IDOCK:   -9.39 KCAL/MOL
REMARK 923 INTER-LIGAND FREE ENERGY PREDICTED BY IDOCK:   -8.22 KCAL/MOL
REMARK 924 INTRA-LIGAND FREE ENERGY PREDICTED BY IDOCK:   -1.17 KCAL/MOL
REMARK 927      BINDING AFFINITY PREDICTED BY RF-SCORE:    0.00 PKD
ROOT
HETATM    1  C   UNL     1      -8.868  15.565  66.216  1.00  0.00    -0.303 C  
HETATM    2  N   UNL     1      -9.388  14.204  66.468  1.00  0.00    -0.281 NA 
ENDROOT
BRANCH   2   3
HETATM    3  C   UNL     1      -9.412  13.840  67.915  1.00  0.00    -0.214 C  
HETATM    4  C   UNL     1      -8.419  12.737  68.254  1.00  0.00    -0.161 C  
HETATM    5  C   UNL     1     -10.785  13.628  68.534  1.00  0.00    -0.269 C  
HETATM    6  C   UNL     1      -8.979  11.332  68.135  1.00  0.00    -0.166 C  
HETATM    7  N   UNL     1     -10.232  11.159  68.872  1.00  0.00    -0.203 NA 
HETATM    8  C   UNL     1     -11.247  12.201  68.827  1.00  0.00    -0.264 C  
BRANCH   7   9
HETATM    9  C   UNL     1     -10.388   9.991  69.584  1.00  0.00    -0.247 A  
HETATM   10  C   UNL     1     -10.564   8.624  71.260  1.00  0.00    -0.239 A  
HETATM   11  N   UNL     1     -10.179   9.884  70.885  1.00  0.00    -0.117 NA 
HETATM   12  C   UNL     1     -10.957   7.884  70.158  1.00  0.00    -0.233 A  
HETATM   13  N   UNL     1     -10.773   8.746  69.087  1.00  0.00    -0.180 NA 
HETATM   14  C   UNL     1     -11.422   6.562  70.257  1.00  0.00    -0.474 A  
HETATM   15  C   UNL     1     -11.495   6.002  71.536  1.00  0.00    -0.280 A  
HETATM   16  C   UNL     1     -11.096   6.727  72.660  1.00  0.00    -0.301 A  
HETATM   17  C   UNL     1     -10.618   8.038  72.534  1.00  0.00    -0.397 A  
BRANCH  13  18
HETATM   18  C   UNL     1     -10.874   8.285  67.708  1.00  0.00     0.009 C  
BRANCH  18  19
HETATM   19  C   UNL     1     -10.025   7.066  67.413  1.00  0.00    -0.217 A  
HETATM   20  C   UNL     1     -10.639   5.950  66.821  1.00  0.00    -0.368 A  
HETATM   21  C   UNL     1      -9.954   4.740  66.720  1.00  0.00    -0.253 A  
HETATM   22  C   UNL     1      -8.645   4.652  67.179  1.00  0.00    -0.104 A  
HETATM   23  F   UNL     1      -8.019   3.468  67.164  1.00  0.00    -0.080 F  
HETATM   24  C   UNL     1      -7.985   5.768  67.668  1.00  0.00    -0.102 A  
HETATM   25  C   UNL     1      -8.665   6.981  67.762  1.00  0.00    -0.121 A  
ENDBRANCH  18  19
ENDBRANCH  13  18
ENDBRANCH   7   9
ENDBRANCH   2   3
BRANCH   2  26
HETATM   26  C   UNL     1     -10.333  13.764  65.560  1.00  0.00    -0.321 C  
HETATM   27  C   UNL     1     -12.284  13.961  64.371  1.00  0.00    -0.413 C  
HETATM   28  H   UNL     1      -9.260  12.053  65.201  1.00  0.00     0.000 HD 
HETATM   29  C   UNL     1     -10.917  12.039  63.993  1.00  0.00    -0.381 C  
HETATM   30  N   UNL     1     -11.398  14.468  65.282  1.00  0.00    -0.339 NA 
HETATM   31  O   UNL     1     -10.677  10.983  63.418  1.00  0.00    -0.318 OA 
HETATM   32  N   UNL     1     -10.097  12.573  64.940  1.00  0.00    -0.257 N  
HETATM   33  C   UNL     1     -12.126  12.819  63.705  1.00  0.00    -0.624 C  
ENDBRANCH   2  26
TORSDOF 5
ENDMDL
MODEL       74
REMARK 921   NORMALIZED FREE ENERGY PREDICTED BY IDOCK:   -6.15 KCAL/MOL
REMARK 922        TOTAL FREE ENERGY PREDICTED BY IDOCK:   -9.36 KCAL/MOL
REMARK 923 INTER-LIGAND FREE ENERGY PREDICTED BY IDOCK:   -8.85 KCAL/MOL
REMARK 924 INTRA-LIGAND FREE ENERGY PREDICTED BY IDOCK:   -0.51 KCAL/MOL
REMARK 927      BINDING AFFINITY PREDICTED BY RF-SCORE:    0.00 PKD
ROOT
HETATM    1  C   UNL     1      -8.636   9.010  71.346  1.00  0.00    -0.108 C  
HETATM    2  N   UNL     1      -9.967   8.659  71.886  1.00  0.00    -0.294 NA 
ENDROOT
BRANCH   2   3
HETATM    3  C   UNL     1     -11.083   8.966  70.944  1.00  0.00    -0.271 C  
HETATM    4  C   UNL     1     -10.710   8.697  69.493  1.00  0.00    -0.189 C  
HETATM    5  C   UNL     1     -11.792  10.296  71.149  1.00  0.00    -0.455 C  
HETATM    6  C   UNL     1     -10.094   9.883  68.774  1.00  0.00    -0.174 C  
HETATM    7  N   UNL     1     -10.900  11.098  68.895  1.00  0.00    -0.203 NA 
HETATM    8  C   UNL     1     -11.509  11.438  70.173  1.00  0.00    -0.214 C  
BRANCH   7   9
HETATM    9  C   UNL     1     -11.043  11.875  67.767  1.00  0.00    -0.239 A  
HETATM   10  C   UNL     1     -11.840  12.653  65.906  1.00  0.00    -0.444 A  
HETATM   11  N   UNL     1     -11.872  11.596  66.777  1.00  0.00    -0.516 NA 
HETATM   12  C   UNL     1     -10.912  13.597  66.314  1.00  0.00    -0.299 A  
HETATM   13  N   UNL     1     -10.361  13.054  67.466  1.00  0.00    -0.223 NA 
HETATM   14  C   UNL     1     -10.690  14.795  65.616  1.00  0.00    -0.345 A  
HETATM   15  C   UNL     1     -11.463  15.025  64.474  1.00  0.00    -0.320 A  
HETATM   16  C   UNL     1     -12.398  14.085  64.040  1.00  0.00    -0.341 A  
HETATM   17  C   UNL     1     -12.590  12.888  64.743  1.00  0.00    -0.493 A  
BRANCH  13  18
HETATM   18  C   UNL     1      -9.188  13.640  68.101  1.00  0.00    -0.204 C  
BRANCH  18  19
HETATM   19  C   UNL     1      -9.358  15.102  68.459  1.00  0.00    -0.192 A  
HETATM   20  C   UNL     1     -10.446  15.471  69.266  1.00  0.00    -0.245 A  
HETATM   21  C   UNL     1     -10.761  16.817  69.451  1.00  0.00    -0.300 A  
HETATM   22  C   UNL     1      -9.971  17.795  68.858  1.00  0.00    -0.332 A  
HETATM   23  F   UNL     1     -10.326  19.082  68.961  1.00  0.00    -0.411 F  
HETATM   24  C   UNL     1      -8.831  17.455  68.146  1.00  0.00    -0.253 A  
HETATM   25  C   UNL     1      -8.509  16.111  67.967  1.00  0.00    -0.168 A  
ENDBRANCH  18  19
ENDBRANCH  13  18
ENDBRANCH   7   9
ENDBRANCH   2   3
BRANCH   2  26
HETATM   26  C   UNL     1      -9.980   7.581  72.751  1.00  0.00    -0.227 C  
HETATM   27  C   UNL     1      -9.207   6.381  74.546  1.00  0.00    -0.199 C  
HETATM   28  H   UNL     1     -11.578   6.751  71.768  1.00  0.00     0.000 HD 
HETATM   29  C   UNL     1     -11.104   5.547  73.358  1.00  0.00    -0.228 C  
HETATM   30  N   UNL     1      -9.125   7.480  73.734  1.00  0.00    -0.240 NA 
HETATM   31  O   UNL     1     -11.994   4.720  73.193  1.00  0.00    -0.204 OA 
HETATM   32  N   UNL     1     -10.943   6.636  72.557  1.00  0.00    -0.237 N  
HETATM   33  C   UNL     1     -10.124   5.422  74.443  1.00  0.00    -0.278 C  
ENDBRANCH   2  26
TORSDOF 5
ENDMDL
MODEL       75
REMARK 921   NORMALIZED FREE ENERGY PREDICTED BY IDOCK:   -6.15 KCAL/MOL
REMARK 922        TOTAL FREE ENERGY PREDICTED BY IDOCK:   -9.36 KCAL/MOL
REMARK 923 INTER-LIGAND FREE ENERGY PREDICTED BY IDOCK:   -8.19 KCAL/MOL
REMARK 924 INTRA-LIGAND FREE ENERGY PREDICTED BY IDOCK:   -1.16 KCAL/MOL
REMARK 927      BINDING AFFINITY PREDICTED BY RF-SCORE:    0.00 PKD
ROOT
HETATM    1  C   UNL     1      -8.400   6.828  69.949  1.00  0.00    -0.135 C  
HETATM    2  N   UNL     1      -8.720   7.554  71.197  1.00  0.00    -0.135 NA 
ENDROOT
BRANCH   2   3
HETATM    3  C   UNL     1      -9.018   8.999  70.977  1.00  0.00    -0.241 C  
HETATM    4  C   UNL     1     -10.458   9.237  70.544  1.00  0.00    -0.312 C  
HETATM    5  C   UNL     1      -8.004   9.779  70.155  1.00  0.00    -0.201 C  
HETATM    6  C   UNL     1     -10.674   9.209  69.042  1.00  0.00    -0.153 C  
HETATM    7  N   UNL     1      -9.755  10.090  68.322  1.00  0.00    -0.139 NA 
HETATM    8  C   UNL     1      -8.353  10.149  68.713  1.00  0.00    -0.122 C  
BRANCH   7   9
HETATM    9  C   UNL     1     -10.275  10.835  67.288  1.00  0.00    -0.205 A  
HETATM   10  C   UNL     1     -10.785  11.468  65.276  1.00  0.00    -0.279 A  
HETATM   11  N   UNL     1      -9.981  10.640  66.014  1.00  0.00    -0.229 NA 
HETATM   12  C   UNL     1     -11.558  12.265  66.104  1.00  0.00    -0.390 A  
HETATM   13  N   UNL     1     -11.172  11.899  67.385  1.00  0.00    -0.284 NA 
HETATM   14  C   UNL     1     -12.491  13.192  65.610  1.00  0.00    -0.485 A  
HETATM   15  C   UNL     1     -12.633  13.282  64.222  1.00  0.00    -0.253 A  
HETATM   16  C   UNL     1     -11.858  12.495  63.370  1.00  0.00    -0.587 A  
HETATM   17  C   UNL     1     -10.921  11.589  63.885  1.00  0.00    -0.474 A  
BRANCH  13  18
HETATM   18  C   UNL     1     -11.600  12.652  68.557  1.00  0.00    -0.323 C  
BRANCH  18  19
HETATM   19  C   UNL     1     -10.840  13.947  68.756  1.00  0.00    -0.282 A  
HETATM   20  C   UNL     1     -11.562  15.101  69.100  1.00  0.00    -0.343 A  
HETATM   21  C   UNL     1     -10.941  16.349  69.092  1.00  0.00    -0.324 A  
HETATM   22  C   UNL     1      -9.592  16.443  68.773  1.00  0.00    -0.249 A  
HETATM   23  F   UNL     1      -9.018  17.649  68.677  1.00  0.00    -0.270 F  
HETATM   24  C   UNL     1      -8.835  15.306  68.535  1.00  0.00    -0.185 A  
HETATM   25  C   UNL     1      -9.452  14.056  68.551  1.00  0.00    -0.191 A  
ENDBRANCH  18  19
ENDBRANCH  13  18
ENDBRANCH   7   9
ENDBRANCH   2   3
BRANCH   2  26
HETATM   26  C   UNL     1      -9.336   6.793  72.172  1.00  0.00    -0.140 C  
HETATM   27  C   UNL     1     -10.218   6.461  74.263  1.00  0.00    -0.344 C  
HETATM   28  H   UNL     1      -9.438   5.176  70.914  1.00  0.00     0.000 HD 
HETATM   29  C   UNL     1     -10.333   4.669  72.688  1.00  0.00    -0.196 C  
HETATM   30  N   UNL     1      -9.605   7.280  73.355  1.00  0.00    -0.202 NA 
HETATM   31  O   UNL     1     -10.668   3.533  72.370  1.00  0.00    -0.026 OA 
HETATM   32  N   UNL     1      -9.682   5.516  71.844  1.00  0.00    -0.159 N  
HETATM   33  C   UNL     1     -10.607   5.210  74.024  1.00  0.00    -0.335 C  
ENDBRANCH   2  26
TORSDOF 5
ENDMDL
MODEL       76
REMARK 921   NORMALIZED FREE ENERGY PREDICTED BY IDOCK:   -6.13 KCAL/MOL
REMARK 922        TOTAL FREE ENERGY PREDICTED BY IDOCK:   -9.34 KCAL/MOL
REMARK 923 INTER-LIGAND FREE ENERGY PREDICTED BY IDOCK:   -8.49 KCAL/MOL
REMARK 924 INTRA-LIGAND FREE ENERGY PREDICTED BY IDOCK:   -0.85 KCAL/MOL
REMARK 927      BINDING AFFINITY PREDICTED BY RF-SCORE:    0.00 PKD
ROOT
HETATM    1  C   UNL     1      -7.810  15.714  67.235  1.00  0.00    -0.198 C  
HETATM    2  N   UNL     1      -9.219  15.874  66.816  1.00  0.00    -0.223 NA 
ENDROOT
BRANCH   2   3
HETATM    3  C   UNL     1     -10.067  14.689  67.136  1.00  0.00    -0.244 C  
HETATM    4  C   UNL     1      -9.317  13.637  67.940  1.00  0.00    -0.206 C  
HETATM    5  C   UNL     1     -10.875  14.107  65.986  1.00  0.00    -0.297 C  
HETATM    6  C   UNL     1      -8.599  12.598  67.099  1.00  0.00    -0.199 C  
HETATM    7  N   UNL     1      -9.473  11.976  66.103  1.00  0.00    -0.235 NA 
HETATM    8  C   UNL     1     -10.410  12.797  65.350  1.00  0.00    -0.293 C  
BRANCH   7   9
HETATM    9  C   UNL     1      -9.359  10.616  65.926  1.00  0.00    -0.190 A  
HETATM   10  C   UNL     1      -8.661   8.700  65.183  1.00  0.00    -0.144 A  
HETATM   11  N   UNL     1      -8.653  10.052  64.961  1.00  0.00    -0.151 NA 
HETATM   12  C   UNL     1      -9.454   8.388  66.275  1.00  0.00    -0.224 A  
HETATM   13  N   UNL     1      -9.948   9.614  66.697  1.00  0.00    -0.220 NA 
HETATM   14  C   UNL     1      -9.621   7.074  66.741  1.00  0.00    -0.221 A  
HETATM   15  C   UNL     1      -8.936   6.061  66.064  1.00  0.00    -0.157 A  
HETATM   16  C   UNL     1      -8.138   6.352  64.957  1.00  0.00    -0.135 A  
HETATM   17  C   UNL     1      -8.000   7.669  64.499  1.00  0.00    -0.130 A  
BRANCH  13  18
HETATM   18  C   UNL     1     -10.998   9.710  67.703  1.00  0.00    -0.124 C  
BRANCH  18  19
HETATM   19  C   UNL     1     -10.488   9.596  69.125  1.00  0.00    -0.230 A  
HETATM   20  C   UNL     1      -9.100   9.537  69.335  1.00  0.00    -0.172 A  
HETATM   21  C   UNL     1      -8.592   9.227  70.596  1.00  0.00    -0.270 A  
HETATM   22  C   UNL     1      -9.466   9.008  71.654  1.00  0.00    -0.223 A  
HETATM   23  F   UNL     1      -8.981   8.622  72.841  1.00  0.00    -0.304 F  
HETATM   24  C   UNL     1     -10.834   9.166  71.493  1.00  0.00    -0.436 A  
HETATM   25  C   UNL     1     -11.344   9.485  70.236  1.00  0.00    -0.284 A  
ENDBRANCH  18  19
ENDBRANCH  13  18
ENDBRANCH   7   9
ENDBRANCH   2   3
BRANCH   2  26
HETATM   26  C   UNL     1      -9.690  17.173  66.842  1.00  0.00    -0.268 C  
HETATM   27  C   UNL     1     -10.660  19.023  65.896  1.00  0.00    -0.393 C  
HETATM   28  H   UNL     1      -9.181  17.368  68.820  1.00  0.00     0.000 HD 
HETATM   29  C   UNL     1     -10.079  19.109  68.211  1.00  0.00    -0.416 C  
HETATM   30  N   UNL     1     -10.216  17.734  65.785  1.00  0.00    -0.600 NA 
HETATM   31  O   UNL     1     -10.033  19.689  69.291  1.00  0.00    -0.436 OA 
HETATM   32  N   UNL     1      -9.613  17.842  68.027  1.00  0.00    -0.280 N  
HETATM   33  C   UNL     1     -10.642  19.744  67.015  1.00  0.00    -0.586 C  
ENDBRANCH   2  26
TORSDOF 5
ENDMDL
MODEL       77
REMARK 921   NORMALIZED FREE ENERGY PREDICTED BY IDOCK:   -6.12 KCAL/MOL
REMARK 922        TOTAL FREE ENERGY PREDICTED BY IDOCK:   -9.32 KCAL/MOL
REMARK 923 INTER-LIGAND FREE ENERGY PREDICTED BY IDOCK:   -7.95 KCAL/MOL
REMARK 924 INTRA-LIGAND FREE ENERGY PREDICTED BY IDOCK:   -1.37 KCAL/MOL
REMARK 927      BINDING AFFINITY PREDICTED BY RF-SCORE:    0.00 PKD
ROOT
HETATM    1  C   UNL     1     -10.862   6.248  67.587  1.00  0.00    -0.346 C  
HETATM    2  N   UNL     1      -9.884   6.140  68.691  1.00  0.00    -0.134 NA 
ENDROOT
BRANCH   2   3
HETATM    3  C   UNL     1      -8.631   6.911  68.446  1.00  0.00    -0.125 C  
HETATM    4  C   UNL     1      -8.303   7.866  69.585  1.00  0.00    -0.131 C  
HETATM    5  C   UNL     1      -8.486   7.541  67.069  1.00  0.00    -0.122 C  
HETATM    6  C   UNL     1      -8.903   9.251  69.434  1.00  0.00    -0.149 C  
HETATM    7  N   UNL     1      -8.606   9.858  68.135  1.00  0.00    -0.118 NA 
HETATM    8  C   UNL     1      -8.681   9.050  66.926  1.00  0.00    -0.123 C  
BRANCH   7   9
HETATM    9  C   UNL     1      -8.265  11.191  68.126  1.00  0.00    -0.131 A  
HETATM   10  C   UNL     1      -7.060  12.995  68.071  1.00  0.00    -0.115 A  
HETATM   11  N   UNL     1      -7.030  11.640  68.272  1.00  0.00    -0.070 NA 
HETATM   12  C   UNL     1      -8.358  13.431  67.866  1.00  0.00    -0.166 A  
HETATM   13  N   UNL     1      -9.124  12.279  67.973  1.00  0.00    -0.185 NA 
HETATM   14  C   UNL     1      -8.677  14.775  67.612  1.00  0.00    -0.183 A  
HETATM   15  C   UNL     1      -7.617  15.686  67.555  1.00  0.00    -0.200 A  
HETATM   16  C   UNL     1      -6.302  15.269  67.766  1.00  0.00    -0.181 A  
HETATM   17  C   UNL     1      -6.010  13.926  68.036  1.00  0.00    -0.140 A  
BRANCH  13  18
HETATM   18  C   UNL     1     -10.579  12.331  68.028  1.00  0.00    -0.216 C  
BRANCH  18  19
HETATM   19  C   UNL     1     -11.228  12.606  66.686  1.00  0.00    -0.346 A  
HETATM   20  C   UNL     1     -10.954  11.734  65.620  1.00  0.00    -0.348 A  
HETATM   21  C   UNL     1     -11.357  12.058  64.325  1.00  0.00    -0.433 A  
HETATM   22  C   UNL     1     -12.062  13.234  64.098  1.00  0.00    -0.432 A  
HETATM   23  F   UNL     1     -12.370  13.588  62.845  1.00  0.00    -0.554 F  
HETATM   24  C   UNL     1     -12.435  14.055  65.152  1.00  0.00    -0.472 A  
HETATM   25  C   UNL     1     -12.041  13.729  66.448  1.00  0.00    -0.483 A  
ENDBRANCH  18  19
ENDBRANCH  13  18
ENDBRANCH   7   9
ENDBRANCH   2   3
BRANCH   2  26
HETATM   26  C   UNL     1     -10.438   5.974  69.947  1.00  0.00    -0.249 C  
HETATM   27  C   UNL     1     -10.507   5.079  72.057  1.00  0.00    -0.203 C  
HETATM   28  H   UNL     1     -11.957   7.279  69.501  1.00  0.00     0.000 HD 
HETATM   29  C   UNL     1     -12.189   6.660  71.442  1.00  0.00    -0.324 C  
HETATM   30  N   UNL     1      -9.896   5.186  70.838  1.00  0.00    -0.187 NA 
HETATM   31  O   UNL     1     -13.181   7.334  71.699  1.00  0.00    -0.367 OA 
HETATM   32  N   UNL     1     -11.562   6.689  70.233  1.00  0.00    -0.393 N  
HETATM   33  C   UNL     1     -11.593   5.753  72.430  1.00  0.00    -0.320 C  
ENDBRANCH   2  26
TORSDOF 5
ENDMDL
MODEL       78
REMARK 921   NORMALIZED FREE ENERGY PREDICTED BY IDOCK:   -6.11 KCAL/MOL
REMARK 922        TOTAL FREE ENERGY PREDICTED BY IDOCK:   -9.30 KCAL/MOL
REMARK 923 INTER-LIGAND FREE ENERGY PREDICTED BY IDOCK:   -7.82 KCAL/MOL
REMARK 924 INTRA-LIGAND FREE ENERGY PREDICTED BY IDOCK:   -1.49 KCAL/MOL
REMARK 927      BINDING AFFINITY PREDICTED BY RF-SCORE:    0.00 PKD
ROOT
HETATM    1  C   UNL     1     -11.608  11.653  68.494  1.00  0.00    -0.317 C  
HETATM    2  N   UNL     1     -10.621  11.449  67.412  1.00  0.00    -0.208 NA 
ENDROOT
BRANCH   2   3
HETATM    3  C   UNL     1      -9.669  10.334  67.687  1.00  0.00    -0.164 C  
HETATM    4  C   UNL     1     -10.289   8.965  67.444  1.00  0.00    -0.337 C  
HETATM    5  C   UNL     1      -8.887  10.420  68.989  1.00  0.00    -0.176 C  
HETATM    6  C   UNL     1     -10.973   8.363  68.657  1.00  0.00     0.203 C  
HETATM    7  N   UNL     1     -10.114   8.350  69.842  1.00  0.00    -0.191 NA 
HETATM    8  C   UNL     1      -9.288   9.508  70.149  1.00  0.00    -0.247 C  
BRANCH   7   9
HETATM    9  C   UNL     1     -10.135   7.216  70.623  1.00  0.00    -0.191 A  
HETATM   10  C   UNL     1     -10.749   5.779  72.128  1.00  0.00    -0.231 A  
HETATM   11  N   UNL     1     -10.892   7.072  71.697  1.00  0.00    -0.222 NA 
HETATM   12  C   UNL     1      -9.821   5.104  71.353  1.00  0.00    -0.179 A  
HETATM   13  N   UNL     1      -9.387   6.054  70.440  1.00  0.00    -0.158 NA 
HETATM   14  C   UNL     1      -9.498   3.753  71.560  1.00  0.00    -0.221 A  
HETATM   15  C   UNL     1     -10.167   3.083  72.589  1.00  0.00    -0.231 A  
HETATM   16  C   UNL     1     -11.100   3.746  73.387  1.00  0.00    -0.308 A  
HETATM   17  C   UNL     1     -11.394   5.099  73.173  1.00  0.00    -0.385 A  
BRANCH  13  18
HETATM   18  C   UNL     1      -8.246   5.809  69.567  1.00  0.00    -0.108 C  
BRANCH  18  19
HETATM   19  C   UNL     1      -8.623   5.644  68.108  1.00  0.00    -0.104 A  
HETATM   20  C   UNL     1      -9.810   4.960  67.797  1.00  0.00    -0.196 A  
HETATM   21  C   UNL     1     -10.092   4.605  66.479  1.00  0.00    -0.279 A  
HETATM   22  C   UNL     1      -9.209   4.960  65.467  1.00  0.00    -0.157 A  
HETATM   23  F   UNL     1      -9.435   4.541  64.216  1.00  0.00    -0.156 F  
HETATM   24  C   UNL     1      -8.086   5.727  65.739  1.00  0.00    -0.116 A  
HETATM   25  C   UNL     1      -7.805   6.091  67.054  1.00  0.00    -0.102 A  
ENDBRANCH  18  19
ENDBRANCH  13  18
ENDBRANCH   7   9
ENDBRANCH   2   3
BRANCH   2  26
HETATM   26  C   UNL     1     -11.072  11.765  66.144  1.00  0.00    -0.307 C  
HETATM   27  C   UNL     1     -12.599  12.624  64.664  1.00  0.00    -0.440 C  
HETATM   28  H   UNL     1      -9.363  11.011  65.297  1.00  0.00     0.000 HD 
HETATM   29  C   UNL     1     -10.541  11.772  63.801  1.00  0.00    -0.415 C  
HETATM   30  N   UNL     1     -12.228  12.343  65.951  1.00  0.00    -0.632 NA 
HETATM   31  O   UNL     1      -9.778  11.535  62.871  1.00  0.00    -0.372 OA 
HETATM   32  N   UNL     1     -10.249  11.475  65.098  1.00  0.00    -0.260 N  
HETATM   33  C   UNL     1     -11.852  12.395  63.586  1.00  0.00    -0.610 C  
ENDBRANCH   2  26
TORSDOF 5
ENDMDL
MODEL       79
REMARK 921   NORMALIZED FREE ENERGY PREDICTED BY IDOCK:   -6.08 KCAL/MOL
REMARK 922        TOTAL FREE ENERGY PREDICTED BY IDOCK:   -9.27 KCAL/MOL
REMARK 923 INTER-LIGAND FREE ENERGY PREDICTED BY IDOCK:   -8.44 KCAL/MOL
REMARK 924 INTRA-LIGAND FREE ENERGY PREDICTED BY IDOCK:   -0.83 KCAL/MOL
REMARK 927      BINDING AFFINITY PREDICTED BY RF-SCORE:    0.00 PKD
ROOT
HETATM    1  C   UNL     1      -9.902  18.969  66.546  1.00  0.00    -0.369 C  
HETATM    2  N   UNL     1      -8.734  19.270  67.400  1.00  0.00    -0.288 NA 
ENDROOT
BRANCH   2   3
HETATM    3  C   UNL     1      -8.572  18.314  68.534  1.00  0.00    -0.306 C  
HETATM    4  C   UNL     1      -7.419  17.343  68.317  1.00  0.00    -0.227 C  
HETATM    5  C   UNL     1      -9.841  17.641  69.037  1.00  0.00    -0.231 C  
HETATM    6  C   UNL     1      -7.806  16.061  67.602  1.00  0.00    -0.142 C  
HETATM    7  N   UNL     1      -8.949  15.391  68.223  1.00  0.00    -0.181 NA 
HETATM    8  C   UNL     1     -10.088  16.176  68.678  1.00  0.00    -0.231 C  
BRANCH   7   9
HETATM    9  C   UNL     1      -8.887  14.021  68.346  1.00  0.00    -0.180 A  
HETATM   10  C   UNL     1      -8.085  12.029  68.654  1.00  0.00    -0.069 A  
HETATM   11  N   UNL     1      -7.759  13.334  68.392  1.00  0.00    -0.134 NA 
HETATM   12  C   UNL     1      -9.459  11.868  68.702  1.00  0.00    -0.080 A  
HETATM   13  N   UNL     1      -9.959  13.134  68.435  1.00  0.00    -0.237 NA 
HETATM   14  C   UNL     1     -10.070  10.633  68.977  1.00  0.00    -0.226 A  
HETATM   15  C   UNL     1      -9.230   9.543  69.224  1.00  0.00    -0.169 A  
HETATM   16  C   UNL     1      -7.843   9.681  69.173  1.00  0.00    -0.090 A  
HETATM   17  C   UNL     1      -7.256  10.919  68.879  1.00  0.00    -0.095 A  
BRANCH  13  18
HETATM   18  C   UNL     1     -11.377  13.359  68.185  1.00  0.00    -0.287 C  
BRANCH  18  19
HETATM   19  C   UNL     1     -11.753  13.287  66.719  1.00  0.00    -0.434 A  
HETATM   20  C   UNL     1     -11.380  12.148  65.987  1.00  0.00    -0.410 A  
HETATM   21  C   UNL     1     -11.520  12.125  64.600  1.00  0.00    -0.388 A  
HETATM   22  C   UNL     1     -12.062  13.224  63.946  1.00  0.00    -0.468 A  
HETATM   23  F   UNL     1     -12.112  13.238  62.608  1.00  0.00    -0.341 F  
HETATM   24  C   UNL     1     -12.534  14.316  64.659  1.00  0.00    -0.371 A  
HETATM   25  C   UNL     1     -12.404  14.338  66.046  1.00  0.00    -0.416 A  
ENDBRANCH  18  19
ENDBRANCH  13  18
ENDBRANCH   7   9
ENDBRANCH   2   3
BRANCH   2  26
HETATM   26  C   UNL     1      -7.668  19.855  66.745  1.00  0.00    -0.290 C  
HETATM   27  C   UNL     1      -5.946  21.359  66.563  1.00  0.00    -0.299 C  
HETATM   28  H   UNL     1      -7.899  18.595  65.143  1.00  0.00     0.000 HD 
HETATM   29  C   UNL     1      -6.276  19.797  64.787  1.00  0.00    -0.278 C  
HETATM   30  N   UNL     1      -6.988  20.836  67.278  1.00  0.00    -0.334 NA 
HETATM   31  O   UNL     1      -5.963  19.313  63.705  1.00  0.00    -0.437 OA 
HETATM   32  N   UNL     1      -7.330  19.350  65.525  1.00  0.00    -0.184 N  
HETATM   33  C   UNL     1      -5.535  20.917  65.377  1.00  0.00    -0.247 C  
ENDBRANCH   2  26
TORSDOF 5
ENDMDL
MODEL       80
REMARK 921   NORMALIZED FREE ENERGY PREDICTED BY IDOCK:   -6.06 KCAL/MOL
REMARK 922        TOTAL FREE ENERGY PREDICTED BY IDOCK:   -9.25 KCAL/MOL
REMARK 923 INTER-LIGAND FREE ENERGY PREDICTED BY IDOCK:   -9.02 KCAL/MOL
REMARK 924 INTRA-LIGAND FREE ENERGY PREDICTED BY IDOCK:   -0.23 KCAL/MOL
REMARK 927      BINDING AFFINITY PREDICTED BY RF-SCORE:    0.00 PKD
ROOT
HETATM    1  C   UNL     1      -9.782   7.838  73.370  1.00  0.00    -0.290 C  
HETATM    2  N   UNL     1     -10.738   6.851  72.826  1.00  0.00    -0.238 NA 
ENDROOT
BRANCH   2   3
HETATM    3  C   UNL     1     -11.622   7.411  71.763  1.00  0.00    -0.272 C  
HETATM    4  C   UNL     1     -10.926   7.492  70.411  1.00  0.00    -0.264 C  
HETATM    5  C   UNL     1     -12.393   8.673  72.121  1.00  0.00    -0.452 C  
HETATM    6  C   UNL     1     -10.195   8.798  70.160  1.00  0.00    -0.190 C  
HETATM    7  N   UNL     1     -11.039   9.971  70.389  1.00  0.00    -0.305 NA 
HETATM    8  C   UNL     1     -11.928  10.008  71.541  1.00  0.00    -0.353 C  
BRANCH   7   9
HETATM    9  C   UNL     1     -10.944  11.003  69.483  1.00  0.00    -0.243 A  
HETATM   10  C   UNL     1     -10.261  12.196  67.804  1.00  0.00    -0.201 A  
HETATM   11  N   UNL     1      -9.946  11.147  68.628  1.00  0.00    -0.200 NA 
HETATM   12  C   UNL     1     -11.455  12.781  68.190  1.00  0.00    -0.314 A  
HETATM   13  N   UNL     1     -11.845  12.053  69.305  1.00  0.00    -0.319 NA 
HETATM   14  C   UNL     1     -12.027  13.865  67.503  1.00  0.00    -0.421 A  
HETATM   15  C   UNL     1     -11.347  14.342  66.378  1.00  0.00    -0.346 A  
HETATM   16  C   UNL     1     -10.139  13.772  65.976  1.00  0.00    -0.320 A  
HETATM   17  C   UNL     1      -9.579  12.702  66.687  1.00  0.00    -0.249 A  
BRANCH  13  18
HETATM   18  C   UNL     1     -12.955  12.480  70.147  1.00  0.00     0.666 C  
BRANCH  18  19
HETATM   19  C   UNL     1     -12.580  13.559  71.143  1.00  0.00    -0.438 A  
HETATM   20  C   UNL     1     -13.181  13.536  72.412  1.00  0.00    -0.577 A  
HETATM   21  C   UNL     1     -13.028  14.614  73.283  1.00  0.00    -0.569 A  
HETATM   22  C   UNL     1     -12.248  15.699  72.903  1.00  0.00    -0.457 A  
HETATM   23  F   UNL     1     -12.174  16.772  73.701  1.00  0.00    -0.532 F  
HETATM   24  C   UNL     1     -11.559  15.694  71.699  1.00  0.00    -0.519 A  
HETATM   25  C   UNL     1     -11.704  14.614  70.830  1.00  0.00    -0.335 A  
ENDBRANCH  18  19
ENDBRANCH  13  18
ENDBRANCH   7   9
ENDBRANCH   2   3
BRANCH   2  26
HETATM   26  C   UNL     1     -10.291   5.543  72.829  1.00  0.00    -0.194 C  
HETATM   27  C   UNL     1      -8.710   3.914  72.503  1.00  0.00    -0.102 C  
HETATM   28  H   UNL     1     -12.109   4.874  73.507  1.00  0.00     0.000 HD 
HETATM   29  C   UNL     1     -10.847   3.264  73.348  1.00  0.00    -0.208 C  
HETATM   30  N   UNL     1      -9.074   5.233  72.470  1.00  0.00    -0.136 NA 
HETATM   31  O   UNL     1     -11.631   2.416  73.760  1.00  0.00    -0.202 OA 
HETATM   32  N   UNL     1     -11.164   4.585  73.250  1.00  0.00    -0.300 N  
HETATM   33  C   UNL     1      -9.489   2.917  72.917  1.00  0.00    -0.137 C  
ENDBRANCH   2  26
TORSDOF 5
ENDMDL
MODEL       81
REMARK 921   NORMALIZED FREE ENERGY PREDICTED BY IDOCK:   -6.05 KCAL/MOL
REMARK 922        TOTAL FREE ENERGY PREDICTED BY IDOCK:   -9.23 KCAL/MOL
REMARK 923 INTER-LIGAND FREE ENERGY PREDICTED BY IDOCK:   -8.50 KCAL/MOL
REMARK 924 INTRA-LIGAND FREE ENERGY PREDICTED BY IDOCK:   -0.74 KCAL/MOL
REMARK 927      BINDING AFFINITY PREDICTED BY RF-SCORE:    0.00 PKD
ROOT
HETATM    1  C   UNL     1     -10.650   7.513  67.666  1.00  0.00    -0.233 C  
HETATM    2  N   UNL     1     -10.449   8.918  67.252  1.00  0.00    -0.282 NA 
ENDROOT
BRANCH   2   3
HETATM    3  C   UNL     1     -10.560   9.886  68.382  1.00  0.00    -0.222 C  
HETATM    4  C   UNL     1     -11.566  10.994  68.102  1.00  0.00    -0.345 C  
HETATM    5  C   UNL     1      -9.251  10.393  68.967  1.00  0.00    -0.194 C  
HETATM    6  C   UNL     1     -10.979  12.217  67.424  1.00  0.00    -0.253 C  
HETATM    7  N   UNL     1      -9.801  12.738  68.119  1.00  0.00    -0.222 NA 
HETATM    8  C   UNL     1      -8.800  11.816  68.636  1.00  0.00    -0.060 C  
BRANCH   7   9
HETATM    9  C   UNL     1      -9.699  14.105  68.249  1.00  0.00    -0.227 A  
HETATM   10  C   UNL     1      -8.873  16.110  68.190  1.00  0.00    -0.184 A  
HETATM   11  N   UNL     1      -8.566  14.776  68.140  1.00  0.00    -0.153 NA 
HETATM   12  C   UNL     1     -10.227  16.293  68.411  1.00  0.00    -0.249 A  
HETATM   13  N   UNL     1     -10.731  15.004  68.516  1.00  0.00    -0.237 NA 
HETATM   14  C   UNL     1     -10.820  17.564  68.484  1.00  0.00    -0.136 A  
HETATM   15  C   UNL     1      -9.986  18.672  68.307  1.00  0.00    -0.424 A  
HETATM   16  C   UNL     1      -8.617  18.511  68.091  1.00  0.00    -0.324 A  
HETATM   17  C   UNL     1      -8.045  17.233  68.040  1.00  0.00    -0.221 A  
BRANCH  13  18
HETATM   18  C   UNL     1     -12.096  14.751  68.959  1.00  0.00    -0.221 C  
BRANCH  18  19
HETATM   19  C   UNL     1     -12.270  14.832  70.463  1.00  0.00    -0.385 A  
HETATM   20  C   UNL     1     -13.512  14.476  71.013  1.00  0.00    -0.345 A  
HETATM   21  C   UNL     1     -13.785  14.729  72.356  1.00  0.00    -0.576 A  
HETATM   22  C   UNL     1     -12.808  15.306  73.159  1.00  0.00    -0.494 A  
HETATM   23  F   UNL     1     -13.101  15.631  74.425  1.00  0.00    -0.475 F  
HETATM   24  C   UNL     1     -11.540  15.566  72.663  1.00  0.00    -0.503 A  
HETATM   25  C   UNL     1     -11.262  15.307  71.322  1.00  0.00    -0.375 A  
ENDBRANCH  18  19
ENDBRANCH  13  18
ENDBRANCH   7   9
ENDBRANCH   2   3
BRANCH   2  26
HETATM   26  C   UNL     1      -9.589   9.094  66.185  1.00  0.00    -0.266 C  
HETATM   27  C   UNL     1      -8.880  10.143  64.273  1.00  0.00    -0.222 C  
HETATM   28  H   UNL     1      -8.413   7.536  66.814  1.00  0.00     0.000 HD 
HETATM   29  C   UNL     1      -7.558   8.352  65.138  1.00  0.00    -0.088 C  
HETATM   30  N   UNL     1      -9.779  10.035  65.298  1.00  0.00    -0.288 NA 
HETATM   31  O   UNL     1      -6.575   7.619  65.097  1.00  0.00    -0.044 OA 
HETATM   32  N   UNL     1      -8.511   8.264  66.107  1.00  0.00    -0.126 N  
HETATM   33  C   UNL     1      -7.792   9.390  64.129  1.00  0.00    -0.124 C  
ENDBRANCH   2  26
TORSDOF 5
ENDMDL
MODEL       82
REMARK 921   NORMALIZED FREE ENERGY PREDICTED BY IDOCK:   -6.02 KCAL/MOL
REMARK 922        TOTAL FREE ENERGY PREDICTED BY IDOCK:   -9.19 KCAL/MOL
REMARK 923 INTER-LIGAND FREE ENERGY PREDICTED BY IDOCK:   -8.69 KCAL/MOL
REMARK 924 INTRA-LIGAND FREE ENERGY PREDICTED BY IDOCK:   -0.50 KCAL/MOL
REMARK 927      BINDING AFFINITY PREDICTED BY RF-SCORE:    0.00 PKD
ROOT
HETATM    1  C   UNL     1      -9.316   8.476  72.379  1.00  0.00    -0.278 C  
HETATM    2  N   UNL     1     -10.408   7.498  72.189  1.00  0.00    -0.203 NA 
ENDROOT
BRANCH   2   3
HETATM    3  C   UNL     1     -11.484   7.987  71.279  1.00  0.00    -0.269 C  
HETATM    4  C   UNL     1     -11.281   7.533  69.840  1.00  0.00    -0.124 C  
HETATM    5  C   UNL     1     -11.854   9.458  71.401  1.00  0.00    -0.447 C  
HETATM    6  C   UNL     1     -10.459   8.485  68.992  1.00  0.00    -0.200 C  
HETATM    7  N   UNL     1     -10.955   9.861  69.045  1.00  0.00    -0.215 NA 
HETATM    8  C   UNL     1     -11.384  10.427  70.316  1.00  0.00    -0.328 C  
BRANCH   7   9
HETATM    9  C   UNL     1     -10.991  10.564  67.862  1.00  0.00    -0.295 A  
HETATM   10  C   UNL     1     -10.817  11.024  65.749  1.00  0.00    -0.097 A  
HETATM   11  N   UNL     1     -10.472  10.129  66.727  1.00  0.00    -0.224 NA 
HETATM   12  C   UNL     1     -11.511  12.095  66.287  1.00  0.00    -0.374 A  
HETATM   13  N   UNL     1     -11.554  11.822  67.647  1.00  0.00    -0.481 NA 
HETATM   14  C   UNL     1     -12.006  13.150  65.504  1.00  0.00    -0.457 A  
HETATM   15  C   UNL     1     -11.788  13.082  64.124  1.00  0.00    -0.478 A  
HETATM   16  C   UNL     1     -11.084  12.017  63.562  1.00  0.00    -0.519 A  
HETATM   17  C   UNL     1     -10.584  10.984  64.365  1.00  0.00    -0.395 A  
BRANCH  13  18
HETATM   18  C   UNL     1     -12.018  12.811  68.610  1.00  0.00    -0.233 C  
BRANCH  18  19
HETATM   19  C   UNL     1     -11.036  13.942  68.840  1.00  0.00    -0.290 A  
HETATM   20  C   UNL     1     -11.490  15.101  69.490  1.00  0.00    -0.314 A  
HETATM   21  C   UNL     1     -10.687  16.240  69.539  1.00  0.00    -0.323 A  
HETATM   22  C   UNL     1      -9.419  16.212  68.972  1.00  0.00    -0.246 A  
HETATM   23  F   UNL     1      -8.685  17.332  68.941  1.00  0.00    -0.270 F  
HETATM   24  C   UNL     1      -8.911  15.046  68.421  1.00  0.00    -0.178 A  
HETATM   25  C   UNL     1      -9.708  13.904  68.377  1.00  0.00    -0.226 A  
ENDBRANCH  18  19
ENDBRANCH  13  18
ENDBRANCH   7   9
ENDBRANCH   2   3
BRANCH   2  26
HETATM   26  C   UNL     1     -10.024   6.173  72.264  1.00  0.00    -0.166 C  
HETATM   27  C   UNL     1      -8.543   4.446  71.971  1.00  0.00    -0.112 C  
HETATM   28  H   UNL     1     -11.826   5.648  73.092  1.00  0.00     0.000 HD 
HETATM   29  C   UNL     1     -10.654   3.969  72.983  1.00  0.00    -0.174 C  
HETATM   30  N   UNL     1      -8.846   5.775  71.861  1.00  0.00    -0.138 NA 
HETATM   31  O   UNL     1     -11.451   3.194  73.501  1.00  0.00    -0.209 OA 
HETATM   32  N   UNL     1     -10.913   5.294  72.805  1.00  0.00    -0.257 N  
HETATM   33  C   UNL     1      -9.341   3.522  72.503  1.00  0.00    -0.167 C  
ENDBRANCH   2  26
TORSDOF 5
ENDMDL
MODEL       83
REMARK 921   NORMALIZED FREE ENERGY PREDICTED BY IDOCK:   -5.99 KCAL/MOL
REMARK 922        TOTAL FREE ENERGY PREDICTED BY IDOCK:   -9.16 KCAL/MOL
REMARK 923 INTER-LIGAND FREE ENERGY PREDICTED BY IDOCK:   -7.35 KCAL/MOL
REMARK 924 INTRA-LIGAND FREE ENERGY PREDICTED BY IDOCK:   -1.80 KCAL/MOL
REMARK 927      BINDING AFFINITY PREDICTED BY RF-SCORE:    0.00 PKD
ROOT
HETATM    1  C   UNL     1     -11.198  13.923  67.932  1.00  0.00    -0.278 C  
HETATM    2  N   UNL     1     -10.746  12.670  67.290  1.00  0.00    -0.234 NA 
ENDROOT
BRANCH   2   3
HETATM    3  C   UNL     1     -10.541  11.553  68.258  1.00  0.00    -0.200 C  
HETATM    4  C   UNL     1      -9.069  11.277  68.525  1.00  0.00    -0.173 C  
HETATM    5  C   UNL     1     -11.358  10.292  68.016  1.00  0.00    -0.219 C  
HETATM    6  C   UNL     1      -8.441  10.263  67.587  1.00  0.00    -0.118 C  
HETATM    7  N   UNL     1      -9.205   9.017  67.508  1.00  0.00    -0.135 NA 
HETATM    8  C   UNL     1     -10.658   9.063  67.436  1.00  0.00    -0.239 C  
BRANCH   7   9
HETATM    9  C   UNL     1      -8.492   7.839  67.506  1.00  0.00    -0.120 A  
HETATM   10  C   UNL     1      -7.396   6.112  66.782  1.00  0.00    -0.079 A  
HETATM   11  N   UNL     1      -8.236   7.132  66.419  1.00  0.00    -0.115 NA 
HETATM   12  C   UNL     1      -7.171   6.126  68.149  1.00  0.00    -0.084 A  
HETATM   13  N   UNL     1      -7.932   7.192  68.607  1.00  0.00    -0.122 NA 
HETATM   14  C   UNL     1      -6.328   5.203  68.789  1.00  0.00    -0.035 A  
HETATM   15  C   UNL     1      -5.691   4.252  67.986  1.00  0.00    -0.021 A  
HETATM   16  C   UNL     1      -5.909   4.215  66.609  1.00  0.00    -0.023 A  
HETATM   17  C   UNL     1      -6.769   5.135  65.994  1.00  0.00    -0.053 A  
BRANCH  13  18
HETATM   18  C   UNL     1      -8.141   7.426  70.030  1.00  0.00    -0.129 C  
BRANCH  18  19
HETATM   19  C   UNL     1      -9.602   7.504  70.423  1.00  0.00    -0.168 A  
HETATM   20  C   UNL     1     -10.026   8.589  71.209  1.00  0.00    -0.284 A  
HETATM   21  C   UNL     1     -11.305   8.598  71.765  1.00  0.00    -0.393 A  
HETATM   22  C   UNL     1     -12.172   7.542  71.510  1.00  0.00    -0.331 A  
HETATM   23  F   UNL     1     -13.365   7.507  72.116  1.00  0.00    -0.282 F  
HETATM   24  C   UNL     1     -11.812   6.515  70.651  1.00  0.00    -0.398 A  
HETATM   25  C   UNL     1     -10.537   6.508  70.087  1.00  0.00    -0.277 A  
ENDBRANCH  18  19
ENDBRANCH  13  18
ENDBRANCH   7   9
ENDBRANCH   2   3
BRANCH   2  26
HETATM   26  C   UNL     1     -11.200  12.479  65.999  1.00  0.00    -0.315 C  
HETATM   27  C   UNL     1     -12.818  12.465  64.373  1.00  0.00    -0.250 C  
HETATM   28  H   UNL     1      -9.321  11.950  65.366  1.00  0.00     0.000 HD 
HETATM   29  C   UNL     1     -10.577  11.926  63.746  1.00  0.00    -0.422 C  
HETATM   30  N   UNL     1     -12.451  12.675  65.674  1.00  0.00    -0.620 NA 
HETATM   31  O   UNL     1      -9.736  11.620  62.907  1.00  0.00    -0.382 OA 
HETATM   32  N   UNL     1     -10.283  12.105  65.063  1.00  0.00    -0.278 N  
HETATM   33  C   UNL     1     -11.988  12.118  63.392  1.00  0.00    -0.578 C  
ENDBRANCH   2  26
TORSDOF 5
ENDMDL
MODEL       84
REMARK 921   NORMALIZED FREE ENERGY PREDICTED BY IDOCK:   -5.94 KCAL/MOL
REMARK 922        TOTAL FREE ENERGY PREDICTED BY IDOCK:   -9.09 KCAL/MOL
REMARK 923 INTER-LIGAND FREE ENERGY PREDICTED BY IDOCK:   -8.02 KCAL/MOL
REMARK 924 INTRA-LIGAND FREE ENERGY PREDICTED BY IDOCK:   -1.07 KCAL/MOL
REMARK 927      BINDING AFFINITY PREDICTED BY RF-SCORE:    0.00 PKD
ROOT
HETATM    1  C   UNL     1      -9.287  10.306  65.662  1.00  0.00    -0.192 C  
HETATM    2  N   UNL     1      -9.981  10.443  66.960  1.00  0.00    -0.198 NA 
ENDROOT
BRANCH   2   3
HETATM    3  C   UNL     1     -10.890  11.625  67.020  1.00  0.00    -0.266 C  
HETATM    4  C   UNL     1     -10.698  12.568  65.841  1.00  0.00    -0.294 C  
HETATM    5  C   UNL     1     -10.976  12.342  68.359  1.00  0.00    -0.270 C  
HETATM    6  C   UNL     1      -9.662  13.653  66.069  1.00  0.00    -0.222 C  
HETATM    7  N   UNL     1      -9.886  14.398  67.308  1.00  0.00    -0.243 NA 
HETATM    8  C   UNL     1     -10.268  13.687  68.520  1.00  0.00    -0.234 C  
BRANCH   7   9
HETATM    9  C   UNL     1      -9.719  15.764  67.262  1.00  0.00    -0.223 A  
HETATM   10  C   UNL     1     -10.170  17.884  67.347  1.00  0.00    -0.360 A  
HETATM   11  N   UNL     1     -10.717  16.631  67.260  1.00  0.00    -0.275 NA 
HETATM   12  C   UNL     1      -8.787  17.818  67.328  1.00  0.00    -0.238 A  
HETATM   13  N   UNL     1      -8.514  16.463  67.203  1.00  0.00    -0.174 NA 
HETATM   14  C   UNL     1      -7.970  18.956  67.427  1.00  0.00    -0.264 A  
HETATM   15  C   UNL     1      -8.608  20.193  67.564  1.00  0.00    -0.404 A  
HETATM   16  C   UNL     1     -10.000  20.284  67.578  1.00  0.00    -0.557 A  
HETATM   17  C   UNL     1     -10.794  19.136  67.460  1.00  0.00    -0.512 A  
BRANCH  13  18
HETATM   18  C   UNL     1      -7.167  15.976  66.936  1.00  0.00    -0.177 C  
BRANCH  18  19
HETATM   19  C   UNL     1      -6.614  15.088  68.032  1.00  0.00    -0.156 A  
HETATM   20  C   UNL     1      -6.342  13.743  67.731  1.00  0.00    -0.171 A  
HETATM   21  C   UNL     1      -6.031  12.843  68.749  1.00  0.00    -0.072 A  
HETATM   22  C   UNL     1      -5.958  13.290  70.063  1.00  0.00    -0.134 A  
HETATM   23  F   UNL     1      -5.748  12.409  71.049  1.00  0.00    -0.170 F  
HETATM   24  C   UNL     1      -6.117  14.633  70.368  1.00  0.00    -0.173 A  
HETATM   25  C   UNL     1      -6.420  15.537  69.351  1.00  0.00    -0.151 A  
ENDBRANCH  18  19
ENDBRANCH  13  18
ENDBRANCH   7   9
ENDBRANCH   2   3
BRANCH   2  26
HETATM   26  C   UNL     1     -10.242   9.252  67.610  1.00  0.00    -0.230 C  
HETATM   27  C   UNL     1     -10.634   7.975  69.475  1.00  0.00    -0.214 C  
HETATM   28  H   UNL     1     -10.259   8.230  65.832  1.00  0.00     0.000 HD 
HETATM   29  C   UNL     1     -10.689   6.908  67.338  1.00  0.00    -0.326 C  
HETATM   30  N   UNL     1     -10.375   9.194  68.909  1.00  0.00    -0.211 NA 
HETATM   31  O   UNL     1     -10.848   5.918  66.631  1.00  0.00    -0.301 OA 
HETATM   32  N   UNL     1     -10.386   8.138  66.839  1.00  0.00    -0.328 N  
HETATM   33  C   UNL     1     -10.809   6.841  68.799  1.00  0.00    -0.280 C  
ENDBRANCH   2  26
TORSDOF 5
ENDMDL
MODEL       85
REMARK 921   NORMALIZED FREE ENERGY PREDICTED BY IDOCK:   -5.93 KCAL/MOL
REMARK 922        TOTAL FREE ENERGY PREDICTED BY IDOCK:   -9.07 KCAL/MOL
REMARK 923 INTER-LIGAND FREE ENERGY PREDICTED BY IDOCK:   -8.01 KCAL/MOL
REMARK 924 INTRA-LIGAND FREE ENERGY PREDICTED BY IDOCK:   -1.06 KCAL/MOL
REMARK 927      BINDING AFFINITY PREDICTED BY RF-SCORE:    0.00 PKD
ROOT
HETATM    1  C   UNL     1     -11.415  14.616  64.614  1.00  0.00    -0.388 C  
HETATM    2  N   UNL     1     -11.138  14.211  66.009  1.00  0.00    -0.310 NA 
ENDROOT
BRANCH   2   3
HETATM    3  C   UNL     1     -10.441  12.896  66.113  1.00  0.00    -0.269 C  
HETATM    4  C   UNL     1     -11.410  11.737  66.301  1.00  0.00    -0.350 C  
HETATM    5  C   UNL     1      -9.243  12.840  67.049  1.00  0.00    -0.221 C  
HETATM    6  C   UNL     1     -11.728  11.415  67.749  1.00  0.00    -0.203 C  
HETATM    7  N   UNL     1     -10.526  11.235  68.565  1.00  0.00    -0.189 NA 
HETATM    8  C   UNL     1      -9.398  12.139  68.399  1.00  0.00    -0.170 C  
BRANCH   7   9
HETATM    9  C   UNL     1     -10.528  10.196  69.469  1.00  0.00    -0.241 A  
HETATM   10  C   UNL     1     -11.031   8.994  71.203  1.00  0.00    -0.301 A  
HETATM   11  N   UNL     1     -11.124  10.243  70.648  1.00  0.00    -0.319 NA 
HETATM   12  C   UNL     1     -10.292   8.150  70.391  1.00  0.00    -0.206 A  
HETATM   13  N   UNL     1      -9.919   8.951  69.321  1.00  0.00    -0.187 NA 
HETATM   14  C   UNL     1     -10.060   6.802  70.708  1.00  0.00    -0.208 A  
HETATM   15  C   UNL     1     -10.622   6.315  71.892  1.00  0.00    -0.258 A  
HETATM   16  C   UNL     1     -11.363   7.149  72.729  1.00  0.00    -0.285 A  
HETATM   17  C   UNL     1     -11.568   8.496  72.401  1.00  0.00    -0.425 A  
BRANCH  13  18
HETATM   18  C   UNL     1      -8.948   8.501  68.332  1.00  0.00    -0.139 C  
BRANCH  18  19
HETATM   19  C   UNL     1      -9.334   7.203  67.650  1.00  0.00    -0.135 A  
HETATM   20  C   UNL     1      -8.369   6.187  67.552  1.00  0.00    -0.109 A  
HETATM   21  C   UNL     1      -8.608   5.065  66.759  1.00  0.00    -0.109 A  
HETATM   22  C   UNL     1      -9.820   4.941  66.092  1.00  0.00    -0.207 A  
HETATM   23  F   UNL     1     -10.013   3.909  65.260  1.00  0.00    -0.171 F  
HETATM   24  C   UNL     1     -10.826   5.880  66.260  1.00  0.00     0.026 A  
HETATM   25  C   UNL     1     -10.594   6.998  67.059  1.00  0.00    -0.412 A  
ENDBRANCH  18  19
ENDBRANCH  13  18
ENDBRANCH   7   9
ENDBRANCH   2   3
BRANCH   2  26
HETATM   26  C   UNL     1     -10.920  15.255  66.887  1.00  0.00    -0.315 C  
HETATM   27  C   UNL     1     -10.080  17.310  67.464  1.00  0.00    -0.315 C  
HETATM   28  H   UNL     1     -11.961  14.289  68.368  1.00  0.00     0.000 HD 
HETATM   29  C   UNL     1     -11.364  16.115  69.086  1.00  0.00    -0.323 C  
HETATM   30  N   UNL     1     -10.250  16.320  66.535  1.00  0.00    -0.290 NA 
HETATM   31  O   UNL     1     -11.880  16.018  70.194  1.00  0.00    -0.326 OA 
HETATM   32  N   UNL     1     -11.459  15.146  68.134  1.00  0.00    -0.333 N  
HETATM   33  C   UNL     1     -10.586  17.296  68.696  1.00  0.00    -0.329 C  
ENDBRANCH   2  26
TORSDOF 5
ENDMDL
MODEL       86
REMARK 921   NORMALIZED FREE ENERGY PREDICTED BY IDOCK:   -5.92 KCAL/MOL
REMARK 922        TOTAL FREE ENERGY PREDICTED BY IDOCK:   -9.07 KCAL/MOL
REMARK 923 INTER-LIGAND FREE ENERGY PREDICTED BY IDOCK:   -7.91 KCAL/MOL
REMARK 924 INTRA-LIGAND FREE ENERGY PREDICTED BY IDOCK:   -1.15 KCAL/MOL
REMARK 927      BINDING AFFINITY PREDICTED BY RF-SCORE:    0.00 PKD
ROOT
HETATM    1  C   UNL     1      -9.741  15.080  67.874  1.00  0.00    -0.212 C  
HETATM    2  N   UNL     1      -9.872  13.708  67.338  1.00  0.00    -0.231 NA 
ENDROOT
BRANCH   2   3
HETATM    3  C   UNL     1      -9.813  12.655  68.394  1.00  0.00    -0.200 C  
HETATM    4  C   UNL     1      -8.602  11.745  68.241  1.00  0.00    -0.162 C  
HETATM    5  C   UNL     1     -11.106  11.900  68.665  1.00  0.00    -0.295 C  
HETATM    6  C   UNL     1      -8.841  10.525  67.371  1.00  0.00    -0.132 C  
HETATM    7  N   UNL     1     -10.024   9.765  67.776  1.00  0.00    -0.160 NA 
HETATM    8  C   UNL     1     -11.243  10.468  68.149  1.00  0.00    -0.293 C  
BRANCH   7   9
HETATM    9  C   UNL     1      -9.919   8.392  67.783  1.00  0.00    -0.186 A  
HETATM   10  C   UNL     1      -9.931   6.335  67.092  1.00  0.00    -0.151 A  
HETATM   11  N   UNL     1     -10.317   7.615  66.790  1.00  0.00    -0.297 NA 
HETATM   12  C   UNL     1      -9.338   6.284  68.342  1.00  0.00    -0.113 A  
HETATM   13  N   UNL     1      -9.400   7.592  68.801  1.00  0.00    -0.149 NA 
HETATM   14  C   UNL     1      -8.827   5.097  68.893  1.00  0.00    -0.106 A  
HETATM   15  C   UNL     1      -8.921   3.938  68.117  1.00  0.00    -0.158 A  
HETATM   16  C   UNL     1      -9.521   3.965  66.858  1.00  0.00    -0.225 A  
HETATM   17  C   UNL     1     -10.040   5.158  66.336  1.00  0.00    -0.268 A  
BRANCH  13  18
HETATM   18  C   UNL     1      -9.069   7.936  70.177  1.00  0.00    -0.152 C  
BRANCH  18  19
HETATM   19  C   UNL     1      -9.847   7.140  71.206  1.00  0.00    -0.178 A  
HETATM   20  C   UNL     1      -9.138   6.291  72.071  1.00  0.00    -0.142 A  
HETATM   21  C   UNL     1      -9.820   5.391  72.888  1.00  0.00    -0.180 A  
HETATM   22  C   UNL     1     -11.209   5.360  72.867  1.00  0.00    -0.314 A  
HETATM   23  F   UNL     1     -11.860   4.435  73.584  1.00  0.00    -0.308 F  
HETATM   24  C   UNL     1     -11.930   6.262  72.100  1.00  0.00    -0.338 A  
HETATM   25  C   UNL     1     -11.251   7.169  71.289  1.00  0.00    -0.287 A  
ENDBRANCH  18  19
ENDBRANCH  13  18
ENDBRANCH   7   9
ENDBRANCH   2   3
BRANCH   2  26
HETATM   26  C   UNL     1     -10.649  13.598  66.201  1.00  0.00    -0.291 C  
HETATM   27  C   UNL     1     -12.487  14.082  64.917  1.00  0.00    -0.396 C  
HETATM   28  H   UNL     1      -9.300  12.311  65.346  1.00  0.00     0.000 HD 
HETATM   29  C   UNL     1     -10.814  12.642  64.003  1.00  0.00    -0.415 C  
HETATM   30  N   UNL     1     -11.778  14.245  66.076  1.00  0.00    -0.368 NA 
HETATM   31  O   UNL     1     -10.365  11.953  63.094  1.00  0.00    -0.402 OA 
HETATM   32  N   UNL     1     -10.178  12.807  65.196  1.00  0.00    -0.292 N  
HETATM   33  C   UNL     1     -12.095  13.347  63.878  1.00  0.00    -0.514 C  
ENDBRANCH   2  26
TORSDOF 5
ENDMDL
MODEL       87
REMARK 921   NORMALIZED FREE ENERGY PREDICTED BY IDOCK:   -5.92 KCAL/MOL
REMARK 922        TOTAL FREE ENERGY PREDICTED BY IDOCK:   -9.06 KCAL/MOL
REMARK 923 INTER-LIGAND FREE ENERGY PREDICTED BY IDOCK:   -8.26 KCAL/MOL
REMARK 924 INTRA-LIGAND FREE ENERGY PREDICTED BY IDOCK:   -0.80 KCAL/MOL
REMARK 927      BINDING AFFINITY PREDICTED BY RF-SCORE:    0.00 PKD
ROOT
HETATM    1  C   UNL     1     -13.014  11.551  63.916  1.00  0.00     0.397 C  
HETATM    2  N   UNL     1     -11.570  11.656  64.216  1.00  0.00    -0.274 NA 
ENDROOT
BRANCH   2   3
HETATM    3  C   UNL     1     -10.972  12.953  63.784  1.00  0.00    -0.352 C  
HETATM    4  C   UNL     1      -9.727  13.315  64.582  1.00  0.00     0.176 C  
HETATM    5  C   UNL     1     -11.937  14.116  63.610  1.00  0.00    -0.008 C  
HETATM    6  C   UNL     1     -10.000  14.130  65.833  1.00  0.00    -0.311 C  
HETATM    7  N   UNL     1     -10.819  15.313  65.569  1.00  0.00    -0.352 NA 
HETATM    8  C   UNL     1     -11.960  15.217  64.670  1.00  0.00    -0.233 C  
BRANCH   7   9
HETATM    9  C   UNL     1     -10.459  16.483  66.200  1.00  0.00    -0.294 A  
HETATM   10  C   UNL     1     -10.130  18.597  66.559  1.00  0.00    -0.394 A  
HETATM   11  N   UNL     1     -10.379  17.655  65.595  1.00  0.00    -0.635 NA 
HETATM   12  C   UNL     1      -9.974  18.000  67.799  1.00  0.00    -0.326 A  
HETATM   13  N   UNL     1     -10.117  16.644  67.542  1.00  0.00    -0.267 NA 
HETATM   14  C   UNL     1      -9.732  18.736  68.971  1.00  0.00    -0.328 A  
HETATM   15  C   UNL     1      -9.667  20.127  68.853  1.00  0.00    -0.123 A  
HETATM   16  C   UNL     1      -9.814  20.749  67.612  1.00  0.00    -0.353 A  
HETATM   17  C   UNL     1     -10.037  19.993  66.454  1.00  0.00    -0.609 A  
BRANCH  13  18
HETATM   18  C   UNL     1      -9.815  15.639  68.554  1.00  0.00    -0.205 C  
BRANCH  18  19
HETATM   19  C   UNL     1     -11.021  15.213  69.365  1.00  0.00    -0.268 A  
HETATM   20  C   UNL     1     -11.472  16.060  70.390  1.00  0.00    -0.392 A  
HETATM   21  C   UNL     1     -12.441  15.621  71.291  1.00  0.00    -0.503 A  
HETATM   22  C   UNL     1     -12.985  14.350  71.150  1.00  0.00    -0.349 A  
HETATM   23  F   UNL     1     -13.848  13.896  72.067  1.00  0.00    -0.429 F  
HETATM   24  C   UNL     1     -12.633  13.539  70.082  1.00  0.00    -0.178 A  
HETATM   25  C   UNL     1     -11.670  13.979  69.175  1.00  0.00    -0.375 A  
ENDBRANCH  18  19
ENDBRANCH  13  18
ENDBRANCH   7   9
ENDBRANCH   2   3
BRANCH   2  26
HETATM   26  C   UNL     1     -11.157  10.970  65.342  1.00  0.00     0.071 C  
HETATM   27  C   UNL     1     -11.081  10.593  67.603  1.00  0.00    -0.319 C  
HETATM   28  H   UNL     1     -10.080   9.649  64.199  1.00  0.00     0.000 HD 
HETATM   29  C   UNL     1      -9.915   9.084  66.164  1.00  0.00    -0.241 C  
HETATM   30  N   UNL     1     -11.534  11.327  66.541  1.00  0.00    -0.308 NA 
HETATM   31  O   UNL     1      -9.225   8.088  65.978  1.00  0.00    -0.177 OA 
HETATM   32  N   UNL     1     -10.360   9.881  65.152  1.00  0.00     0.008 N  
HETATM   33  C   UNL     1     -10.317   9.506  67.510  1.00  0.00    -0.306 C  
ENDBRANCH   2  26
TORSDOF 5
ENDMDL
MODEL       88
REMARK 921   NORMALIZED FREE ENERGY PREDICTED BY IDOCK:   -5.92 KCAL/MOL
REMARK 922        TOTAL FREE ENERGY PREDICTED BY IDOCK:   -9.06 KCAL/MOL
REMARK 923 INTER-LIGAND FREE ENERGY PREDICTED BY IDOCK:   -7.41 KCAL/MOL
REMARK 924 INTRA-LIGAND FREE ENERGY PREDICTED BY IDOCK:   -1.65 KCAL/MOL
REMARK 927      BINDING AFFINITY PREDICTED BY RF-SCORE:    0.00 PKD
ROOT
HETATM    1  C   UNL     1     -11.673  14.570  66.621  1.00  0.00    -0.371 C  
HETATM    2  N   UNL     1     -11.374  13.170  66.991  1.00  0.00    -0.298 NA 
ENDROOT
BRANCH   2   3
HETATM    3  C   UNL     1     -10.147  12.635  66.332  1.00  0.00    -0.253 C  
HETATM    4  C   UNL     1     -10.468  11.726  65.154  1.00  0.00    -0.330 C  
HETATM    5  C   UNL     1      -9.077  12.071  67.256  1.00  0.00    -0.178 C  
HETATM    6  C   UNL     1     -10.625  10.261  65.517  1.00  0.00     0.045 C  
HETATM    7  N   UNL     1      -9.492   9.746  66.287  1.00  0.00    -0.181 NA 
HETATM    8  C   UNL     1      -8.911  10.555  67.348  1.00  0.00    -0.132 C  
BRANCH   7   9
HETATM    9  C   UNL     1      -9.025   8.492  65.959  1.00  0.00    -0.184 A  
HETATM   10  C   UNL     1      -7.747   6.926  65.171  1.00  0.00    -0.109 A  
HETATM   11  N   UNL     1      -8.004   8.272  65.149  1.00  0.00    -0.120 NA 
HETATM   12  C   UNL     1      -8.674   6.263  65.957  1.00  0.00    -0.151 A  
HETATM   13  N   UNL     1      -9.525   7.267  66.397  1.00  0.00    -0.160 NA 
HETATM   14  C   UNL     1      -8.633   4.876  66.173  1.00  0.00    -0.116 A  
HETATM   15  C   UNL     1      -7.592   4.163  65.570  1.00  0.00    -0.085 A  
HETATM   16  C   UNL     1      -6.651   4.810  64.768  1.00  0.00    -0.043 A  
HETATM   17  C   UNL     1      -6.723   6.193  64.551  1.00  0.00    -0.042 A  
BRANCH  13  18
HETATM   18  C   UNL     1     -10.771   6.963  67.089  1.00  0.00    -0.366 C  
BRANCH  18  19
HETATM   19  C   UNL     1     -10.628   6.898  68.596  1.00  0.00    -0.254 A  
HETATM   20  C   UNL     1     -10.547   5.636  69.206  1.00  0.00    -0.359 A  
HETATM   21  C   UNL     1     -10.623   5.519  70.594  1.00  0.00    -0.329 A  
HETATM   22  C   UNL     1     -10.744   6.662  71.374  1.00  0.00    -0.229 A  
HETATM   23  F   UNL     1     -10.907   6.544  72.697  1.00  0.00    -0.222 F  
HETATM   24  C   UNL     1     -10.718   7.924  70.798  1.00  0.00    -0.230 A  
HETATM   25  C   UNL     1     -10.634   8.044  69.412  1.00  0.00    -0.210 A  
ENDBRANCH  18  19
ENDBRANCH  13  18
ENDBRANCH   7   9
ENDBRANCH   2   3
BRANCH   2  26
HETATM   26  C   UNL     1     -11.770  12.806  68.264  1.00  0.00    -0.344 C  
HETATM   27  C   UNL     1     -12.399  11.285  69.862  1.00  0.00    -0.233 C  
HETATM   28  H   UNL     1     -11.687  14.755  68.899  1.00  0.00     0.000 HD 
HETATM   29  C   UNL     1     -12.206  13.580  70.497  1.00  0.00    -0.361 C  
HETATM   30  N   UNL     1     -12.013  11.561  68.578  1.00  0.00    -0.529 NA 
HETATM   31  O   UNL     1     -12.262  14.476  71.332  1.00  0.00    -0.331 OA 
HETATM   32  N   UNL     1     -11.871  13.797  69.194  1.00  0.00    -0.334 N  
HETATM   33  C   UNL     1     -12.505  12.184  70.837  1.00  0.00    -0.374 C  
ENDBRANCH   2  26
TORSDOF 5
ENDMDL
MODEL       89
REMARK 921   NORMALIZED FREE ENERGY PREDICTED BY IDOCK:   -5.89 KCAL/MOL
REMARK 922        TOTAL FREE ENERGY PREDICTED BY IDOCK:   -9.02 KCAL/MOL
REMARK 923 INTER-LIGAND FREE ENERGY PREDICTED BY IDOCK:   -7.67 KCAL/MOL
REMARK 924 INTRA-LIGAND FREE ENERGY PREDICTED BY IDOCK:   -1.35 KCAL/MOL
REMARK 927      BINDING AFFINITY PREDICTED BY RF-SCORE:    0.00 PKD
ROOT
HETATM    1  C   UNL     1     -10.109  11.513  63.245  1.00  0.00    -0.406 C  
HETATM    2  N   UNL     1      -9.977  11.437  64.715  1.00  0.00    -0.253 NA 
ENDROOT
BRANCH   2   3
HETATM    3  C   UNL     1      -8.687  10.832  65.160  1.00  0.00    -0.164 C  
HETATM    4  C   UNL     1      -8.740   9.311  65.194  1.00  0.00    -0.216 C  
HETATM    5  C   UNL     1      -8.047  11.442  66.398  1.00  0.00    -0.106 C  
HETATM    6  C   UNL     1      -9.196   8.729  66.519  1.00  0.00    -0.179 C  
HETATM    7  N   UNL     1      -8.441   9.256  67.658  1.00  0.00    -0.116 NA 
HETATM    8  C   UNL     1      -8.121  10.675  67.718  1.00  0.00    -0.111 C  
BRANCH   7   9
HETATM    9  C   UNL     1      -8.067   8.361  68.634  1.00  0.00    -0.122 A  
HETATM   10  C   UNL     1      -6.822   7.233  70.007  1.00  0.00    -0.055 A  
HETATM   11  N   UNL     1      -6.813   8.031  68.894  1.00  0.00    -0.060 NA 
HETATM   12  C   UNL     1      -8.119   6.987  70.423  1.00  0.00    -0.119 A  
HETATM   13  N   UNL     1      -8.906   7.657  69.497  1.00  0.00    -0.139 NA 
HETATM   14  C   UNL     1      -8.419   6.214  71.557  1.00  0.00    -0.127 A  
HETATM   15  C   UNL     1      -7.343   5.697  72.285  1.00  0.00    -0.095 A  
HETATM   16  C   UNL     1      -6.028   5.926  71.878  1.00  0.00    -0.035 A  
HETATM   17  C   UNL     1      -5.753   6.686  70.733  1.00  0.00    -0.023 A  
BRANCH  13  18
HETATM   18  C   UNL     1     -10.351   7.480  69.452  1.00  0.00    -0.213 C  
BRANCH  18  19
HETATM   19  C   UNL     1     -11.112   8.491  70.286  1.00  0.00    -0.222 A  
HETATM   20  C   UNL     1     -11.982   8.017  71.282  1.00  0.00    -0.321 A  
HETATM   21  C   UNL     1     -12.852   8.893  71.930  1.00  0.00    -0.437 A  
HETATM   22  C   UNL     1     -12.831  10.245  71.610  1.00  0.00    -0.463 A  
HETATM   23  F   UNL     1     -13.727  11.069  72.167  1.00  0.00    -0.421 F  
HETATM   24  C   UNL     1     -11.907  10.749  70.708  1.00  0.00    -0.443 A  
HETATM   25  C   UNL     1     -11.030   9.878  70.065  1.00  0.00    -0.338 A  
ENDBRANCH  18  19
ENDBRANCH  13  18
ENDBRANCH   7   9
ENDBRANCH   2   3
BRANCH   2  26
HETATM   26  C   UNL     1     -10.622  12.441  65.412  1.00  0.00    -0.284 C  
HETATM   27  C   UNL     1     -11.816  13.265  67.188  1.00  0.00    -0.374 C  
HETATM   28  H   UNL     1     -10.158  13.813  63.959  1.00  0.00     0.000 HD 
HETATM   29  C   UNL     1     -11.164  14.780  65.462  1.00  0.00    -0.346 C  
HETATM   30  N   UNL     1     -11.200  12.215  66.563  1.00  0.00    -0.311 NA 
HETATM   31  O   UNL     1     -11.117  15.905  64.975  1.00  0.00    -0.396 OA 
HETATM   32  N   UNL     1     -10.609  13.689  64.866  1.00  0.00    -0.384 N  
HETATM   33  C   UNL     1     -11.836  14.517  66.739  1.00  0.00    -0.390 C  
ENDBRANCH   2  26
TORSDOF 5
ENDMDL
MODEL       90
REMARK 921   NORMALIZED FREE ENERGY PREDICTED BY IDOCK:   -5.86 KCAL/MOL
REMARK 922        TOTAL FREE ENERGY PREDICTED BY IDOCK:   -8.99 KCAL/MOL
REMARK 923 INTER-LIGAND FREE ENERGY PREDICTED BY IDOCK:   -8.97 KCAL/MOL
REMARK 924 INTRA-LIGAND FREE ENERGY PREDICTED BY IDOCK:   -0.02 KCAL/MOL
REMARK 927      BINDING AFFINITY PREDICTED BY RF-SCORE:    0.00 PKD
ROOT
HETATM    1  C   UNL     1     -10.736  17.546  67.599  1.00  0.00    -0.306 C  
HETATM    2  N   UNL     1      -9.549  17.444  68.474  1.00  0.00    -0.288 NA 
ENDROOT
BRANCH   2   3
HETATM    3  C   UNL     1      -9.422  16.116  69.143  1.00  0.00    -0.251 C  
HETATM    4  C   UNL     1      -8.297  15.275  68.558  1.00  0.00    -0.152 C  
HETATM    5  C   UNL     1     -10.714  15.339  69.347  1.00  0.00    -0.266 C  
HETATM    6  C   UNL     1      -8.714  14.386  67.401  1.00  0.00    -0.204 C  
HETATM    7  N   UNL     1      -9.881  13.560  67.715  1.00  0.00    -0.227 NA 
HETATM    8  C   UNL     1     -11.000  14.138  68.445  1.00  0.00    -0.254 C  
BRANCH   7   9
HETATM    9  C   UNL     1      -9.859  12.250  67.292  1.00  0.00    -0.205 A  
HETATM   10  C   UNL     1      -9.210  10.428  66.309  1.00  0.00    -0.166 A  
HETATM   11  N   UNL     1      -9.039  11.787  66.365  1.00  0.00    -0.212 NA 
HETATM   12  C   UNL     1     -10.217  10.025  67.170  1.00  0.00    -0.228 A  
HETATM   13  N   UNL     1     -10.669  11.207  67.740  1.00  0.00    -0.207 NA 
HETATM   14  C   UNL     1     -10.585   8.680  67.331  1.00  0.00    -0.298 A  
HETATM   15  C   UNL     1      -9.879   7.728  66.588  1.00  0.00    -0.295 A  
HETATM   16  C   UNL     1      -8.867   8.113  65.709  1.00  0.00    -0.173 A  
HETATM   17  C   UNL     1      -8.528   9.463  65.552  1.00  0.00    -0.153 A  
BRANCH  13  18
HETATM   18  C   UNL     1     -11.875  11.250  68.556  1.00  0.00    -0.285 C  
BRANCH  18  19
HETATM   19  C   UNL     1     -11.728  10.550  69.892  1.00  0.00    -0.372 A  
HETATM   20  C   UNL     1     -10.470  10.032  70.241  1.00  0.00    -0.331 A  
HETATM   21  C   UNL     1     -10.334   9.206  71.356  1.00  0.00    -0.409 A  
HETATM   22  C   UNL     1     -11.445   8.924  72.142  1.00  0.00    -0.317 A  
HETATM   23  F   UNL     1     -11.332   8.061  73.159  1.00  0.00    -0.455 F  
HETATM   24  C   UNL     1     -12.673   9.511  71.877  1.00  0.00    -0.496 A  
HETATM   25  C   UNL     1     -12.810  10.344  70.767  1.00  0.00    -0.450 A  
ENDBRANCH  18  19
ENDBRANCH  13  18
ENDBRANCH   7   9
ENDBRANCH   2   3
BRANCH   2  26
HETATM   26  C   UNL     1      -8.461  18.195  68.071  1.00  0.00    -0.262 C  
HETATM   27  C   UNL     1      -6.620  19.509  68.452  1.00  0.00    -0.260 C  
HETATM   28  H   UNL     1      -8.868  17.813  66.096  1.00  0.00     0.000 HD 
HETATM   29  C   UNL     1      -7.160  18.943  66.195  1.00  0.00    -0.256 C  
HETATM   30  N   UNL     1      -7.676  18.784  68.934  1.00  0.00    -0.298 NA 
HETATM   31  O   UNL     1      -6.935  18.983  64.990  1.00  0.00    -0.451 OA 
HETATM   32  N   UNL     1      -8.219  18.277  66.732  1.00  0.00    -0.245 N  
HETATM   33  C   UNL     1      -6.298  19.627  67.165  1.00  0.00    -0.203 C  
ENDBRANCH   2  26
TORSDOF 5
ENDMDL
MODEL       91
REMARK 921   NORMALIZED FREE ENERGY PREDICTED BY IDOCK:   -5.84 KCAL/MOL
REMARK 922        TOTAL FREE ENERGY PREDICTED BY IDOCK:   -8.96 KCAL/MOL
REMARK 923 INTER-LIGAND FREE ENERGY PREDICTED BY IDOCK:   -7.07 KCAL/MOL
REMARK 924 INTRA-LIGAND FREE ENERGY PREDICTED BY IDOCK:   -1.89 KCAL/MOL
REMARK 927      BINDING AFFINITY PREDICTED BY RF-SCORE:    0.00 PKD
ROOT
HETATM    1  C   UNL     1     -11.077   6.744  72.921  1.00  0.00    -0.243 C  
HETATM    2  N   UNL     1     -10.749   7.346  71.611  1.00  0.00    -0.214 NA 
ENDROOT
BRANCH   2   3
HETATM    3  C   UNL     1     -10.373   8.787  71.704  1.00  0.00    -0.321 C  
HETATM    4  C   UNL     1     -11.553   9.714  71.447  1.00  0.00    -0.472 C  
HETATM    5  C   UNL     1      -9.108   9.202  70.967  1.00  0.00    -0.305 C  
HETATM    6  C   UNL     1     -11.742  10.101  69.992  1.00  0.00    -0.223 C  
HETATM    7  N   UNL     1     -10.519  10.625  69.384  1.00  0.00    -0.228 NA 
HETATM    8  C   UNL     1      -9.241   9.983  69.659  1.00  0.00    -0.215 C  
BRANCH   7   9
HETATM    9  C   UNL     1     -10.643  11.722  68.562  1.00  0.00    -0.217 A  
HETATM   10  C   UNL     1     -10.743  13.789  67.909  1.00  0.00    -0.247 A  
HETATM   11  N   UNL     1     -10.791  12.961  68.999  1.00  0.00    -0.192 NA 
HETATM   12  C   UNL     1     -10.637  13.054  66.740  1.00  0.00    -0.262 A  
HETATM   13  N   UNL     1     -10.645  11.734  67.167  1.00  0.00    -0.223 NA 
HETATM   14  C   UNL     1     -10.545  13.652  65.472  1.00  0.00    -0.300 A  
HETATM   15  C   UNL     1     -10.548  15.049  65.420  1.00  0.00    -0.398 A  
HETATM   16  C   UNL     1     -10.662  15.809  66.585  1.00  0.00    -0.287 A  
HETATM   17  C   UNL     1     -10.770  15.190  67.837  1.00  0.00    -0.268 A  
BRANCH  13  18
HETATM   18  C   UNL     1     -10.761  10.627  66.227  1.00  0.00    -0.102 C  
BRANCH  18  19
HETATM   19  C   UNL     1      -9.469   9.859  66.032  1.00  0.00    -0.258 A  
HETATM   20  C   UNL     1      -8.355  10.543  65.518  1.00  0.00    -0.170 A  
HETATM   21  C   UNL     1      -7.216   9.840  65.130  1.00  0.00    -0.122 A  
HETATM   22  C   UNL     1      -7.174   8.459  65.285  1.00  0.00    -0.082 A  
HETATM   23  F   UNL     1      -6.116   7.776  64.829  1.00  0.00    -0.040 F  
HETATM   24  C   UNL     1      -8.220   7.778  65.888  1.00  0.00    -0.128 A  
HETATM   25  C   UNL     1      -9.357   8.479  66.285  1.00  0.00    -0.287 A  
ENDBRANCH  18  19
ENDBRANCH  13  18
ENDBRANCH   7   9
ENDBRANCH   2   3
BRANCH   2  26
HETATM   26  C   UNL     1     -10.196   6.476  70.691  1.00  0.00    -0.187 C  
HETATM   27  C   UNL     1      -8.704   4.864  70.031  1.00  0.00    -0.094 C  
HETATM   28  H   UNL     1     -11.529   7.075  69.252  1.00  0.00     0.000 HD 
HETATM   29  C   UNL     1     -10.346   5.599  68.460  1.00  0.00    -0.199 C  
HETATM   30  N   UNL     1      -9.192   5.697  71.000  1.00  0.00    -0.151 NA 
HETATM   31  O   UNL     1     -10.880   5.552  67.357  1.00  0.00    -0.205 OA 
HETATM   32  N   UNL     1     -10.757   6.439  69.450  1.00  0.00    -0.257 N  
HETATM   33  C   UNL     1      -9.201   4.748  68.801  1.00  0.00    -0.170 C  
ENDBRANCH   2  26
TORSDOF 5
ENDMDL
MODEL       92
REMARK 921   NORMALIZED FREE ENERGY PREDICTED BY IDOCK:   -5.83 KCAL/MOL
REMARK 922        TOTAL FREE ENERGY PREDICTED BY IDOCK:   -8.95 KCAL/MOL
REMARK 923 INTER-LIGAND FREE ENERGY PREDICTED BY IDOCK:   -8.37 KCAL/MOL
REMARK 924 INTRA-LIGAND FREE ENERGY PREDICTED BY IDOCK:   -0.58 KCAL/MOL
REMARK 927      BINDING AFFINITY PREDICTED BY RF-SCORE:    0.00 PKD
ROOT
HETATM    1  C   UNL     1      -6.530   7.322  70.631  1.00  0.00    -0.043 C  
HETATM    2  N   UNL     1      -7.454   8.447  70.375  1.00  0.00    -0.064 NA 
ENDROOT
BRANCH   2   3
HETATM    3  C   UNL     1      -7.038   9.301  69.224  1.00  0.00    -0.057 C  
HETATM    4  C   UNL     1      -7.522  10.738  69.361  1.00  0.00    -0.124 C  
HETATM    5  C   UNL     1      -7.261   8.718  67.836  1.00  0.00    -0.084 C  
HETATM    6  C   UNL     1      -8.888  11.000  68.754  1.00  0.00    -0.147 C  
HETATM    7  N   UNL     1      -8.989  10.539  67.369  1.00  0.00    -0.135 NA 
HETATM    8  C   UNL     1      -8.414   9.256  66.989  1.00  0.00    -0.124 C  
BRANCH   7   9
HETATM    9  C   UNL     1      -9.639  11.362  66.476  1.00  0.00    -0.198 A  
HETATM   10  C   UNL     1     -10.864  12.007  64.806  1.00  0.00    -0.306 A  
HETATM   11  N   UNL     1     -10.204  10.941  65.358  1.00  0.00    -0.269 NA 
HETATM   12  C   UNL     1     -10.652  13.154  65.552  1.00  0.00    -0.288 A  
HETATM   13  N   UNL     1      -9.812  12.742  66.576  1.00  0.00    -0.252 NA 
HETATM   14  C   UNL     1     -11.231  14.391  65.224  1.00  0.00    -0.345 A  
HETATM   15  C   UNL     1     -12.063  14.432  64.101  1.00  0.00    -0.405 A  
HETATM   16  C   UNL     1     -12.285  13.290  63.331  1.00  0.00    -0.476 A  
HETATM   17  C   UNL     1     -11.682  12.071  63.668  1.00  0.00    -0.587 A  
BRANCH  13  18
HETATM   18  C   UNL     1      -9.175  13.697  67.473  1.00  0.00    -0.218 C  
BRANCH  18  19
HETATM   19  C   UNL     1     -10.108  14.252  68.530  1.00  0.00    -0.246 A  
HETATM   20  C   UNL     1     -11.189  13.460  68.950  1.00  0.00    -0.320 A  
HETATM   21  C   UNL     1     -12.185  14.002  69.762  1.00  0.00    -0.396 A  
HETATM   22  C   UNL     1     -12.087  15.323  70.181  1.00  0.00    -0.358 A  
HETATM   23  F   UNL     1     -13.087  15.868  70.884  1.00  0.00    -0.511 F  
HETATM   24  C   UNL     1     -10.975  16.089  69.866  1.00  0.00    -0.353 A  
HETATM   25  C   UNL     1      -9.973  15.547  69.063  1.00  0.00    -0.233 A  
ENDBRANCH  18  19
ENDBRANCH  13  18
ENDBRANCH   7   9
ENDBRANCH   2   3
BRANCH   2  26
HETATM   26  C   UNL     1      -8.776   8.201  70.697  1.00  0.00    -0.135 C  
HETATM   27  C   UNL     1     -10.707   8.585  71.873  1.00  0.00    -0.324 C  
HETATM   28  H   UNL     1      -8.887   6.705  69.298  1.00  0.00     0.000 HD 
HETATM   29  C   UNL     1     -10.731   6.907  70.173  1.00  0.00    -0.237 C  
HETATM   30  N   UNL     1      -9.398   8.891  71.616  1.00  0.00    -0.276 NA 
HETATM   31  O   UNL     1     -11.307   6.049  69.513  1.00  0.00    -0.405 OA 
HETATM   32  N   UNL     1      -9.419   7.226  69.995  1.00  0.00    -0.161 N  
HETATM   33  C   UNL     1     -11.417   7.664  71.226  1.00  0.00    -0.293 C  
ENDBRANCH   2  26
TORSDOF 5
ENDMDL
MODEL       93
REMARK 921   NORMALIZED FREE ENERGY PREDICTED BY IDOCK:   -5.82 KCAL/MOL
REMARK 922        TOTAL FREE ENERGY PREDICTED BY IDOCK:   -8.93 KCAL/MOL
REMARK 923 INTER-LIGAND FREE ENERGY PREDICTED BY IDOCK:   -7.67 KCAL/MOL
REMARK 924 INTRA-LIGAND FREE ENERGY PREDICTED BY IDOCK:   -1.25 KCAL/MOL
REMARK 927      BINDING AFFINITY PREDICTED BY RF-SCORE:    0.00 PKD
ROOT
HETATM    1  C   UNL     1     -11.601  11.330  68.523  1.00  0.00    -0.315 C  
HETATM    2  N   UNL     1     -10.579  12.061  67.745  1.00  0.00    -0.202 NA 
ENDROOT
BRANCH   2   3
HETATM    3  C   UNL     1      -9.304  11.301  67.586  1.00  0.00    -0.160 C  
HETATM    4  C   UNL     1      -9.183  10.648  66.217  1.00  0.00    -0.193 C  
HETATM    5  C   UNL     1      -8.924  10.375  68.732  1.00  0.00    -0.157 C  
HETATM    6  C   UNL     1      -9.754   9.244  66.139  1.00  0.00    -0.279 C  
HETATM    7  N   UNL     1      -9.238   8.365  67.189  1.00  0.00    -0.139 NA 
HETATM    8  C   UNL     1      -9.098   8.868  68.548  1.00  0.00    -0.137 C  
BRANCH   7   9
HETATM    9  C   UNL     1      -8.905   7.079  66.828  1.00  0.00    -0.126 A  
HETATM   10  C   UNL     1      -7.775   5.401  66.042  1.00  0.00    -0.091 A  
HETATM   11  N   UNL     1      -7.865   6.768  66.073  1.00  0.00    -0.099 NA 
HETATM   12  C   UNL     1      -8.828   4.826  66.734  1.00  0.00    -0.110 A  
HETATM   13  N   UNL     1      -9.579   5.908  67.171  1.00  0.00    -0.122 NA 
HETATM   14  C   UNL     1      -8.970   3.436  66.881  1.00  0.00    -0.170 A  
HETATM   15  C   UNL     1      -7.985   2.626  66.309  1.00  0.00    -0.082 A  
HETATM   16  C   UNL     1      -6.920   3.185  65.601  1.00  0.00    -0.053 A  
HETATM   17  C   UNL     1      -6.808   4.574  65.452  1.00  0.00    -0.057 A  
BRANCH  13  18
HETATM   18  C   UNL     1     -10.897   5.732  67.766  1.00  0.00    -0.167 C  
BRANCH  18  19
HETATM   19  C   UNL     1     -10.891   5.785  69.280  1.00  0.00    -0.374 A  
HETATM   20  C   UNL     1     -10.061   4.892  69.978  1.00  0.00    -0.337 A  
HETATM   21  C   UNL     1     -10.172   4.762  71.361  1.00  0.00    -0.237 A  
HETATM   22  C   UNL     1     -11.087   5.546  72.054  1.00  0.00    -0.184 A  
HETATM   23  F   UNL     1     -11.257   5.357  73.368  1.00  0.00    -0.307 F  
HETATM   24  C   UNL     1     -11.840   6.509  71.399  1.00  0.00    -0.384 A  
HETATM   25  C   UNL     1     -11.724   6.647  70.017  1.00  0.00    -0.378 A  
ENDBRANCH  18  19
ENDBRANCH  13  18
ENDBRANCH   7   9
ENDBRANCH   2   3
BRANCH   2  26
HETATM   26  C   UNL     1     -11.079  12.911  66.777  1.00  0.00    -0.281 C  
HETATM   27  C   UNL     1     -12.642  13.567  65.232  1.00  0.00    -0.468 C  
HETATM   28  H   UNL     1      -9.464  14.161  66.971  1.00  0.00     0.000 HD 
HETATM   29  C   UNL     1     -10.745  14.974  65.592  1.00  0.00    -0.354 C  
HETATM   30  N   UNL     1     -12.217  12.675  66.178  1.00  0.00    -0.586 NA 
HETATM   31  O   UNL     1     -10.098  15.990  65.364  1.00  0.00    -0.442 OA 
HETATM   32  N   UNL     1     -10.352  14.027  66.488  1.00  0.00    -0.280 N  
HETATM   33  C   UNL     1     -12.008  14.690  64.901  1.00  0.00    -0.402 C  
ENDBRANCH   2  26
TORSDOF 5
ENDMDL
MODEL       94
REMARK 921   NORMALIZED FREE ENERGY PREDICTED BY IDOCK:   -5.81 KCAL/MOL
REMARK 922        TOTAL FREE ENERGY PREDICTED BY IDOCK:   -8.92 KCAL/MOL
REMARK 923 INTER-LIGAND FREE ENERGY PREDICTED BY IDOCK:   -7.44 KCAL/MOL
REMARK 924 INTRA-LIGAND FREE ENERGY PREDICTED BY IDOCK:   -1.48 KCAL/MOL
REMARK 927      BINDING AFFINITY PREDICTED BY RF-SCORE:    0.00 PKD
ROOT
HETATM    1  C   UNL     1      -9.149   6.939  68.607  1.00  0.00    -0.131 C  
HETATM    2  N   UNL     1      -9.379   7.875  67.486  1.00  0.00    -0.141 NA 
ENDROOT
BRANCH   2   3
HETATM    3  C   UNL     1     -10.241   9.036  67.855  1.00  0.00    -0.221 C  
HETATM    4  C   UNL     1     -10.571   9.918  66.660  1.00  0.00    -0.186 C  
HETATM    5  C   UNL     1      -9.821   9.822  69.088  1.00  0.00    -0.192 C  
HETATM    6  C   UNL     1      -9.578  11.038  66.413  1.00  0.00    -0.198 C  
HETATM    7  N   UNL     1      -9.325  11.843  67.609  1.00  0.00    -0.178 NA 
HETATM    8  C   UNL     1      -9.166  11.190  68.900  1.00  0.00    -0.096 C  
BRANCH   7   9
HETATM    9  C   UNL     1      -9.250  13.208  67.446  1.00  0.00    -0.213 A  
HETATM   10  C   UNL     1      -8.435  15.179  67.047  1.00  0.00    -0.229 A  
HETATM   11  N   UNL     1      -8.116  13.877  67.330  1.00  0.00    -0.180 NA 
HETATM   12  C   UNL     1      -9.809  15.360  67.055  1.00  0.00    -0.232 A  
HETATM   13  N   UNL     1     -10.313  14.108  67.380  1.00  0.00    -0.255 NA 
HETATM   14  C   UNL     1     -10.414  16.595  66.773  1.00  0.00    -0.261 A  
HETATM   15  C   UNL     1      -9.571  17.666  66.459  1.00  0.00    -0.301 A  
HETATM   16  C   UNL     1      -8.185  17.508  66.452  1.00  0.00    -0.305 A  
HETATM   17  C   UNL     1      -7.603  16.270  66.754  1.00  0.00    -0.285 A  
BRANCH  13  18
HETATM   18  C   UNL     1     -11.721  13.911  67.699  1.00  0.00    -0.368 C  
BRANCH  18  19
HETATM   19  C   UNL     1     -12.019  13.962  69.184  1.00  0.00    -0.404 A  
HETATM   20  C   UNL     1     -12.157  12.750  69.880  1.00  0.00    -0.329 A  
HETATM   21  C   UNL     1     -12.631  12.742  71.191  1.00  0.00    -0.365 A  
HETATM   22  C   UNL     1     -12.936  13.944  71.819  1.00  0.00    -0.358 A  
HETATM   23  F   UNL     1     -13.476  13.931  73.044  1.00  0.00    -0.581 F  
HETATM   24  C   UNL     1     -12.706  15.156  71.187  1.00  0.00    -0.452 A  
HETATM   25  C   UNL     1     -12.224  15.168  69.879  1.00  0.00    -0.353 A  
ENDBRANCH  18  19
ENDBRANCH  13  18
ENDBRANCH   7   9
ENDBRANCH   2   3
BRANCH   2  26
HETATM   26  C   UNL     1      -8.343   7.960  66.575  1.00  0.00    -0.127 C  
HETATM   27  C   UNL     1      -6.219   8.540  65.932  1.00  0.00    -0.052 C  
HETATM   28  H   UNL     1      -9.473   7.040  65.131  1.00  0.00     0.000 HD 
HETATM   29  C   UNL     1      -7.611   7.407  64.355  1.00  0.00    -0.115 C  
HETATM   30  N   UNL     1      -7.193   8.496  66.891  1.00  0.00    -0.075 NA 
HETATM   31  O   UNL     1      -7.803   6.902  63.254  1.00  0.00    -0.113 OA 
HETATM   32  N   UNL     1      -8.555   7.435  65.336  1.00  0.00    -0.092 N  
HETATM   33  C   UNL     1      -6.332   8.036  64.705  1.00  0.00    -0.052 C  
ENDBRANCH   2  26
TORSDOF 5
ENDMDL
MODEL       95
REMARK 921   NORMALIZED FREE ENERGY PREDICTED BY IDOCK:   -5.81 KCAL/MOL
REMARK 922        TOTAL FREE ENERGY PREDICTED BY IDOCK:   -8.91 KCAL/MOL
REMARK 923 INTER-LIGAND FREE ENERGY PREDICTED BY IDOCK:   -7.42 KCAL/MOL
REMARK 924 INTRA-LIGAND FREE ENERGY PREDICTED BY IDOCK:   -1.50 KCAL/MOL
REMARK 927      BINDING AFFINITY PREDICTED BY RF-SCORE:    0.00 PKD
ROOT
HETATM    1  C   UNL     1     -11.811  14.458  67.067  1.00  0.00    -0.412 C  
HETATM    2  N   UNL     1     -11.468  13.151  67.668  1.00  0.00    -0.304 NA 
ENDROOT
BRANCH   2   3
HETATM    3  C   UNL     1     -10.189  12.583  67.151  1.00  0.00    -0.217 C  
HETATM    4  C   UNL     1     -10.412  11.439  66.173  1.00  0.00    -0.303 C  
HETATM    5  C   UNL     1      -9.114  12.290  68.188  1.00  0.00    -0.196 C  
HETATM    6  C   UNL     1     -10.485  10.067  66.819  1.00  0.00    -0.198 C  
HETATM    7  N   UNL     1      -9.346   9.795  67.697  1.00  0.00    -0.140 NA 
HETATM    8  C   UNL     1      -8.853  10.837  68.586  1.00  0.00    -0.152 C  
BRANCH   7   9
HETATM    9  C   UNL     1      -8.789   8.537  67.635  1.00  0.00    -0.136 A  
HETATM   10  C   UNL     1      -7.343   6.954  67.303  1.00  0.00    -0.091 A  
HETATM   11  N   UNL     1      -7.637   8.267  67.046  1.00  0.00    -0.091 NA 
HETATM   12  C   UNL     1      -8.370   6.352  68.012  1.00  0.00    -0.115 A  
HETATM   13  N   UNL     1      -9.317   7.357  68.156  1.00  0.00    -0.136 NA 
HETATM   14  C   UNL     1      -8.321   5.012  68.430  1.00  0.00    -0.088 A  
HETATM   15  C   UNL     1      -7.169   4.284  68.116  1.00  0.00    -0.060 A  
HETATM   16  C   UNL     1      -6.126   4.868  67.397  1.00  0.00    -0.031 A  
HETATM   17  C   UNL     1      -6.205   6.202  66.975  1.00  0.00    -0.029 A  
BRANCH  13  18
HETATM   18  C   UNL     1     -10.653   7.080  68.668  1.00  0.00    -0.210 C  
BRANCH  18  19
HETATM   19  C   UNL     1     -10.751   7.155  70.178  1.00  0.00    -0.260 A  
HETATM   20  C   UNL     1     -10.037   8.164  70.845  1.00  0.00    -0.215 A  
HETATM   21  C   UNL     1      -9.931   8.148  72.236  1.00  0.00    -0.332 A  
HETATM   22  C   UNL     1     -10.564   7.147  72.962  1.00  0.00    -0.308 A  
HETATM   23  F   UNL     1     -10.388   7.081  74.288  1.00  0.00    -0.374 F  
HETATM   24  C   UNL     1     -11.362   6.205  72.331  1.00  0.00    -0.340 A  
HETATM   25  C   UNL     1     -11.477   6.223  70.942  1.00  0.00    -0.377 A  
ENDBRANCH  18  19
ENDBRANCH  13  18
ENDBRANCH   7   9
ENDBRANCH   2   3
BRANCH   2  26
HETATM   26  C   UNL     1     -11.907  12.972  68.966  1.00  0.00    -0.316 C  
HETATM   27  C   UNL     1     -12.553  13.721  71.035  1.00  0.00    -0.371 C  
HETATM   28  H   UNL     1     -11.951  10.936  68.721  1.00  0.00     0.000 HD 
HETATM   29  C   UNL     1     -12.620  11.372  70.610  1.00  0.00    -0.271 C  
HETATM   30  N   UNL     1     -12.117  13.985  69.765  1.00  0.00    -0.332 NA 
HETATM   31  O   UNL     1     -12.859  10.220  70.956  1.00  0.00    -0.352 OA 
HETATM   32  N   UNL     1     -12.143  11.694  69.375  1.00  0.00    -0.293 N  
HETATM   33  C   UNL     1     -12.826  12.510  71.513  1.00  0.00    -0.367 C  
ENDBRANCH   2  26
TORSDOF 5
ENDMDL
MODEL       96
REMARK 921   NORMALIZED FREE ENERGY PREDICTED BY IDOCK:   -5.74 KCAL/MOL
REMARK 922        TOTAL FREE ENERGY PREDICTED BY IDOCK:   -8.84 KCAL/MOL
REMARK 923 INTER-LIGAND FREE ENERGY PREDICTED BY IDOCK:   -8.29 KCAL/MOL
REMARK 924 INTRA-LIGAND FREE ENERGY PREDICTED BY IDOCK:   -0.55 KCAL/MOL
REMARK 927      BINDING AFFINITY PREDICTED BY RF-SCORE:    0.00 PKD
ROOT
HETATM    1  C   UNL     1      -6.688  16.630  68.582  1.00  0.00    -0.163 C  
HETATM    2  N   UNL     1      -8.107  16.353  68.274  1.00  0.00    -0.166 NA 
ENDROOT
BRANCH   2   3
HETATM    3  C   UNL     1      -8.633  15.139  68.965  1.00  0.00    -0.219 C  
HETATM    4  C   UNL     1      -7.667  13.965  68.893  1.00  0.00    -0.041 C  
HETATM    5  C   UNL     1     -10.072  14.756  68.654  1.00  0.00    -0.238 C  
HETATM    6  C   UNL     1      -7.857  13.069  67.684  1.00  0.00    -0.166 C  
HETATM    7  N   UNL     1      -9.242  12.622  67.524  1.00  0.00    -0.183 NA 
HETATM    8  C   UNL     1     -10.334  13.562  67.737  1.00  0.00    -0.241 C  
BRANCH   7   9
HETATM    9  C   UNL     1      -9.444  11.307  67.171  1.00  0.00    -0.170 A  
HETATM   10  C   UNL     1      -9.228   9.407  66.145  1.00  0.00    -0.190 A  
HETATM   11  N   UNL     1      -8.928  10.743  66.092  1.00  0.00    -0.171 NA 
HETATM   12  C   UNL     1     -10.018   9.126  67.247  1.00  0.00    -0.211 A  
HETATM   13  N   UNL     1     -10.205  10.359  67.854  1.00  0.00    -0.170 NA 
HETATM   14  C   UNL     1     -10.453   7.827  67.557  1.00  0.00    -0.338 A  
HETATM   15  C   UNL     1     -10.044   6.793  66.709  1.00  0.00    -0.250 A  
HETATM   16  C   UNL     1      -9.255   7.056  65.589  1.00  0.00     0.184 A  
HETATM   17  C   UNL     1      -8.847   8.362  65.289  1.00  0.00    -0.113 A  
BRANCH  13  18
HETATM   18  C   UNL     1     -11.159  10.539  68.941  1.00  0.00    -0.261 C  
BRANCH  18  19
HETATM   19  C   UNL     1     -10.889   9.650  70.138  1.00  0.00    -0.325 A  
HETATM   20  C   UNL     1     -11.985   9.132  70.847  1.00  0.00    -0.299 A  
HETATM   21  C   UNL     1     -11.791   8.484  72.066  1.00  0.00    -0.429 A  
HETATM   22  C   UNL     1     -10.503   8.323  72.562  1.00  0.00    -0.336 A  
HETATM   23  F   UNL     1     -10.325   7.782  73.774  1.00  0.00    -0.363 F  
HETATM   24  C   UNL     1      -9.401   8.731  71.827  1.00  0.00    -0.350 A  
HETATM   25  C   UNL     1      -9.591   9.372  70.604  1.00  0.00    -0.331 A  
ENDBRANCH  18  19
ENDBRANCH  13  18
ENDBRANCH   7   9
ENDBRANCH   2   3
BRANCH   2  26
HETATM   26  C   UNL     1      -8.877  17.471  68.016  1.00  0.00    -0.258 C  
HETATM   27  C   UNL     1      -9.716  19.545  68.519  1.00  0.00    -0.419 C  
HETATM   28  H   UNL     1      -9.502  16.686  66.226  1.00  0.00     0.000 HD 
HETATM   29  C   UNL     1     -10.323  18.554  66.432  1.00  0.00    -0.423 C  
HETATM   30  N   UNL     1      -8.930  18.476  68.850  1.00  0.00    -0.225 NA 
HETATM   31  O   UNL     1     -10.909  18.582  65.355  1.00  0.00    -0.570 OA 
HETATM   32  N   UNL     1      -9.562  17.500  66.838  1.00  0.00    -0.268 N  
HETATM   33  C   UNL     1     -10.402  19.667  67.384  1.00  0.00    -0.581 C  
ENDBRANCH   2  26
TORSDOF 5
ENDMDL
MODEL       97
REMARK 921   NORMALIZED FREE ENERGY PREDICTED BY IDOCK:   -5.74 KCAL/MOL
REMARK 922        TOTAL FREE ENERGY PREDICTED BY IDOCK:   -8.83 KCAL/MOL
REMARK 923 INTER-LIGAND FREE ENERGY PREDICTED BY IDOCK:   -8.59 KCAL/MOL
REMARK 924 INTRA-LIGAND FREE ENERGY PREDICTED BY IDOCK:   -0.24 KCAL/MOL
REMARK 927      BINDING AFFINITY PREDICTED BY RF-SCORE:    0.00 PKD
ROOT
HETATM    1  C   UNL     1     -10.663  19.216  66.462  1.00  0.00    -0.366 C  
HETATM    2  N   UNL     1      -9.556  19.138  67.439  1.00  0.00    -0.305 NA 
ENDROOT
BRANCH   2   3
HETATM    3  C   UNL     1      -9.655  17.959  68.348  1.00  0.00    -0.320 C  
HETATM    4  C   UNL     1      -8.314  17.268  68.552  1.00  0.00    -0.267 C  
HETATM    5  C   UNL     1     -10.797  16.992  68.076  1.00  0.00    -0.330 C  
HETATM    6  C   UNL     1      -8.015  16.170  67.549  1.00  0.00    -0.150 C  
HETATM    7  N   UNL     1      -9.100  15.194  67.440  1.00  0.00    -0.186 NA 
HETATM    8  C   UNL     1     -10.483  15.648  67.418  1.00  0.00    -0.291 C  
BRANCH   7   9
HETATM    9  C   UNL     1      -8.747  13.865  67.360  1.00  0.00    -0.203 A  
HETATM   10  C   UNL     1      -7.528  12.071  67.315  1.00  0.00    -0.158 A  
HETATM   11  N   UNL     1      -7.504  13.438  67.217  1.00  0.00    -0.109 NA 
HETATM   12  C   UNL     1      -8.827  11.612  67.450  1.00  0.00    -0.160 A  
HETATM   13  N   UNL     1      -9.600  12.763  67.407  1.00  0.00    -0.194 NA 
HETATM   14  C   UNL     1      -9.140  10.250  67.594  1.00  0.00    -0.144 A  
HETATM   15  C   UNL     1      -8.074   9.345  67.614  1.00  0.00    -0.106 A  
HETATM   16  C   UNL     1      -6.758   9.786  67.472  1.00  0.00    -0.070 A  
HETATM   17  C   UNL     1      -6.471  11.148  67.312  1.00  0.00    -0.079 A  
BRANCH  13  18
HETATM   18  C   UNL     1     -11.053  12.705  67.306  1.00  0.00    -0.278 C  
BRANCH  18  19
HETATM   19  C   UNL     1     -11.745  12.498  68.638  1.00  0.00    -0.368 A  
HETATM   20  C   UNL     1     -12.078  13.629  69.402  1.00  0.00    -0.364 A  
HETATM   21  C   UNL     1     -12.525  13.484  70.715  1.00  0.00    -0.428 A  
HETATM   22  C   UNL     1     -12.671  12.212  71.255  1.00  0.00    -0.261 A  
HETATM   23  F   UNL     1     -13.013  12.076  72.542  1.00  0.00    -0.415 F  
HETATM   24  C   UNL     1     -12.451  11.081  70.484  1.00  0.00    -0.432 A  
HETATM   25  C   UNL     1     -12.012  11.222  69.168  1.00  0.00    -0.405 A  
ENDBRANCH  18  19
ENDBRANCH  13  18
ENDBRANCH   7   9
ENDBRANCH   2   3
BRANCH   2  26
HETATM   26  C   UNL     1      -8.353  19.657  67.000  1.00  0.00    -0.294 C  
HETATM   27  C   UNL     1      -6.817  20.192  65.383  1.00  0.00    -0.306 C  
HETATM   28  H   UNL     1      -7.819  20.164  68.915  1.00  0.00     0.000 HD 
HETATM   29  C   UNL     1      -6.334  20.787  67.645  1.00  0.00    -0.309 C  
HETATM   30  N   UNL     1      -8.026  19.657  65.734  1.00  0.00    -0.415 NA 
HETATM   31  O   UNL     1      -5.614  21.301  68.494  1.00  0.00    -0.315 OA 
HETATM   32  N   UNL     1      -7.527  20.200  67.938  1.00  0.00    -0.293 N  
HETATM   33  C   UNL     1      -5.958  20.759  66.227  1.00  0.00    -0.269 C  
ENDBRANCH   2  26
TORSDOF 5
ENDMDL
MODEL       98
REMARK 921   NORMALIZED FREE ENERGY PREDICTED BY IDOCK:   -5.72 KCAL/MOL
REMARK 922        TOTAL FREE ENERGY PREDICTED BY IDOCK:   -8.80 KCAL/MOL
REMARK 923 INTER-LIGAND FREE ENERGY PREDICTED BY IDOCK:   -7.54 KCAL/MOL
REMARK 924 INTRA-LIGAND FREE ENERGY PREDICTED BY IDOCK:   -1.27 KCAL/MOL
REMARK 927      BINDING AFFINITY PREDICTED BY RF-SCORE:    0.00 PKD
ROOT
HETATM    1  C   UNL     1      -9.906   7.015  73.296  1.00  0.00    -0.214 C  
HETATM    2  N   UNL     1      -9.994   7.667  71.972  1.00  0.00    -0.171 NA 
ENDROOT
BRANCH   2   3
HETATM    3  C   UNL     1      -9.554   6.786  70.851  1.00  0.00    -0.168 C  
HETATM    4  C   UNL     1      -8.167   7.146  70.338  1.00  0.00    -0.126 C  
HETATM    5  C   UNL     1     -10.567   6.552  69.740  1.00  0.00    -0.284 C  
HETATM    6  C   UNL     1      -8.158   8.172  69.220  1.00  0.00    -0.117 C  
HETATM    7  N   UNL     1      -9.051   7.813  68.118  1.00  0.00    -0.130 NA 
HETATM    8  C   UNL     1     -10.370   7.267  68.403  1.00  0.00    -0.185 C  
BRANCH   7   9
HETATM    9  C   UNL     1      -8.586   8.018  66.838  1.00  0.00    -0.128 A  
HETATM   10  C   UNL     1      -8.005   7.625  64.785  1.00  0.00    -0.137 A  
HETATM   11  N   UNL     1      -8.304   7.044  65.989  1.00  0.00    -0.128 NA 
HETATM   12  C   UNL     1      -8.025   9.006  64.888  1.00  0.00    -0.126 A  
HETATM   13  N   UNL     1      -8.329   9.242  66.221  1.00  0.00    -0.120 NA 
HETATM   14  C   UNL     1      -7.776   9.853  63.796  1.00  0.00    -0.143 A  
HETATM   15  C   UNL     1      -7.516   9.249  62.562  1.00  0.00    -0.102 A  
HETATM   16  C   UNL     1      -7.484   7.859  62.437  1.00  0.00    -0.104 A  
HETATM   17  C   UNL     1      -7.717   7.034  63.545  1.00  0.00    -0.114 A  
BRANCH  13  18
HETATM   18  C   UNL     1      -8.242  10.576  66.800  1.00  0.00    -0.126 C  
BRANCH  18  19
HETATM   19  C   UNL     1      -9.427  11.460  66.468  1.00  0.00    -0.218 A  
HETATM   20  C   UNL     1     -10.548  11.422  67.313  1.00  0.00    -0.264 A  
HETATM   21  C   UNL     1     -11.733  12.055  66.940  1.00  0.00    -0.342 A  
HETATM   22  C   UNL     1     -11.790  12.754  65.740  1.00  0.00    -0.434 A  
HETATM   23  F   UNL     1     -12.952  13.285  65.340  1.00  0.00    -0.523 F  
HETATM   24  C   UNL     1     -10.664  12.893  64.943  1.00  0.00    -0.333 A  
HETATM   25  C   UNL     1      -9.476  12.269  65.318  1.00  0.00     0.057 A  
ENDBRANCH  18  19
ENDBRANCH  13  18
ENDBRANCH   7   9
ENDBRANCH   2   3
BRANCH   2  26
HETATM   26  C   UNL     1     -11.004   8.603  71.849  1.00  0.00    -0.342 C  
HETATM   27  C   UNL     1     -11.879  10.593  71.118  1.00  0.00    -0.241 C  
HETATM   28  H   UNL     1     -12.292   7.425  72.927  1.00  0.00     0.000 HD 
HETATM   29  C   UNL     1     -13.302   9.108  72.332  1.00  0.00    -0.463 C  
HETATM   30  N   UNL     1     -10.827   9.721  71.194  1.00  0.00    -0.319 NA 
HETATM   31  O   UNL     1     -14.389   8.812  72.818  1.00  0.00    -0.569 OA 
HETATM   32  N   UNL     1     -12.206   8.303  72.414  1.00  0.00    -0.368 N  
HETATM   33  C   UNL     1     -13.091  10.374  71.622  1.00  0.00    -0.553 C  
ENDBRANCH   2  26
TORSDOF 5
ENDMDL
MODEL       99
REMARK 921   NORMALIZED FREE ENERGY PREDICTED BY IDOCK:   -5.71 KCAL/MOL
REMARK 922        TOTAL FREE ENERGY PREDICTED BY IDOCK:   -8.80 KCAL/MOL
REMARK 923 INTER-LIGAND FREE ENERGY PREDICTED BY IDOCK:   -7.76 KCAL/MOL
REMARK 924 INTRA-LIGAND FREE ENERGY PREDICTED BY IDOCK:   -1.03 KCAL/MOL
REMARK 927      BINDING AFFINITY PREDICTED BY RF-SCORE:    0.00 PKD
ROOT
HETATM    1  C   UNL     1     -10.338  14.583  64.987  1.00  0.00    -0.413 C  
HETATM    2  N   UNL     1     -10.894  15.315  66.145  1.00  0.00    -0.320 NA 
ENDROOT
BRANCH   2   3
HETATM    3  C   UNL     1     -11.805  14.484  66.984  1.00  0.00    -0.385 C  
HETATM    4  C   UNL     1     -11.258  14.254  68.386  1.00  0.00    -0.291 C  
HETATM    5  C   UNL     1     -12.355  13.222  66.336  1.00  0.00    -0.347 C  
HETATM    6  C   UNL     1     -10.390  13.018  68.525  1.00  0.00    -0.239 C  
HETATM    7  N   UNL     1     -11.037  11.811  68.008  1.00  0.00    -0.225 NA 
HETATM    8  C   UNL     1     -11.781  11.869  66.758  1.00  0.00    -0.202 C  
BRANCH   7   9
HETATM    9  C   UNL     1     -10.905  10.658  68.748  1.00  0.00    -0.229 A  
HETATM   10  C   UNL     1     -10.838   9.317  70.452  1.00  0.00    -0.254 A  
HETATM   11  N   UNL     1     -10.820  10.632  70.067  1.00  0.00    -0.257 NA 
HETATM   12  C   UNL     1     -10.858   8.483  69.347  1.00  0.00    -0.091 A  
HETATM   13  N   UNL     1     -10.831   9.352  68.266  1.00  0.00    -0.162 NA 
HETATM   14  C   UNL     1     -10.902   7.083  69.453  1.00  0.00    -0.253 A  
HETATM   15  C   UNL     1     -10.941   6.537  70.739  1.00  0.00    -0.328 A  
HETATM   16  C   UNL     1     -10.913   7.359  71.867  1.00  0.00    -0.267 A  
HETATM   17  C   UNL     1     -10.852   8.753  71.737  1.00  0.00    -0.416 A  
BRANCH  13  18
HETATM   18  C   UNL     1     -10.630   8.872  66.905  1.00  0.00    -0.184 C  
BRANCH  18  19
HETATM   19  C   UNL     1      -9.330   9.340  66.282  1.00  0.00    -0.257 A  
HETATM   20  C   UNL     1      -9.375   9.952  65.019  1.00  0.00    -0.323 A  
HETATM   21  C   UNL     1      -8.196  10.210  64.320  1.00  0.00    -0.165 A  
HETATM   22  C   UNL     1      -6.972   9.889  64.894  1.00  0.00    -0.131 A  
HETATM   23  F   UNL     1      -5.848  10.054  64.186  1.00  0.00    -0.092 F  
HETATM   24  C   UNL     1      -6.901   9.384  66.183  1.00  0.00    -0.085 A  
HETATM   25  C   UNL     1      -8.077   9.133  66.888  1.00  0.00    -0.112 A  
ENDBRANCH  18  19
ENDBRANCH  13  18
ENDBRANCH   7   9
ENDBRANCH   2   3
BRANCH   2  26
HETATM   26  C   UNL     1     -10.071  16.296  66.664  1.00  0.00    -0.276 C  
HETATM   27  C   UNL     1      -9.672  18.298  67.710  1.00  0.00    -0.297 C  
HETATM   28  H   UNL     1      -8.395  15.233  66.144  1.00  0.00     0.000 HD 
HETATM   29  C   UNL     1      -7.800  16.941  67.111  1.00  0.00    -0.177 C  
HETATM   30  N   UNL     1     -10.555  17.376  67.220  1.00  0.00    -0.320 NA 
HETATM   31  O   UNL     1      -6.594  16.722  67.077  1.00  0.00    -0.167 OA 
HETATM   32  N   UNL     1      -8.727  16.083  66.600  1.00  0.00    -0.244 N  
HETATM   33  C   UNL     1      -8.348  18.164  67.708  1.00  0.00    -0.253 C  
ENDBRANCH   2  26
TORSDOF 5
ENDMDL
MODEL      100
REMARK 921   NORMALIZED FREE ENERGY PREDICTED BY IDOCK:   -5.71 KCAL/MOL
REMARK 922        TOTAL FREE ENERGY PREDICTED BY IDOCK:   -8.80 KCAL/MOL
REMARK 923 INTER-LIGAND FREE ENERGY PREDICTED BY IDOCK:   -7.70 KCAL/MOL
REMARK 924 INTRA-LIGAND FREE ENERGY PREDICTED BY IDOCK:   -1.09 KCAL/MOL
REMARK 927      BINDING AFFINITY PREDICTED BY RF-SCORE:    0.00 PKD
ROOT
HETATM    1  C   UNL     1     -10.017  13.744  65.517  1.00  0.00    -0.238 C  
HETATM    2  N   UNL     1     -10.658  14.252  66.748  1.00  0.00    -0.276 NA 
ENDROOT
BRANCH   2   3
HETATM    3  C   UNL     1     -10.583  13.294  67.890  1.00  0.00    -0.238 C  
HETATM    4  C   UNL     1      -9.154  12.870  68.200  1.00  0.00    -0.207 C  
HETATM    5  C   UNL     1     -11.565  12.132  67.862  1.00  0.00    -0.413 C  
HETATM    6  C   UNL     1      -8.688  11.639  67.445  1.00  0.00    -0.155 C  
HETATM    7  N   UNL     1      -9.612  10.512  67.576  1.00  0.00    -0.159 NA 
HETATM    8  C   UNL     1     -11.047  10.741  67.496  1.00  0.00    -0.308 C  
BRANCH   7   9
HETATM    9  C   UNL     1      -9.062   9.265  67.771  1.00  0.00    -0.126 A  
HETATM   10  C   UNL     1      -8.101   7.365  67.355  1.00  0.00    -0.113 A  
HETATM   11  N   UNL     1      -8.742   8.437  66.792  1.00  0.00    -0.124 NA 
HETATM   12  C   UNL     1      -8.078   7.478  68.736  1.00  0.00    -0.128 A  
HETATM   13  N   UNL     1      -8.756   8.661  68.990  1.00  0.00    -0.133 NA 
HETATM   14  C   UNL     1      -7.462   6.527  69.565  1.00  0.00    -0.093 A  
HETATM   15  C   UNL     1      -6.841   5.439  68.944  1.00  0.00    -0.055 A  
HETATM   16  C   UNL     1      -6.859   5.301  67.555  1.00  0.00    -0.060 A  
HETATM   17  C   UNL     1      -7.495   6.254  66.748  1.00  0.00    -0.087 A  
BRANCH  13  18
HETATM   18  C   UNL     1      -9.139   9.047  70.342  1.00  0.00    -0.210 C  
BRANCH  18  19
HETATM   19  C   UNL     1     -10.594   8.769  70.663  1.00  0.00    -0.258 A  
HETATM   20  C   UNL     1     -11.364   9.799  71.226  1.00  0.00    -0.445 A  
HETATM   21  C   UNL     1     -12.638   9.533  71.726  1.00  0.00    -0.490 A  
HETATM   22  C   UNL     1     -13.158   8.247  71.633  1.00  0.00    -0.334 A  
HETATM   23  F   UNL     1     -14.343   7.972  72.193  1.00  0.00    -0.428 F  
HETATM   24  C   UNL     1     -12.458   7.241  70.985  1.00  0.00    -0.323 A  
HETATM   25  C   UNL     1     -11.188   7.507  70.477  1.00  0.00    -0.287 A  
ENDBRANCH  18  19
ENDBRANCH  13  18
ENDBRANCH   7   9
ENDBRANCH   2   3
BRANCH   2  26
HETATM   26  C   UNL     1     -10.612  15.624  66.907  1.00  0.00    -0.311 C  
HETATM   27  C   UNL     1     -10.276  17.539  68.122  1.00  0.00    -0.359 C  
HETATM   28  H   UNL     1     -11.132  15.916  64.943  1.00  0.00     0.000 HD 
HETATM   29  C   UNL     1     -10.826  17.750  65.808  1.00  0.00     0.037 C  
HETATM   30  N   UNL     1     -10.300  16.173  68.051  1.00  0.00    -0.263 NA 
HETATM   31  O   UNL     1     -11.036  18.426  64.807  1.00  0.00    -0.483 OA 
HETATM   32  N   UNL     1     -10.879  16.389  65.811  1.00  0.00    -0.208 N  
HETATM   33  C   UNL     1     -10.503  18.362  67.101  1.00  0.00    -0.434 C  
ENDBRANCH   2  26
TORSDOF 5
ENDMDL
MODEL      101
REMARK 921   NORMALIZED FREE ENERGY PREDICTED BY IDOCK:   -5.71 KCAL/MOL
REMARK 922        TOTAL FREE ENERGY PREDICTED BY IDOCK:   -8.79 KCAL/MOL
REMARK 923 INTER-LIGAND FREE ENERGY PREDICTED BY IDOCK:   -7.65 KCAL/MOL
REMARK 924 INTRA-LIGAND FREE ENERGY PREDICTED BY IDOCK:   -1.14 KCAL/MOL
REMARK 927      BINDING AFFINITY PREDICTED BY RF-SCORE:    0.00 PKD
ROOT
HETATM    1  C   UNL     1     -12.390  15.163  64.365  1.00  0.00    -0.209 C  
HETATM    2  N   UNL     1     -11.894  14.677  65.671  1.00  0.00    -0.314 NA 
ENDROOT
BRANCH   2   3
HETATM    3  C   UNL     1     -12.149  13.223  65.893  1.00  0.00    -0.441 C  
HETATM    4  C   UNL     1     -11.220  12.623  66.938  1.00  0.00    -0.348 C  
HETATM    5  C   UNL     1     -12.289  12.365  64.645  1.00  0.00    -0.518 C  
HETATM    6  C   UNL     1      -9.923  12.068  66.379  1.00  0.00    -0.219 C  
HETATM    7  N   UNL     1     -10.138  11.138  65.269  1.00  0.00    -0.260 NA 
HETATM    8  C   UNL     1     -11.132  11.445  64.252  1.00  0.00    -0.285 C  
BRANCH   7   9
HETATM    9  C   UNL     1      -9.369   9.996  65.246  1.00  0.00    -0.237 A  
HETATM   10  C   UNL     1      -7.741   8.634  64.796  1.00  0.00    -0.108 A  
HETATM   11  N   UNL     1      -8.335   9.817  64.442  1.00  0.00    -0.154 NA 
HETATM   12  C   UNL     1      -8.459   8.007  65.800  1.00  0.00    -0.147 A  
HETATM   13  N   UNL     1      -9.534   8.854  66.029  1.00  0.00    -0.246 NA 
HETATM   14  C   UNL     1      -8.061   6.786  66.369  1.00  0.00    -0.110 A  
HETATM   15  C   UNL     1      -6.879   6.211  65.892  1.00  0.00    -0.057 A  
HETATM   16  C   UNL     1      -6.145   6.821  64.875  1.00  0.00    -0.036 A  
HETATM   17  C   UNL     1      -6.571   8.031  64.310  1.00  0.00    -0.061 A  
BRANCH  13  18
HETATM   18  C   UNL     1     -10.653   8.458  66.874  1.00  0.00    -0.215 C  
BRANCH  18  19
HETATM   19  C   UNL     1     -10.364   8.578  68.357  1.00  0.00    -0.241 A  
HETATM   20  C   UNL     1     -10.392   7.412  69.140  1.00  0.00    -0.208 A  
HETATM   21  C   UNL     1     -10.339   7.497  70.531  1.00  0.00    -0.217 A  
HETATM   22  C   UNL     1     -10.223   8.741  71.139  1.00  0.00    -0.246 A  
HETATM   23  F   UNL     1     -10.262   8.828  72.475  1.00  0.00    -0.366 F  
HETATM   24  C   UNL     1     -10.086   9.894  70.382  1.00  0.00    -0.258 A  
HETATM   25  C   UNL     1     -10.131   9.812  68.992  1.00  0.00    -0.195 A  
ENDBRANCH  18  19
ENDBRANCH  13  18
ENDBRANCH   7   9
ENDBRANCH   2   3
BRANCH   2  26
HETATM   26  C   UNL     1     -10.777  15.332  66.151  1.00  0.00    -0.320 C  
HETATM   27  C   UNL     1      -8.548  15.873  66.131  1.00  0.00    -0.241 C  
HETATM   28  H   UNL     1     -11.881  16.232  67.628  1.00  0.00     0.000 HD 
HETATM   29  C   UNL     1      -9.949  16.906  67.767  1.00  0.00    -0.278 C  
HETATM   30  N   UNL     1      -9.603  15.187  65.594  1.00  0.00    -0.315 NA 
HETATM   31  O   UNL     1     -10.124  17.675  68.706  1.00  0.00    -0.348 OA 
HETATM   32  N   UNL     1     -10.950  16.163  67.217  1.00  0.00    -0.237 N  
HETATM   33  C   UNL     1      -8.628  16.718  67.156  1.00  0.00    -0.217 C  
ENDBRANCH   2  26
TORSDOF 5
ENDMDL
MODEL      102
REMARK 921   NORMALIZED FREE ENERGY PREDICTED BY IDOCK:   -5.69 KCAL/MOL
REMARK 922        TOTAL FREE ENERGY PREDICTED BY IDOCK:   -8.77 KCAL/MOL
REMARK 923 INTER-LIGAND FREE ENERGY PREDICTED BY IDOCK:   -7.31 KCAL/MOL
REMARK 924 INTRA-LIGAND FREE ENERGY PREDICTED BY IDOCK:   -1.46 KCAL/MOL
REMARK 927      BINDING AFFINITY PREDICTED BY RF-SCORE:    0.00 PKD
ROOT
HETATM    1  C   UNL     1      -9.228  14.035  67.123  1.00  0.00    -0.235 C  
HETATM    2  N   UNL     1      -9.428  12.689  66.546  1.00  0.00    -0.246 NA 
ENDROOT
BRANCH   2   3
HETATM    3  C   UNL     1      -9.307  11.593  67.551  1.00  0.00    -0.168 C  
HETATM    4  C   UNL     1      -8.002  10.822  67.417  1.00  0.00    -0.112 C  
HETATM    5  C   UNL     1     -10.524  10.695  67.720  1.00  0.00    -0.258 C  
HETATM    6  C   UNL     1      -8.070   9.632  66.479  1.00  0.00    -0.119 C  
HETATM    7  N   UNL     1      -9.183   8.733  66.786  1.00  0.00    -0.160 NA 
HETATM    8  C   UNL     1     -10.485   9.286  67.129  1.00  0.00    -0.249 C  
BRANCH   7   9
HETATM    9  C   UNL     1      -8.934   7.380  66.732  1.00  0.00    -0.141 A  
HETATM   10  C   UNL     1      -8.819   5.349  65.978  1.00  0.00    -0.144 A  
HETATM   11  N   UNL     1      -9.374   6.585  65.772  1.00  0.00     0.065 NA 
HETATM   12  C   UNL     1      -8.066   5.337  67.140  1.00  0.00    -0.101 A  
HETATM   13  N   UNL     1      -8.205   6.621  67.647  1.00  0.00    -0.121 NA 
HETATM   14  C   UNL     1      -7.365   4.202  67.579  1.00  0.00    -0.068 A  
HETATM   15  C   UNL     1      -7.437   3.055  66.782  1.00  0.00    -0.075 A  
HETATM   16  C   UNL     1      -8.197   3.043  65.612  1.00  0.00    -0.088 A  
HETATM   17  C   UNL     1      -8.902   4.182  65.202  1.00  0.00    -0.130 A  
BRANCH  13  18
HETATM   18  C   UNL     1      -7.735   6.971  68.981  1.00  0.00    -0.109 C  
BRANCH  18  19
HETATM   19  C   UNL     1      -8.852   7.168  69.986  1.00  0.00    -0.142 A  
HETATM   20  C   UNL     1      -9.023   8.441  70.554  1.00  0.00    -0.160 A  
HETATM   21  C   UNL     1      -9.896   8.621  71.627  1.00  0.00    -0.351 A  
HETATM   22  C   UNL     1     -10.622   7.539  72.111  1.00  0.00    -0.221 A  
HETATM   23  F   UNL     1     -11.390   7.692  73.196  1.00  0.00    -0.406 F  
HETATM   24  C   UNL     1     -10.548   6.299  71.496  1.00  0.00    -0.282 A  
HETATM   25  C   UNL     1      -9.683   6.118  70.418  1.00  0.00    -0.199 A  
ENDBRANCH  18  19
ENDBRANCH  13  18
ENDBRANCH   7   9
ENDBRANCH   2   3
BRANCH   2  26
HETATM   26  C   UNL     1     -10.296  12.638  65.471  1.00  0.00    -0.286 C  
HETATM   27  C   UNL     1     -11.257  11.617  63.657  1.00  0.00    -0.411 C  
HETATM   28  H   UNL     1     -10.989  14.525  65.881  1.00  0.00     0.000 HD 
HETATM   29  C   UNL     1     -12.026  13.794  64.270  1.00  0.00    -0.443 C  
HETATM   30  N   UNL     1     -10.372  11.586  64.699  1.00  0.00    -0.277 NA 
HETATM   31  O   UNL     1     -12.762  14.762  64.111  1.00  0.00    -0.758 OA 
HETATM   32  N   UNL     1     -11.094  13.722  65.261  1.00  0.00    -0.304 N  
HETATM   33  C   UNL     1     -12.088  12.622  63.389  1.00  0.00    -0.614 C  
ENDBRANCH   2  26
TORSDOF 5
ENDMDL
MODEL      103
REMARK 921   NORMALIZED FREE ENERGY PREDICTED BY IDOCK:   -5.68 KCAL/MOL
REMARK 922        TOTAL FREE ENERGY PREDICTED BY IDOCK:   -8.75 KCAL/MOL
REMARK 923 INTER-LIGAND FREE ENERGY PREDICTED BY IDOCK:   -7.74 KCAL/MOL
REMARK 924 INTRA-LIGAND FREE ENERGY PREDICTED BY IDOCK:   -1.00 KCAL/MOL
REMARK 927      BINDING AFFINITY PREDICTED BY RF-SCORE:    0.00 PKD
ROOT
HETATM    1  C   UNL     1     -12.098  13.836  69.343  1.00  0.00    -0.328 C  
HETATM    2  N   UNL     1     -11.170  13.413  68.272  1.00  0.00    -0.263 NA 
ENDROOT
BRANCH   2   3
HETATM    3  C   UNL     1     -11.190  11.942  68.022  1.00  0.00    -0.257 C  
HETATM    4  C   UNL     1     -12.246  11.225  68.853  1.00  0.00    -0.160 C  
HETATM    5  C   UNL     1      -9.841  11.239  68.024  1.00  0.00    -0.186 C  
HETATM    6  C   UNL     1     -11.760  10.749  70.209  1.00  0.00    -0.352 C  
HETATM    7  N   UNL     1     -10.531   9.959  70.123  1.00  0.00    -0.269 NA 
HETATM    8  C   UNL     1      -9.461  10.381  69.231  1.00  0.00    -0.198 C  
BRANCH   7   9
HETATM    9  C   UNL     1     -10.449   8.833  70.911  1.00  0.00    -0.221 A  
HETATM   10  C   UNL     1     -10.219   7.573  72.662  1.00  0.00    -0.245 A  
HETATM   11  N   UNL     1     -10.035   8.837  72.166  1.00  0.00    -0.321 NA 
HETATM   12  C   UNL     1     -10.693   6.724  71.676  1.00  0.00    -0.225 A  
HETATM   13  N   UNL     1     -10.769   7.526  70.546  1.00  0.00    -0.230 NA 
HETATM   14  C   UNL     1     -10.992   5.373  71.916  1.00  0.00    -0.219 A  
HETATM   15  C   UNL     1     -10.808   4.897  73.218  1.00  0.00    -0.355 A  
HETATM   16  C   UNL     1     -10.324   5.732  74.225  1.00  0.00    -0.285 A  
HETATM   17  C   UNL     1     -10.016   7.073  73.958  1.00  0.00    -0.353 A  
BRANCH  13  18
HETATM   18  C   UNL     1     -11.027   6.964  69.227  1.00  0.00    -0.221 C  
BRANCH  18  19
HETATM   19  C   UNL     1      -9.835   6.243  68.630  1.00  0.00    -0.152 A  
HETATM   20  C   UNL     1      -8.594   6.899  68.618  1.00  0.00    -0.123 A  
HETATM   21  C   UNL     1      -7.523   6.366  67.902  1.00  0.00    -0.094 A  
HETATM   22  C   UNL     1      -7.680   5.163  67.225  1.00  0.00    -0.092 A  
HETATM   23  F   UNL     1      -6.681   4.698  66.464  1.00  0.00    -0.045 F  
HETATM   24  C   UNL     1      -8.864   4.446  67.312  1.00  0.00    -0.114 A  
HETATM   25  C   UNL     1      -9.933   4.972  68.035  1.00  0.00    -0.189 A  
ENDBRANCH  18  19
ENDBRANCH  13  18
ENDBRANCH   7   9
ENDBRANCH   2   3
BRANCH   2  26
HETATM   26  C   UNL     1     -10.966  14.348  67.274  1.00  0.00    -0.297 C  
HETATM   27  C   UNL     1     -10.989  15.061  65.095  1.00  0.00    -0.406 C  
HETATM   28  H   UNL     1     -10.321  15.735  68.641  1.00  0.00     0.000 HD 
HETATM   29  C   UNL     1     -10.315  16.608  66.786  1.00  0.00    -0.295 C  
HETATM   30  N   UNL     1     -11.218  14.079  66.020  1.00  0.00    -0.306 NA 
HETATM   31  O   UNL     1      -9.941  17.720  67.142  1.00  0.00    -0.298 OA 
HETATM   32  N   UNL     1     -10.517  15.577  67.653  1.00  0.00    -0.273 N  
HETATM   33  C   UNL     1     -10.571  16.293  65.376  1.00  0.00    -0.371 C  
ENDBRANCH   2  26
TORSDOF 5
ENDMDL
MODEL      104
REMARK 921   NORMALIZED FREE ENERGY PREDICTED BY IDOCK:   -5.65 KCAL/MOL
REMARK 922        TOTAL FREE ENERGY PREDICTED BY IDOCK:   -8.71 KCAL/MOL
REMARK 923 INTER-LIGAND FREE ENERGY PREDICTED BY IDOCK:   -7.14 KCAL/MOL
REMARK 924 INTRA-LIGAND FREE ENERGY PREDICTED BY IDOCK:   -1.56 KCAL/MOL
REMARK 927      BINDING AFFINITY PREDICTED BY RF-SCORE:    0.00 PKD
ROOT
HETATM    1  C   UNL     1      -6.886   3.371  67.809  1.00  0.00    -0.050 C  
HETATM    2  N   UNL     1      -8.177   3.983  67.429  1.00  0.00    -0.098 NA 
ENDROOT
BRANCH   2   3
HETATM    3  C   UNL     1      -8.616   5.060  68.364  1.00  0.00    -0.097 C  
HETATM    4  C   UNL     1     -10.039   5.525  68.089  1.00  0.00    -0.221 C  
HETATM    5  C   UNL     1      -7.638   6.206  68.580  1.00  0.00    -0.092 C  
HETATM    6  C   UNL     1     -10.145   6.669  67.098  1.00  0.00    -0.174 C  
HETATM    7  N   UNL     1      -9.280   7.798  67.444  1.00  0.00    -0.135 NA 
HETATM    8  C   UNL     1      -7.925   7.552  67.915  1.00  0.00    -0.119 C  
BRANCH   7   9
HETATM    9  C   UNL     1      -9.806   9.062  67.301  1.00  0.00    -0.196 A  
HETATM   10  C   UNL     1     -10.665  10.829  66.381  1.00  0.00    -0.163 A  
HETATM   11  N   UNL     1     -10.010   9.651  66.136  1.00  0.00    -0.274 NA 
HETATM   12  C   UNL     1     -10.816  11.031  67.743  1.00  0.00    -0.249 A  
HETATM   13  N   UNL     1     -10.201   9.929  68.319  1.00  0.00    -0.168 NA 
HETATM   14  C   UNL     1     -11.474  12.152  68.275  1.00  0.00    -0.360 A  
HETATM   15  C   UNL     1     -12.002  13.077  67.369  1.00  0.00    -0.372 A  
HETATM   16  C   UNL     1     -11.855  12.897  65.994  1.00  0.00    -0.485 A  
HETATM   17  C   UNL     1     -11.179  11.780  65.485  1.00  0.00    -0.316 A  
BRANCH  13  18
HETATM   18  C   UNL     1      -9.954   9.856  69.753  1.00  0.00    -0.243 C  
BRANCH  18  19
HETATM   19  C   UNL     1     -11.074   9.191  70.529  1.00  0.00    -0.308 A  
HETATM   20  C   UNL     1     -11.022   7.800  70.719  1.00  0.00    -0.259 A  
HETATM   21  C   UNL     1     -12.121   7.121  71.241  1.00  0.00    -0.386 A  
HETATM   22  C   UNL     1     -13.259   7.830  71.605  1.00  0.00    -0.343 A  
HETATM   23  F   UNL     1     -14.346   7.168  72.021  1.00  0.00    -0.454 F  
HETATM   24  C   UNL     1     -13.291   9.214  71.525  1.00  0.00    -0.416 A  
HETATM   25  C   UNL     1     -12.191   9.898  71.011  1.00  0.00    -0.446 A  
ENDBRANCH  18  19
ENDBRANCH  13  18
ENDBRANCH   7   9
ENDBRANCH   2   3
BRANCH   2  26
HETATM   26  C   UNL     1      -8.434   4.008  66.071  1.00  0.00    -0.109 C  
HETATM   27  C   UNL     1      -9.614   3.419  64.195  1.00  0.00    -0.146 C  
HETATM   28  H   UNL     1      -6.852   5.274  65.747  1.00  0.00     0.000 HD 
HETATM   29  C   UNL     1      -7.787   4.938  63.952  1.00  0.00    -0.085 C  
HETATM   30  N   UNL     1      -9.428   3.340  65.548  1.00  0.00    -0.142 NA 
HETATM   31  O   UNL     1      -7.071   5.664  63.270  1.00  0.00    -0.043 OA 
HETATM   32  N   UNL     1      -7.624   4.783  65.296  1.00  0.00    -0.080 N  
HETATM   33  C   UNL     1      -8.886   4.163  63.366  1.00  0.00    -0.116 C  
ENDBRANCH   2  26
TORSDOF 5
ENDMDL
MODEL      105
REMARK 921   NORMALIZED FREE ENERGY PREDICTED BY IDOCK:   -5.64 KCAL/MOL
REMARK 922        TOTAL FREE ENERGY PREDICTED BY IDOCK:   -8.70 KCAL/MOL
REMARK 923 INTER-LIGAND FREE ENERGY PREDICTED BY IDOCK:   -8.05 KCAL/MOL
REMARK 924 INTRA-LIGAND FREE ENERGY PREDICTED BY IDOCK:   -0.65 KCAL/MOL
REMARK 927      BINDING AFFINITY PREDICTED BY RF-SCORE:    0.00 PKD
ROOT
HETATM    1  C   UNL     1      -9.174  16.031  65.971  1.00  0.00    -0.340 C  
HETATM    2  N   UNL     1      -9.466  14.638  66.369  1.00  0.00    -0.290 NA 
ENDROOT
BRANCH   2   3
HETATM    3  C   UNL     1      -9.727  14.485  67.830  1.00  0.00    -0.216 C  
HETATM    4  C   UNL     1      -8.988  13.297  68.431  1.00  0.00    -0.124 C  
HETATM    5  C   UNL     1     -11.181  14.576  68.269  1.00  0.00    -0.295 C  
HETATM    6  C   UNL     1      -9.764  11.994  68.398  1.00  0.00    -0.199 C  
HETATM    7  N   UNL     1     -11.107  12.121  68.965  1.00  0.00    -0.241 NA 
HETATM    8  C   UNL     1     -11.914  13.292  68.657  1.00  0.00    -0.310 C  
BRANCH   7   9
HETATM    9  C   UNL     1     -11.547  11.100  69.778  1.00  0.00    -0.334 A  
HETATM   10  C   UNL     1     -12.686  10.029  71.281  1.00  0.00    -0.399 A  
HETATM   11  N   UNL     1     -12.366  11.271  70.801  1.00  0.00    -0.386 NA 
HETATM   12  C   UNL     1     -11.996   9.045  70.593  1.00  0.00    -0.099 A  
HETATM   13  N   UNL     1     -11.221   9.748  69.683  1.00  0.00    -0.214 NA 
HETATM   14  C   UNL     1     -12.154   7.676  70.865  1.00  0.00    -0.226 A  
HETATM   15  C   UNL     1     -13.063   7.320  71.866  1.00  0.00    -0.290 A  
HETATM   16  C   UNL     1     -13.763   8.296  72.577  1.00  0.00    -0.101 A  
HETATM   17  C   UNL     1     -13.576   9.657  72.301  1.00  0.00    -0.449 A  
BRANCH  13  18
HETATM   18  C   UNL     1     -10.181   9.094  68.898  1.00  0.00    -0.207 C  
BRANCH  18  19
HETATM   19  C   UNL     1      -9.072   8.497  69.740  1.00  0.00    -0.153 A  
HETATM   20  C   UNL     1      -8.747   7.142  69.555  1.00  0.00    -0.134 A  
HETATM   21  C   UNL     1      -7.884   6.499  70.441  1.00  0.00    -0.110 A  
HETATM   22  C   UNL     1      -7.318   7.213  71.490  1.00  0.00    -0.078 A  
HETATM   23  F   UNL     1      -6.562   6.575  72.392  1.00  0.00    -0.055 F  
HETATM   24  C   UNL     1      -7.541   8.575  71.627  1.00  0.00    -0.135 A  
HETATM   25  C   UNL     1      -8.397   9.223  70.738  1.00  0.00    -0.230 A  
ENDBRANCH  18  19
ENDBRANCH  13  18
ENDBRANCH   7   9
ENDBRANCH   2   3
BRANCH   2  26
HETATM   26  C   UNL     1     -10.096  13.876  65.403  1.00  0.00    -0.305 C  
HETATM   27  C   UNL     1     -10.389  11.970  64.161  1.00  0.00    -0.347 C  
HETATM   28  H   UNL     1     -11.414  15.394  64.996  1.00  0.00     0.000 HD 
HETATM   29  C   UNL     1     -11.902  13.786  63.821  1.00  0.00    -0.262 C  
HETATM   30  N   UNL     1      -9.711  12.657  65.131  1.00  0.00    -0.078 NA 
HETATM   31  O   UNL     1     -12.877  14.289  63.273  1.00  0.00    -0.483 OA 
HETATM   32  N   UNL     1     -11.160  14.435  64.761  1.00  0.00    -0.394 N  
HETATM   33  C   UNL     1     -11.448  12.429  63.498  1.00  0.00    -0.561 C  
ENDBRANCH   2  26
TORSDOF 5
ENDMDL
MODEL      106
REMARK 921   NORMALIZED FREE ENERGY PREDICTED BY IDOCK:   -5.63 KCAL/MOL
REMARK 922        TOTAL FREE ENERGY PREDICTED BY IDOCK:   -8.68 KCAL/MOL
REMARK 923 INTER-LIGAND FREE ENERGY PREDICTED BY IDOCK:   -7.07 KCAL/MOL
REMARK 924 INTRA-LIGAND FREE ENERGY PREDICTED BY IDOCK:   -1.61 KCAL/MOL
REMARK 927      BINDING AFFINITY PREDICTED BY RF-SCORE:    0.00 PKD
ROOT
HETATM    1  C   UNL     1     -10.030   3.045  71.967  1.00  0.00    -0.154 C  
HETATM    2  N   UNL     1      -9.860   3.823  70.722  1.00  0.00    -0.161 NA 
ENDROOT
BRANCH   2   3
HETATM    3  C   UNL     1      -9.920   5.299  70.937  1.00  0.00    -0.208 C  
HETATM    4  C   UNL     1     -11.104   5.942  70.228  1.00  0.00    -0.368 C  
HETATM    5  C   UNL     1      -8.617   6.061  70.749  1.00  0.00    -0.135 C  
HETATM    6  C   UNL     1     -10.813   6.399  68.811  1.00  0.00    -0.317 C  
HETATM    7  N   UNL     1      -9.623   7.246  68.723  1.00  0.00    -0.142 NA 
HETATM    8  C   UNL     1      -8.431   6.899  69.484  1.00  0.00    -0.133 C  
BRANCH   7   9
HETATM    9  C   UNL     1      -9.694   8.351  67.904  1.00  0.00    -0.158 A  
HETATM   10  C   UNL     1      -9.790   9.564  66.108  1.00  0.00    -0.272 A  
HETATM   11  N   UNL     1      -9.507   8.316  66.596  1.00  0.00    -0.193 NA 
HETATM   12  C   UNL     1     -10.093  10.437  67.141  1.00  0.00    -0.208 A  
HETATM   13  N   UNL     1      -9.960   9.665  68.286  1.00  0.00    -0.150 NA 
HETATM   14  C   UNL     1     -10.445  11.779  66.922  1.00  0.00    -0.256 A  
HETATM   15  C   UNL     1     -10.498  12.220  65.597  1.00  0.00    -0.293 A  
HETATM   16  C   UNL     1     -10.189  11.361  64.542  1.00  0.00    -0.352 A  
HETATM   17  C   UNL     1      -9.823  10.030  64.785  1.00  0.00    -0.325 A  
BRANCH  13  18
HETATM   18  C   UNL     1      -9.989  10.261  69.616  1.00  0.00    -0.207 C  
BRANCH  18  19
HETATM   19  C   UNL     1     -11.150   9.788  70.467  1.00  0.00    -0.384 A  
HETATM   20  C   UNL     1     -12.427  10.312  70.207  1.00  0.00    -0.239 A  
HETATM   21  C   UNL     1     -13.481  10.068  71.087  1.00  0.00    -0.299 A  
HETATM   22  C   UNL     1     -13.270   9.273  72.208  1.00  0.00    -0.460 A  
HETATM   23  F   UNL     1     -14.256   9.113  73.099  1.00  0.00    -0.300 F  
HETATM   24  C   UNL     1     -12.046   8.659  72.425  1.00  0.00    -0.415 A  
HETATM   25  C   UNL     1     -10.993   8.895  71.542  1.00  0.00    -0.398 A  
ENDBRANCH  18  19
ENDBRANCH  13  18
ENDBRANCH   7   9
ENDBRANCH   2   3
BRANCH   2  26
HETATM   26  C   UNL     1      -9.057   3.229  69.768  1.00  0.00    -0.130 C  
HETATM   27  C   UNL     1      -8.501   2.665  67.615  1.00  0.00    -0.088 C  
HETATM   28  H   UNL     1      -7.745   2.582  71.207  1.00  0.00     0.000 HD 
HETATM   29  C   UNL     1      -7.018   2.021  69.373  1.00  0.00    -0.033 C  
HETATM   30  N   UNL     1      -9.350   3.279  68.495  1.00  0.00    -0.177 NA 
HETATM   31  O   UNL     1      -5.986   1.493  69.774  1.00  0.00    -0.021 OA 
HETATM   32  N   UNL     1      -7.925   2.608  70.203  1.00  0.00    -0.042 N  
HETATM   33  C   UNL     1      -7.366   2.054  67.948  1.00  0.00    -0.051 C  
ENDBRANCH   2  26
TORSDOF 5
ENDMDL
MODEL      107
REMARK 921   NORMALIZED FREE ENERGY PREDICTED BY IDOCK:   -5.59 KCAL/MOL
REMARK 922        TOTAL FREE ENERGY PREDICTED BY IDOCK:   -8.64 KCAL/MOL
REMARK 923 INTER-LIGAND FREE ENERGY PREDICTED BY IDOCK:   -7.96 KCAL/MOL
REMARK 924 INTRA-LIGAND FREE ENERGY PREDICTED BY IDOCK:   -0.68 KCAL/MOL
REMARK 927      BINDING AFFINITY PREDICTED BY RF-SCORE:    0.00 PKD
ROOT
HETATM    1  C   UNL     1      -9.870   8.823  65.811  1.00  0.00     0.044 C  
HETATM    2  N   UNL     1      -9.228   9.793  64.899  1.00  0.00    -0.242 NA 
ENDROOT
BRANCH   2   3
HETATM    3  C   UNL     1      -9.298  11.200  65.391  1.00  0.00    -0.219 C  
HETATM    4  C   UNL     1      -8.663  11.368  66.764  1.00  0.00    -0.174 C  
HETATM    5  C   UNL     1     -10.646  11.893  65.261  1.00  0.00    -0.320 C  
HETATM    6  C   UNL     1      -9.617  11.164  67.926  1.00  0.00    -0.175 C  
HETATM    7  N   UNL     1     -10.833  11.969  67.806  1.00  0.00    -0.207 NA 
HETATM    8  C   UNL     1     -11.496  12.089  66.516  1.00  0.00    -0.349 C  
BRANCH   7   9
HETATM    9  C   UNL     1     -11.298  12.583  68.948  1.00  0.00    -0.297 A  
HETATM   10  C   UNL     1     -11.683  14.114  70.435  1.00  0.00    -0.243 A  
HETATM   11  N   UNL     1     -10.914  13.782  69.351  1.00  0.00    -0.156 NA 
HETATM   12  C   UNL     1     -12.526  13.070  70.777  1.00  0.00    -0.302 A  
HETATM   13  N   UNL     1     -12.220  12.074  69.861  1.00  0.00    -0.223 NA 
HETATM   14  C   UNL     1     -13.441  13.150  71.839  1.00  0.00    -0.513 A  
HETATM   15  C   UNL     1     -13.491  14.351  72.554  1.00  0.00    -0.593 A  
HETATM   16  C   UNL     1     -12.646  15.412  72.232  1.00  0.00    -0.455 A  
HETATM   17  C   UNL     1     -11.728  15.304  71.179  1.00  0.00    -0.409 A  
BRANCH  13  18
HETATM   18  C   UNL     1     -12.741  10.720  70.003  1.00  0.00    -0.111 C  
BRANCH  18  19
HETATM   19  C   UNL     1     -11.852   9.812  70.828  1.00  0.00    -0.400 A  
HETATM   20  C   UNL     1     -12.441   9.046  71.848  1.00  0.00    -0.454 A  
HETATM   21  C   UNL     1     -11.642   8.358  72.761  1.00  0.00    -0.244 A  
HETATM   22  C   UNL     1     -10.259   8.406  72.637  1.00  0.00    -0.249 A  
HETATM   23  F   UNL     1      -9.493   7.820  73.565  1.00  0.00    -0.267 F  
HETATM   24  C   UNL     1      -9.661   9.067  71.575  1.00  0.00    -0.365 A  
HETATM   25  C   UNL     1     -10.457   9.749  70.655  1.00  0.00    -0.358 A  
ENDBRANCH  18  19
ENDBRANCH  13  18
ENDBRANCH   7   9
ENDBRANCH   2   3
BRANCH   2  26
HETATM   26  C   UNL     1      -8.159   9.296  64.176  1.00  0.00    -0.145 C  
HETATM   27  C   UNL     1      -6.395   9.492  62.724  1.00  0.00    -0.099 C  
HETATM   28  H   UNL     1      -8.469   7.411  64.924  1.00  0.00     0.000 HD 
HETATM   29  C   UNL     1      -6.819   7.358  63.709  1.00  0.00    -0.053 C  
HETATM   30  N   UNL     1      -7.436  10.063  63.404  1.00  0.00    -0.137 NA 
HETATM   31  O   UNL     1      -6.547   6.173  63.873  1.00  0.00    -0.035 OA 
HETATM   32  N   UNL     1      -7.868   7.973  64.322  1.00  0.00    -0.131 N  
HETATM   33  C   UNL     1      -6.027   8.217  62.820  1.00  0.00    -0.077 C  
ENDBRANCH   2  26
TORSDOF 5
ENDMDL
MODEL      108
REMARK 921   NORMALIZED FREE ENERGY PREDICTED BY IDOCK:   -5.56 KCAL/MOL
REMARK 922        TOTAL FREE ENERGY PREDICTED BY IDOCK:   -8.59 KCAL/MOL
REMARK 923 INTER-LIGAND FREE ENERGY PREDICTED BY IDOCK:   -7.85 KCAL/MOL
REMARK 924 INTRA-LIGAND FREE ENERGY PREDICTED BY IDOCK:   -0.74 KCAL/MOL
REMARK 927      BINDING AFFINITY PREDICTED BY RF-SCORE:    0.00 PKD
ROOT
HETATM    1  C   UNL     1     -10.368   8.863  66.482  1.00  0.00    -0.197 C  
HETATM    2  N   UNL     1      -9.168   8.829  65.619  1.00  0.00    -0.208 NA 
ENDROOT
BRANCH   2   3
HETATM    3  C   UNL     1      -8.778  10.172  65.098  1.00  0.00    -0.173 C  
HETATM    4  C   UNL     1      -7.808  10.895  66.021  1.00  0.00    -0.121 C  
HETATM    5  C   UNL     1      -9.912  11.057  64.601  1.00  0.00    -0.357 C  
HETATM    6  C   UNL     1      -8.472  11.759  67.077  1.00  0.00    -0.175 C  
HETATM    7  N   UNL     1      -9.452  12.687  66.512  1.00  0.00    -0.246 NA 
HETATM    8  C   UNL     1     -10.360  12.234  65.468  1.00  0.00    -0.267 C  
BRANCH   7   9
HETATM    9  C   UNL     1      -9.465  13.971  67.010  1.00  0.00    -0.250 A  
HETATM   10  C   UNL     1      -8.802  15.968  67.537  1.00  0.00    -0.189 A  
HETATM   11  N   UNL     1      -8.387  14.722  67.146  1.00  0.00    -0.207 NA 
HETATM   12  C   UNL     1     -10.174  15.990  67.727  1.00  0.00    -0.260 A  
HETATM   13  N   UNL     1     -10.574  14.690  67.454  1.00  0.00    -0.262 NA 
HETATM   14  C   UNL     1     -10.869  17.149  68.108  1.00  0.00    -0.316 A  
HETATM   15  C   UNL     1     -10.122  18.318  68.281  1.00  0.00    -0.406 A  
HETATM   16  C   UNL     1      -8.738  18.317  68.102  1.00  0.00    -0.293 A  
HETATM   17  C   UNL     1      -8.063  17.144  67.739  1.00  0.00    -0.197 A  
BRANCH  13  18
HETATM   18  C   UNL     1     -11.928  14.232  67.740  1.00  0.00    -0.349 C  
BRANCH  18  19
HETATM   19  C   UNL     1     -12.022  13.346  68.966  1.00  0.00    -0.357 A  
HETATM   20  C   UNL     1     -11.908  11.956  68.798  1.00  0.00    -0.371 A  
HETATM   21  C   UNL     1     -12.192  11.094  69.856  1.00  0.00    -0.385 A  
HETATM   22  C   UNL     1     -12.555  11.618  71.091  1.00  0.00    -0.335 A  
HETATM   23  F   UNL     1     -12.914  10.789  72.080  1.00  0.00    -0.520 F  
HETATM   24  C   UNL     1     -12.569  12.987  71.308  1.00  0.00    -0.373 A  
HETATM   25  C   UNL     1     -12.278  13.851  70.254  1.00  0.00    -0.428 A  
ENDBRANCH  18  19
ENDBRANCH  13  18
ENDBRANCH   7   9
ENDBRANCH   2   3
BRANCH   2  26
HETATM   26  C   UNL     1      -8.252   7.843  65.933  1.00  0.00    -0.126 C  
HETATM   27  C   UNL     1      -6.452   7.005  67.082  1.00  0.00    -0.053 C  
HETATM   28  H   UNL     1      -9.108   6.552  64.588  1.00  0.00     0.000 HD 
HETATM   29  C   UNL     1      -7.572   5.574  65.531  1.00  0.00    -0.079 C  
HETATM   30  N   UNL     1      -7.319   8.033  66.829  1.00  0.00    -0.088 NA 
HETATM   31  O   UNL     1      -7.713   4.493  64.970  1.00  0.00    -0.079 OA 
HETATM   32  N   UNL     1      -8.374   6.648  65.290  1.00  0.00    -0.134 N  
HETATM   33  C   UNL     1      -6.509   5.801  66.517  1.00  0.00    -0.047 C  
ENDBRANCH   2  26
TORSDOF 5
ENDMDL
MODEL      109
REMARK 921   NORMALIZED FREE ENERGY PREDICTED BY IDOCK:   -5.54 KCAL/MOL
REMARK 922        TOTAL FREE ENERGY PREDICTED BY IDOCK:   -8.58 KCAL/MOL
REMARK 923 INTER-LIGAND FREE ENERGY PREDICTED BY IDOCK:   -6.81 KCAL/MOL
REMARK 924 INTRA-LIGAND FREE ENERGY PREDICTED BY IDOCK:   -1.76 KCAL/MOL
REMARK 927      BINDING AFFINITY PREDICTED BY RF-SCORE:    0.00 PKD
ROOT
HETATM    1  C   UNL     1      -9.094   4.943  65.890  1.00  0.00    -0.147 C  
HETATM    2  N   UNL     1      -8.997   6.408  66.065  1.00  0.00    -0.152 NA 
ENDROOT
BRANCH   2   3
HETATM    3  C   UNL     1      -9.411   6.868  67.423  1.00  0.00    -0.132 C  
HETATM    4  C   UNL     1     -10.839   7.395  67.449  1.00  0.00    -0.299 C  
HETATM    5  C   UNL     1      -8.425   7.759  68.163  1.00  0.00    -0.124 C  
HETATM    6  C   UNL     1     -10.964   8.881  67.167  1.00  0.00     0.189 C  
HETATM    7  N   UNL     1     -10.087   9.692  68.014  1.00  0.00    -0.169 NA 
HETATM    8  C   UNL     1      -8.722   9.255  68.269  1.00  0.00    -0.129 C  
BRANCH   7   9
HETATM    9  C   UNL     1     -10.612  10.853  68.535  1.00  0.00    -0.190 A  
HETATM   10  C   UNL     1     -11.727  12.197  69.822  1.00  0.00    -0.310 A  
HETATM   11  N   UNL     1     -11.562  10.888  69.453  1.00  0.00    -0.289 NA 
HETATM   12  C   UNL     1     -10.914  13.025  69.066  1.00  0.00    -0.196 A  
HETATM   13  N   UNL     1     -10.259  12.160  68.202  1.00  0.00    -0.198 NA 
HETATM   14  C   UNL     1     -10.866  14.417  69.252  1.00  0.00    -0.261 A  
HETATM   15  C   UNL     1     -11.671  14.958  70.258  1.00  0.00    -0.352 A  
HETATM   16  C   UNL     1     -12.503  14.144  71.026  1.00  0.00    -0.438 A  
HETATM   17  C   UNL     1     -12.548  12.760  70.811  1.00  0.00    -0.308 A  
BRANCH  13  18
HETATM   18  C   UNL     1      -9.459  12.653  67.088  1.00  0.00    -0.214 C  
BRANCH  18  19
HETATM   19  C   UNL     1     -10.224  12.741  65.783  1.00  0.00    -0.302 A  
HETATM   20  C   UNL     1     -10.890  13.940  65.478  1.00  0.00    -0.306 A  
HETATM   21  C   UNL     1     -11.770  14.000  64.398  1.00  0.00    -0.415 A  
HETATM   22  C   UNL     1     -11.960  12.876  63.603  1.00  0.00    -0.541 A  
HETATM   23  F   UNL     1     -12.871  12.907  62.622  1.00  0.00    -0.014 F  
HETATM   24  C   UNL     1     -11.231  11.717  63.822  1.00  0.00    -0.498 A  
HETATM   25  C   UNL     1     -10.345  11.656  64.896  1.00  0.00    -0.331 A  
ENDBRANCH  18  19
ENDBRANCH  13  18
ENDBRANCH   7   9
ENDBRANCH   2   3
BRANCH   2  26
HETATM   26  C   UNL     1      -7.998   7.018  65.331  1.00  0.00    -0.129 C  
HETATM   27  C   UNL     1      -5.902   7.121  64.407  1.00  0.00    -0.037 C  
HETATM   28  H   UNL     1      -9.197   8.641  64.959  1.00  0.00     0.000 HD 
HETATM   29  C   UNL     1      -7.411   8.925  63.992  1.00  0.00    -0.112 C  
HETATM   30  N   UNL     1      -6.836   6.450  65.148  1.00  0.00    -0.046 NA 
HETATM   31  O   UNL     1      -7.690  10.000  63.471  1.00  0.00    -0.139 OA 
HETATM   32  N   UNL     1      -8.282   8.230  64.776  1.00  0.00    -0.154 N  
HETATM   33  C   UNL     1      -6.098   8.296  63.813  1.00  0.00    -0.071 C  
ENDBRANCH   2  26
TORSDOF 5
ENDMDL
MODEL      110
REMARK 921   NORMALIZED FREE ENERGY PREDICTED BY IDOCK:   -5.54 KCAL/MOL
REMARK 922        TOTAL FREE ENERGY PREDICTED BY IDOCK:   -8.58 KCAL/MOL
REMARK 923 INTER-LIGAND FREE ENERGY PREDICTED BY IDOCK:   -7.65 KCAL/MOL
REMARK 924 INTRA-LIGAND FREE ENERGY PREDICTED BY IDOCK:   -0.93 KCAL/MOL
REMARK 927      BINDING AFFINITY PREDICTED BY RF-SCORE:    0.00 PKD
ROOT
HETATM    1  C   UNL     1      -8.855   8.614  71.409  1.00  0.00    -0.215 C  
HETATM    2  N   UNL     1     -10.209   8.189  71.823  1.00  0.00    -0.197 NA 
ENDROOT
BRANCH   2   3
HETATM    3  C   UNL     1     -11.275   8.604  70.866  1.00  0.00    -0.267 C  
HETATM    4  C   UNL     1     -10.848   8.444  69.414  1.00  0.00    -0.094 C  
HETATM    5  C   UNL     1     -11.958   9.934  71.151  1.00  0.00    -0.473 C  
HETATM    6  C   UNL     1     -10.171   9.666  68.821  1.00  0.00    -0.196 C  
HETATM    7  N   UNL     1     -10.950  10.891  69.009  1.00  0.00    -0.217 NA 
HETATM    8  C   UNL     1     -11.604  11.143  70.285  1.00  0.00    -0.296 C  
BRANCH   7   9
HETATM    9  C   UNL     1     -11.023  11.761  67.945  1.00  0.00    -0.221 A  
HETATM   10  C   UNL     1     -11.798  12.819  66.216  1.00  0.00    -0.423 A  
HETATM   11  N   UNL     1     -11.975  11.729  67.028  1.00  0.00    -0.575 NA 
HETATM   12  C   UNL     1     -10.661  13.521  66.580  1.00  0.00    -0.287 A  
HETATM   13  N   UNL     1     -10.139  12.795  67.640  1.00  0.00    -0.216 NA 
HETATM   14  C   UNL     1     -10.254  14.697  65.928  1.00  0.00    -0.344 A  
HETATM   15  C   UNL     1     -11.058  15.163  64.883  1.00  0.00    -0.425 A  
HETATM   16  C   UNL     1     -12.203  14.467  64.496  1.00  0.00    -0.483 A  
HETATM   17  C   UNL     1     -12.580  13.286  65.149  1.00  0.00    -0.512 A  
BRANCH  13  18
HETATM   18  C   UNL     1      -8.818  13.081  68.185  1.00  0.00    -0.194 C  
BRANCH  18  19
HETATM   19  C   UNL     1      -7.798  11.996  67.903  1.00  0.00    -0.144 A  
HETATM   20  C   UNL     1      -7.764  11.427  66.619  1.00  0.00    -0.129 A  
HETATM   21  C   UNL     1      -6.991  10.293  66.373  1.00  0.00    -0.111 A  
HETATM   22  C   UNL     1      -6.226   9.747  67.396  1.00  0.00    -0.060 A  
HETATM   23  F   UNL     1      -5.555   8.608  67.183  1.00  0.00    -0.035 F  
HETATM   24  C   UNL     1      -6.162  10.355  68.640  1.00  0.00    -0.047 A  
HETATM   25  C   UNL     1      -6.927  11.494  68.887  1.00  0.00    -0.100 A  
ENDBRANCH  18  19
ENDBRANCH  13  18
ENDBRANCH   7   9
ENDBRANCH   2   3
BRANCH   2  26
HETATM   26  C   UNL     1     -10.255   7.011  72.545  1.00  0.00    -0.184 C  
HETATM   27  C   UNL     1     -11.282   5.100  73.289  1.00  0.00    -0.321 C  
HETATM   28  H   UNL     1      -8.334   7.287  73.209  1.00  0.00     0.000 HD 
HETATM   29  C   UNL     1      -9.021   5.501  73.947  1.00  0.00    -0.123 C  
HETATM   30  N   UNL     1     -11.318   6.251  72.550  1.00  0.00    -0.276 NA 
HETATM   31  O   UNL     1      -7.995   5.175  74.535  1.00  0.00    -0.098 OA 
HETATM   32  N   UNL     1      -9.134   6.655  73.232  1.00  0.00    -0.127 N  
HETATM   33  C   UNL     1     -10.226   4.665  73.974  1.00  0.00    -0.256 C  
ENDBRANCH   2  26
TORSDOF 5
ENDMDL
MODEL      111
REMARK 921   NORMALIZED FREE ENERGY PREDICTED BY IDOCK:   -5.54 KCAL/MOL
REMARK 922        TOTAL FREE ENERGY PREDICTED BY IDOCK:   -8.57 KCAL/MOL
REMARK 923 INTER-LIGAND FREE ENERGY PREDICTED BY IDOCK:   -8.00 KCAL/MOL
REMARK 924 INTRA-LIGAND FREE ENERGY PREDICTED BY IDOCK:   -0.57 KCAL/MOL
REMARK 927      BINDING AFFINITY PREDICTED BY RF-SCORE:    0.00 PKD
ROOT
HETATM    1  C   UNL     1     -10.925  10.708  66.485  1.00  0.00    -0.028 C  
HETATM    2  N   UNL     1     -10.955  10.869  65.016  1.00  0.00    -0.068 NA 
ENDROOT
BRANCH   2   3
HETATM    3  C   UNL     1     -11.424  12.216  64.580  1.00  0.00    -0.334 C  
HETATM    4  C   UNL     1     -10.273  13.142  64.211  1.00  0.00    -0.283 C  
HETATM    5  C   UNL     1     -12.475  12.881  65.456  1.00  0.00    -0.462 C  
HETATM    6  C   UNL     1      -9.735  13.965  65.367  1.00  0.00    -0.062 C  
HETATM    7  N   UNL     1     -10.786  14.690  66.081  1.00  0.00    -0.305 NA 
HETATM    8  C   UNL     1     -12.052  14.031  66.369  1.00  0.00    -0.455 C  
BRANCH   7   9
HETATM    9  C   UNL     1     -10.515  15.987  66.454  1.00  0.00    -0.309 A  
HETATM   10  C   UNL     1     -10.300  18.144  66.350  1.00  0.00    -0.394 A  
HETATM   11  N   UNL     1     -10.451  17.002  65.609  1.00  0.00    -0.559 NA 
HETATM   12  C   UNL     1     -10.191  17.843  67.698  1.00  0.00    -0.365 A  
HETATM   13  N   UNL     1     -10.260  16.457  67.742  1.00  0.00    -0.266 NA 
HETATM   14  C   UNL     1     -10.051  18.829  68.688  1.00  0.00    -0.432 A  
HETATM   15  C   UNL     1     -10.040  20.163  68.267  1.00  0.00    -0.471 A  
HETATM   16  C   UNL     1     -10.141  20.488  66.915  1.00  0.00    -0.390 A  
HETATM   17  C   UNL     1     -10.262  19.486  65.943  1.00  0.00    -0.508 A  
BRANCH  13  18
HETATM   18  C   UNL     1      -9.974  15.717  68.964  1.00  0.00    -0.233 C  
BRANCH  18  19
HETATM   19  C   UNL     1      -8.599  15.081  68.980  1.00  0.00    -0.205 A  
HETATM   20  C   UNL     1      -8.367  13.967  68.157  1.00  0.00    -0.163 A  
HETATM   21  C   UNL     1      -7.193  13.227  68.288  1.00  0.00    -0.108 A  
HETATM   22  C   UNL     1      -6.235  13.617  69.216  1.00  0.00    -0.104 A  
HETATM   23  F   UNL     1      -5.149  12.856  69.405  1.00  0.00    -0.072 F  
HETATM   24  C   UNL     1      -6.396  14.775  69.962  1.00  0.00    -0.164 A  
HETATM   25  C   UNL     1      -7.565  15.521  69.827  1.00  0.00    -0.065 A  
ENDBRANCH  18  19
ENDBRANCH  13  18
ENDBRANCH   7   9
ENDBRANCH   2   3
BRANCH   2  26
HETATM   26  C   UNL     1     -10.001  10.140  64.330  1.00  0.00    -0.159 C  
HETATM   27  C   UNL     1      -8.879   9.499  62.435  1.00  0.00    -0.246 C  
HETATM   28  H   UNL     1      -9.370   9.245  66.065  1.00  0.00     0.000 HD 
HETATM   29  C   UNL     1      -8.193   8.571  64.526  1.00  0.00    -0.156 C  
HETATM   30  N   UNL     1      -9.847  10.255  63.037  1.00  0.00    -0.163 NA 
HETATM   31  O   UNL     1      -7.460   7.854  65.199  1.00  0.00    -0.074 OA 
HETATM   32  N   UNL     1      -9.202   9.313  65.061  1.00  0.00    -0.217 N  
HETATM   33  C   UNL     1      -8.043   8.681  63.071  1.00  0.00    -0.174 C  
ENDBRANCH   2  26
TORSDOF 5
ENDMDL
MODEL      112
REMARK 921   NORMALIZED FREE ENERGY PREDICTED BY IDOCK:   -5.52 KCAL/MOL
REMARK 922        TOTAL FREE ENERGY PREDICTED BY IDOCK:   -8.55 KCAL/MOL
REMARK 923 INTER-LIGAND FREE ENERGY PREDICTED BY IDOCK:   -7.61 KCAL/MOL
REMARK 924 INTRA-LIGAND FREE ENERGY PREDICTED BY IDOCK:   -0.94 KCAL/MOL
REMARK 927      BINDING AFFINITY PREDICTED BY RF-SCORE:    0.00 PKD
ROOT
HETATM    1  C   UNL     1      -7.172   7.673  66.725  1.00  0.00    -0.088 C  
HETATM    2  N   UNL     1      -8.149   6.568  66.619  1.00  0.00    -0.108 NA 
ENDROOT
BRANCH   2   3
HETATM    3  C   UNL     1      -9.357   6.766  67.473  1.00  0.00    -0.124 C  
HETATM    4  C   UNL     1     -10.376   7.698  66.832  1.00  0.00    -0.388 C  
HETATM    5  C   UNL     1      -9.102   7.070  68.942  1.00  0.00    -0.134 C  
HETATM    6  C   UNL     1     -10.187   9.164  67.172  1.00  0.00    -0.261 C  
HETATM    7  N   UNL     1     -10.089   9.402  68.613  1.00  0.00    -0.184 NA 
HETATM    8  C   UNL     1      -9.303   8.501  69.443  1.00  0.00    -0.154 C  
BRANCH   7   9
HETATM    9  C   UNL     1     -10.760  10.493  69.119  1.00  0.00    -0.231 A  
HETATM   10  C   UNL     1     -12.107  11.684  70.333  1.00  0.00    -0.373 A  
HETATM   11  N   UNL     1     -11.795  10.410  69.937  1.00  0.00    -0.255 NA 
HETATM   12  C   UNL     1     -11.298  12.608  69.693  1.00  0.00    -0.104 A  
HETATM   13  N   UNL     1     -10.489  11.838  68.869  1.00  0.00    -0.189 NA 
HETATM   14  C   UNL     1     -11.387  13.989  69.931  1.00  0.00    -0.208 A  
HETATM   15  C   UNL     1     -12.331  14.419  70.869  1.00  0.00    -0.419 A  
HETATM   16  C   UNL     1     -13.162  13.506  71.519  1.00  0.00    -0.402 A  
HETATM   17  C   UNL     1     -13.067  12.133  71.253  1.00  0.00    -0.210 A  
BRANCH  13  18
HETATM   18  C   UNL     1      -9.629  12.443  67.861  1.00  0.00    -0.205 C  
BRANCH  18  19
HETATM   19  C   UNL     1     -10.389  13.044  66.696  1.00  0.00    -0.263 A  
HETATM   20  C   UNL     1     -10.042  14.335  66.266  1.00  0.00    -0.308 A  
HETATM   21  C   UNL     1     -10.841  15.007  65.342  1.00  0.00    -0.376 A  
HETATM   22  C   UNL     1     -11.967  14.379  64.822  1.00  0.00    -0.447 A  
HETATM   23  F   UNL     1     -12.783  15.057  64.005  1.00  0.00    -0.432 F  
HETATM   24  C   UNL     1     -12.267  13.067  65.153  1.00  0.00    -0.507 A  
HETATM   25  C   UNL     1     -11.466  12.390  66.070  1.00  0.00    -0.431 A  
ENDBRANCH  18  19
ENDBRANCH  13  18
ENDBRANCH   7   9
ENDBRANCH   2   3
BRANCH   2  26
HETATM   26  C   UNL     1      -8.186   5.937  65.390  1.00  0.00    -0.139 C  
HETATM   27  C   UNL     1      -7.404   5.517  63.276  1.00  0.00    -0.052 C  
HETATM   28  H   UNL     1      -9.851   4.869  65.935  1.00  0.00     0.000 HD 
HETATM   29  C   UNL     1      -9.303   4.289  64.046  1.00  0.00    -0.141 C  
HETATM   30  N   UNL     1      -7.298   6.186  64.464  1.00  0.00    -0.064 NA 
HETATM   31  O   UNL     1     -10.175   3.442  63.888  1.00  0.00    -0.178 OA 
HETATM   32  N   UNL     1      -9.172   5.019  65.189  1.00  0.00    -0.133 N  
HETATM   33  C   UNL     1      -8.321   4.592  62.999  1.00  0.00    -0.106 C  
ENDBRANCH   2  26
TORSDOF 5
ENDMDL
MODEL      113
REMARK 921   NORMALIZED FREE ENERGY PREDICTED BY IDOCK:   -5.52 KCAL/MOL
REMARK 922        TOTAL FREE ENERGY PREDICTED BY IDOCK:   -8.55 KCAL/MOL
REMARK 923 INTER-LIGAND FREE ENERGY PREDICTED BY IDOCK:   -7.72 KCAL/MOL
REMARK 924 INTRA-LIGAND FREE ENERGY PREDICTED BY IDOCK:   -0.83 KCAL/MOL
REMARK 927      BINDING AFFINITY PREDICTED BY RF-SCORE:    0.00 PKD
ROOT
HETATM    1  C   UNL     1     -11.239  14.495  69.139  1.00  0.00    -0.269 C  
HETATM    2  N   UNL     1     -10.101  14.775  68.237  1.00  0.00    -0.217 NA 
ENDROOT
BRANCH   2   3
HETATM    3  C   UNL     1      -9.601  13.561  67.527  1.00  0.00    -0.221 C  
HETATM    4  C   UNL     1     -10.700  12.537  67.282  1.00  0.00    -0.259 C  
HETATM    5  C   UNL     1      -8.314  12.950  68.061  1.00  0.00    -0.169 C  
HETATM    6  C   UNL     1     -10.872  11.522  68.397  1.00  0.00    -0.211 C  
HETATM    7  N   UNL     1      -9.615  10.869  68.766  1.00  0.00    -0.186 NA 
HETATM    8  C   UNL     1      -8.395  11.656  68.870  1.00  0.00     0.038 C  
BRANCH   7   9
HETATM    9  C   UNL     1      -9.655   9.513  69.000  1.00  0.00    -0.166 A  
HETATM   10  C   UNL     1     -10.264   7.593  69.806  1.00  0.00    -0.210 A  
HETATM   11  N   UNL     1     -10.360   8.950  69.966  1.00  0.00    -0.197 NA 
HETATM   12  C   UNL     1      -9.415   7.283  68.756  1.00  0.00    -0.142 A  
HETATM   13  N   UNL     1      -8.980   8.517  68.296  1.00  0.00    -0.139 NA 
HETATM   14  C   UNL     1      -9.153   5.962  68.356  1.00  0.00    -0.115 A  
HETATM   15  C   UNL     1      -9.801   4.939  69.055  1.00  0.00    -0.250 A  
HETATM   16  C   UNL     1     -10.654   5.229  70.121  1.00  0.00    -0.297 A  
HETATM   17  C   UNL     1     -10.887   6.554  70.513  1.00  0.00    -0.323 A  
BRANCH  13  18
HETATM   18  C   UNL     1      -7.902   8.633  67.322  1.00  0.00    -0.097 C  
BRANCH  18  19
HETATM   19  C   UNL     1      -8.337   9.240  66.004  1.00  0.00    -0.117 A  
HETATM   20  C   UNL     1      -7.347   9.643  65.093  1.00  0.00    -0.115 A  
HETATM   21  C   UNL     1      -7.688  10.389  63.967  1.00  0.00    -0.035 A  
HETATM   22  C   UNL     1      -9.021  10.706  63.730  1.00  0.00    -0.197 A  
HETATM   23  F   UNL     1      -9.338  11.498  62.699  1.00  0.00    -0.364 F  
HETATM   24  C   UNL     1     -10.024  10.228  64.559  1.00  0.00    -0.359 A  
HETATM   25  C   UNL     1      -9.686   9.475  65.682  1.00  0.00    -0.361 A  
ENDBRANCH  18  19
ENDBRANCH  13  18
ENDBRANCH   7   9
ENDBRANCH   2   3
BRANCH   2  26
HETATM   26  C   UNL     1     -10.100  16.037  67.674  1.00  0.00    -0.245 C  
HETATM   27  C   UNL     1      -9.630  18.281  67.671  1.00  0.00    -0.282 C  
HETATM   28  H   UNL     1     -11.022  15.334  65.981  1.00  0.00     0.000 HD 
HETATM   29  C   UNL     1     -10.648  17.334  65.728  1.00  0.00    -0.194 C  
HETATM   30  N   UNL     1      -9.593  17.067  68.299  1.00  0.00    -0.263 NA 
HETATM   31  O   UNL     1     -11.093  17.429  64.590  1.00  0.00    -1.029 OA 
HETATM   32  N   UNL     1     -10.624  16.163  66.423  1.00  0.00    -0.297 N  
HETATM   33  C   UNL     1     -10.104  18.493  66.445  1.00  0.00    -0.430 C  
ENDBRANCH   2  26
TORSDOF 5
ENDMDL
MODEL      114
REMARK 921   NORMALIZED FREE ENERGY PREDICTED BY IDOCK:   -5.47 KCAL/MOL
REMARK 922        TOTAL FREE ENERGY PREDICTED BY IDOCK:   -8.48 KCAL/MOL
REMARK 923 INTER-LIGAND FREE ENERGY PREDICTED BY IDOCK:   -6.99 KCAL/MOL
REMARK 924 INTRA-LIGAND FREE ENERGY PREDICTED BY IDOCK:   -1.49 KCAL/MOL
REMARK 927      BINDING AFFINITY PREDICTED BY RF-SCORE:    0.00 PKD
ROOT
HETATM    1  C   UNL     1     -14.017  12.993  72.349  1.00  0.00    -0.327 C  
HETATM    2  N   UNL     1     -13.121  13.382  71.239  1.00  0.00    -0.281 NA 
ENDROOT
BRANCH   2   3
HETATM    3  C   UNL     1     -12.617  14.782  71.353  1.00  0.00    -0.326 C  
HETATM    4  C   UNL     1     -13.093  15.667  70.210  1.00  0.00     0.089 C  
HETATM    5  C   UNL     1     -11.136  14.941  71.663  1.00  0.00     0.082 C  
HETATM    6  C   UNL     1     -12.172  15.685  69.004  1.00  0.00    -0.079 C  
HETATM    7  N   UNL     1     -10.784  15.983  69.358  1.00  0.00    -0.269 NA 
HETATM    8  C   UNL     1     -10.192  15.374  70.541  1.00  0.00     0.117 C  
BRANCH   7   9
HETATM    9  C   UNL     1     -10.094  16.844  68.534  1.00  0.00    -0.297 A  
HETATM   10  C   UNL     1      -9.284  18.681  67.712  1.00  0.00    -0.285 A  
HETATM   11  N   UNL     1     -10.215  18.160  68.571  1.00  0.00    -0.390 NA 
HETATM   12  C   UNL     1      -8.602  17.670  67.056  1.00  0.00    -0.237 A  
HETATM   13  N   UNL     1      -9.178  16.504  67.539  1.00  0.00    -0.202 NA 
HETATM   14  C   UNL     1      -7.574  17.922  66.133  1.00  0.00    -0.295 A  
HETATM   15  C   UNL     1      -7.235  19.259  65.899  1.00  0.00    -0.305 A  
HETATM   16  C   UNL     1      -7.914  20.293  66.544  1.00  0.00    -0.276 A  
HETATM   17  C   UNL     1      -8.949  20.018  67.447  1.00  0.00    -0.440 A  
BRANCH  13  18
HETATM   18  C   UNL     1      -8.888  15.205  66.945  1.00  0.00    -0.256 C  
BRANCH  18  19
HETATM   19  C   UNL     1      -7.943  14.357  67.772  1.00  0.00    -0.166 A  
HETATM   20  C   UNL     1      -8.019  12.960  67.652  1.00  0.00    -0.167 A  
HETATM   21  C   UNL     1      -7.320  12.139  68.535  1.00  0.00    -0.105 A  
HETATM   22  C   UNL     1      -6.519  12.710  69.517  1.00  0.00    -0.078 A  
HETATM   23  F   UNL     1      -5.921  11.924  70.420  1.00  0.00    -0.135 F  
HETATM   24  C   UNL     1      -6.346  14.084  69.585  1.00  0.00    -0.130 A  
HETATM   25  C   UNL     1      -7.037  14.907  68.697  1.00  0.00    -0.111 A  
ENDBRANCH  18  19
ENDBRANCH  13  18
ENDBRANCH   7   9
ENDBRANCH   2   3
BRANCH   2  26
HETATM   26  C   UNL     1     -12.377  12.350  70.701  1.00  0.00    -0.279 C  
HETATM   27  C   UNL     1     -11.020  11.412  69.107  1.00  0.00    -0.236 C  
HETATM   28  H   UNL     1     -12.841  11.128  72.282  1.00  0.00     0.000 HD 
HETATM   29  C   UNL     1     -11.580  10.107  71.027  1.00  0.00    -0.376 C  
HETATM   30  N   UNL     1     -11.735  12.483  69.570  1.00  0.00    -0.306 NA 
HETATM   31  O   UNL     1     -11.503   9.079  71.692  1.00  0.00    -0.311 OA 
HETATM   32  N   UNL     1     -12.311  11.189  71.412  1.00  0.00    -0.283 N  
HETATM   33  C   UNL     1     -10.885  10.251  69.743  1.00  0.00    -0.332 C  
ENDBRANCH   2  26
TORSDOF 5
ENDMDL
MODEL      115
REMARK 921   NORMALIZED FREE ENERGY PREDICTED BY IDOCK:   -5.44 KCAL/MOL
REMARK 922        TOTAL FREE ENERGY PREDICTED BY IDOCK:   -8.44 KCAL/MOL
REMARK 923 INTER-LIGAND FREE ENERGY PREDICTED BY IDOCK:   -8.49 KCAL/MOL
REMARK 924 INTRA-LIGAND FREE ENERGY PREDICTED BY IDOCK:    0.06 KCAL/MOL
REMARK 927      BINDING AFFINITY PREDICTED BY RF-SCORE:    0.00 PKD
ROOT
HETATM    1  C   UNL     1      -9.296   8.681  72.139  1.00  0.00    -0.273 C  
HETATM    2  N   UNL     1     -10.529   7.867  72.195  1.00  0.00    -0.231 NA 
ENDROOT
BRANCH   2   3
HETATM    3  C   UNL     1     -11.546   8.268  71.180  1.00  0.00    -0.279 C  
HETATM    4  C   UNL     1     -11.253   7.689  69.803  1.00  0.00    -0.042 C  
HETATM    5  C   UNL     1     -11.922   9.742  71.147  1.00  0.00    -0.463 C  
HETATM    6  C   UNL     1     -10.379   8.567  68.926  1.00  0.00    -0.210 C  
HETATM    7  N   UNL     1     -10.876   9.939  68.826  1.00  0.00    -0.221 NA 
HETATM    8  C   UNL     1     -11.383  10.613  70.013  1.00  0.00    -0.324 C  
BRANCH   7   9
HETATM    9  C   UNL     1     -10.837  10.535  67.585  1.00  0.00    -0.300 A  
HETATM   10  C   UNL     1     -10.467  10.830  65.468  1.00  0.00    -0.194 A  
HETATM   11  N   UNL     1     -10.161  10.055  66.556  1.00  0.00    -0.233 NA 
HETATM   12  C   UNL     1     -11.301  11.875  65.830  1.00  0.00    -0.299 A  
HETATM   13  N   UNL     1     -11.473  11.714  67.197  1.00  0.00    -0.478 NA 
HETATM   14  C   UNL     1     -11.790  12.812  64.904  1.00  0.00    -0.424 A  
HETATM   15  C   UNL     1     -11.415  12.649  63.567  1.00  0.00    -0.557 A  
HETATM   16  C   UNL     1     -10.570  11.608  63.182  1.00  0.00    -0.341 A  
HETATM   17  C   UNL     1     -10.080  10.696  64.126  1.00  0.00    -0.402 A  
BRANCH  13  18
HETATM   18  C   UNL     1     -12.120  12.734  68.011  1.00  0.00    -0.121 C  
BRANCH  18  19
HETATM   19  C   UNL     1     -11.274  13.975  68.214  1.00  0.00    -0.293 A  
HETATM   20  C   UNL     1      -9.942  13.957  67.770  1.00  0.00    -0.241 A  
HETATM   21  C   UNL     1      -9.071  14.989  68.116  1.00  0.00    -0.178 A  
HETATM   22  C   UNL     1      -9.536  16.055  68.876  1.00  0.00    -0.235 A  
HETATM   23  F   UNL     1      -8.679  16.999  69.283  1.00  0.00    -0.201 F  
HETATM   24  C   UNL     1     -10.873  16.146  69.234  1.00  0.00    -0.310 A  
HETATM   25  C   UNL     1     -11.748  15.120  68.882  1.00  0.00    -0.357 A  
ENDBRANCH  18  19
ENDBRANCH  13  18
ENDBRANCH   7   9
ENDBRANCH   2   3
BRANCH   2  26
HETATM   26  C   UNL     1     -10.347   6.561  72.611  1.00  0.00    -0.192 C  
HETATM   27  C   UNL     1     -10.559   4.836  74.107  1.00  0.00    -0.296 C  
HETATM   28  H   UNL     1      -9.393   6.086  70.858  1.00  0.00     0.000 HD 
HETATM   29  C   UNL     1      -9.519   4.390  72.004  1.00  0.00    -0.141 C  
HETATM   30  N   UNL     1     -10.778   6.145  73.772  1.00  0.00    -0.230 NA 
HETATM   31  O   UNL     1      -8.985   3.627  71.205  1.00  0.00    -0.087 OA 
HETATM   32  N   UNL     1      -9.724   5.711  71.747  1.00  0.00    -0.156 N  
HETATM   33  C   UNL     1      -9.978   3.933  73.320  1.00  0.00    -0.187 C  
ENDBRANCH   2  26
TORSDOF 5
ENDMDL
MODEL      116
REMARK 921   NORMALIZED FREE ENERGY PREDICTED BY IDOCK:   -5.43 KCAL/MOL
REMARK 922        TOTAL FREE ENERGY PREDICTED BY IDOCK:   -8.43 KCAL/MOL
REMARK 923 INTER-LIGAND FREE ENERGY PREDICTED BY IDOCK:   -7.30 KCAL/MOL
REMARK 924 INTRA-LIGAND FREE ENERGY PREDICTED BY IDOCK:   -1.13 KCAL/MOL
REMARK 927      BINDING AFFINITY PREDICTED BY RF-SCORE:    0.00 PKD
ROOT
HETATM    1  C   UNL     1      -9.856   7.979  73.008  1.00  0.00    -0.282 C  
HETATM    2  N   UNL     1     -10.862   7.030  72.483  1.00  0.00    -0.238 NA 
ENDROOT
BRANCH   2   3
HETATM    3  C   UNL     1     -11.822   7.658  71.529  1.00  0.00    -0.295 C  
HETATM    4  C   UNL     1     -11.401   7.479  70.077  1.00  0.00    -0.115 C  
HETATM    5  C   UNL     1     -12.269   9.075  71.857  1.00  0.00    -0.451 C  
HETATM    6  C   UNL     1     -10.512   8.585  69.540  1.00  0.00    -0.220 C  
HETATM    7  N   UNL     1     -11.070   9.919  69.766  1.00  0.00    -0.249 NA 
HETATM    8  C   UNL     1     -11.695  10.235  71.042  1.00  0.00    -0.370 C  
BRANCH   7   9
HETATM    9  C   UNL     1     -10.972  10.826  68.735  1.00  0.00    -0.247 A  
HETATM   10  C   UNL     1     -11.545  12.215  67.170  1.00  0.00    -0.335 A  
HETATM   11  N   UNL     1     -11.994  11.215  67.993  1.00  0.00    -0.632 NA 
HETATM   12  C   UNL     1     -10.185  12.416  67.340  1.00  0.00    -0.208 A  
HETATM   13  N   UNL     1      -9.820  11.475  68.292  1.00  0.00    -0.197 NA 
HETATM   14  C   UNL     1      -9.469  13.399  66.637  1.00  0.00    -0.264 A  
HETATM   15  C   UNL     1     -10.188  14.202  65.746  1.00  0.00    -0.347 A  
HETATM   16  C   UNL     1     -11.556  14.011  65.553  1.00  0.00    -0.333 A  
HETATM   17  C   UNL     1     -12.247  13.013  66.253  1.00  0.00    -0.390 A  
BRANCH  13  18
HETATM   18  C   UNL     1      -8.422  11.210  68.607  1.00  0.00    -0.153 C  
BRANCH  18  19
HETATM   19  C   UNL     1      -7.667  10.528  67.485  1.00  0.00    -0.098 A  
HETATM   20  C   UNL     1      -6.535  11.168  66.954  1.00  0.00    -0.117 A  
HETATM   21  C   UNL     1      -5.932  10.685  65.793  1.00  0.00    -0.137 A  
HETATM   22  C   UNL     1      -6.438   9.545  65.180  1.00  0.00    -0.079 A  
HETATM   23  F   UNL     1      -5.916   9.134  64.018  1.00  0.00    -0.069 F  
HETATM   24  C   UNL     1      -7.487   8.837  65.747  1.00  0.00    -0.085 A  
HETATM   25  C   UNL     1      -8.086   9.313  66.912  1.00  0.00    -0.108 A  
ENDBRANCH  18  19
ENDBRANCH  13  18
ENDBRANCH   7   9
ENDBRANCH   2   3
BRANCH   2  26
HETATM   26  C   UNL     1     -10.427   5.723  72.370  1.00  0.00    -0.211 C  
HETATM   27  C   UNL     1      -8.981   4.097  71.647  1.00  0.00    -0.119 C  
HETATM   28  H   UNL     1     -12.008   5.051  73.490  1.00  0.00     0.000 HD 
HETATM   29  C   UNL     1     -10.828   3.444  73.013  1.00  0.00    -0.094 C  
HETATM   30  N   UNL     1      -9.342   5.415  71.710  1.00  0.00    -0.145 NA 
HETATM   31  O   UNL     1     -11.479   2.594  73.611  1.00  0.00    -0.229 OA 
HETATM   32  N   UNL     1     -11.161   4.764  73.000  1.00  0.00    -0.275 N  
HETATM   33  C   UNL     1      -9.625   3.099  72.246  1.00  0.00    -0.204 C  
ENDBRANCH   2  26
TORSDOF 5
ENDMDL
MODEL      117
REMARK 921   NORMALIZED FREE ENERGY PREDICTED BY IDOCK:   -5.41 KCAL/MOL
REMARK 922        TOTAL FREE ENERGY PREDICTED BY IDOCK:   -8.41 KCAL/MOL
REMARK 923 INTER-LIGAND FREE ENERGY PREDICTED BY IDOCK:   -7.48 KCAL/MOL
REMARK 924 INTRA-LIGAND FREE ENERGY PREDICTED BY IDOCK:   -0.93 KCAL/MOL
REMARK 927      BINDING AFFINITY PREDICTED BY RF-SCORE:    0.00 PKD
ROOT
HETATM    1  C   UNL     1      -6.174   4.862  67.759  1.00  0.00    -0.035 C  
HETATM    2  N   UNL     1      -6.712   6.214  68.019  1.00  0.00    -0.062 NA 
ENDROOT
BRANCH   2   3
HETATM    3  C   UNL     1      -6.737   7.081  66.805  1.00  0.00    -0.060 C  
HETATM    4  C   UNL     1      -6.599   8.559  67.142  1.00  0.00    -0.058 C  
HETATM    5  C   UNL     1      -7.836   6.794  65.793  1.00  0.00    -0.102 C  
HETATM    6  C   UNL     1      -7.915   9.272  67.388  1.00  0.00    -0.106 C  
HETATM    7  N   UNL     1      -8.880   9.067  66.307  1.00  0.00    -0.143 NA 
HETATM    8  C   UNL     1      -9.029   7.746  65.712  1.00  0.00    -0.066 C  
BRANCH   7   9
HETATM    9  C   UNL     1      -9.613  10.159  65.901  1.00  0.00    -0.218 A  
HETATM   10  C   UNL     1     -10.820  11.466  64.659  1.00  0.00    -0.292 A  
HETATM   11  N   UNL     1     -10.005  10.364  64.655  1.00  0.00    -0.341 NA 
HETATM   12  C   UNL     1     -10.889  12.020  65.926  1.00  0.00    -0.288 A  
HETATM   13  N   UNL     1     -10.058  11.216  66.693  1.00  0.00    -0.210 NA 
HETATM   14  C   UNL     1     -11.673  13.147  66.220  1.00  0.00    -0.424 A  
HETATM   15  C   UNL     1     -12.417  13.702  65.174  1.00  0.00    -0.488 A  
HETATM   16  C   UNL     1     -12.356  13.165  63.888  1.00  0.00    -0.439 A  
HETATM   17  C   UNL     1     -11.552  12.050  63.614  1.00  0.00    -0.578 A  
BRANCH  13  18
HETATM   18  C   UNL     1      -9.685  11.581  68.054  1.00  0.00    -0.186 C  
BRANCH  18  19
HETATM   19  C   UNL     1     -10.609  11.010  69.110  1.00  0.00    -0.253 A  
HETATM   20  C   UNL     1     -11.817  11.676  69.374  1.00  0.00    -0.408 A  
HETATM   21  C   UNL     1     -12.597  11.311  70.470  1.00  0.00    -0.331 A  
HETATM   22  C   UNL     1     -12.190  10.261  71.284  1.00  0.00    -0.395 A  
HETATM   23  F   UNL     1     -12.892   9.969  72.386  1.00  0.00    -0.437 F  
HETATM   24  C   UNL     1     -11.058   9.521  70.979  1.00  0.00    -0.433 A  
HETATM   25  C   UNL     1     -10.280   9.879  69.879  1.00  0.00    -0.298 A  
ENDBRANCH  18  19
ENDBRANCH  13  18
ENDBRANCH   7   9
ENDBRANCH   2   3
BRANCH   2  26
HETATM   26  C   UNL     1      -7.665   6.281  69.017  1.00  0.00    -0.100 C  
HETATM   27  C   UNL     1      -9.715   5.812  69.932  1.00  0.00    -0.164 C  
HETATM   28  H   UNL     1      -6.420   7.409  70.195  1.00  0.00     0.000 HD 
HETATM   29  C   UNL     1      -8.154   7.066  71.234  1.00  0.00    -0.108 C  
HETATM   30  N   UNL     1      -8.828   5.698  68.896  1.00  0.00    -0.109 NA 
HETATM   31  O   UNL     1      -7.833   7.651  72.263  1.00  0.00    -0.092 OA 
HETATM   32  N   UNL     1      -7.334   6.958  70.153  1.00  0.00    -0.080 N  
HETATM   33  C   UNL     1      -9.470   6.435  71.082  1.00  0.00    -0.177 C  
ENDBRANCH   2  26
TORSDOF 5
ENDMDL
MODEL      118
REMARK 921   NORMALIZED FREE ENERGY PREDICTED BY IDOCK:   -5.39 KCAL/MOL
REMARK 922        TOTAL FREE ENERGY PREDICTED BY IDOCK:   -8.38 KCAL/MOL
REMARK 923 INTER-LIGAND FREE ENERGY PREDICTED BY IDOCK:   -7.52 KCAL/MOL
REMARK 924 INTRA-LIGAND FREE ENERGY PREDICTED BY IDOCK:   -0.86 KCAL/MOL
REMARK 927      BINDING AFFINITY PREDICTED BY RF-SCORE:    0.00 PKD
ROOT
HETATM    1  C   UNL     1     -11.128  10.212  68.690  1.00  0.00    -0.205 C  
HETATM    2  N   UNL     1     -10.173   9.456  67.853  1.00  0.00    -0.198 NA 
ENDROOT
BRANCH   2   3
HETATM    3  C   UNL     1      -8.893  10.186  67.614  1.00  0.00    -0.125 C  
HETATM    4  C   UNL     1      -8.593  11.206  68.703  1.00  0.00    -0.151 C  
HETATM    5  C   UNL     1      -8.677  10.724  66.207  1.00  0.00    -0.175 C  
HETATM    6  C   UNL     1      -9.157  12.590  68.440  1.00  0.00    -0.135 C  
HETATM    7  N   UNL     1      -8.792  13.106  67.120  1.00  0.00    -0.216 NA 
HETATM    8  C   UNL     1      -8.833  12.225  65.962  1.00  0.00     0.154 C  
BRANCH   7   9
HETATM    9  C   UNL     1      -8.422  14.430  67.041  1.00  0.00    -0.181 A  
HETATM   10  C   UNL     1      -7.182  16.201  66.859  1.00  0.00    -0.205 A  
HETATM   11  N   UNL     1      -7.172  14.854  67.112  1.00  0.00    -0.170 NA 
HETATM   12  C   UNL     1      -8.478  16.660  66.696  1.00  0.00    -0.259 A  
HETATM   13  N   UNL     1      -9.263  15.531  66.884  1.00  0.00    -0.222 NA 
HETATM   14  C   UNL     1      -8.778  18.000  66.403  1.00  0.00    -0.249 A  
HETATM   15  C   UNL     1      -7.702  18.882  66.260  1.00  0.00    -0.297 A  
HETATM   16  C   UNL     1      -6.389  18.443  66.428  1.00  0.00    -0.223 A  
HETATM   17  C   UNL     1      -6.114  17.104  66.737  1.00  0.00    -0.243 A  
BRANCH  13  18
HETATM   18  C   UNL     1     -10.713  15.620  67.004  1.00  0.00    -0.314 C  
BRANCH  18  19
HETATM   19  C   UNL     1     -11.458  14.727  66.032  1.00  0.00    -0.316 A  
HETATM   20  C   UNL     1     -12.015  13.532  66.516  1.00  0.00    -0.460 A  
HETATM   21  C   UNL     1     -12.526  12.585  65.629  1.00  0.00    -0.141 A  
HETATM   22  C   UNL     1     -12.512  12.844  64.264  1.00  0.00    -0.349 A  
HETATM   23  F   UNL     1     -12.920  11.898  63.408  1.00  0.00    -0.668 F  
HETATM   24  C   UNL     1     -12.065  14.061  63.774  1.00  0.00    -0.265 A  
HETATM   25  C   UNL     1     -11.561  15.013  64.659  1.00  0.00    -0.386 A  
ENDBRANCH  18  19
ENDBRANCH  13  18
ENDBRANCH   7   9
ENDBRANCH   2   3
BRANCH   2  26
HETATM   26  C   UNL     1     -10.248   8.082  67.978  1.00  0.00    -0.210 C  
HETATM   27  C   UNL     1     -10.351   5.948  67.143  1.00  0.00    -0.233 C  
HETATM   28  H   UNL     1     -10.255   8.220  70.025  1.00  0.00     0.000 HD 
HETATM   29  C   UNL     1     -10.290   6.235  69.513  1.00  0.00    -0.212 C  
HETATM   30  N   UNL     1     -10.277   7.298  66.932  1.00  0.00    -0.261 NA 
HETATM   31  O   UNL     1     -10.271   5.784  70.653  1.00  0.00    -0.194 OA 
HETATM   32  N   UNL     1     -10.264   7.569  69.240  1.00  0.00    -0.196 N  
HETATM   33  C   UNL     1     -10.351   5.360  68.337  1.00  0.00    -0.216 C  
ENDBRANCH   2  26
TORSDOF 5
ENDMDL
MODEL      119
REMARK 921   NORMALIZED FREE ENERGY PREDICTED BY IDOCK:   -5.39 KCAL/MOL
REMARK 922        TOTAL FREE ENERGY PREDICTED BY IDOCK:   -8.38 KCAL/MOL
REMARK 923 INTER-LIGAND FREE ENERGY PREDICTED BY IDOCK:   -6.95 KCAL/MOL
REMARK 924 INTRA-LIGAND FREE ENERGY PREDICTED BY IDOCK:   -1.43 KCAL/MOL
REMARK 927      BINDING AFFINITY PREDICTED BY RF-SCORE:    0.00 PKD
ROOT
HETATM    1  C   UNL     1     -10.355   5.590  66.657  1.00  0.00    -0.269 C  
HETATM    2  N   UNL     1      -9.647   6.445  67.633  1.00  0.00    -0.121 NA 
ENDROOT
BRANCH   2   3
HETATM    3  C   UNL     1     -10.361   7.723  67.922  1.00  0.00    -0.217 C  
HETATM    4  C   UNL     1     -10.390   8.658  66.721  1.00  0.00    -0.336 C  
HETATM    5  C   UNL     1      -9.992   8.422  69.222  1.00  0.00    -0.195 C  
HETATM    6  C   UNL     1      -9.212   9.611  66.639  1.00  0.00    -0.151 C  
HETATM    7  N   UNL     1      -9.000  10.355  67.881  1.00  0.00    -0.128 NA 
HETATM    8  C   UNL     1      -9.115   9.673  69.162  1.00  0.00    -0.154 C  
BRANCH   7   9
HETATM    9  C   UNL     1      -8.693  11.693  67.770  1.00  0.00    -0.152 A  
HETATM   10  C   UNL     1      -7.538  13.526  67.675  1.00  0.00    -0.177 A  
HETATM   11  N   UNL     1      -7.501  12.202  68.025  1.00  0.00    -0.106 NA 
HETATM   12  C   UNL     1      -8.807  13.887  67.256  1.00  0.00    -0.221 A  
HETATM   13  N   UNL     1      -9.551  12.723  67.387  1.00  0.00    -0.194 NA 
HETATM   14  C   UNL     1      -9.122  15.184  66.817  1.00  0.00    -0.282 A  
HETATM   15  C   UNL     1      -8.087  16.124  66.798  1.00  0.00    -0.305 A  
HETATM   16  C   UNL     1      -6.803  15.784  67.224  1.00  0.00    -0.220 A  
HETATM   17  C   UNL     1      -6.516  14.489  67.675  1.00  0.00    -0.153 A  
BRANCH  13  18
HETATM   18  C   UNL     1     -11.002  12.724  67.246  1.00  0.00    -0.262 C  
BRANCH  18  19
HETATM   19  C   UNL     1     -11.739  12.541  68.558  1.00  0.00    -0.369 A  
HETATM   20  C   UNL     1     -12.028  13.680  69.327  1.00  0.00    -0.384 A  
HETATM   21  C   UNL     1     -12.516  13.546  70.626  1.00  0.00    -0.405 A  
HETATM   22  C   UNL     1     -12.747  12.279  71.146  1.00  0.00    -0.243 A  
HETATM   23  F   UNL     1     -13.129  12.149  72.423  1.00  0.00    -0.540 F  
HETATM   24  C   UNL     1     -12.569  11.146  70.367  1.00  0.00    -0.328 A  
HETATM   25  C   UNL     1     -12.090  11.277  69.065  1.00  0.00    -0.325 A  
ENDBRANCH  18  19
ENDBRANCH  13  18
ENDBRANCH   7   9
ENDBRANCH   2   3
BRANCH   2  26
HETATM   26  C   UNL     1      -8.904   5.762  68.577  1.00  0.00    -0.110 C  
HETATM   27  C   UNL     1      -6.972   5.287  69.718  1.00  0.00    -0.058 C  
HETATM   28  H   UNL     1     -10.545   4.667  69.144  1.00  0.00     0.000 HD 
HETATM   29  C   UNL     1      -8.964   4.120  70.330  1.00  0.00    -0.092 C  
HETATM   30  N   UNL     1      -7.634   6.008  68.762  1.00  0.00    -0.090 NA 
HETATM   31  O   UNL     1      -9.570   3.312  71.027  1.00  0.00    -0.153 OA 
HETATM   32  N   UNL     1      -9.557   4.835  69.334  1.00  0.00    -0.161 N  
HETATM   33  C   UNL     1      -7.532   4.379  70.514  1.00  0.00    -0.049 C  
ENDBRANCH   2  26
TORSDOF 5
ENDMDL
MODEL      120
REMARK 921   NORMALIZED FREE ENERGY PREDICTED BY IDOCK:   -5.34 KCAL/MOL
REMARK 922        TOTAL FREE ENERGY PREDICTED BY IDOCK:   -8.31 KCAL/MOL
REMARK 923 INTER-LIGAND FREE ENERGY PREDICTED BY IDOCK:   -6.60 KCAL/MOL
REMARK 924 INTRA-LIGAND FREE ENERGY PREDICTED BY IDOCK:   -1.72 KCAL/MOL
REMARK 927      BINDING AFFINITY PREDICTED BY RF-SCORE:    0.00 PKD
ROOT
HETATM    1  C   UNL     1      -9.006   9.379  64.766  1.00  0.00    -0.194 C  
HETATM    2  N   UNL     1      -8.989   9.384  66.244  1.00  0.00    -0.149 NA 
ENDROOT
BRANCH   2   3
HETATM    3  C   UNL     1      -9.806  10.483  66.838  1.00  0.00    -0.193 C  
HETATM    4  C   UNL     1      -9.767  11.754  66.003  1.00  0.00    -0.254 C  
HETATM    5  C   UNL     1      -9.618  10.733  68.327  1.00  0.00    -0.170 C  
HETATM    6  C   UNL     1      -8.646  12.711  66.368  1.00  0.00     0.164 C  
HETATM    7  N   UNL     1      -8.611  13.019  67.799  1.00  0.00    -0.175 NA 
HETATM    8  C   UNL     1      -8.817  11.956  68.772  1.00  0.00     0.054 C  
BRANCH   7   9
HETATM    9  C   UNL     1      -8.377  14.327  68.156  1.00  0.00    -0.162 A  
HETATM   10  C   UNL     1      -7.318  16.159  68.640  1.00  0.00    -0.175 A  
HETATM   11  N   UNL     1      -7.187  14.804  68.481  1.00  0.00    -0.109 NA 
HETATM   12  C   UNL     1      -8.639  16.545  68.485  1.00  0.00    -0.223 A  
HETATM   13  N   UNL     1      -9.314  15.356  68.245  1.00  0.00    -0.190 NA 
HETATM   14  C   UNL     1      -9.055  17.883  68.573  1.00  0.00    -0.289 A  
HETATM   15  C   UNL     1      -8.070  18.846  68.813  1.00  0.00    -0.354 A  
HETATM   16  C   UNL     1      -6.734  18.479  68.980  1.00  0.00    -0.288 A  
HETATM   17  C   UNL     1      -6.346  17.135  68.905  1.00  0.00    -0.186 A  
BRANCH  13  18
HETATM   18  C   UNL     1     -10.770  15.293  68.232  1.00  0.00    -0.254 C  
BRANCH  18  19
HETATM   19  C   UNL     1     -11.352  15.018  66.860  1.00  0.00    -0.302 A  
HETATM   20  C   UNL     1     -12.408  14.098  66.754  1.00  0.00    -0.333 A  
HETATM   21  C   UNL     1     -12.836  13.659  65.502  1.00  0.00    -0.443 A  
HETATM   22  C   UNL     1     -12.235  14.164  64.355  1.00  0.00    -0.439 A  
HETATM   23  F   UNL     1     -12.585  13.676  63.158  1.00  0.00    -0.482 F  
HETATM   24  C   UNL     1     -11.266  15.151  64.434  1.00  0.00    -0.181 A  
HETATM   25  C   UNL     1     -10.841  15.597  65.685  1.00  0.00    -0.336 A  
ENDBRANCH  18  19
ENDBRANCH  13  18
ENDBRANCH   7   9
ENDBRANCH   2   3
BRANCH   2  26
HETATM   26  C   UNL     1      -8.851   8.141  66.830  1.00  0.00    -0.131 C  
HETATM   27  C   UNL     1      -7.757   6.588  68.117  1.00  0.00    -0.105 C  
HETATM   28  H   UNL     1     -10.634   7.514  66.032  1.00  0.00     0.000 HD 
HETATM   29  C   UNL     1      -9.874   5.995  67.182  1.00  0.00    -0.142 C  
HETATM   30  N   UNL     1      -7.817   7.842  67.572  1.00  0.00    -0.120 NA 
HETATM   31  O   UNL     1     -10.798   5.205  67.020  1.00  0.00    -0.132 OA 
HETATM   32  N   UNL     1      -9.854   7.240  66.630  1.00  0.00    -0.205 N  
HETATM   33  C   UNL     1      -8.697   5.655  67.990  1.00  0.00    -0.099 C  
ENDBRANCH   2  26
TORSDOF 5
ENDMDL
MODEL      121
REMARK 921   NORMALIZED FREE ENERGY PREDICTED BY IDOCK:   -5.33 KCAL/MOL
REMARK 922        TOTAL FREE ENERGY PREDICTED BY IDOCK:   -8.30 KCAL/MOL
REMARK 923 INTER-LIGAND FREE ENERGY PREDICTED BY IDOCK:   -7.69 KCAL/MOL
REMARK 924 INTRA-LIGAND FREE ENERGY PREDICTED BY IDOCK:   -0.62 KCAL/MOL
REMARK 927      BINDING AFFINITY PREDICTED BY RF-SCORE:    0.00 PKD
ROOT
HETATM    1  C   UNL     1     -10.286  19.697  65.984  1.00  0.00    -0.523 C  
HETATM    2  N   UNL     1      -9.311  19.444  67.067  1.00  0.00    -0.314 NA 
ENDROOT
BRANCH   2   3
HETATM    3  C   UNL     1      -9.506  18.126  67.739  1.00  0.00    -0.268 C  
HETATM    4  C   UNL     1      -8.390  17.141  67.421  1.00  0.00    -0.203 C  
HETATM    5  C   UNL     1     -10.896  17.517  67.638  1.00  0.00    -0.229 C  
HETATM    6  C   UNL     1      -8.640  16.284  66.194  1.00  0.00    -0.307 C  
HETATM    7  N   UNL     1      -9.941  15.614  66.228  1.00  0.00    -0.275 NA 
HETATM    8  C   UNL     1     -11.116  16.340  66.687  1.00  0.00     0.104 C  
BRANCH   7   9
HETATM    9  C   UNL     1      -9.985  14.302  65.813  1.00  0.00    -0.323 A  
HETATM   10  C   UNL     1     -10.105  12.571  64.511  1.00  0.00    -0.247 A  
HETATM   11  N   UNL     1     -10.300  13.925  64.586  1.00  0.00    -0.418 NA 
HETATM   12  C   UNL     1      -9.728  12.061  65.742  1.00  0.00    -0.235 A  
HETATM   13  N   UNL     1      -9.724  13.168  66.580  1.00  0.00    -0.264 NA 
HETATM   14  C   UNL     1      -9.441  10.702  65.946  1.00  0.00    -0.239 A  
HETATM   15  C   UNL     1      -9.533   9.854  64.838  1.00  0.00    -0.355 A  
HETATM   16  C   UNL     1      -9.918  10.344  63.590  1.00  0.00    -0.204 A  
HETATM   17  C   UNL     1     -10.217  11.702  63.415  1.00  0.00    -0.471 A  
BRANCH  13  18
HETATM   18  C   UNL     1      -9.581  13.032  68.024  1.00  0.00    -0.224 C  
BRANCH  18  19
HETATM   19  C   UNL     1      -8.437  12.130  68.438  1.00  0.00    -0.145 A  
HETATM   20  C   UNL     1      -8.741  10.900  69.045  1.00  0.00    -0.108 A  
HETATM   21  C   UNL     1      -7.731  10.134  69.627  1.00  0.00    -0.167 A  
HETATM   22  C   UNL     1      -6.415  10.577  69.573  1.00  0.00    -0.072 A  
HETATM   23  F   UNL     1      -5.460   9.887  70.209  1.00  0.00    -0.036 F  
HETATM   24  C   UNL     1      -6.080  11.734  68.886  1.00  0.00    -0.054 A  
HETATM   25  C   UNL     1      -7.086  12.497  68.297  1.00  0.00    -0.104 A  
ENDBRANCH  18  19
ENDBRANCH  13  18
ENDBRANCH   7   9
ENDBRANCH   2   3
BRANCH   2  26
HETATM   26  C   UNL     1      -8.071  20.024  66.881  1.00  0.00    -0.321 C  
HETATM   27  C   UNL     1      -6.171  21.082  67.610  1.00  0.00    -0.347 C  
HETATM   28  H   UNL     1      -8.137  19.635  64.868  1.00  0.00     0.000 HD 
HETATM   29  C   UNL     1      -6.337  20.521  65.294  1.00  0.00    -0.268 C  
HETATM   30  N   UNL     1      -7.392  20.527  67.879  1.00  0.00    -0.257 NA 
HETATM   31  O   UNL     1      -5.879  20.488  64.157  1.00  0.00    -0.228 OA 
HETATM   32  N   UNL     1      -7.565  20.026  65.616  1.00  0.00    -0.297 N  
HETATM   33  C   UNL     1      -5.592  21.111  66.411  1.00  0.00    -0.290 C  
ENDBRANCH   2  26
TORSDOF 5
ENDMDL
MODEL      122
REMARK 921   NORMALIZED FREE ENERGY PREDICTED BY IDOCK:   -5.30 KCAL/MOL
REMARK 922        TOTAL FREE ENERGY PREDICTED BY IDOCK:   -8.26 KCAL/MOL
REMARK 923 INTER-LIGAND FREE ENERGY PREDICTED BY IDOCK:   -6.82 KCAL/MOL
REMARK 924 INTRA-LIGAND FREE ENERGY PREDICTED BY IDOCK:   -1.44 KCAL/MOL
REMARK 927      BINDING AFFINITY PREDICTED BY RF-SCORE:    0.00 PKD
ROOT
HETATM    1  C   UNL     1     -10.465   5.243  69.943  1.00  0.00    -0.281 C  
HETATM    2  N   UNL     1     -10.033   6.198  68.901  1.00  0.00    -0.145 NA 
ENDROOT
BRANCH   2   3
HETATM    3  C   UNL     1     -10.601   7.566  69.083  1.00  0.00    -0.197 C  
HETATM    4  C   UNL     1     -10.537   8.396  67.809  1.00  0.00    -0.238 C  
HETATM    5  C   UNL     1     -10.149   8.324  70.322  1.00  0.00    -0.195 C  
HETATM    6  C   UNL     1      -9.263   9.205  67.650  1.00  0.00    -0.128 C  
HETATM    7  N   UNL     1      -8.962  10.021  68.827  1.00  0.00    -0.138 NA 
HETATM    8  C   UNL     1      -9.141   9.463  70.160  1.00  0.00    -0.231 C  
BRANCH   7   9
HETATM    9  C   UNL     1      -8.513  11.304  68.607  1.00  0.00    -0.143 A  
HETATM   10  C   UNL     1      -7.164  12.972  68.280  1.00  0.00    -0.113 A  
HETATM   11  N   UNL     1      -7.246  11.669  68.698  1.00  0.00    -0.097 NA 
HETATM   12  C   UNL     1      -8.422  13.471  67.985  1.00  0.00    -0.176 A  
HETATM   13  N   UNL     1      -9.280  12.417  68.265  1.00  0.00    -0.202 NA 
HETATM   14  C   UNL     1      -8.629  14.777  67.511  1.00  0.00    -0.198 A  
HETATM   15  C   UNL     1      -7.498  15.578  67.324  1.00  0.00    -0.258 A  
HETATM   16  C   UNL     1      -6.222  15.098  67.622  1.00  0.00    -0.145 A  
HETATM   17  C   UNL     1      -6.042  13.797  68.110  1.00  0.00    -0.120 A  
BRANCH  13  18
HETATM   18  C   UNL     1     -10.726  12.593  68.287  1.00  0.00    -0.230 C  
BRANCH  18  19
HETATM   19  C   UNL     1     -11.339  12.747  66.910  1.00  0.00    -0.371 A  
HETATM   20  C   UNL     1     -10.998  11.813  65.917  1.00  0.00    -0.354 A  
HETATM   21  C   UNL     1     -11.370  12.029  64.591  1.00  0.00    -0.377 A  
HETATM   22  C   UNL     1     -12.110  13.157  64.259  1.00  0.00    -0.414 A  
HETATM   23  F   UNL     1     -12.389  13.409  62.974  1.00  0.00    -0.607 F  
HETATM   24  C   UNL     1     -12.548  14.035  65.239  1.00  0.00    -0.495 A  
HETATM   25  C   UNL     1     -12.185  13.818  66.567  1.00  0.00    -0.475 A  
ENDBRANCH  18  19
ENDBRANCH  13  18
ENDBRANCH   7   9
ENDBRANCH   2   3
BRANCH   2  26
HETATM   26  C   UNL     1      -8.774   5.964  68.381  1.00  0.00    -0.112 C  
HETATM   27  C   UNL     1      -7.321   5.398  66.699  1.00  0.00    -0.086 C  
HETATM   28  H   UNL     1      -7.896   6.407  70.182  1.00  0.00     0.000 HD 
HETATM   29  C   UNL     1      -6.414   5.995  68.827  1.00  0.00    -0.049 C  
HETATM   30  N   UNL     1      -8.601   5.610  67.135  1.00  0.00    -0.110 NA 
HETATM   31  O   UNL     1      -5.463   6.192  69.577  1.00  0.00    -0.011 OA 
HETATM   32  N   UNL     1      -7.711   6.145  69.214  1.00  0.00    -0.098 N  
HETATM   33  C   UNL     1      -6.225   5.570  67.435  1.00  0.00    -0.031 C  
ENDBRANCH   2  26
TORSDOF 5
ENDMDL
MODEL      123
REMARK 921   NORMALIZED FREE ENERGY PREDICTED BY IDOCK:   -5.28 KCAL/MOL
REMARK 922        TOTAL FREE ENERGY PREDICTED BY IDOCK:   -8.23 KCAL/MOL
REMARK 923 INTER-LIGAND FREE ENERGY PREDICTED BY IDOCK:   -6.81 KCAL/MOL
REMARK 924 INTRA-LIGAND FREE ENERGY PREDICTED BY IDOCK:   -1.43 KCAL/MOL
REMARK 927      BINDING AFFINITY PREDICTED BY RF-SCORE:    0.00 PKD
ROOT
HETATM    1  C   UNL     1      -8.593   5.603  65.585  1.00  0.00    -0.150 C  
HETATM    2  N   UNL     1      -8.634   7.064  65.814  1.00  0.00    -0.146 NA 
ENDROOT
BRANCH   2   3
HETATM    3  C   UNL     1      -9.041   7.431  67.201  1.00  0.00    -0.130 C  
HETATM    4  C   UNL     1     -10.530   7.724  67.313  1.00  0.00    -0.392 C  
HETATM    5  C   UNL     1      -8.169   8.457  67.910  1.00  0.00    -0.127 C  
HETATM    6  C   UNL     1     -10.904   9.175  67.073  1.00  0.00     0.014 C  
HETATM    7  N   UNL     1     -10.122  10.102  67.891  1.00  0.00    -0.169 NA 
HETATM    8  C   UNL     1      -8.693   9.885  68.066  1.00  0.00    -0.125 C  
BRANCH   7   9
HETATM    9  C   UNL     1     -10.795  11.157  68.466  1.00  0.00    -0.203 A  
HETATM   10  C   UNL     1     -11.829  12.364  69.943  1.00  0.00    -0.305 A  
HETATM   11  N   UNL     1     -11.391  11.100  69.644  1.00  0.00    -0.275 NA 
HETATM   12  C   UNL     1     -11.572  13.232  68.896  1.00  0.00    -0.314 A  
HETATM   13  N   UNL     1     -10.974  12.433  67.932  1.00  0.00    -0.217 NA 
HETATM   14  C   UNL     1     -11.896  14.598  68.944  1.00  0.00    -0.344 A  
HETATM   15  C   UNL     1     -12.489  15.075  70.117  1.00  0.00    -0.356 A  
HETATM   16  C   UNL     1     -12.765  14.216  71.181  1.00  0.00    -0.431 A  
HETATM   17  C   UNL     1     -12.448  12.854  71.103  1.00  0.00    -0.344 A  
BRANCH  13  18
HETATM   18  C   UNL     1     -10.732  12.918  66.579  1.00  0.00    -0.269 C  
BRANCH  18  19
HETATM   19  C   UNL     1      -9.748  14.069  66.515  1.00  0.00    -0.305 A  
HETATM   20  C   UNL     1      -8.562  13.979  67.262  1.00  0.00    -0.228 A  
HETATM   21  C   UNL     1      -7.730  15.089  67.398  1.00  0.00    -0.227 A  
HETATM   22  C   UNL     1      -8.063  16.279  66.763  1.00  0.00    -0.264 A  
HETATM   23  F   UNL     1      -7.312  17.369  66.967  1.00  0.00    -0.175 F  
HETATM   24  C   UNL     1      -9.172  16.359  65.934  1.00  0.00    -0.234 A  
HETATM   25  C   UNL     1     -10.001  15.248  65.790  1.00  0.00    -0.391 A  
ENDBRANCH  18  19
ENDBRANCH  13  18
ENDBRANCH   7   9
ENDBRANCH   2   3
BRANCH   2  26
HETATM   26  C   UNL     1      -7.728   7.796  65.071  1.00  0.00    -0.107 C  
HETATM   27  C   UNL     1      -5.635   8.237  64.241  1.00  0.00    -0.055 C  
HETATM   28  H   UNL     1      -9.194   9.106  64.485  1.00  0.00     0.000 HD 
HETATM   29  C   UNL     1      -7.438   9.658  63.580  1.00  0.00    -0.121 C  
HETATM   30  N   UNL     1      -6.467   7.459  65.000  1.00  0.00    -0.037 NA 
HETATM   31  O   UNL     1      -7.887  10.605  62.944  1.00  0.00    -0.136 OA 
HETATM   32  N   UNL     1      -8.206   8.873  64.387  1.00  0.00    -0.157 N  
HETATM   33  C   UNL     1      -6.018   9.293  63.527  1.00  0.00    -0.089 C  
ENDBRANCH   2  26
TORSDOF 5
ENDMDL
MODEL      124
REMARK 921   NORMALIZED FREE ENERGY PREDICTED BY IDOCK:   -5.26 KCAL/MOL
REMARK 922        TOTAL FREE ENERGY PREDICTED BY IDOCK:   -8.21 KCAL/MOL
REMARK 923 INTER-LIGAND FREE ENERGY PREDICTED BY IDOCK:   -7.47 KCAL/MOL
REMARK 924 INTRA-LIGAND FREE ENERGY PREDICTED BY IDOCK:   -0.74 KCAL/MOL
REMARK 927      BINDING AFFINITY PREDICTED BY RF-SCORE:    0.00 PKD
ROOT
HETATM    1  C   UNL     1     -11.216  14.541  66.657  1.00  0.00    -0.346 C  
HETATM    2  N   UNL     1     -10.794  15.376  67.803  1.00  0.00    -0.294 NA 
ENDROOT
BRANCH   2   3
HETATM    3  C   UNL     1     -10.478  14.581  69.025  1.00  0.00    -0.237 C  
HETATM    4  C   UNL     1      -9.343  13.593  68.800  1.00  0.00     0.034 C  
HETATM    5  C   UNL     1     -11.665  13.980  69.764  1.00  0.00    -0.375 C  
HETATM    6  C   UNL     1      -9.789  12.226  68.315  1.00  0.00    -0.217 C  
HETATM    7  N   UNL     1     -10.837  11.643  69.154  1.00  0.00    -0.211 NA 
HETATM    8  C   UNL     1     -11.926  12.479  69.637  1.00  0.00    -0.272 C  
BRANCH   7   9
HETATM    9  C   UNL     1     -10.734  10.302  69.450  1.00  0.00    -0.241 A  
HETATM   10  C   UNL     1     -10.720   8.451  70.582  1.00  0.00    -0.220 A  
HETATM   11  N   UNL     1     -10.679   9.817  70.678  1.00  0.00    -0.311 NA 
HETATM   12  C   UNL     1     -10.727   8.053  69.255  1.00  0.00    -0.129 A  
HETATM   13  N   UNL     1     -10.665   9.243  68.544  1.00  0.00    -0.183 NA 
HETATM   14  C   UNL     1     -10.790   6.705  68.867  1.00  0.00    -0.326 A  
HETATM   15  C   UNL     1     -10.864   5.747  69.883  1.00  0.00    -0.417 A  
HETATM   16  C   UNL     1     -10.851   6.125  71.226  1.00  0.00    -0.322 A  
HETATM   17  C   UNL     1     -10.769   7.476  71.590  1.00  0.00    -0.242 A  
BRANCH  13  18
HETATM   18  C   UNL     1     -10.441   9.263  67.105  1.00  0.00    -0.249 C  
BRANCH  18  19
HETATM   19  C   UNL     1      -9.037   8.856  66.704  1.00  0.00    -0.192 A  
HETATM   20  C   UNL     1      -8.883   7.867  65.718  1.00  0.00    -0.155 A  
HETATM   21  C   UNL     1      -7.627   7.316  65.465  1.00  0.00    -0.097 A  
HETATM   22  C   UNL     1      -6.521   7.773  66.172  1.00  0.00    -0.046 A  
HETATM   23  F   UNL     1      -5.333   7.181  65.993  1.00  0.00    -0.021 F  
HETATM   24  C   UNL     1      -6.634   8.821  67.072  1.00  0.00    -0.062 A  
HETATM   25  C   UNL     1      -7.886   9.380  67.321  1.00  0.00    -0.099 A  
ENDBRANCH  18  19
ENDBRANCH  13  18
ENDBRANCH   7   9
ENDBRANCH   2   3
BRANCH   2  26
HETATM   26  C   UNL     1     -10.131  16.540  67.463  1.00  0.00    -0.267 C  
HETATM   27  C   UNL     1      -8.535  17.737  66.332  1.00  0.00    -0.239 C  
HETATM   28  H   UNL     1     -11.343  17.646  68.695  1.00  0.00     0.000 HD 
HETATM   29  C   UNL     1     -10.046  18.923  67.751  1.00  0.00    -0.369 C  
HETATM   30  N   UNL     1      -9.137  16.541  66.615  1.00  0.00    -0.236 NA 
HETATM   31  O   UNL     1     -10.474  19.963  68.240  1.00  0.00    -0.426 OA 
HETATM   32  N   UNL     1     -10.574  17.699  68.027  1.00  0.00    -0.388 N  
HETATM   33  C   UNL     1      -8.912  18.916  66.820  1.00  0.00    -0.320 C  
ENDBRANCH   2  26
TORSDOF 5
ENDMDL
MODEL      125
REMARK 921   NORMALIZED FREE ENERGY PREDICTED BY IDOCK:   -5.25 KCAL/MOL
REMARK 922        TOTAL FREE ENERGY PREDICTED BY IDOCK:   -8.19 KCAL/MOL
REMARK 923 INTER-LIGAND FREE ENERGY PREDICTED BY IDOCK:   -6.75 KCAL/MOL
REMARK 924 INTRA-LIGAND FREE ENERGY PREDICTED BY IDOCK:   -1.44 KCAL/MOL
REMARK 927      BINDING AFFINITY PREDICTED BY RF-SCORE:    0.00 PKD
ROOT
HETATM    1  C   UNL     1      -8.450   7.743  65.267  1.00  0.00    -0.084 C  
HETATM    2  N   UNL     1      -8.182   7.951  66.706  1.00  0.00    -0.113 NA 
ENDROOT
BRANCH   2   3
HETATM    3  C   UNL     1      -9.244   8.744  67.393  1.00  0.00    -0.136 C  
HETATM    4  C   UNL     1      -9.874   9.787  66.481  1.00  0.00    -0.286 C  
HETATM    5  C   UNL     1      -8.897   9.281  68.774  1.00  0.00    -0.132 C  
HETATM    6  C   UNL     1      -9.183  11.138  66.501  1.00  0.00    -0.179 C  
HETATM    7  N   UNL     1      -9.007  11.661  67.856  1.00  0.00    -0.163 NA 
HETATM    8  C   UNL     1      -8.585  10.770  68.927  1.00  0.00    -0.153 C  
BRANCH   7   9
HETATM    9  C   UNL     1      -9.254  13.002  68.051  1.00  0.00    -0.212 A  
HETATM   10  C   UNL     1      -8.919  15.135  68.259  1.00  0.00    -0.175 A  
HETATM   11  N   UNL     1      -8.310  13.908  68.241  1.00  0.00    -0.158 NA 
HETATM   12  C   UNL     1     -10.293  15.002  68.152  1.00  0.00    -0.239 A  
HETATM   13  N   UNL     1     -10.498  13.631  68.090  1.00  0.00    -0.240 NA 
HETATM   14  C   UNL     1     -11.163  16.105  68.121  1.00  0.00    -0.311 A  
HETATM   15  C   UNL     1     -10.588  17.378  68.187  1.00  0.00    -0.376 A  
HETATM   16  C   UNL     1      -9.206  17.534  68.302  1.00  0.00    -0.277 A  
HETATM   17  C   UNL     1      -8.359  16.419  68.349  1.00  0.00    -0.191 A  
BRANCH  13  18
HETATM   18  C   UNL     1     -11.832  13.053  68.183  1.00  0.00    -0.340 C  
BRANCH  18  19
HETATM   19  C   UNL     1     -12.062  12.260  69.454  1.00  0.00    -0.234 A  
HETATM   20  C   UNL     1     -11.988  10.859  69.391  1.00  0.00    -0.393 A  
HETATM   21  C   UNL     1     -12.392  10.084  70.477  1.00  0.00    -0.282 A  
HETATM   22  C   UNL     1     -12.838  10.705  71.637  1.00  0.00    -0.465 A  
HETATM   23  F   UNL     1     -13.310   9.962  72.645  1.00  0.00    -0.422 F  
HETATM   24  C   UNL     1     -12.818  12.086  71.758  1.00  0.00    -0.377 A  
HETATM   25  C   UNL     1     -12.406  12.864  70.677  1.00  0.00    -0.385 A  
ENDBRANCH  18  19
ENDBRANCH  13  18
ENDBRANCH   7   9
ENDBRANCH   2   3
BRANCH   2  26
HETATM   26  C   UNL     1      -7.479   6.934  67.322  1.00  0.00    -0.096 C  
HETATM   27  C   UNL     1      -5.555   5.913  68.041  1.00  0.00    -0.008 C  
HETATM   28  H   UNL     1      -9.214   5.927  67.749  1.00  0.00     0.000 HD 
HETATM   29  C   UNL     1      -7.645   4.866  68.533  1.00  0.00    -0.077 C  
HETATM   30  N   UNL     1      -6.175   6.959  67.415  1.00  0.00    -0.035 NA 
HETATM   31  O   UNL     1      -8.307   3.967  69.040  1.00  0.00    -0.071 OA 
HETATM   32  N   UNL     1      -8.201   5.910  67.859  1.00  0.00    -0.108 N  
HETATM   33  C   UNL     1      -6.180   4.884  68.609  1.00  0.00    -0.031 C  
ENDBRANCH   2  26
TORSDOF 5
ENDMDL
MODEL      126
REMARK 921   NORMALIZED FREE ENERGY PREDICTED BY IDOCK:   -5.21 KCAL/MOL
REMARK 922        TOTAL FREE ENERGY PREDICTED BY IDOCK:   -8.14 KCAL/MOL
REMARK 923 INTER-LIGAND FREE ENERGY PREDICTED BY IDOCK:   -7.59 KCAL/MOL
REMARK 924 INTRA-LIGAND FREE ENERGY PREDICTED BY IDOCK:   -0.55 KCAL/MOL
REMARK 927      BINDING AFFINITY PREDICTED BY RF-SCORE:    0.00 PKD
ROOT
HETATM    1  C   UNL     1      -8.910  15.690  66.124  1.00  0.00    -0.276 C  
HETATM    2  N   UNL     1      -9.306  14.295  66.410  1.00  0.00    -0.272 NA 
ENDROOT
BRANCH   2   3
HETATM    3  C   UNL     1      -9.302  13.968  67.866  1.00  0.00    -0.206 C  
HETATM    4  C   UNL     1      -7.926  13.548  68.364  1.00  0.00    -0.142 C  
HETATM    5  C   UNL     1     -10.424  13.066  68.358  1.00  0.00    -0.261 C  
HETATM    6  C   UNL     1      -7.654  12.058  68.271  1.00  0.00    -0.117 C  
HETATM    7  N   UNL     1      -8.707  11.251  68.889  1.00  0.00    -0.101 NA 
HETATM    8  C   UNL     1     -10.104  11.607  68.685  1.00  0.00    -0.198 C  
BRANCH   7   9
HETATM    9  C   UNL     1      -8.311  10.173  69.648  1.00  0.00    -0.161 A  
HETATM   10  C   UNL     1      -7.168   8.953  71.031  1.00  0.00    -0.097 A  
HETATM   11  N   UNL     1      -7.151  10.096  70.276  1.00  0.00    -0.193 NA 
HETATM   12  C   UNL     1      -8.340   8.245  70.821  1.00  0.00    -0.123 A  
HETATM   13  N   UNL     1      -9.029   9.001  69.883  1.00  0.00    -0.153 NA 
HETATM   14  C   UNL     1      -8.631   7.043  71.487  1.00  0.00    -0.117 A  
HETATM   15  C   UNL     1      -7.687   6.574  72.405  1.00  0.00    -0.096 A  
HETATM   16  C   UNL     1      -6.496   7.267  72.626  1.00  0.00    -0.055 A  
HETATM   17  C   UNL     1      -6.219   8.455  71.937  1.00  0.00    -0.061 A  
BRANCH  13  18
HETATM   18  C   UNL     1     -10.230   8.497  69.229  1.00  0.00    -0.208 C  
BRANCH  18  19
HETATM   19  C   UNL     1     -11.447   8.473  70.131  1.00  0.00     0.002 A  
HETATM   20  C   UNL     1     -12.139   9.675  70.354  1.00  0.00    -0.115 A  
HETATM   21  C   UNL     1     -13.132   9.745  71.330  1.00  0.00    -0.489 A  
HETATM   22  C   UNL     1     -13.459   8.609  72.060  1.00  0.00    -0.403 A  
HETATM   23  F   UNL     1     -14.348   8.698  73.057  1.00  0.00    -0.343 F  
HETATM   24  C   UNL     1     -12.864   7.388  71.782  1.00  0.00    -0.365 A  
HETATM   25  C   UNL     1     -11.877   7.313  70.801  1.00  0.00    -0.324 A  
ENDBRANCH  18  19
ENDBRANCH  13  18
ENDBRANCH   7   9
ENDBRANCH   2   3
BRANCH   2  26
HETATM   26  C   UNL     1     -10.205  13.748  65.514  1.00  0.00    -0.316 C  
HETATM   27  C   UNL     1     -11.099  12.019  64.300  1.00  0.00    -0.351 C  
HETATM   28  H   UNL     1     -11.129  15.562  65.261  1.00  0.00     0.000 HD 
HETATM   29  C   UNL     1     -12.127  14.169  64.136  1.00  0.00    -0.406 C  
HETATM   30  N   UNL     1     -10.172  12.481  65.195  1.00  0.00    -0.284 NA 
HETATM   31  O   UNL     1     -12.994  14.918  63.699  1.00  0.00    -0.399 OA 
HETATM   32  N   UNL     1     -11.152  14.578  64.993  1.00  0.00    -0.365 N  
HETATM   33  C   UNL     1     -12.069  12.752  63.758  1.00  0.00    -0.596 C  
ENDBRANCH   2  26
TORSDOF 5
ENDMDL
MODEL      127
REMARK 921   NORMALIZED FREE ENERGY PREDICTED BY IDOCK:   -5.20 KCAL/MOL
REMARK 922        TOTAL FREE ENERGY PREDICTED BY IDOCK:   -8.14 KCAL/MOL
REMARK 923 INTER-LIGAND FREE ENERGY PREDICTED BY IDOCK:   -7.14 KCAL/MOL
REMARK 924 INTRA-LIGAND FREE ENERGY PREDICTED BY IDOCK:   -1.00 KCAL/MOL
REMARK 927      BINDING AFFINITY PREDICTED BY RF-SCORE:    0.00 PKD
ROOT
HETATM    1  C   UNL     1     -10.647   8.413  66.914  1.00  0.00    -0.215 C  
HETATM    2  N   UNL     1      -9.198   8.400  67.208  1.00  0.00    -0.135 NA 
ENDROOT
BRANCH   2   3
HETATM    3  C   UNL     1      -8.459   9.533  66.577  1.00  0.00    -0.126 C  
HETATM    4  C   UNL     1      -7.860  10.482  67.606  1.00  0.00    -0.105 C  
HETATM    5  C   UNL     1      -9.169  10.249  65.438  1.00  0.00    -0.236 C  
HETATM    6  C   UNL     1      -8.775  11.619  68.019  1.00  0.00    -0.157 C  
HETATM    7  N   UNL     1      -9.313  12.355  66.874  1.00  0.00    -0.207 NA 
HETATM    8  C   UNL     1      -9.771  11.630  65.698  1.00  0.00    -0.236 C  
BRANCH   7   9
HETATM    9  C   UNL     1      -9.359  13.728  66.972  1.00  0.00    -0.248 A  
HETATM   10  C   UNL     1      -8.727  15.803  66.950  1.00  0.00    -0.244 A  
HETATM   11  N   UNL     1      -8.290  14.505  66.979  1.00  0.00    -0.197 NA 
HETATM   12  C   UNL     1     -10.110  15.856  67.001  1.00  0.00    -0.268 A  
HETATM   13  N   UNL     1     -10.497  14.526  67.085  1.00  0.00    -0.266 NA 
HETATM   14  C   UNL     1     -10.826  17.064  66.963  1.00  0.00    -0.048 A  
HETATM   15  C   UNL     1     -10.086  18.245  66.853  1.00  0.00    -0.377 A  
HETATM   16  C   UNL     1      -8.692  18.216  66.808  1.00  0.00    -0.275 A  
HETATM   17  C   UNL     1      -7.998  17.000  66.866  1.00  0.00    -0.256 A  
BRANCH  13  18
HETATM   18  C   UNL     1     -11.875  14.148  67.369  1.00  0.00    -0.413 C  
BRANCH  18  19
HETATM   19  C   UNL     1     -12.025  13.286  68.607  1.00  0.00    -0.345 A  
HETATM   20  C   UNL     1     -12.032  11.890  68.453  1.00  0.00    -0.246 A  
HETATM   21  C   UNL     1     -12.371  11.066  69.526  1.00  0.00    -0.266 A  
HETATM   22  C   UNL     1     -12.670  11.632  70.759  1.00  0.00    -0.201 A  
HETATM   23  F   UNL     1     -13.082  10.848  71.763  1.00  0.00    -0.491 F  
HETATM   24  C   UNL     1     -12.564  13.000  70.960  1.00  0.00    -0.386 A  
HETATM   25  C   UNL     1     -12.217  13.825  69.892  1.00  0.00    -0.383 A  
ENDBRANCH  18  19
ENDBRANCH  13  18
ENDBRANCH   7   9
ENDBRANCH   2   3
BRANCH   2  26
HETATM   26  C   UNL     1      -8.856   7.863  68.434  1.00  0.00    -0.130 C  
HETATM   27  C   UNL     1      -9.134   7.556  70.690  1.00  0.00    -0.155 C  
HETATM   28  H   UNL     1      -7.280   6.847  67.602  1.00  0.00     0.000 HD 
HETATM   29  C   UNL     1      -7.369   6.376  69.596  1.00  0.00    -0.080 C  
HETATM   30  N   UNL     1      -9.539   8.131  69.516  1.00  0.00    -0.167 NA 
HETATM   31  O   UNL     1      -6.428   5.589  69.609  1.00  0.00    -0.040 OA 
HETATM   32  N   UNL     1      -7.790   7.014  68.469  1.00  0.00    -0.120 N  
HETATM   33  C   UNL     1      -8.120   6.702  70.813  1.00  0.00    -0.119 C  
ENDBRANCH   2  26
TORSDOF 5
ENDMDL
MODEL      128
REMARK 921   NORMALIZED FREE ENERGY PREDICTED BY IDOCK:   -5.18 KCAL/MOL
REMARK 922        TOTAL FREE ENERGY PREDICTED BY IDOCK:   -8.11 KCAL/MOL
REMARK 923 INTER-LIGAND FREE ENERGY PREDICTED BY IDOCK:   -6.75 KCAL/MOL
REMARK 924 INTRA-LIGAND FREE ENERGY PREDICTED BY IDOCK:   -1.36 KCAL/MOL
REMARK 927      BINDING AFFINITY PREDICTED BY RF-SCORE:    0.00 PKD
ROOT
HETATM    1  C   UNL     1      -7.751  14.125  68.201  1.00  0.00    -0.140 C  
HETATM    2  N   UNL     1      -8.001  13.088  67.177  1.00  0.00    -0.134 NA 
ENDROOT
BRANCH   2   3
HETATM    3  C   UNL     1      -7.070  11.926  67.276  1.00  0.00    -0.143 C  
HETATM    4  C   UNL     1      -7.276  10.918  66.155  1.00  0.00    -0.101 C  
HETATM    5  C   UNL     1      -6.937  11.284  68.649  1.00  0.00    -0.084 C  
HETATM    6  C   UNL     1      -8.287   9.830  66.468  1.00  0.00    -0.124 C  
HETATM    7  N   UNL     1      -8.018   9.157  67.739  1.00  0.00    -0.100 NA 
HETATM    8  C   UNL     1      -7.617   9.938  68.900  1.00  0.00    -0.083 C  
BRANCH   7   9
HETATM    9  C   UNL     1      -8.162   7.788  67.770  1.00  0.00    -0.126 A  
HETATM   10  C   UNL     1      -7.686   5.677  67.624  1.00  0.00    -0.097 A  
HETATM   11  N   UNL     1      -7.267   6.939  67.296  1.00  0.00    -0.087 NA 
HETATM   12  C   UNL     1      -8.917   5.718  68.258  1.00  0.00    -0.115 A  
HETATM   13  N   UNL     1      -9.240   7.067  68.283  1.00  0.00    -0.129 NA 
HETATM   14  C   UNL     1      -9.570   4.566  68.725  1.00  0.00    -0.227 A  
HETATM   15  C   UNL     1      -8.920   3.341  68.540  1.00  0.00    -0.185 A  
HETATM   16  C   UNL     1      -7.684   3.276  67.897  1.00  0.00    -0.064 A  
HETATM   17  C   UNL     1      -7.059   4.437  67.424  1.00  0.00    -0.064 A  
BRANCH  13  18
HETATM   18  C   UNL     1     -10.563   7.528  68.682  1.00  0.00    -0.142 C  
BRANCH  18  19
HETATM   19  C   UNL     1     -10.781   7.520  70.182  1.00  0.00    -0.248 A  
HETATM   20  C   UNL     1     -10.009   8.385  70.975  1.00  0.00    -0.235 A  
HETATM   21  C   UNL     1     -10.026   8.269  72.364  1.00  0.00    -0.379 A  
HETATM   22  C   UNL     1     -10.836   7.313  72.964  1.00  0.00    -0.355 A  
HETATM   23  F   UNL     1     -10.784   7.141  74.291  1.00  0.00    -0.340 F  
HETATM   24  C   UNL     1     -11.686   6.522  72.206  1.00  0.00    -0.320 A  
HETATM   25  C   UNL     1     -11.678   6.642  70.817  1.00  0.00    -0.445 A  
ENDBRANCH  18  19
ENDBRANCH  13  18
ENDBRANCH   7   9
ENDBRANCH   2   3
BRANCH   2  26
HETATM   26  C   UNL     1      -9.318  12.971  66.774  1.00  0.00    -0.244 C  
HETATM   27  C   UNL     1     -11.039  13.242  65.283  1.00  0.00    -0.288 C  
HETATM   28  H   UNL     1      -9.827  12.062  68.541  1.00  0.00     0.000 HD 
HETATM   29  C   UNL     1     -11.496  12.141  67.352  1.00  0.00    -0.345 C  
HETATM   30  N   UNL     1      -9.718  13.397  65.605  1.00  0.00    -0.149 NA 
HETATM   31  O   UNL     1     -12.258  11.565  68.122  1.00  0.00    -0.576 OA 
HETATM   32  N   UNL     1     -10.183  12.365  67.634  1.00  0.00    -0.205 N  
HETATM   33  C   UNL     1     -11.948  12.646  66.051  1.00  0.00    -0.478 C  
ENDBRANCH   2  26
TORSDOF 5
ENDMDL
MODEL      129
REMARK 921   NORMALIZED FREE ENERGY PREDICTED BY IDOCK:   -5.18 KCAL/MOL
REMARK 922        TOTAL FREE ENERGY PREDICTED BY IDOCK:   -8.11 KCAL/MOL
REMARK 923 INTER-LIGAND FREE ENERGY PREDICTED BY IDOCK:   -6.59 KCAL/MOL
REMARK 924 INTRA-LIGAND FREE ENERGY PREDICTED BY IDOCK:   -1.51 KCAL/MOL
REMARK 927      BINDING AFFINITY PREDICTED BY RF-SCORE:    0.00 PKD
ROOT
HETATM    1  C   UNL     1      -9.821  10.832  63.828  1.00  0.00    -0.339 C  
HETATM    2  N   UNL     1     -10.067  10.643  65.273  1.00  0.00    -0.285 NA 
ENDROOT
BRANCH   2   3
HETATM    3  C   UNL     1      -9.196   9.598  65.887  1.00  0.00    -0.194 C  
HETATM    4  C   UNL     1      -9.888   8.246  65.983  1.00  0.00    -0.025 C  
HETATM    5  C   UNL     1      -8.464   9.994  67.161  1.00  0.00    -0.125 C  
HETATM    6  C   UNL     1     -10.657   8.025  67.272  1.00  0.00    -0.290 C  
HETATM    7  N   UNL     1      -9.849   8.289  68.464  1.00  0.00    -0.171 NA 
HETATM    8  C   UNL     1      -8.966   9.446  68.497  1.00  0.00    -0.128 C  
BRANCH   7   9
HETATM    9  C   UNL     1      -9.970   7.409  69.516  1.00  0.00    -0.179 A  
HETATM   10  C   UNL     1     -10.766   6.422  71.277  1.00  0.00    -0.241 A  
HETATM   11  N   UNL     1     -10.843   7.548  70.499  1.00  0.00    -0.236 NA 
HETATM   12  C   UNL     1      -9.767   5.579  70.820  1.00  0.00    -0.177 A  
HETATM   13  N   UNL     1      -9.221   6.254  69.737  1.00  0.00    -0.145 NA 
HETATM   14  C   UNL     1      -9.485   4.340  71.420  1.00  0.00    -0.225 A  
HETATM   15  C   UNL     1     -10.273   3.963  72.512  1.00  0.00    -0.233 A  
HETATM   16  C   UNL     1     -11.279   4.801  72.993  1.00  0.00    -0.344 A  
HETATM   17  C   UNL     1     -11.530   6.040  72.390  1.00  0.00    -0.357 A  
BRANCH  13  18
HETATM   18  C   UNL     1      -7.995   5.802  69.094  1.00  0.00    -0.097 C  
BRANCH  18  19
HETATM   19  C   UNL     1      -8.196   5.329  67.669  1.00  0.00    -0.099 A  
HETATM   20  C   UNL     1      -9.341   4.572  67.370  1.00  0.00    -0.168 A  
HETATM   21  C   UNL     1      -9.466   3.944  66.131  1.00  0.00    -0.191 A  
HETATM   22  C   UNL     1      -8.466   4.099  65.178  1.00  0.00    -0.114 A  
HETATM   23  F   UNL     1      -8.544   3.424  64.025  1.00  0.00    -0.089 F  
HETATM   24  C   UNL     1      -7.381   4.929  65.413  1.00  0.00    -0.072 A  
HETATM   25  C   UNL     1      -7.257   5.564  66.648  1.00  0.00    -0.074 A  
ENDBRANCH  18  19
ENDBRANCH  13  18
ENDBRANCH   7   9
ENDBRANCH   2   3
BRANCH   2  26
HETATM   26  C   UNL     1     -10.481  11.776  65.948  1.00  0.00    -0.255 C  
HETATM   27  C   UNL     1     -10.717  14.043  66.199  1.00  0.00    -0.289 C  
HETATM   28  H   UNL     1     -11.270  10.642  67.465  1.00  0.00     0.000 HD 
HETATM   29  C   UNL     1     -11.649  12.615  67.872  1.00  0.00    -0.349 C  
HETATM   30  N   UNL     1     -10.274  12.974  65.469  1.00  0.00    -0.288 NA 
HETATM   31  O   UNL     1     -12.272  12.439  68.913  1.00  0.00    -0.183 OA 
HETATM   32  N   UNL     1     -11.144  11.595  67.124  1.00  0.00    -0.282 N  
HETATM   33  C   UNL     1     -11.388  13.960  67.345  1.00  0.00    -0.349 C  
ENDBRANCH   2  26
TORSDOF 5
ENDMDL
MODEL      130
REMARK 921   NORMALIZED FREE ENERGY PREDICTED BY IDOCK:   -5.17 KCAL/MOL
REMARK 922        TOTAL FREE ENERGY PREDICTED BY IDOCK:   -8.09 KCAL/MOL
REMARK 923 INTER-LIGAND FREE ENERGY PREDICTED BY IDOCK:   -9.41 KCAL/MOL
REMARK 924 INTRA-LIGAND FREE ENERGY PREDICTED BY IDOCK:    1.33 KCAL/MOL
REMARK 927      BINDING AFFINITY PREDICTED BY RF-SCORE:    0.00 PKD
ROOT
HETATM    1  C   UNL     1      -9.359   6.861  72.761  1.00  0.00    -0.135 C  
HETATM    2  N   UNL     1     -10.546   6.172  72.211  1.00  0.00    -0.209 NA 
ENDROOT
BRANCH   2   3
HETATM    3  C   UNL     1     -11.236   6.952  71.142  1.00  0.00    -0.274 C  
HETATM    4  C   UNL     1     -10.438   8.172  70.704  1.00  0.00    -0.224 C  
HETATM    5  C   UNL     1     -12.712   7.245  71.368  1.00  0.00    -0.427 C  
HETATM    6  C   UNL     1     -10.740   9.434  71.490  1.00  0.00    -0.297 C  
HETATM    7  N   UNL     1     -12.171   9.734  71.549  1.00  0.00    -0.381 NA 
HETATM    8  C   UNL     1     -13.126   8.659  71.774  1.00  0.00    -0.361 C  
BRANCH   7   9
HETATM    9  C   UNL     1     -12.547  11.048  71.385  1.00  0.00    -0.393 A  
HETATM   10  C   UNL     1     -13.455  12.980  71.772  1.00  0.00    -0.314 A  
HETATM   11  N   UNL     1     -13.446  11.660  72.137  1.00  0.00    -0.320 NA 
HETATM   12  C   UNL     1     -12.594  13.201  70.710  1.00  0.00    -0.260 A  
HETATM   13  N   UNL     1     -12.073  11.946  70.429  1.00  0.00    -0.358 NA 
HETATM   14  C   UNL     1     -12.390  14.473  70.150  1.00  0.00    -0.398 A  
HETATM   15  C   UNL     1     -13.089  15.543  70.717  1.00  0.00    -0.446 A  
HETATM   16  C   UNL     1     -13.967  15.342  71.781  1.00  0.00    -0.638 A  
HETATM   17  C   UNL     1     -14.168  14.061  72.313  1.00  0.00    -0.599 A  
BRANCH  13  18
HETATM   18  C   UNL     1     -11.275  11.700  69.235  1.00  0.00    -0.265 C  
BRANCH  18  19
HETATM   19  C   UNL     1     -11.153  12.908  68.328  1.00  0.00    -0.294 A  
HETATM   20  C   UNL     1     -12.096  13.069  67.298  1.00  0.00    -0.304 A  
HETATM   21  C   UNL     1     -11.907  14.042  66.318  1.00  0.00    -0.428 A  
HETATM   22  C   UNL     1     -10.797  14.877  66.382  1.00  0.00    -0.325 A  
HETATM   23  F   UNL     1     -10.570  15.749  65.393  1.00  0.00    -0.327 F  
HETATM   24  C   UNL     1      -9.913  14.805  67.448  1.00  0.00    -0.223 A  
HETATM   25  C   UNL     1     -10.104  13.839  68.434  1.00  0.00    -0.241 A  
ENDBRANCH  18  19
ENDBRANCH  13  18
ENDBRANCH   7   9
ENDBRANCH   2   3
BRANCH   2  26
HETATM   26  C   UNL     1     -10.473   4.792  72.215  1.00  0.00    -0.189 C  
HETATM   27  C   UNL     1      -9.768   2.771  71.391  1.00  0.00    -0.147 C  
HETATM   28  H   UNL     1     -11.655   4.688  73.889  1.00  0.00     0.000 HD 
HETATM   29  C   UNL     1     -11.100   2.783  73.373  1.00  0.00    -0.181 C  
HETATM   30  N   UNL     1      -9.790   4.137  71.314  1.00  0.00    -0.186 NA 
HETATM   31  O   UNL     1     -11.662   2.206  74.298  1.00  0.00     0.177 OA 
HETATM   32  N   UNL     1     -11.123   4.136  73.217  1.00  0.00    -0.231 N  
HETATM   33  C   UNL     1     -10.356   2.050  72.343  1.00  0.00    -0.217 C  
ENDBRANCH   2  26
TORSDOF 5
ENDMDL
MODEL      131
REMARK 921   NORMALIZED FREE ENERGY PREDICTED BY IDOCK:   -5.16 KCAL/MOL
REMARK 922        TOTAL FREE ENERGY PREDICTED BY IDOCK:   -8.08 KCAL/MOL
REMARK 923 INTER-LIGAND FREE ENERGY PREDICTED BY IDOCK:   -7.39 KCAL/MOL
REMARK 924 INTRA-LIGAND FREE ENERGY PREDICTED BY IDOCK:   -0.69 KCAL/MOL
REMARK 927      BINDING AFFINITY PREDICTED BY RF-SCORE:    0.00 PKD
ROOT
HETATM    1  C   UNL     1     -12.205  10.884  69.844  1.00  0.00    -0.336 C  
HETATM    2  N   UNL     1     -11.441  12.121  69.580  1.00  0.00    -0.280 NA 
ENDROOT
BRANCH   2   3
HETATM    3  C   UNL     1     -10.666  12.074  68.306  1.00  0.00    -0.224 C  
HETATM    4  C   UNL     1     -11.376  11.275  67.222  1.00  0.00    -0.329 C  
HETATM    5  C   UNL     1      -9.186  11.743  68.428  1.00  0.00    -0.175 C  
HETATM    6  C   UNL     1     -11.035   9.797  67.208  1.00  0.00    -0.072 C  
HETATM    7  N   UNL     1      -9.592   9.551  67.184  1.00  0.00    -0.154 NA 
HETATM    8  C   UNL     1      -8.708  10.350  68.021  1.00  0.00    -0.123 C  
BRANCH   7   9
HETATM    9  C   UNL     1      -9.136   8.552  66.353  1.00  0.00    -0.184 A  
HETATM   10  C   UNL     1      -7.998   7.531  64.814  1.00  0.00    -0.132 A  
HETATM   11  N   UNL     1      -8.350   8.758  65.311  1.00  0.00    -0.150 NA 
HETATM   12  C   UNL     1      -8.635   6.518  65.512  1.00  0.00    -0.102 A  
HETATM   13  N   UNL     1      -9.412   7.188  66.447  1.00  0.00    -0.156 NA 
HETATM   14  C   UNL     1      -8.436   5.158  65.227  1.00  0.00    -0.144 A  
HETATM   15  C   UNL     1      -7.541   4.841  64.201  1.00  0.00    -0.072 A  
HETATM   16  C   UNL     1      -6.894   5.845  63.480  1.00  0.00    -0.037 A  
HETATM   17  C   UNL     1      -7.121   7.197  63.771  1.00  0.00    -0.068 A  
BRANCH  13  18
HETATM   18  C   UNL     1     -10.408   6.492  67.252  1.00  0.00    -0.222 C  
BRANCH  18  19
HETATM   19  C   UNL     1     -10.022   6.360  68.711  1.00  0.00    -0.165 A  
HETATM   20  C   UNL     1     -11.041   6.159  69.657  1.00  0.00    -0.489 A  
HETATM   21  C   UNL     1     -10.761   6.237  71.020  1.00  0.00    -0.313 A  
HETATM   22  C   UNL     1      -9.460   6.482  71.442  1.00  0.00    -0.158 A  
HETATM   23  F   UNL     1      -9.208   6.647  72.746  1.00  0.00    -0.137 F  
HETATM   24  C   UNL     1      -8.421   6.577  70.528  1.00  0.00    -0.138 A  
HETATM   25  C   UNL     1      -8.697   6.491  69.165  1.00  0.00    -0.129 A  
ENDBRANCH  18  19
ENDBRANCH  13  18
ENDBRANCH   7   9
ENDBRANCH   2   3
BRANCH   2  26
HETATM   26  C   UNL     1     -12.013  13.277  70.077  1.00  0.00    -0.329 C  
HETATM   27  C   UNL     1     -12.399  15.538  70.080  1.00  0.00    -0.353 C  
HETATM   28  H   UNL     1     -12.974  12.224  71.552  1.00  0.00     0.000 HD 
HETATM   29  C   UNL     1     -13.511  14.197  71.714  1.00  0.00    -0.390 C  
HETATM   30  N   UNL     1     -11.793  14.443  69.528  1.00  0.00    -0.309 NA 
HETATM   31  O   UNL     1     -14.282  14.067  72.659  1.00  0.00    -0.639 OA 
HETATM   32  N   UNL     1     -12.844  13.152  71.149  1.00  0.00    -0.306 N  
HETATM   33  C   UNL     1     -13.239  15.507  71.113  1.00  0.00    -0.576 C  
ENDBRANCH   2  26
TORSDOF 5
ENDMDL
MODEL      132
REMARK 921   NORMALIZED FREE ENERGY PREDICTED BY IDOCK:   -5.14 KCAL/MOL
REMARK 922        TOTAL FREE ENERGY PREDICTED BY IDOCK:   -8.06 KCAL/MOL
REMARK 923 INTER-LIGAND FREE ENERGY PREDICTED BY IDOCK:   -7.34 KCAL/MOL
REMARK 924 INTRA-LIGAND FREE ENERGY PREDICTED BY IDOCK:   -0.72 KCAL/MOL
REMARK 927      BINDING AFFINITY PREDICTED BY RF-SCORE:    0.00 PKD
ROOT
HETATM    1  C   UNL     1      -9.628   4.020  70.263  1.00  0.00    -0.201 C  
HETATM    2  N   UNL     1      -8.998   5.314  70.601  1.00  0.00    -0.132 NA 
ENDROOT
BRANCH   2   3
HETATM    3  C   UNL     1      -8.093   5.826  69.531  1.00  0.00    -0.108 C  
HETATM    4  C   UNL     1      -7.964   7.342  69.554  1.00  0.00    -0.127 C  
HETATM    5  C   UNL     1      -8.312   5.260  68.136  1.00  0.00    -0.097 C  
HETATM    6  C   UNL     1      -8.989   8.072  68.707  1.00  0.00    -0.141 C  
HETATM    7  N   UNL     1      -9.048   7.570  67.334  1.00  0.00    -0.125 NA 
HETATM    8  C   UNL     1      -8.995   6.136  67.085  1.00  0.00    -0.111 C  
BRANCH   7   9
HETATM    9  C   UNL     1      -9.155   8.501  66.325  1.00  0.00    -0.185 A  
HETATM   10  C   UNL     1      -8.862   9.498  64.421  1.00  0.00    -0.216 A  
HETATM   11  N   UNL     1      -8.375   8.530  65.259  1.00  0.00    -0.152 NA 
HETATM   12  C   UNL     1      -9.936  10.153  65.000  1.00  0.00    -0.305 A  
HETATM   13  N   UNL     1     -10.068   9.552  66.244  1.00  0.00    -0.272 NA 
HETATM   14  C   UNL     1     -10.642  11.177  64.348  1.00  0.00    -0.411 A  
HETATM   15  C   UNL     1     -10.231  11.518  63.056  1.00  0.00    -0.312 A  
HETATM   16  C   UNL     1      -9.147  10.876  62.456  1.00  0.00    -0.361 A  
HETATM   17  C   UNL     1      -8.446   9.869  63.133  1.00  0.00    -0.178 A  
BRANCH  13  18
HETATM   18  C   UNL     1     -10.957  10.094  67.263  1.00  0.00    -0.183 C  
BRANCH  18  19
HETATM   19  C   UNL     1     -10.658  11.535  67.625  1.00  0.00    -0.235 A  
HETATM   20  C   UNL     1      -9.330  11.891  67.911  1.00  0.00    -0.187 A  
HETATM   21  C   UNL     1      -9.038  13.145  68.446  1.00  0.00    -0.134 A  
HETATM   22  C   UNL     1     -10.065  14.056  68.664  1.00  0.00    -0.217 A  
HETATM   23  F   UNL     1      -9.795  15.224  69.260  1.00  0.00    -0.204 F  
HETATM   24  C   UNL     1     -11.367  13.764  68.290  1.00  0.00    -0.317 A  
HETATM   25  C   UNL     1     -11.661  12.514  67.747  1.00  0.00    -0.419 A  
ENDBRANCH  18  19
ENDBRANCH  13  18
ENDBRANCH   7   9
ENDBRANCH   2   3
BRANCH   2  26
HETATM   26  C   UNL     1      -9.758   6.139  71.410  1.00  0.00    -0.167 C  
HETATM   27  C   UNL     1     -10.051   7.592  73.160  1.00  0.00    -0.308 C  
HETATM   28  H   UNL     1     -11.450   5.722  70.327  1.00  0.00     0.000 HD 
HETATM   29  C   UNL     1     -11.937   7.077  71.787  1.00  0.00    -0.326 C  
HETATM   30  N   UNL     1      -9.230   6.796  72.409  1.00  0.00    -0.135 NA 
HETATM   31  O   UNL     1     -13.118   7.207  71.485  1.00  0.00    -0.381 OA 
HETATM   32  N   UNL     1     -11.080   6.265  71.107  1.00  0.00    -0.286 N  
HETATM   33  C   UNL     1     -11.346   7.790  72.926  1.00  0.00    -0.406 C  
ENDBRANCH   2  26
TORSDOF 5
ENDMDL
MODEL      133
REMARK 921   NORMALIZED FREE ENERGY PREDICTED BY IDOCK:   -5.12 KCAL/MOL
REMARK 922        TOTAL FREE ENERGY PREDICTED BY IDOCK:   -8.03 KCAL/MOL
REMARK 923 INTER-LIGAND FREE ENERGY PREDICTED BY IDOCK:   -7.48 KCAL/MOL
REMARK 924 INTRA-LIGAND FREE ENERGY PREDICTED BY IDOCK:   -0.55 KCAL/MOL
REMARK 927      BINDING AFFINITY PREDICTED BY RF-SCORE:    0.00 PKD
ROOT
HETATM    1  C   UNL     1      -8.125  12.946  66.828  1.00  0.00     0.154 C  
HETATM    2  N   UNL     1      -9.431  13.194  66.181  1.00  0.00    -0.199 NA 
ENDROOT
BRANCH   2   3
HETATM    3  C   UNL     1     -10.385  12.055  66.323  1.00  0.00    -0.221 C  
HETATM    4  C   UNL     1     -11.140  12.091  67.644  1.00  0.00    -0.319 C  
HETATM    5  C   UNL     1      -9.845  10.677  65.973  1.00  0.00    -0.280 C  
HETATM    6  C   UNL     1     -10.457  11.350  68.778  1.00  0.00    -0.204 C  
HETATM    7  N   UNL     1     -10.090   9.980  68.417  1.00  0.00    -0.160 NA 
HETATM    8  C   UNL     1      -9.518   9.705  67.107  1.00  0.00    -0.148 C  
BRANCH   7   9
HETATM    9  C   UNL     1     -10.309   9.000  69.359  1.00  0.00    -0.213 A  
HETATM   10  C   UNL     1     -11.163   7.940  71.048  1.00  0.00    -0.269 A  
HETATM   11  N   UNL     1     -11.074   9.157  70.425  1.00  0.00    -0.247 NA 
HETATM   12  C   UNL     1     -10.375   7.001  70.404  1.00  0.00    -0.202 A  
HETATM   13  N   UNL     1      -9.782   7.709  69.369  1.00  0.00    -0.163 NA 
HETATM   14  C   UNL     1     -10.297   5.661  70.820  1.00  0.00    -0.310 A  
HETATM   15  C   UNL     1     -11.070   5.286  71.922  1.00  0.00    -0.110 A  
HETATM   16  C   UNL     1     -11.865   6.217  72.591  1.00  0.00    -0.108 A  
HETATM   17  C   UNL     1     -11.913   7.553  72.169  1.00  0.00    -0.323 A  
BRANCH  13  18
HETATM   18  C   UNL     1      -8.708   7.135  68.568  1.00  0.00    -0.126 C  
BRANCH  18  19
HETATM   19  C   UNL     1      -9.188   6.137  67.534  1.00  0.00    -0.111 A  
HETATM   20  C   UNL     1      -8.238   5.320  66.901  1.00  0.00    -0.108 A  
HETATM   21  C   UNL     1      -8.601   4.538  65.805  1.00  0.00    -0.116 A  
HETATM   22  C   UNL     1      -9.918   4.546  65.361  1.00  0.00    -0.192 A  
HETATM   23  F   UNL     1     -10.246   3.866  64.256  1.00  0.00    -0.179 F  
HETATM   24  C   UNL     1     -10.893   5.263  66.038  1.00  0.00    -0.076 A  
HETATM   25  C   UNL     1     -10.535   6.038  67.139  1.00  0.00    -0.327 A  
ENDBRANCH  18  19
ENDBRANCH  13  18
ENDBRANCH   7   9
ENDBRANCH   2   3
BRANCH   2  26
HETATM   26  C   UNL     1      -9.829  14.518  66.160  1.00  0.00    -0.318 C  
HETATM   27  C   UNL     1      -9.924  16.646  67.009  1.00  0.00    -0.271 C  
HETATM   28  H   UNL     1     -10.821  14.240  64.386  1.00  0.00     0.000 HD 
HETATM   29  C   UNL     1     -10.991  16.213  64.917  1.00  0.00    -0.349 C  
HETATM   30  N   UNL     1      -9.490  15.352  67.107  1.00  0.00    -0.209 NA 
HETATM   31  O   UNL     1     -11.629  16.580  63.936  1.00  0.00    -1.175 OA 
HETATM   32  N   UNL     1     -10.569  14.930  65.093  1.00  0.00    -0.399 N  
HETATM   33  C   UNL     1     -10.633  17.140  65.996  1.00  0.00    -0.205 C  
ENDBRANCH   2  26
TORSDOF 5
ENDMDL
MODEL      134
REMARK 921   NORMALIZED FREE ENERGY PREDICTED BY IDOCK:   -5.10 KCAL/MOL
REMARK 922        TOTAL FREE ENERGY PREDICTED BY IDOCK:   -8.00 KCAL/MOL
REMARK 923 INTER-LIGAND FREE ENERGY PREDICTED BY IDOCK:   -6.95 KCAL/MOL
REMARK 924 INTRA-LIGAND FREE ENERGY PREDICTED BY IDOCK:   -1.05 KCAL/MOL
REMARK 927      BINDING AFFINITY PREDICTED BY RF-SCORE:    0.00 PKD
ROOT
HETATM    1  C   UNL     1     -11.023   7.792  73.197  1.00  0.00    -0.310 C  
HETATM    2  N   UNL     1     -11.027   6.922  72.002  1.00  0.00    -0.229 NA 
ENDROOT
BRANCH   2   3
HETATM    3  C   UNL     1     -11.697   7.544  70.823  1.00  0.00    -0.256 C  
HETATM    4  C   UNL     1     -10.717   8.276  69.917  1.00  0.00    -0.234 C  
HETATM    5  C   UNL     1     -12.964   8.337  71.108  1.00  0.00    -0.070 C  
HETATM    6  C   UNL     1     -10.508   9.737  70.270  1.00  0.00    -0.288 C  
HETATM    7  N   UNL     1     -11.766  10.475  70.391  1.00  0.00    -0.317 NA 
HETATM    8  C   UNL     1     -12.900   9.864  71.068  1.00  0.00    -0.331 C  
BRANCH   7   9
HETATM    9  C   UNL     1     -11.810  11.738  69.846  1.00  0.00    -0.348 A  
HETATM   10  C   UNL     1     -11.790  13.902  69.692  1.00  0.00    -0.327 A  
HETATM   11  N   UNL     1     -11.915  12.847  70.557  1.00  0.00    -0.277 NA 
HETATM   12  C   UNL     1     -11.678  13.454  68.386  1.00  0.00    -0.355 A  
HETATM   13  N   UNL     1     -11.762  12.073  68.493  1.00  0.00    -0.316 NA 
HETATM   14  C   UNL     1     -11.514  14.325  67.296  1.00  0.00    -0.371 A  
HETATM   15  C   UNL     1     -11.450  15.694  67.572  1.00  0.00    -0.121 A  
HETATM   16  C   UNL     1     -11.569  16.167  68.879  1.00  0.00    -0.298 A  
HETATM   17  C   UNL     1     -11.749  15.281  69.950  1.00  0.00    -0.349 A  
BRANCH  13  18
HETATM   18  C   UNL     1     -11.897  11.223  67.317  1.00  0.00     0.237 C  
BRANCH  18  19
HETATM   19  C   UNL     1     -10.633  11.132  66.487  1.00  0.00    -0.314 A  
HETATM   20  C   UNL     1     -10.703  11.460  65.123  1.00  0.00    -0.332 A  
HETATM   21  C   UNL     1      -9.625  11.196  64.279  1.00  0.00    -0.288 A  
HETATM   22  C   UNL     1      -8.465  10.636  64.801  1.00  0.00    -0.100 A  
HETATM   23  F   UNL     1      -7.465  10.300  63.976  1.00  0.00    -0.140 F  
HETATM   24  C   UNL     1      -8.336  10.404  66.162  1.00  0.00    -0.149 A  
HETATM   25  C   UNL     1      -9.409  10.675  67.009  1.00  0.00    -0.175 A  
ENDBRANCH  18  19
ENDBRANCH  13  18
ENDBRANCH   7   9
ENDBRANCH   2   3
BRANCH   2  26
HETATM   26  C   UNL     1      -9.943   6.071  71.896  1.00  0.00    -0.169 C  
HETATM   27  C   UNL     1      -7.717   5.613  71.588  1.00  0.00    -0.107 C  
HETATM   28  H   UNL     1     -11.137   4.433  72.212  1.00  0.00     0.000 HD 
HETATM   29  C   UNL     1      -9.198   3.791  72.025  1.00  0.00    -0.121 C  
HETATM   30  N   UNL     1      -8.736   6.522  71.678  1.00  0.00    -0.132 NA 
HETATM   31  O   UNL     1      -9.416   2.597  72.204  1.00  0.00    -0.092 OA 
HETATM   32  N   UNL     1     -10.176   4.739  72.058  1.00  0.00    -0.194 N  
HETATM   33  C   UNL     1      -7.849   4.298  71.751  1.00  0.00    -0.080 C  
ENDBRANCH   2  26
TORSDOF 5
ENDMDL
MODEL      135
REMARK 921   NORMALIZED FREE ENERGY PREDICTED BY IDOCK:   -5.06 KCAL/MOL
REMARK 922        TOTAL FREE ENERGY PREDICTED BY IDOCK:   -7.95 KCAL/MOL
REMARK 923 INTER-LIGAND FREE ENERGY PREDICTED BY IDOCK:   -6.26 KCAL/MOL
REMARK 924 INTRA-LIGAND FREE ENERGY PREDICTED BY IDOCK:   -1.69 KCAL/MOL
REMARK 927      BINDING AFFINITY PREDICTED BY RF-SCORE:    0.00 PKD
ROOT
HETATM    1  C   UNL     1      -8.955   3.870  64.495  1.00  0.00    -0.132 C  
HETATM    2  N   UNL     1      -8.863   5.183  65.168  1.00  0.00    -0.154 NA 
ENDROOT
BRANCH   2   3
HETATM    3  C   UNL     1      -9.225   5.130  66.614  1.00  0.00    -0.129 C  
HETATM    4  C   UNL     1     -10.687   5.476  66.860  1.00  0.00    -0.310 C  
HETATM    5  C   UNL     1      -8.271   5.825  67.574  1.00  0.00    -0.101 C  
HETATM    6  C   UNL     1     -10.952   6.952  67.091  1.00  0.00    -0.357 C  
HETATM    7  N   UNL     1     -10.093   7.525  68.129  1.00  0.00    -0.176 NA 
HETATM    8  C   UNL     1      -8.683   7.166  68.180  1.00  0.00    -0.127 C  
BRANCH   7   9
HETATM    9  C   UNL     1     -10.678   8.394  69.023  1.00  0.00    -0.080 A  
HETATM   10  C   UNL     1     -11.342  10.243  69.942  1.00  0.00    -0.290 A  
HETATM   11  N   UNL     1     -10.505   9.704  69.001  1.00  0.00    -0.207 NA 
HETATM   12  C   UNL     1     -12.011   9.246  70.632  1.00  0.00    -0.152 A  
HETATM   13  N   UNL     1     -11.525   8.068  70.081  1.00  0.00    -0.089 NA 
HETATM   14  C   UNL     1     -12.951   9.518  71.640  1.00  0.00    -0.483 A  
HETATM   15  C   UNL     1     -13.213  10.861  71.926  1.00  0.00    -0.508 A  
HETATM   16  C   UNL     1     -12.545  11.882  71.249  1.00  0.00    -0.383 A  
HETATM   17  C   UNL     1     -11.598  11.586  70.259  1.00  0.00    -0.305 A  
BRANCH  13  18
HETATM   18  C   UNL     1     -11.821   6.770  70.672  1.00  0.00    -0.387 C  
BRANCH  18  19
HETATM   19  C   UNL     1     -10.765   6.294  71.649  1.00  0.00    -0.284 A  
HETATM   20  C   UNL     1     -10.898   6.647  73.002  1.00  0.00    -0.297 A  
HETATM   21  C   UNL     1      -9.855   6.411  73.897  1.00  0.00    -0.250 A  
HETATM   22  C   UNL     1      -8.693   5.793  73.450  1.00  0.00    -0.120 A  
HETATM   23  F   UNL     1      -7.659   5.648  74.288  1.00  0.00    -0.093 F  
HETATM   24  C   UNL     1      -8.584   5.340  72.144  1.00  0.00    -0.126 A  
HETATM   25  C   UNL     1      -9.629   5.567  71.250  1.00  0.00    -0.198 A  
ENDBRANCH  18  19
ENDBRANCH  13  18
ENDBRANCH   7   9
ENDBRANCH   2   3
BRANCH   2  26
HETATM   26  C   UNL     1      -7.898   6.033  64.659  1.00  0.00    -0.112 C  
HETATM   27  C   UNL     1      -5.799   6.518  63.874  1.00  0.00    -0.030 C  
HETATM   28  H   UNL     1      -9.208   7.612  64.686  1.00  0.00     0.000 HD 
HETATM   29  C   UNL     1      -7.431   8.262  63.896  1.00  0.00    -0.114 C  
HETATM   30  N   UNL     1      -6.694   5.613  64.376  1.00  0.00    -0.045 NA 
HETATM   31  O   UNL     1      -7.779   9.416  63.669  1.00  0.00    -0.114 OA 
HETATM   32  N   UNL     1      -8.261   7.327  64.435  1.00  0.00    -0.052 N  
HETATM   33  C   UNL     1      -6.071   7.793  63.606  1.00  0.00    -0.058 C  
ENDBRANCH   2  26
TORSDOF 5
ENDMDL
MODEL      136
REMARK 921   NORMALIZED FREE ENERGY PREDICTED BY IDOCK:   -5.06 KCAL/MOL
REMARK 922        TOTAL FREE ENERGY PREDICTED BY IDOCK:   -7.95 KCAL/MOL
REMARK 923 INTER-LIGAND FREE ENERGY PREDICTED BY IDOCK:   -6.22 KCAL/MOL
REMARK 924 INTRA-LIGAND FREE ENERGY PREDICTED BY IDOCK:   -1.73 KCAL/MOL
REMARK 927      BINDING AFFINITY PREDICTED BY RF-SCORE:    0.00 PKD
ROOT
HETATM    1  C   UNL     1     -10.284   7.179  73.649  1.00  0.00    -0.359 C  
HETATM    2  N   UNL     1     -10.435   7.533  72.221  1.00  0.00    -0.218 NA 
ENDROOT
BRANCH   2   3
HETATM    3  C   UNL     1     -10.150   6.395  71.299  1.00  0.00    -0.187 C  
HETATM    4  C   UNL     1      -8.687   6.337  70.881  1.00  0.00    -0.136 C  
HETATM    5  C   UNL     1     -11.117   6.209  70.139  1.00  0.00    -0.448 C  
HETATM    6  C   UNL     1      -8.361   7.125  69.627  1.00  0.00    -0.133 C  
HETATM    7  N   UNL     1      -9.243   6.795  68.506  1.00  0.00    -0.129 NA 
HETATM    8  C   UNL     1     -10.669   6.620  68.736  1.00  0.00    -0.258 C  
BRANCH   7   9
HETATM    9  C   UNL     1      -8.662   6.664  67.265  1.00  0.00    -0.118 A  
HETATM   10  C   UNL     1      -7.566   5.811  65.598  1.00  0.00    -0.086 A  
HETATM   11  N   UNL     1      -7.824   5.696  66.938  1.00  0.00    -0.101 NA 
HETATM   12  C   UNL     1      -8.197   6.926  65.072  1.00  0.00    -0.096 A  
HETATM   13  N   UNL     1      -8.837   7.499  66.162  1.00  0.00    -0.158 NA 
HETATM   14  C   UNL     1      -8.121   7.271  63.713  1.00  0.00    -0.011 A  
HETATM   15  C   UNL     1      -7.383   6.428  62.877  1.00  0.00    -0.062 A  
HETATM   16  C   UNL     1      -6.732   5.304  63.387  1.00  0.00    -0.037 A  
HETATM   17  C   UNL     1      -6.808   4.989  64.750  1.00  0.00    -0.049 A  
BRANCH  13  18
HETATM   18  C   UNL     1      -9.450   8.818  66.081  1.00  0.00    -0.247 C  
BRANCH  18  19
HETATM   19  C   UNL     1      -8.600   9.921  66.680  1.00  0.00    -0.130 A  
HETATM   20  C   UNL     1      -7.369  10.221  66.074  1.00  0.00    -0.129 A  
HETATM   21  C   UNL     1      -6.466  11.076  66.703  1.00  0.00    -0.129 A  
HETATM   22  C   UNL     1      -6.803  11.658  67.919  1.00  0.00    -0.074 A  
HETATM   23  F   UNL     1      -5.900  12.407  68.565  1.00  0.00    -0.053 F  
HETATM   24  C   UNL     1      -8.054  11.460  68.481  1.00  0.00    -0.149 A  
HETATM   25  C   UNL     1      -8.963  10.612  67.851  1.00  0.00    -0.138 A  
ENDBRANCH  18  19
ENDBRANCH  13  18
ENDBRANCH   7   9
ENDBRANCH   2   3
BRANCH   2  26
HETATM   26  C   UNL     1     -11.384   8.503  71.957  1.00  0.00    -0.355 C  
HETATM   27  C   UNL     1     -13.438   9.488  72.218  1.00  0.00    -0.440 C  
HETATM   28  H   UNL     1     -10.117   9.455  70.654  1.00  0.00     0.000 HD 
HETATM   29  C   UNL     1     -11.854  10.539  70.773  1.00  0.00    -0.365 C  
HETATM   30  N   UNL     1     -12.557   8.490  72.534  1.00  0.00    -0.348 NA 
HETATM   31  O   UNL     1     -11.520  11.444  70.016  1.00  0.00    -0.288 OA 
HETATM   32  N   UNL     1     -11.038   9.496  71.090  1.00  0.00    -0.352 N  
HETATM   33  C   UNL     1     -13.180  10.505  71.400  1.00  0.00    -0.441 C  
ENDBRANCH   2  26
TORSDOF 5
ENDMDL
MODEL      137
REMARK 921   NORMALIZED FREE ENERGY PREDICTED BY IDOCK:   -5.02 KCAL/MOL
REMARK 922        TOTAL FREE ENERGY PREDICTED BY IDOCK:   -7.89 KCAL/MOL
REMARK 923 INTER-LIGAND FREE ENERGY PREDICTED BY IDOCK:   -7.19 KCAL/MOL
REMARK 924 INTRA-LIGAND FREE ENERGY PREDICTED BY IDOCK:   -0.70 KCAL/MOL
REMARK 927      BINDING AFFINITY PREDICTED BY RF-SCORE:    0.00 PKD
ROOT
HETATM    1  C   UNL     1     -12.562  14.018  64.949  1.00  0.00    -0.342 C  
HETATM    2  N   UNL     1     -12.181  13.686  66.338  1.00  0.00    -0.431 NA 
ENDROOT
BRANCH   2   3
HETATM    3  C   UNL     1     -11.851  12.244  66.529  1.00  0.00    -0.306 C  
HETATM    4  C   UNL     1     -11.865  11.833  67.995  1.00  0.00    -0.304 C  
HETATM    5  C   UNL     1     -10.641  11.722  65.768  1.00  0.00    -0.312 C  
HETATM    6  C   UNL     1     -10.532  11.987  68.702  1.00  0.00    -0.218 C  
HETATM    7  N   UNL     1      -9.433  11.340  67.984  1.00  0.00    -0.168 NA 
HETATM    8  C   UNL     1      -9.346  11.458  66.536  1.00  0.00    -0.189 C  
BRANCH   7   9
HETATM    9  C   UNL     1      -8.517  10.637  68.735  1.00  0.00    -0.149 A  
HETATM   10  C   UNL     1      -6.872  10.214  70.085  1.00  0.00    -0.146 A  
HETATM   11  N   UNL     1      -7.469  11.185  69.325  1.00  0.00    -0.108 NA 
HETATM   12  C   UNL     1      -7.513   8.997  69.916  1.00  0.00    -0.065 A  
HETATM   13  N   UNL     1      -8.517   9.268  68.998  1.00  0.00    -0.129 NA 
HETATM   14  C   UNL     1      -7.122   7.832  70.596  1.00  0.00    -0.049 A  
HETATM   15  C   UNL     1      -6.048   7.938  71.485  1.00  0.00    -0.035 A  
HETATM   16  C   UNL     1      -5.384   9.152  71.665  1.00  0.00    -0.054 A  
HETATM   17  C   UNL     1      -5.780  10.298  70.963  1.00  0.00    -0.068 A  
BRANCH  13  18
HETATM   18  C   UNL     1      -9.299   8.202  68.384  1.00  0.00    -0.135 C  
BRANCH  18  19
HETATM   19  C   UNL     1     -10.121   7.405  69.376  1.00  0.00    -0.185 A  
HETATM   20  C   UNL     1     -11.158   8.058  70.063  1.00  0.00    -0.154 A  
HETATM   21  C   UNL     1     -11.803   7.428  71.127  1.00  0.00    -0.330 A  
HETATM   22  C   UNL     1     -11.437   6.136  71.484  1.00  0.00    -0.264 A  
HETATM   23  F   UNL     1     -11.993   5.566  72.561  1.00  0.00    -0.340 F  
HETATM   24  C   UNL     1     -10.491   5.435  70.753  1.00  0.00    -0.317 A  
HETATM   25  C   UNL     1      -9.851   6.059  69.683  1.00  0.00    -0.205 A  
ENDBRANCH  18  19
ENDBRANCH  13  18
ENDBRANCH   7   9
ENDBRANCH   2   3
BRANCH   2  26
HETATM   26  C   UNL     1     -11.554  14.705  67.030  1.00  0.00    -0.371 C  
HETATM   27  C   UNL     1     -11.165  15.983  68.894  1.00  0.00    -0.353 C  
HETATM   28  H   UNL     1     -10.434  15.199  65.383  1.00  0.00     0.000 HD 
HETATM   29  C   UNL     1      -9.878  16.423  66.931  1.00  0.00    -0.261 C  
HETATM   30  N   UNL     1     -11.832  14.957  68.282  1.00  0.00    -0.310 NA 
HETATM   31  O   UNL     1      -9.005  17.041  66.330  1.00  0.00    -0.300 OA 
HETATM   32  N   UNL     1     -10.607  15.423  66.363  1.00  0.00    -0.302 N  
HETATM   33  C   UNL     1     -10.214  16.722  68.327  1.00  0.00    -0.295 C  
ENDBRANCH   2  26
TORSDOF 5
ENDMDL
MODEL      138
REMARK 921   NORMALIZED FREE ENERGY PREDICTED BY IDOCK:   -5.01 KCAL/MOL
REMARK 922        TOTAL FREE ENERGY PREDICTED BY IDOCK:   -7.88 KCAL/MOL
REMARK 923 INTER-LIGAND FREE ENERGY PREDICTED BY IDOCK:   -6.86 KCAL/MOL
REMARK 924 INTRA-LIGAND FREE ENERGY PREDICTED BY IDOCK:   -1.02 KCAL/MOL
REMARK 927      BINDING AFFINITY PREDICTED BY RF-SCORE:    0.00 PKD
ROOT
HETATM    1  C   UNL     1      -8.571   7.572  65.653  1.00  0.00    -0.114 C  
HETATM    2  N   UNL     1      -8.283   8.408  66.838  1.00  0.00    -0.102 NA 
ENDROOT
BRANCH   2   3
HETATM    3  C   UNL     1      -8.611   9.849  66.636  1.00  0.00    -0.125 C  
HETATM    4  C   UNL     1      -8.130  10.722  67.787  1.00  0.00    -0.111 C  
HETATM    5  C   UNL     1     -10.033  10.162  66.195  1.00  0.00    -0.310 C  
HETATM    6  C   UNL     1      -9.139  10.894  68.908  1.00  0.00    -0.144 C  
HETATM    7  N   UNL     1     -10.450  11.332  68.426  1.00  0.00    -0.188 NA 
HETATM    8  C   UNL     1     -11.009  10.745  67.217  1.00  0.00    -0.297 C  
BRANCH   7   9
HETATM    9  C   UNL     1     -11.100  12.299  69.160  1.00  0.00    -0.203 A  
HETATM   10  C   UNL     1     -12.537  13.241  70.485  1.00  0.00    -0.189 A  
HETATM   11  N   UNL     1     -12.275  12.122  69.739  1.00  0.00    -0.197 NA 
HETATM   12  C   UNL     1     -11.538  14.186  70.317  1.00  0.00    -0.201 A  
HETATM   13  N   UNL     1     -10.663  13.598  69.415  1.00  0.00    -0.029 NA 
HETATM   14  C   UNL     1     -11.542  15.421  70.985  1.00  0.00    -0.410 A  
HETATM   15  C   UNL     1     -12.602  15.674  71.861  1.00  0.00    -0.509 A  
HETATM   16  C   UNL     1     -13.623  14.740  72.038  1.00  0.00    -0.502 A  
HETATM   17  C   UNL     1     -13.607  13.520  71.348  1.00  0.00    -0.163 A  
BRANCH  13  18
HETATM   18  C   UNL     1      -9.574  14.350  68.806  1.00  0.00    -0.177 C  
BRANCH  18  19
HETATM   19  C   UNL     1     -10.043  15.452  67.877  1.00  0.00    -0.226 A  
HETATM   20  C   UNL     1     -10.590  15.091  66.634  1.00  0.00    -0.301 A  
HETATM   21  C   UNL     1     -10.843  16.064  65.668  1.00  0.00    -0.273 A  
HETATM   22  C   UNL     1     -10.582  17.399  65.952  1.00  0.00    -0.200 A  
HETATM   23  F   UNL     1     -10.740  18.321  64.994  1.00  0.00    -0.199 F  
HETATM   24  C   UNL     1     -10.144  17.787  67.209  1.00  0.00    -0.337 A  
HETATM   25  C   UNL     1      -9.898  16.818  68.180  1.00  0.00    -0.264 A  
ENDBRANCH  18  19
ENDBRANCH  13  18
ENDBRANCH   7   9
ENDBRANCH   2   3
BRANCH   2  26
HETATM   26  C   UNL     1      -8.418   7.763  68.053  1.00  0.00    -0.123 C  
HETATM   27  C   UNL     1      -7.669   7.092  70.114  1.00  0.00    -0.100 C  
HETATM   28  H   UNL     1     -10.329   7.182  67.586  1.00  0.00     0.000 HD 
HETATM   29  C   UNL     1      -9.902   6.528  69.482  1.00  0.00    -0.151 C  
HETATM   30  N   UNL     1      -7.453   7.752  68.935  1.00  0.00    -0.093 NA 
HETATM   31  O   UNL     1     -10.992   6.016  69.715  1.00  0.00    -0.337 OA 
HETATM   32  N   UNL     1      -9.612   7.160  68.311  1.00  0.00    -0.135 N  
HETATM   33  C   UNL     1      -8.807   6.493  70.458  1.00  0.00    -0.151 C  
ENDBRANCH   2  26
TORSDOF 5
ENDMDL
MODEL      139
REMARK 921   NORMALIZED FREE ENERGY PREDICTED BY IDOCK:   -5.00 KCAL/MOL
REMARK 922        TOTAL FREE ENERGY PREDICTED BY IDOCK:   -7.87 KCAL/MOL
REMARK 923 INTER-LIGAND FREE ENERGY PREDICTED BY IDOCK:   -7.52 KCAL/MOL
REMARK 924 INTRA-LIGAND FREE ENERGY PREDICTED BY IDOCK:   -0.35 KCAL/MOL
REMARK 927      BINDING AFFINITY PREDICTED BY RF-SCORE:    0.00 PKD
ROOT
HETATM    1  C   UNL     1      -5.624  17.800  70.424  1.00  0.00    -0.220 C  
HETATM    2  N   UNL     1      -6.046  17.533  69.033  1.00  0.00    -0.194 NA 
ENDROOT
BRANCH   2   3
HETATM    3  C   UNL     1      -6.395  16.103  68.788  1.00  0.00    -0.119 C  
HETATM    4  C   UNL     1      -6.392  15.748  67.308  1.00  0.00    -0.105 C  
HETATM    5  C   UNL     1      -7.609  15.568  69.534  1.00  0.00    -0.200 C  
HETATM    6  C   UNL     1      -7.725  15.946  66.612  1.00  0.00    -0.164 C  
HETATM    7  N   UNL     1      -8.830  15.286  67.309  1.00  0.00    -0.185 NA 
HETATM    8  C   UNL     1      -8.910  15.350  68.761  1.00  0.00    -0.196 C  
BRANCH   7   9
HETATM    9  C   UNL     1      -9.758  14.624  66.537  1.00  0.00    -0.280 A  
HETATM   10  C   UNL     1     -11.198  14.222  64.965  1.00  0.00    -0.364 A  
HETATM   11  N   UNL     1     -10.503  15.208  65.614  1.00  0.00    -0.332 NA 
HETATM   12  C   UNL     1     -10.946  12.986  65.538  1.00  0.00    -0.274 A  
HETATM   13  N   UNL     1     -10.079  13.268  66.584  1.00  0.00    -0.260 NA 
HETATM   14  C   UNL     1     -11.512  11.795  65.054  1.00  0.00    -0.253 A  
HETATM   15  C   UNL     1     -12.348  11.889  63.937  1.00  0.00    -0.488 A  
HETATM   16  C   UNL     1     -12.622  13.125  63.349  1.00  0.00    -0.172 A  
HETATM   17  C   UNL     1     -12.060  14.302  63.860  1.00  0.00    -0.247 A  
BRANCH  13  18
HETATM   18  C   UNL     1      -9.729  12.262  67.578  1.00  0.00    -0.190 C  
BRANCH  18  19
HETATM   19  C   UNL     1      -9.391  10.911  66.981  1.00  0.00    -0.180 A  
HETATM   20  C   UNL     1     -10.213   9.817  67.294  1.00  0.00    -0.289 A  
HETATM   21  C   UNL     1      -9.830   8.524  66.940  1.00  0.00    -0.310 A  
HETATM   22  C   UNL     1      -8.643   8.326  66.245  1.00  0.00    -0.138 A  
HETATM   23  F   UNL     1      -8.231   7.079  65.985  1.00  0.00    -0.104 F  
HETATM   24  C   UNL     1      -7.870   9.401  65.833  1.00  0.00    -0.099 A  
HETATM   25  C   UNL     1      -8.256  10.695  66.178  1.00  0.00    -0.156 A  
ENDBRANCH  18  19
ENDBRANCH  13  18
ENDBRANCH   7   9
ENDBRANCH   2   3
BRANCH   2  26
HETATM   26  C   UNL     1      -6.683  18.586  68.404  1.00  0.00    -0.241 C  
HETATM   27  C   UNL     1      -6.774  20.349  66.939  1.00  0.00    -0.244 C  
HETATM   28  H   UNL     1      -8.418  18.215  69.433  1.00  0.00     0.000 HD 
HETATM   29  C   UNL     1      -8.752  19.780  68.151  1.00  0.00    -0.284 C  
HETATM   30  N   UNL     1      -6.071  19.326  67.516  1.00  0.00    -0.194 NA 
HETATM   31  O   UNL     1      -9.935  19.950  68.423  1.00  0.00    -0.408 OA 
HETATM   32  N   UNL     1      -7.988  18.809  68.724  1.00  0.00    -0.324 N  
HETATM   33  C   UNL     1      -8.054  20.626  67.176  1.00  0.00    -0.308 C  
ENDBRANCH   2  26
TORSDOF 5
ENDMDL
MODEL      140
REMARK 921   NORMALIZED FREE ENERGY PREDICTED BY IDOCK:   -5.00 KCAL/MOL
REMARK 922        TOTAL FREE ENERGY PREDICTED BY IDOCK:   -7.87 KCAL/MOL
REMARK 923 INTER-LIGAND FREE ENERGY PREDICTED BY IDOCK:   -6.98 KCAL/MOL
REMARK 924 INTRA-LIGAND FREE ENERGY PREDICTED BY IDOCK:   -0.89 KCAL/MOL
REMARK 927      BINDING AFFINITY PREDICTED BY RF-SCORE:    0.00 PKD
ROOT
HETATM    1  C   UNL     1      -8.133   7.475  69.960  1.00  0.00    -0.127 C  
HETATM    2  N   UNL     1      -9.329   7.404  70.827  1.00  0.00    -0.160 NA 
ENDROOT
BRANCH   2   3
HETATM    3  C   UNL     1     -10.556   7.957  70.183  1.00  0.00    -0.237 C  
HETATM    4  C   UNL     1     -10.506   7.867  68.664  1.00  0.00    -0.196 C  
HETATM    5  C   UNL     1     -11.034   9.309  70.692  1.00  0.00    -0.336 C  
HETATM    6  C   UNL     1      -9.892   9.077  67.984  1.00  0.00    -0.166 C  
HETATM    7  N   UNL     1     -10.496  10.337  68.418  1.00  0.00    -0.189 NA 
HETATM    8  C   UNL     1     -10.800  10.546  69.826  1.00  0.00    -0.281 C  
BRANCH   7   9
HETATM    9  C   UNL     1     -10.751  11.281  67.448  1.00  0.00    -0.242 A  
HETATM   10  C   UNL     1     -11.817  12.718  66.221  1.00  0.00    -0.423 A  
HETATM   11  N   UNL     1     -11.963  11.686  67.110  1.00  0.00    -0.574 NA 
HETATM   12  C   UNL     1     -10.480  12.926  65.928  1.00  0.00    -0.279 A  
HETATM   13  N   UNL     1      -9.815  11.956  66.665  1.00  0.00    -0.198 NA 
HETATM   14  C   UNL     1     -10.042  13.940  65.060  1.00  0.00    -0.319 A  
HETATM   15  C   UNL     1     -11.017  14.767  64.495  1.00  0.00    -0.227 A  
HETATM   16  C   UNL     1     -12.371  14.570  64.771  1.00  0.00    -0.403 A  
HETATM   17  C   UNL     1     -12.786  13.540  65.626  1.00  0.00    -0.478 A  
BRANCH  13  18
HETATM   18  C   UNL     1      -8.394  11.694  66.478  1.00  0.00    -0.122 C  
BRANCH  18  19
HETATM   19  C   UNL     1      -7.524  12.248  67.588  1.00  0.00    -0.134 A  
HETATM   20  C   UNL     1      -6.978  11.352  68.521  1.00  0.00    -0.080 A  
HETATM   21  C   UNL     1      -6.347  11.829  69.669  1.00  0.00    -0.129 A  
HETATM   22  C   UNL     1      -6.231  13.199  69.870  1.00  0.00    -0.094 A  
HETATM   23  F   UNL     1      -5.706  13.655  71.014  1.00  0.00    -0.155 F  
HETATM   24  C   UNL     1      -6.667  14.099  68.911  1.00  0.00    -0.103 A  
HETATM   25  C   UNL     1      -7.291  13.625  67.758  1.00  0.00    -0.170 A  
ENDBRANCH  18  19
ENDBRANCH  13  18
ENDBRANCH   7   9
ENDBRANCH   2   3
BRANCH   2  26
HETATM   26  C   UNL     1      -9.350   6.339  71.707  1.00  0.00    -0.150 C  
HETATM   27  C   UNL     1      -8.357   4.762  73.044  1.00  0.00    -0.101 C  
HETATM   28  H   UNL     1     -11.401   6.304  71.690  1.00  0.00     0.000 HD 
HETATM   29  C   UNL     1     -10.743   4.860  72.989  1.00  0.00    -0.244 C  
HETATM   30  N   UNL     1      -8.248   5.814  72.176  1.00  0.00    -0.111 NA 
HETATM   31  O   UNL     1     -11.846   4.469  73.354  1.00  0.00    -0.217 OA 
HETATM   32  N   UNL     1     -10.570   5.872  72.094  1.00  0.00    -0.211 N  
HETATM   33  C   UNL     1      -9.504   4.255  73.490  1.00  0.00    -0.127 C  
ENDBRANCH   2  26
TORSDOF 5
ENDMDL
MODEL      141
REMARK 921   NORMALIZED FREE ENERGY PREDICTED BY IDOCK:   -4.99 KCAL/MOL
REMARK 922        TOTAL FREE ENERGY PREDICTED BY IDOCK:   -7.86 KCAL/MOL
REMARK 923 INTER-LIGAND FREE ENERGY PREDICTED BY IDOCK:   -7.22 KCAL/MOL
REMARK 924 INTRA-LIGAND FREE ENERGY PREDICTED BY IDOCK:   -0.64 KCAL/MOL
REMARK 927      BINDING AFFINITY PREDICTED BY RF-SCORE:    0.00 PKD
ROOT
HETATM    1  C   UNL     1      -5.918  11.115  70.453  1.00  0.00    -0.144 C  
HETATM    2  N   UNL     1      -6.673  10.914  69.198  1.00  0.00    -0.070 NA 
ENDROOT
BRANCH   2   3
HETATM    3  C   UNL     1      -6.454  12.000  68.198  1.00  0.00    -0.054 C  
HETATM    4  C   UNL     1      -5.958  13.289  68.839  1.00  0.00    -0.079 C  
HETATM    5  C   UNL     1      -7.569  12.220  67.186  1.00  0.00    -0.118 C  
HETATM    6  C   UNL     1      -7.060  14.237  69.276  1.00  0.00    -0.107 C  
HETATM    7  N   UNL     1      -8.022  14.515  68.208  1.00  0.00    -0.129 NA 
HETATM    8  C   UNL     1      -8.483  13.433  67.350  1.00  0.00    -0.196 C  
BRANCH   7   9
HETATM    9  C   UNL     1      -8.450  15.816  68.069  1.00  0.00    -0.161 A  
HETATM   10  C   UNL     1      -8.402  17.970  67.814  1.00  0.00    -0.249 A  
HETATM   11  N   UNL     1      -7.652  16.868  68.132  1.00  0.00    -0.181 NA 
HETATM   12  C   UNL     1      -9.727  17.621  67.616  1.00  0.00    -0.277 A  
HETATM   13  N   UNL     1      -9.756  16.254  67.850  1.00  0.00    -0.232 NA 
HETATM   14  C   UNL     1     -10.713  18.554  67.255  1.00  0.00    -0.417 A  
HETATM   15  C   UNL     1     -10.307  19.881  67.081  1.00  0.00    -0.581 A  
HETATM   16  C   UNL     1      -8.978  20.256  67.283  1.00  0.00    -0.472 A  
HETATM   17  C   UNL     1      -8.016  19.311  67.660  1.00  0.00    -0.311 A  
BRANCH  13  18
HETATM   18  C   UNL     1     -11.012  15.522  67.950  1.00  0.00    -0.316 C  
BRANCH  18  19
HETATM   19  C   UNL     1     -11.469  14.918  66.637  1.00  0.00    -0.297 A  
HETATM   20  C   UNL     1     -12.276  13.770  66.674  1.00  0.00    -0.454 A  
HETATM   21  C   UNL     1     -12.548  13.064  65.503  1.00  0.00    -0.422 A  
HETATM   22  C   UNL     1     -12.044  13.521  64.292  1.00  0.00    -0.431 A  
HETATM   23  F   UNL     1     -12.230  12.794  63.182  1.00  0.00    -0.568 F  
HETATM   24  C   UNL     1     -11.335  14.710  64.219  1.00  0.00    -0.113 A  
HETATM   25  C   UNL     1     -11.069  15.423  65.386  1.00  0.00    -0.331 A  
ENDBRANCH  18  19
ENDBRANCH  13  18
ENDBRANCH   7   9
ENDBRANCH   2   3
BRANCH   2  26
HETATM   26  C   UNL     1      -6.881   9.593  68.848  1.00  0.00    -0.054 C  
HETATM   27  C   UNL     1      -7.025   7.867  67.344  1.00  0.00    -0.075 C  
HETATM   28  H   UNL     1      -7.203   9.076  70.806  1.00  0.00     0.000 HD 
HETATM   29  C   UNL     1      -7.321   7.377  69.663  1.00  0.00    -0.091 C  
HETATM   30  N   UNL     1      -6.807   9.192  67.606  1.00  0.00    -0.076 NA 
HETATM   31  O   UNL     1      -7.522   6.590  70.582  1.00  0.00    -0.077 OA 
HETATM   32  N   UNL     1      -7.141   8.713  69.855  1.00  0.00    -0.049 N  
HETATM   33  C   UNL     1      -7.265   6.936  68.265  1.00  0.00    -0.091 C  
ENDBRANCH   2  26
TORSDOF 5
ENDMDL
MODEL      142
REMARK 921   NORMALIZED FREE ENERGY PREDICTED BY IDOCK:   -4.96 KCAL/MOL
REMARK 922        TOTAL FREE ENERGY PREDICTED BY IDOCK:   -7.82 KCAL/MOL
REMARK 923 INTER-LIGAND FREE ENERGY PREDICTED BY IDOCK:   -7.23 KCAL/MOL
REMARK 924 INTRA-LIGAND FREE ENERGY PREDICTED BY IDOCK:   -0.59 KCAL/MOL
REMARK 927      BINDING AFFINITY PREDICTED BY RF-SCORE:    0.00 PKD
ROOT
HETATM    1  C   UNL     1     -11.027  15.568  66.943  1.00  0.00    -0.268 C  
HETATM    2  N   UNL     1     -10.566  14.164  66.891  1.00  0.00    -0.279 NA 
ENDROOT
BRANCH   2   3
HETATM    3  C   UNL     1     -10.342  13.567  68.240  1.00  0.00    -0.252 C  
HETATM    4  C   UNL     1      -9.072  12.730  68.302  1.00  0.00    -0.180 C  
HETATM    5  C   UNL     1     -11.543  12.891  68.886  1.00  0.00    -0.360 C  
HETATM    6  C   UNL     1      -9.267  11.267  67.949  1.00  0.00    -0.157 C  
HETATM    7  N   UNL     1     -10.349  10.641  68.710  1.00  0.00    -0.182 NA 
HETATM    8  C   UNL     1     -11.594  11.364  68.926  1.00  0.00    -0.323 C  
BRANCH   7   9
HETATM    9  C   UNL     1     -10.127   9.371  69.193  1.00  0.00    -0.195 A  
HETATM   10  C   UNL     1     -10.494   7.428  70.085  1.00  0.00    -0.220 A  
HETATM   11  N   UNL     1     -11.005   8.686  69.904  1.00  0.00    -0.210 NA 
HETATM   12  C   UNL     1      -9.225   7.331  69.539  1.00  0.00    -0.149 A  
HETATM   13  N   UNL     1      -8.976   8.600  69.034  1.00  0.00    -0.141 NA 
HETATM   14  C   UNL     1      -8.477   6.143  69.562  1.00  0.00    -0.120 A  
HETATM   15  C   UNL     1      -9.069   5.023  70.153  1.00  0.00    -0.163 A  
HETATM   16  C   UNL     1     -10.343   5.100  70.716  1.00  0.00    -0.294 A  
HETATM   17  C   UNL     1     -11.064   6.301  70.697  1.00  0.00    -0.389 A  
BRANCH  13  18
HETATM   18  C   UNL     1      -7.655   8.986  68.556  1.00  0.00    -0.093 C  
BRANCH  18  19
HETATM   19  C   UNL     1      -7.304   8.399  67.203  1.00  0.00    -0.085 A  
HETATM   20  C   UNL     1      -8.332   8.230  66.260  1.00  0.00    -0.124 A  
HETATM   21  C   UNL     1      -8.101   7.511  65.089  1.00  0.00    -0.130 A  
HETATM   22  C   UNL     1      -6.837   6.989  64.841  1.00  0.00    -0.047 A  
HETATM   23  F   UNL     1      -6.639   6.223  63.761  1.00  0.00    -0.028 F  
HETATM   24  C   UNL     1      -5.782   7.236  65.706  1.00  0.00    -0.036 A  
HETATM   25  C   UNL     1      -6.008   7.962  66.874  1.00  0.00    -0.052 A  
ENDBRANCH  18  19
ENDBRANCH  13  18
ENDBRANCH   7   9
ENDBRANCH   2   3
BRANCH   2  26
HETATM   26  C   UNL     1     -11.027  13.439  65.808  1.00  0.00    -0.277 C  
HETATM   27  C   UNL     1     -12.677  12.545  64.490  1.00  0.00    -0.354 C  
HETATM   28  H   UNL     1      -9.109  13.061  65.184  1.00  0.00     0.000 HD 
HETATM   29  C   UNL     1     -10.403  12.224  63.831  1.00  0.00    -0.429 C  
HETATM   30  N   UNL     1     -12.304  13.276  65.585  1.00  0.00    -0.459 NA 
HETATM   31  O   UNL     1      -9.556  11.790  63.059  1.00  0.00    -0.378 OA 
HETATM   32  N   UNL     1     -10.095  12.920  64.961  1.00  0.00    -0.252 N  
HETATM   33  C   UNL     1     -11.838  12.019  63.600  1.00  0.00    -0.602 C  
ENDBRANCH   2  26
TORSDOF 5
ENDMDL
MODEL      143
REMARK 921   NORMALIZED FREE ENERGY PREDICTED BY IDOCK:   -4.95 KCAL/MOL
REMARK 922        TOTAL FREE ENERGY PREDICTED BY IDOCK:   -7.81 KCAL/MOL
REMARK 923 INTER-LIGAND FREE ENERGY PREDICTED BY IDOCK:   -6.83 KCAL/MOL
REMARK 924 INTRA-LIGAND FREE ENERGY PREDICTED BY IDOCK:   -0.98 KCAL/MOL
REMARK 927      BINDING AFFINITY PREDICTED BY RF-SCORE:    0.00 PKD
ROOT
HETATM    1  C   UNL     1      -8.910  15.690  66.124  1.00  0.00    -0.276 C  
HETATM    2  N   UNL     1      -9.306  14.295  66.410  1.00  0.00    -0.272 NA 
ENDROOT
BRANCH   2   3
HETATM    3  C   UNL     1      -9.302  13.968  67.866  1.00  0.00    -0.206 C  
HETATM    4  C   UNL     1      -7.926  13.548  68.364  1.00  0.00    -0.142 C  
HETATM    5  C   UNL     1     -10.424  13.066  68.358  1.00  0.00    -0.261 C  
HETATM    6  C   UNL     1      -7.654  12.058  68.271  1.00  0.00    -0.117 C  
HETATM    7  N   UNL     1      -8.707  11.251  68.889  1.00  0.00    -0.101 NA 
HETATM    8  C   UNL     1     -10.104  11.607  68.685  1.00  0.00    -0.198 C  
BRANCH   7   9
HETATM    9  C   UNL     1      -8.311  10.173  69.648  1.00  0.00    -0.161 A  
HETATM   10  C   UNL     1      -7.168   8.953  71.031  1.00  0.00    -0.097 A  
HETATM   11  N   UNL     1      -7.151  10.096  70.276  1.00  0.00    -0.193 NA 
HETATM   12  C   UNL     1      -8.340   8.245  70.821  1.00  0.00    -0.123 A  
HETATM   13  N   UNL     1      -9.029   9.001  69.883  1.00  0.00    -0.153 NA 
HETATM   14  C   UNL     1      -8.631   7.043  71.487  1.00  0.00    -0.117 A  
HETATM   15  C   UNL     1      -7.687   6.574  72.405  1.00  0.00    -0.096 A  
HETATM   16  C   UNL     1      -6.496   7.267  72.626  1.00  0.00    -0.055 A  
HETATM   17  C   UNL     1      -6.219   8.455  71.937  1.00  0.00    -0.061 A  
BRANCH  13  18
HETATM   18  C   UNL     1     -10.230   8.497  69.229  1.00  0.00    -0.208 C  
BRANCH  18  19
HETATM   19  C   UNL     1      -9.950   7.449  68.171  1.00  0.00    -0.190 A  
HETATM   20  C   UNL     1     -10.724   6.277  68.169  1.00  0.00    -0.364 A  
HETATM   21  C   UNL     1     -10.371   5.203  67.353  1.00  0.00    -0.209 A  
HETATM   22  C   UNL     1      -9.267   5.309  66.516  1.00  0.00    -0.139 A  
HETATM   23  F   UNL     1      -8.876   4.247  65.801  1.00  0.00    -0.115 F  
HETATM   24  C   UNL     1      -8.554   6.494  66.424  1.00  0.00    -0.136 A  
HETATM   25  C   UNL     1      -8.909   7.573  67.232  1.00  0.00    -0.124 A  
ENDBRANCH  18  19
ENDBRANCH  13  18
ENDBRANCH   7   9
ENDBRANCH   2   3
BRANCH   2  26
HETATM   26  C   UNL     1     -10.205  13.748  65.514  1.00  0.00    -0.316 C  
HETATM   27  C   UNL     1     -11.099  12.019  64.300  1.00  0.00    -0.351 C  
HETATM   28  H   UNL     1     -11.129  15.562  65.261  1.00  0.00     0.000 HD 
HETATM   29  C   UNL     1     -12.127  14.169  64.136  1.00  0.00    -0.406 C  
HETATM   30  N   UNL     1     -10.172  12.481  65.195  1.00  0.00    -0.284 NA 
HETATM   31  O   UNL     1     -12.994  14.918  63.699  1.00  0.00    -0.399 OA 
HETATM   32  N   UNL     1     -11.152  14.578  64.993  1.00  0.00    -0.365 N  
HETATM   33  C   UNL     1     -12.069  12.752  63.758  1.00  0.00    -0.596 C  
ENDBRANCH   2  26
TORSDOF 5
ENDMDL
MODEL      144
REMARK 921   NORMALIZED FREE ENERGY PREDICTED BY IDOCK:   -4.89 KCAL/MOL
REMARK 922        TOTAL FREE ENERGY PREDICTED BY IDOCK:   -7.73 KCAL/MOL
REMARK 923 INTER-LIGAND FREE ENERGY PREDICTED BY IDOCK:   -6.94 KCAL/MOL
REMARK 924 INTRA-LIGAND FREE ENERGY PREDICTED BY IDOCK:   -0.79 KCAL/MOL
REMARK 927      BINDING AFFINITY PREDICTED BY RF-SCORE:    0.00 PKD
ROOT
HETATM    1  C   UNL     1     -12.686  12.965  71.195  1.00  0.00    -0.276 C  
HETATM    2  N   UNL     1     -12.032  12.401  69.995  1.00  0.00    -0.331 NA 
ENDROOT
BRANCH   2   3
HETATM    3  C   UNL     1     -12.383  10.971  69.751  1.00  0.00    -0.262 C  
HETATM    4  C   UNL     1     -12.967  10.297  70.985  1.00  0.00    -0.488 C  
HETATM    5  C   UNL     1     -11.332  10.130  69.044  1.00  0.00    -0.188 C  
HETATM    6  C   UNL     1     -11.938   9.643  71.888  1.00  0.00    -0.258 C  
HETATM    7  N   UNL     1     -11.046   8.736  71.164  1.00  0.00    -0.258 NA 
HETATM    8  C   UNL     1     -10.522   9.123  69.862  1.00  0.00    -0.223 C  
BRANCH   7   9
HETATM    9  C   UNL     1     -10.740   7.538  71.768  1.00  0.00    -0.211 A  
HETATM   10  C   UNL     1     -10.978   5.559  72.627  1.00  0.00    -0.270 A  
HETATM   11  N   UNL     1     -11.643   6.687  72.223  1.00  0.00    -0.281 NA 
HETATM   12  C   UNL     1      -9.609   5.724  72.495  1.00  0.00    -0.154 A  
HETATM   13  N   UNL     1      -9.469   7.017  72.011  1.00  0.00    -0.140 NA 
HETATM   14  C   UNL     1      -8.688   4.714  72.815  1.00  0.00    -0.114 A  
HETATM   15  C   UNL     1      -9.203   3.496  73.269  1.00  0.00    -0.115 A  
HETATM   16  C   UNL     1     -10.578   3.311  73.417  1.00  0.00    -0.280 A  
HETATM   17  C   UNL     1     -11.478   4.340  73.108  1.00  0.00    -0.190 A  
BRANCH  13  18
HETATM   18  C   UNL     1      -8.166   7.665  71.929  1.00  0.00    -0.108 C  
BRANCH  18  19
HETATM   19  C   UNL     1      -7.595   7.704  70.526  1.00  0.00    -0.081 A  
HETATM   20  C   UNL     1      -6.844   8.826  70.140  1.00  0.00    -0.040 A  
HETATM   21  C   UNL     1      -6.476   9.002  68.807  1.00  0.00    -0.053 A  
HETATM   22  C   UNL     1      -6.827   8.043  67.865  1.00  0.00    -0.073 A  
HETATM   23  F   UNL     1      -6.552   8.255  66.572  1.00  0.00    -0.052 F  
HETATM   24  C   UNL     1      -7.475   6.876  68.243  1.00  0.00    -0.099 A  
HETATM   25  C   UNL     1      -7.837   6.694  69.577  1.00  0.00    -0.106 A  
ENDBRANCH  18  19
ENDBRANCH  13  18
ENDBRANCH   7   9
ENDBRANCH   2   3
BRANCH   2  26
HETATM   26  C   UNL     1     -11.795  13.307  68.979  1.00  0.00    -0.321 C  
HETATM   27  C   UNL     1     -11.585  13.911  66.777  1.00  0.00    -0.378 C  
HETATM   28  H   UNL     1     -11.520  14.824  70.332  1.00  0.00     0.000 HD 
HETATM   29  C   UNL     1     -11.347  15.605  68.444  1.00  0.00    -0.364 C  
HETATM   30  N   UNL     1     -11.830  12.952  67.721  1.00  0.00    -0.354 NA 
HETATM   31  O   UNL     1     -11.160  16.771  68.778  1.00  0.00    -0.306 OA 
HETATM   32  N   UNL     1     -11.552  14.598  69.338  1.00  0.00    -0.287 N  
HETATM   33  C   UNL     1     -11.358  15.197  67.034  1.00  0.00    -0.277 C  
ENDBRANCH   2  26
TORSDOF 5
ENDMDL
MODEL      145
REMARK 921   NORMALIZED FREE ENERGY PREDICTED BY IDOCK:   -4.89 KCAL/MOL
REMARK 922        TOTAL FREE ENERGY PREDICTED BY IDOCK:   -7.73 KCAL/MOL
REMARK 923 INTER-LIGAND FREE ENERGY PREDICTED BY IDOCK:   -7.38 KCAL/MOL
REMARK 924 INTRA-LIGAND FREE ENERGY PREDICTED BY IDOCK:   -0.35 KCAL/MOL
REMARK 927      BINDING AFFINITY PREDICTED BY RF-SCORE:    0.00 PKD
ROOT
HETATM    1  C   UNL     1     -10.430  15.373  65.777  1.00  0.00    -0.355 C  
HETATM    2  N   UNL     1     -10.818  16.159  66.967  1.00  0.00    -0.252 NA 
ENDROOT
BRANCH   2   3
HETATM    3  C   UNL     1     -11.002  15.324  68.190  1.00  0.00    -0.292 C  
HETATM    4  C   UNL     1      -9.686  14.770  68.719  1.00  0.00    -0.222 C  
HETATM    5  C   UNL     1     -12.115  14.288  68.138  1.00  0.00    -0.275 C  
HETATM    6  C   UNL     1      -9.297  13.421  68.144  1.00  0.00    -0.217 C  
HETATM    7  N   UNL     1     -10.368  12.430  68.254  1.00  0.00    -0.222 NA 
HETATM    8  C   UNL     1     -11.742  12.815  67.969  1.00  0.00    -0.356 C  
BRANCH   7   9
HETATM    9  C   UNL     1     -10.010  11.154  68.630  1.00  0.00    -0.205 A  
HETATM   10  C   UNL     1     -10.134   9.159  69.472  1.00  0.00    -0.197 A  
HETATM   11  N   UNL     1     -10.725  10.394  69.440  1.00  0.00    -0.227 NA 
HETATM   12  C   UNL     1      -8.970   9.154  68.721  1.00  0.00    -0.136 A  
HETATM   13  N   UNL     1      -8.867  10.454  68.246  1.00  0.00    -0.131 NA 
HETATM   14  C   UNL     1      -8.174   8.008  68.562  1.00  0.00    -0.126 A  
HETATM   15  C   UNL     1      -8.607   6.834  69.186  1.00  0.00    -0.131 A  
HETATM   16  C   UNL     1      -9.772   6.818  69.953  1.00  0.00    -0.164 A  
HETATM   17  C   UNL     1     -10.541   7.979  70.113  1.00  0.00    -0.237 A  
BRANCH  13  18
HETATM   18  C   UNL     1      -7.663  10.930  67.577  1.00  0.00    -0.109 C  
BRANCH  18  19
HETATM   19  C   UNL     1      -7.577  10.520  66.121  1.00  0.00    -0.135 A  
HETATM   20  C   UNL     1      -8.770  10.376  65.394  1.00  0.00    -0.193 A  
HETATM   21  C   UNL     1      -8.754   9.806  64.122  1.00  0.00    -0.233 A  
HETATM   22  C   UNL     1      -7.546   9.411  63.561  1.00  0.00    -0.115 A  
HETATM   23  F   UNL     1      -7.541   8.783  62.378  1.00  0.00    -0.103 F  
HETATM   24  C   UNL     1      -6.346   9.643  64.216  1.00  0.00    -0.105 A  
HETATM   25  C   UNL     1      -6.358  10.220  65.485  1.00  0.00    -0.117 A  
ENDBRANCH  18  19
ENDBRANCH  13  18
ENDBRANCH   7   9
ENDBRANCH   2   3
BRANCH   2  26
HETATM   26  C   UNL     1     -10.328  17.451  66.999  1.00  0.00    -0.318 C  
HETATM   27  C   UNL     1      -9.641  19.409  66.023  1.00  0.00    -0.237 C  
HETATM   28  H   UNL     1     -10.243  17.419  69.048  1.00  0.00     0.000 HD 
HETATM   29  C   UNL     1      -9.646  19.273  68.407  1.00  0.00    -0.385 C  
HETATM   30  N   UNL     1     -10.128  18.136  65.904  1.00  0.00    -0.583 NA 
HETATM   31  O   UNL     1      -9.462  19.765  69.516  1.00  0.00    -0.136 OA 
HETATM   32  N   UNL     1     -10.086  17.998  68.223  1.00  0.00    -0.364 N  
HETATM   33  C   UNL     1      -9.395  20.029  67.175  1.00  0.00    -0.502 C  
ENDBRANCH   2  26
TORSDOF 5
ENDMDL
MODEL      146
REMARK 921   NORMALIZED FREE ENERGY PREDICTED BY IDOCK:   -4.84 KCAL/MOL
REMARK 922        TOTAL FREE ENERGY PREDICTED BY IDOCK:   -7.67 KCAL/MOL
REMARK 923 INTER-LIGAND FREE ENERGY PREDICTED BY IDOCK:   -6.28 KCAL/MOL
REMARK 924 INTRA-LIGAND FREE ENERGY PREDICTED BY IDOCK:   -1.40 KCAL/MOL
REMARK 927      BINDING AFFINITY PREDICTED BY RF-SCORE:    0.00 PKD
ROOT
HETATM    1  C   UNL     1     -11.197   4.151  73.799  1.00  0.00    -0.177 C  
HETATM    2  N   UNL     1     -10.673   4.510  72.464  1.00  0.00    -0.162 NA 
ENDROOT
BRANCH   2   3
HETATM    3  C   UNL     1     -10.519   5.981  72.267  1.00  0.00    -0.205 C  
HETATM    4  C   UNL     1     -11.534   6.546  71.284  1.00  0.00    -0.371 C  
HETATM    5  C   UNL     1      -9.103   6.484  72.030  1.00  0.00    -0.140 C  
HETATM    6  C   UNL     1     -11.075   6.544  69.838  1.00  0.00    -0.371 C  
HETATM    7  N   UNL     1      -9.764   7.171  69.661  1.00  0.00    -0.158 NA 
HETATM    8  C   UNL     1      -8.699   6.902  70.616  1.00  0.00    -0.149 C  
BRANCH   7   9
HETATM    9  C   UNL     1      -9.603   8.000  68.574  1.00  0.00    -0.155 A  
HETATM   10  C   UNL     1      -9.446   8.670  66.516  1.00  0.00    -0.216 A  
HETATM   11  N   UNL     1      -9.430   7.572  67.336  1.00  0.00    -0.138 NA 
HETATM   12  C   UNL     1      -9.558   9.833  67.258  1.00  0.00    -0.157 A  
HETATM   13  N   UNL     1      -9.588   9.395  68.574  1.00  0.00    -0.145 NA 
HETATM   14  C   UNL     1      -9.622  11.107  66.669  1.00  0.00    -0.215 A  
HETATM   15  C   UNL     1      -9.584  11.170  65.273  1.00  0.00    -0.268 A  
HETATM   16  C   UNL     1      -9.463  10.011  64.506  1.00  0.00    -0.359 A  
HETATM   17  C   UNL     1      -9.384   8.752  65.117  1.00  0.00     0.077 A  
BRANCH  13  18
HETATM   18  C   UNL     1      -9.489  10.325  69.692  1.00  0.00    -0.151 C  
BRANCH  18  19
HETATM   19  C   UNL     1     -10.831  10.697  70.290  1.00  0.00    -0.157 A  
HETATM   20  C   UNL     1     -11.382  11.949  69.970  1.00  0.00    -0.096 A  
HETATM   21  C   UNL     1     -12.504  12.419  70.652  1.00  0.00    -0.320 A  
HETATM   22  C   UNL     1     -13.096  11.628  71.629  1.00  0.00    -0.351 A  
HETATM   23  F   UNL     1     -14.116  12.116  72.345  1.00  0.00    -0.321 F  
HETATM   24  C   UNL     1     -12.632  10.346  71.885  1.00  0.00    -0.387 A  
HETATM   25  C   UNL     1     -11.516   9.870  71.200  1.00  0.00    -0.459 A  
ENDBRANCH  18  19
ENDBRANCH  13  18
ENDBRANCH   7   9
ENDBRANCH   2   3
BRANCH   2  26
HETATM   26  C   UNL     1      -9.823   3.577  71.901  1.00  0.00    -0.167 C  
HETATM   27  C   UNL     1      -8.322   1.846  72.000  1.00  0.00    -0.052 C  
HETATM   28  H   UNL     1     -10.284   4.227  70.011  1.00  0.00     0.000 HD 
HETATM   29  C   UNL     1      -8.984   2.650  69.850  1.00  0.00    -0.099 C  
HETATM   30  N   UNL     1      -9.140   2.739  72.636  1.00  0.00    -0.085 NA 
HETATM   31  O   UNL     1      -8.945   2.609  68.625  1.00  0.00    -0.098 OA 
HETATM   32  N   UNL     1      -9.744   3.544  70.542  1.00  0.00    -0.170 N  
HETATM   33  C   UNL     1      -8.197   1.730  70.680  1.00  0.00    -0.056 C  
ENDBRANCH   2  26
TORSDOF 5
ENDMDL
MODEL      147
REMARK 921   NORMALIZED FREE ENERGY PREDICTED BY IDOCK:   -4.84 KCAL/MOL
REMARK 922        TOTAL FREE ENERGY PREDICTED BY IDOCK:   -7.67 KCAL/MOL
REMARK 923 INTER-LIGAND FREE ENERGY PREDICTED BY IDOCK:   -6.98 KCAL/MOL
REMARK 924 INTRA-LIGAND FREE ENERGY PREDICTED BY IDOCK:   -0.68 KCAL/MOL
REMARK 927      BINDING AFFINITY PREDICTED BY RF-SCORE:    0.00 PKD
ROOT
HETATM    1  C   UNL     1     -10.657  15.159  65.129  1.00  0.00    -0.424 C  
HETATM    2  N   UNL     1     -10.352  13.873  65.792  1.00  0.00    -0.306 NA 
ENDROOT
BRANCH   2   3
HETATM    3  C   UNL     1     -10.905  13.778  67.175  1.00  0.00    -0.283 C  
HETATM    4  C   UNL     1      -9.818  13.612  68.227  1.00  0.00    -0.232 C  
HETATM    5  C   UNL     1     -12.080  12.830  67.367  1.00  0.00    -0.222 C  
HETATM    6  C   UNL     1      -9.451  12.171  68.529  1.00  0.00    -0.122 C  
HETATM    7  N   UNL     1     -10.618  11.346  68.843  1.00  0.00    -0.203 NA 
HETATM    8  C   UNL     1     -11.838  11.490  68.062  1.00  0.00    -0.217 C  
BRANCH   7   9
HETATM    9  C   UNL     1     -10.497  10.454  69.886  1.00  0.00    -0.218 A  
HETATM   10  C   UNL     1     -11.035   9.120  71.510  1.00  0.00    -0.364 A  
HETATM   11  N   UNL     1     -11.489  10.123  70.694  1.00  0.00    -0.326 NA 
HETATM   12  C   UNL     1      -9.697   8.858  71.265  1.00  0.00    -0.289 A  
HETATM   13  N   UNL     1      -9.350   9.764  70.274  1.00  0.00    -0.234 NA 
HETATM   14  C   UNL     1      -8.983   7.858  71.946  1.00  0.00    -0.180 A  
HETATM   15  C   UNL     1      -9.681   7.103  72.894  1.00  0.00    -0.200 A  
HETATM   16  C   UNL     1     -11.026   7.356  73.161  1.00  0.00    -0.408 A  
HETATM   17  C   UNL     1     -11.714   8.370  72.482  1.00  0.00    -0.429 A  
BRANCH  13  18
HETATM   18  C   UNL     1      -7.963   9.963  69.873  1.00  0.00    -0.182 C  
BRANCH  18  19
HETATM   19  C   UNL     1      -7.373   8.784  69.127  1.00  0.00    -0.072 A  
HETATM   20  C   UNL     1      -8.189   8.090  68.218  1.00  0.00    -0.123 A  
HETATM   21  C   UNL     1      -7.760   6.884  67.666  1.00  0.00    -0.111 A  
HETATM   22  C   UNL     1      -6.505   6.386  67.993  1.00  0.00    -0.049 A  
HETATM   23  F   UNL     1      -6.130   5.185  67.535  1.00  0.00    -0.025 F  
HETATM   24  C   UNL     1      -5.641   7.108  68.803  1.00  0.00    -0.018 A  
HETATM   25  C   UNL     1      -6.064   8.318  69.350  1.00  0.00    -0.037 A  
ENDBRANCH  18  19
ENDBRANCH  13  18
ENDBRANCH   7   9
ENDBRANCH   2   3
BRANCH   2  26
HETATM   26  C   UNL     1     -10.246  12.789  64.942  1.00  0.00    -0.272 C  
HETATM   27  C   UNL     1     -10.658  11.669  62.983  1.00  0.00    -0.157 C  
HETATM   28  H   UNL     1      -9.091  11.775  66.301  1.00  0.00     0.000 HD 
HETATM   29  C   UNL     1      -9.274  10.616  64.619  1.00  0.00    -0.227 C  
HETATM   30  N   UNL     1     -10.812  12.782  63.764  1.00  0.00    -0.410 NA 
HETATM   31  O   UNL     1      -8.575   9.683  65.001  1.00  0.00    -0.141 OA 
HETATM   32  N   UNL     1      -9.501  11.730  65.368  1.00  0.00    -0.188 N  
HETATM   33  C   UNL     1      -9.935  10.601  63.310  1.00  0.00    -0.314 C  
ENDBRANCH   2  26
TORSDOF 5
ENDMDL
MODEL      148
REMARK 921   NORMALIZED FREE ENERGY PREDICTED BY IDOCK:   -4.83 KCAL/MOL
REMARK 922        TOTAL FREE ENERGY PREDICTED BY IDOCK:   -7.66 KCAL/MOL
REMARK 923 INTER-LIGAND FREE ENERGY PREDICTED BY IDOCK:   -6.72 KCAL/MOL
REMARK 924 INTRA-LIGAND FREE ENERGY PREDICTED BY IDOCK:   -0.94 KCAL/MOL
REMARK 927      BINDING AFFINITY PREDICTED BY RF-SCORE:    0.00 PKD
ROOT
HETATM    1  C   UNL     1      -8.667   5.030  68.780  1.00  0.00    -0.093 C  
HETATM    2  N   UNL     1      -8.463   5.962  67.650  1.00  0.00    -0.105 NA 
ENDROOT
BRANCH   2   3
HETATM    3  C   UNL     1      -8.513   7.397  68.054  1.00  0.00    -0.123 C  
HETATM    4  C   UNL     1      -9.932   7.948  68.070  1.00  0.00    -0.213 C  
HETATM    5  C   UNL     1      -7.514   8.324  67.378  1.00  0.00    -0.094 C  
HETATM    6  C   UNL     1     -10.387   8.548  66.753  1.00  0.00    -0.276 C  
HETATM    7  N   UNL     1      -9.444   9.537  66.228  1.00  0.00    -0.192 NA 
HETATM    8  C   UNL     1      -8.013   9.277  66.292  1.00  0.00    -0.107 C  
BRANCH   7   9
HETATM    9  C   UNL     1      -9.973  10.687  65.687  1.00  0.00    -0.268 A  
HETATM   10  C   UNL     1     -11.115  12.003  64.394  1.00  0.00    -0.342 A  
HETATM   11  N   UNL     1     -10.623  10.732  64.537  1.00  0.00    -0.285 NA 
HETATM   12  C   UNL     1     -10.705  12.808  65.444  1.00  0.00    -0.284 A  
HETATM   13  N   UNL     1      -9.920  11.972  66.225  1.00  0.00    -0.221 NA 
HETATM   14  C   UNL     1     -11.085  14.155  65.562  1.00  0.00    -0.310 A  
HETATM   15  C   UNL     1     -11.925  14.673  64.571  1.00  0.00    -0.473 A  
HETATM   16  C   UNL     1     -12.344  13.882  63.501  1.00  0.00    -0.075 A  
HETATM   17  C   UNL     1     -11.938  12.546  63.395  1.00  0.00    -0.602 A  
BRANCH  13  18
HETATM   18  C   UNL     1      -9.118  12.488  67.327  1.00  0.00    -0.189 C  
BRANCH  18  19
HETATM   19  C   UNL     1      -9.925  13.246  68.361  1.00  0.00    -0.226 A  
HETATM   20  C   UNL     1     -11.114  12.668  68.837  1.00  0.00    -0.307 A  
HETATM   21  C   UNL     1     -11.990  13.412  69.627  1.00  0.00    -0.386 A  
HETATM   22  C   UNL     1     -11.665  14.719  69.970  1.00  0.00    -0.295 A  
HETATM   23  F   UNL     1     -12.547  15.460  70.652  1.00  0.00    -0.348 F  
HETATM   24  C   UNL     1     -10.449  15.271  69.601  1.00  0.00    -0.279 A  
HETATM   25  C   UNL     1      -9.567  14.528  68.818  1.00  0.00    -0.193 A  
ENDBRANCH  18  19
ENDBRANCH  13  18
ENDBRANCH   7   9
ENDBRANCH   2   3
BRANCH   2  26
HETATM   26  C   UNL     1      -7.645   5.487  66.642  1.00  0.00    -0.088 C  
HETATM   27  C   UNL     1      -5.685   4.615  65.829  1.00  0.00    -0.018 C  
HETATM   28  H   UNL     1      -9.114   5.788  65.243  1.00  0.00     0.000 HD 
HETATM   29  C   UNL     1      -7.493   4.954  64.305  1.00  0.00    -0.064 C  
HETATM   30  N   UNL     1      -6.429   5.072  66.883  1.00  0.00    -0.040 NA 
HETATM   31  O   UNL     1      -7.984   4.886  63.183  1.00  0.00    -0.074 OA 
HETATM   32  N   UNL     1      -8.166   5.439  65.384  1.00  0.00    -0.124 N  
HETATM   33  C   UNL     1      -6.118   4.516  64.575  1.00  0.00    -0.025 C  
ENDBRANCH   2  26
TORSDOF 5
ENDMDL
MODEL      149
REMARK 921   NORMALIZED FREE ENERGY PREDICTED BY IDOCK:   -4.81 KCAL/MOL
REMARK 922        TOTAL FREE ENERGY PREDICTED BY IDOCK:   -7.63 KCAL/MOL
REMARK 923 INTER-LIGAND FREE ENERGY PREDICTED BY IDOCK:   -7.10 KCAL/MOL
REMARK 924 INTRA-LIGAND FREE ENERGY PREDICTED BY IDOCK:   -0.53 KCAL/MOL
REMARK 927      BINDING AFFINITY PREDICTED BY RF-SCORE:    0.00 PKD
ROOT
HETATM    1  C   UNL     1      -9.387   8.467  72.503  1.00  0.00    -0.275 C  
HETATM    2  N   UNL     1     -10.521   7.594  72.134  1.00  0.00    -0.211 NA 
ENDROOT
BRANCH   2   3
HETATM    3  C   UNL     1     -11.190   8.004  70.864  1.00  0.00    -0.266 C  
HETATM    4  C   UNL     1     -10.899   7.046  69.718  1.00  0.00    -0.276 C  
HETATM    5  C   UNL     1     -11.057   9.469  70.474  1.00  0.00    -0.342 C  
HETATM    6  C   UNL     1      -9.666   7.396  68.905  1.00  0.00    -0.150 C  
HETATM    7  N   UNL     1      -9.671   8.785  68.442  1.00  0.00    -0.158 NA 
HETATM    8  C   UNL     1     -10.102   9.845  69.341  1.00  0.00    -0.212 C  
BRANCH   7   9
HETATM    9  C   UNL     1      -9.256   9.020  67.151  1.00  0.00    -0.134 A  
HETATM   10  C   UNL     1      -8.701   8.667  65.083  1.00  0.00    -0.144 A  
HETATM   11  N   UNL     1      -8.926   8.069  66.295  1.00  0.00    -0.163 NA 
HETATM   12  C   UNL     1      -8.819  10.043  65.187  1.00  0.00    -0.180 A  
HETATM   13  N   UNL     1      -9.104  10.259  66.528  1.00  0.00    -0.147 NA 
HETATM   14  C   UNL     1      -8.661  10.904  64.089  1.00  0.00    -0.000 A  
HETATM   15  C   UNL     1      -8.391  10.319  62.848  1.00  0.00    -0.172 A  
HETATM   16  C   UNL     1      -8.261   8.936  62.722  1.00  0.00    -0.192 A  
HETATM   17  C   UNL     1      -8.404   8.097  63.836  1.00  0.00     0.002 A  
BRANCH  13  18
HETATM   18  C   UNL     1      -9.099  11.597  67.105  1.00  0.00    -0.171 C  
BRANCH  18  19
HETATM   19  C   UNL     1     -10.100  12.537  66.465  1.00  0.00    -0.250 A  
HETATM   20  C   UNL     1     -11.403  12.068  66.229  1.00  0.00    -0.415 A  
HETATM   21  C   UNL     1     -12.293  12.818  65.461  1.00  0.00    -0.495 A  
HETATM   22  C   UNL     1     -11.895  14.051  64.957  1.00  0.00    -0.378 A  
HETATM   23  F   UNL     1     -12.718  14.729  64.147  1.00  0.00    -0.451 F  
HETATM   24  C   UNL     1     -10.652  14.580  65.268  1.00  0.00    -0.400 A  
HETATM   25  C   UNL     1      -9.764  13.836  66.042  1.00  0.00    -0.255 A  
ENDBRANCH  18  19
ENDBRANCH  13  18
ENDBRANCH   7   9
ENDBRANCH   2   3
BRANCH   2  26
HETATM   26  C   UNL     1     -10.400   6.277  72.535  1.00  0.00    -0.192 C  
HETATM   27  C   UNL     1     -11.224   4.290  73.328  1.00  0.00    -0.241 C  
HETATM   28  H   UNL     1      -8.387   6.293  72.138  1.00  0.00     0.000 HD 
HETATM   29  C   UNL     1      -8.904   4.413  72.771  1.00  0.00    -0.108 C  
HETATM   30  N   UNL     1     -11.430   5.588  72.950  1.00  0.00    -0.298 NA 
HETATM   31  O   UNL     1      -7.793   3.905  72.664  1.00  0.00    -0.074 OA 
HETATM   32  N   UNL     1      -9.163   5.711  72.454  1.00  0.00    -0.144 N  
HETATM   33  C   UNL     1     -10.057   3.651  73.264  1.00  0.00    -0.206 C  
ENDBRANCH   2  26
TORSDOF 5
ENDMDL
MODEL      150
REMARK 921   NORMALIZED FREE ENERGY PREDICTED BY IDOCK:   -4.80 KCAL/MOL
REMARK 922        TOTAL FREE ENERGY PREDICTED BY IDOCK:   -7.61 KCAL/MOL
REMARK 923 INTER-LIGAND FREE ENERGY PREDICTED BY IDOCK:   -6.41 KCAL/MOL
REMARK 924 INTRA-LIGAND FREE ENERGY PREDICTED BY IDOCK:   -1.20 KCAL/MOL
REMARK 927      BINDING AFFINITY PREDICTED BY RF-SCORE:    0.00 PKD
ROOT
HETATM    1  C   UNL     1     -12.058  13.833  65.064  1.00  0.00    -0.403 C  
HETATM    2  N   UNL     1     -11.589  13.386  66.393  1.00  0.00    -0.331 NA 
ENDROOT
BRANCH   2   3
HETATM    3  C   UNL     1     -11.269  11.929  66.445  1.00  0.00    -0.331 C  
HETATM    4  C   UNL     1     -11.780  11.267  67.716  1.00  0.00    -0.254 C  
HETATM    5  C   UNL     1      -9.841  11.539  66.093  1.00  0.00    -0.250 C  
HETATM    6  C   UNL     1     -10.796  11.282  68.871  1.00  0.00    -0.208 C  
HETATM    7  N   UNL     1      -9.479  10.762  68.498  1.00  0.00    -0.173 NA 
HETATM    8  C   UNL     1      -8.891  11.133  67.219  1.00  0.00    -0.144 C  
BRANCH   7   9
HETATM    9  C   UNL     1      -8.852   9.930  69.399  1.00  0.00    -0.187 A  
HETATM   10  C   UNL     1      -7.434   9.210  70.874  1.00  0.00    -0.118 A  
HETATM   11  N   UNL     1      -7.669  10.177  69.933  1.00  0.00    -0.170 NA 
HETATM   12  C   UNL     1      -8.461   8.281  70.888  1.00  0.00    -0.132 A  
HETATM   13  N   UNL     1      -9.325   8.715  69.893  1.00  0.00    -0.157 NA 
HETATM   14  C   UNL     1      -8.489   7.192  71.775  1.00  0.00    -0.114 A  
HETATM   15  C   UNL     1      -7.430   7.076  72.681  1.00  0.00    -0.084 A  
HETATM   16  C   UNL     1      -6.381   7.995  72.679  1.00  0.00    -0.073 A  
HETATM   17  C   UNL     1      -6.366   9.064  71.772  1.00  0.00    -0.049 A  
BRANCH  13  18
HETATM   18  C   UNL     1     -10.440   7.896  69.438  1.00  0.00    -0.220 C  
BRANCH  18  19
HETATM   19  C   UNL     1     -10.088   6.978  68.284  1.00  0.00    -0.185 A  
HETATM   20  C   UNL     1     -10.487   5.633  68.352  1.00  0.00    -0.263 A  
HETATM   21  C   UNL     1     -10.011   4.711  67.422  1.00  0.00    -0.190 A  
HETATM   22  C   UNL     1      -9.166   5.134  66.404  1.00  0.00    -0.141 A  
HETATM   23  F   UNL     1      -8.639   4.234  65.565  1.00  0.00    -0.114 F  
HETATM   24  C   UNL     1      -8.846   6.475  66.255  1.00  0.00    -0.154 A  
HETATM   25  C   UNL     1      -9.326   7.402  67.179  1.00  0.00    -0.172 A  
ENDBRANCH  18  19
ENDBRANCH  13  18
ENDBRANCH   7   9
ENDBRANCH   2   3
BRANCH   2  26
HETATM   26  C   UNL     1     -10.901  14.339  67.119  1.00  0.00    -0.296 C  
HETATM   27  C   UNL     1      -9.072  15.644  67.578  1.00  0.00    -0.193 C  
HETATM   28  H   UNL     1     -12.501  14.604  68.376  1.00  0.00     0.000 HD 
HETATM   29  C   UNL     1     -11.019  15.906  68.936  1.00  0.00    -0.290 C  
HETATM   30  N   UNL     1      -9.681  14.691  66.808  1.00  0.00    -0.247 NA 
HETATM   31  O   UNL     1     -11.630  16.447  69.852  1.00  0.00    -0.200 OA 
HETATM   32  N   UNL     1     -11.555  14.922  68.162  1.00  0.00    -0.328 N  
HETATM   33  C   UNL     1      -9.640  16.279  68.601  1.00  0.00    -0.237 C  
ENDBRANCH   2  26
TORSDOF 5
ENDMDL
MODEL      151
REMARK 921   NORMALIZED FREE ENERGY PREDICTED BY IDOCK:   -4.76 KCAL/MOL
REMARK 922        TOTAL FREE ENERGY PREDICTED BY IDOCK:   -7.56 KCAL/MOL
REMARK 923 INTER-LIGAND FREE ENERGY PREDICTED BY IDOCK:   -7.42 KCAL/MOL
REMARK 924 INTRA-LIGAND FREE ENERGY PREDICTED BY IDOCK:   -0.14 KCAL/MOL
REMARK 927      BINDING AFFINITY PREDICTED BY RF-SCORE:    0.00 PKD
ROOT
HETATM    1  C   UNL     1     -10.771   7.703  67.413  1.00  0.00    -0.248 C  
HETATM    2  N   UNL     1      -9.837   7.818  68.554  1.00  0.00    -0.167 NA 
ENDROOT
BRANCH   2   3
HETATM    3  C   UNL     1      -8.816   8.891  68.373  1.00  0.00    -0.134 C  
HETATM    4  C   UNL     1      -8.767   9.852  69.553  1.00  0.00    -0.200 C  
HETATM    5  C   UNL     1      -8.806   9.592  67.023  1.00  0.00    -0.139 C  
HETATM    6  C   UNL     1      -9.697  11.045  69.429  1.00  0.00     0.086 C  
HETATM    7  N   UNL     1      -9.536  11.758  68.161  1.00  0.00    -0.188 NA 
HETATM    8  C   UNL     1      -9.376  11.007  66.925  1.00  0.00    -0.173 C  
BRANCH   7   9
HETATM    9  C   UNL     1      -9.545  13.134  68.207  1.00  0.00    -0.218 A  
HETATM   10  C   UNL     1      -8.887  15.192  68.012  1.00  0.00    -0.170 A  
HETATM   11  N   UNL     1      -8.472  13.887  68.037  1.00  0.00    -0.162 NA 
HETATM   12  C   UNL     1     -10.249  15.278  68.246  1.00  0.00    -0.226 A  
HETATM   13  N   UNL     1     -10.644  13.961  68.437  1.00  0.00    -0.249 NA 
HETATM   14  C   UNL     1     -10.944  16.499  68.252  1.00  0.00    -0.346 A  
HETATM   15  C   UNL     1     -10.206  17.658  67.994  1.00  0.00    -0.362 A  
HETATM   16  C   UNL     1      -8.831  17.595  67.764  1.00  0.00    -0.240 A  
HETATM   17  C   UNL     1      -8.156  16.367  67.779  1.00  0.00    -0.167 A  
BRANCH  13  18
HETATM   18  C   UNL     1     -11.977  13.625  68.920  1.00  0.00    -0.356 C  
BRANCH  18  19
HETATM   19  C   UNL     1     -12.358  14.343  70.199  1.00  0.00    -0.406 A  
HETATM   20  C   UNL     1     -11.375  14.515  71.187  1.00  0.00     0.031 A  
HETATM   21  C   UNL     1     -11.725  14.981  72.454  1.00  0.00    -0.412 A  
HETATM   22  C   UNL     1     -13.048  15.307  72.725  1.00  0.00    -0.461 A  
HETATM   23  F   UNL     1     -13.399  15.667  73.966  1.00  0.00    -0.457 F  
HETATM   24  C   UNL     1     -14.014  15.246  71.732  1.00  0.00    -0.638 A  
HETATM   25  C   UNL     1     -13.666  14.789  70.463  1.00  0.00     0.246 A  
ENDBRANCH  18  19
ENDBRANCH  13  18
ENDBRANCH   7   9
ENDBRANCH   2   3
BRANCH   2  26
HETATM   26  C   UNL     1     -10.373   7.482  69.783  1.00  0.00    -0.221 C  
HETATM   27  C   UNL     1     -11.568   7.921  71.690  1.00  0.00    -0.272 C  
HETATM   28  H   UNL     1      -9.603   5.584  69.652  1.00  0.00     0.000 HD 
HETATM   29  C   UNL     1     -10.674   5.726  71.395  1.00  0.00    -0.256 C  
HETATM   30  N   UNL     1     -11.072   8.335  70.484  1.00  0.00    -0.251 NA 
HETATM   31  O   UNL     1     -10.510   4.570  71.768  1.00  0.00    -0.152 OA 
HETATM   32  N   UNL     1     -10.168   6.210  70.226  1.00  0.00    -0.190 N  
HETATM   33  C   UNL     1     -11.434   6.696  72.192  1.00  0.00    -0.323 C  
ENDBRANCH   2  26
TORSDOF 5
ENDMDL
MODEL      152
REMARK 921   NORMALIZED FREE ENERGY PREDICTED BY IDOCK:   -4.74 KCAL/MOL
REMARK 922        TOTAL FREE ENERGY PREDICTED BY IDOCK:   -7.54 KCAL/MOL
REMARK 923 INTER-LIGAND FREE ENERGY PREDICTED BY IDOCK:   -7.14 KCAL/MOL
REMARK 924 INTRA-LIGAND FREE ENERGY PREDICTED BY IDOCK:   -0.40 KCAL/MOL
REMARK 927      BINDING AFFINITY PREDICTED BY RF-SCORE:    0.00 PKD
ROOT
HETATM    1  C   UNL     1     -12.631  13.976  65.807  1.00  0.00    -0.479 C  
HETATM    2  N   UNL     1     -11.642  13.730  66.878  1.00  0.00    -0.350 NA 
ENDROOT
BRANCH   2   3
HETATM    3  C   UNL     1     -10.645  12.676  66.528  1.00  0.00    -0.253 C  
HETATM    4  C   UNL     1     -11.266  11.288  66.458  1.00  0.00    -0.222 C  
HETATM    5  C   UNL     1      -9.330  12.710  67.293  1.00  0.00    -0.195 C  
HETATM    6  C   UNL     1     -11.255  10.528  67.771  1.00  0.00    -0.273 C  
HETATM    7  N   UNL     1      -9.927  10.480  68.385  1.00  0.00    -0.159 NA 
HETATM    8  C   UNL     1      -9.089  11.670  68.387  1.00  0.00    -0.180 C  
BRANCH   7   9
HETATM    9  C   UNL     1      -9.533   9.284  68.941  1.00  0.00    -0.154 A  
HETATM   10  C   UNL     1      -8.630   7.863  70.310  1.00  0.00    -0.137 A  
HETATM   11  N   UNL     1      -8.670   9.181  69.937  1.00  0.00    -0.149 NA 
HETATM   12  C   UNL     1      -9.432   7.096  69.482  1.00  0.00    -0.151 A  
HETATM   13  N   UNL     1      -9.948   8.006  68.570  1.00  0.00    -0.186 NA 
HETATM   14  C   UNL     1      -9.595   5.711  69.654  1.00  0.00    -0.197 A  
HETATM   15  C   UNL     1      -8.920   5.113  70.721  1.00  0.00    -0.162 A  
HETATM   16  C   UNL     1      -8.100   5.866  71.563  1.00  0.00    -0.115 A  
HETATM   17  C   UNL     1      -7.939   7.243  71.362  1.00  0.00    -0.097 A  
BRANCH  13  18
HETATM   18  C   UNL     1     -10.683   7.571  67.390  1.00  0.00    -0.261 C  
BRANCH  18  19
HETATM   19  C   UNL     1      -9.983   6.480  66.607  1.00  0.00    -0.204 A  
HETATM   20  C   UNL     1      -8.658   6.697  66.195  1.00  0.00    -0.148 A  
HETATM   21  C   UNL     1      -8.045   5.817  65.303  1.00  0.00    -0.130 A  
HETATM   22  C   UNL     1      -8.741   4.704  64.848  1.00  0.00    -0.145 A  
HETATM   23  F   UNL     1      -8.186   3.910  63.924  1.00  0.00    -0.086 F  
HETATM   24  C   UNL     1     -10.011   4.414  65.325  1.00  0.00    -0.214 A  
HETATM   25  C   UNL     1     -10.622   5.287  66.223  1.00  0.00    -0.308 A  
ENDBRANCH  18  19
ENDBRANCH  13  18
ENDBRANCH   7   9
ENDBRANCH   2   3
BRANCH   2  26
HETATM   26  C   UNL     1     -11.338  14.831  67.656  1.00  0.00    -0.339 C  
HETATM   27  C   UNL     1     -11.192  15.958  69.648  1.00  0.00    -0.331 C  
HETATM   28  H   UNL     1     -10.704  15.878  66.011  1.00  0.00     0.000 HD 
HETATM   29  C   UNL     1     -10.425  17.053  67.669  1.00  0.00    -0.343 C  
HETATM   30  N   UNL     1     -11.519  14.827  68.951  1.00  0.00    -0.282 NA 
HETATM   31  O   UNL     1      -9.923  18.012  67.093  1.00  0.00    -0.300 OA 
HETATM   32  N   UNL     1     -10.813  15.917  67.024  1.00  0.00    -0.293 N  
HETATM   33  C   UNL     1     -10.657  17.055  69.117  1.00  0.00    -0.303 C  
ENDBRANCH   2  26
TORSDOF 5
ENDMDL
MODEL      153
REMARK 921   NORMALIZED FREE ENERGY PREDICTED BY IDOCK:   -4.74 KCAL/MOL
REMARK 922        TOTAL FREE ENERGY PREDICTED BY IDOCK:   -7.53 KCAL/MOL
REMARK 923 INTER-LIGAND FREE ENERGY PREDICTED BY IDOCK:   -6.02 KCAL/MOL
REMARK 924 INTRA-LIGAND FREE ENERGY PREDICTED BY IDOCK:   -1.51 KCAL/MOL
REMARK 927      BINDING AFFINITY PREDICTED BY RF-SCORE:    0.00 PKD
ROOT
HETATM    1  C   UNL     1      -7.417   6.917  71.062  1.00  0.00    -0.083 C  
HETATM    2  N   UNL     1      -8.605   7.647  70.573  1.00  0.00    -0.136 NA 
ENDROOT
BRANCH   2   3
HETATM    3  C   UNL     1      -8.490   8.070  69.146  1.00  0.00    -0.136 C  
HETATM    4  C   UNL     1      -7.831   9.434  68.995  1.00  0.00    -0.079 C  
HETATM    5  C   UNL     1      -9.737   7.904  68.291  1.00  0.00    -0.172 C  
HETATM    6  C   UNL     1      -8.798  10.603  69.017  1.00  0.00    -0.148 C  
HETATM    7  N   UNL     1      -9.900  10.442  68.067  1.00  0.00    -0.149 NA 
HETATM    8  C   UNL     1     -10.548   9.147  67.924  1.00  0.00    -0.214 C  
BRANCH   7   9
HETATM    9  C   UNL     1     -10.275  11.552  67.343  1.00  0.00    -0.203 A  
HETATM   10  C   UNL     1     -10.765  13.609  66.857  1.00  0.00    -0.275 A  
HETATM   11  N   UNL     1     -10.578  12.720  67.883  1.00  0.00    -0.216 NA 
HETATM   12  C   UNL     1     -10.652  12.974  65.632  1.00  0.00    -0.282 A  
HETATM   13  N   UNL     1     -10.408  11.647  65.958  1.00  0.00    -0.234 NA 
HETATM   14  C   UNL     1     -10.776  13.654  64.410  1.00  0.00    -0.369 A  
HETATM   15  C   UNL     1     -11.008  15.032  64.463  1.00  0.00    -0.209 A  
HETATM   16  C   UNL     1     -11.133  15.690  65.687  1.00  0.00    -0.195 A  
HETATM   17  C   UNL     1     -11.023  14.987  66.894  1.00  0.00    -0.324 A  
BRANCH  13  18
HETATM   18  C   UNL     1     -10.433  10.595  64.950  1.00  0.00    -0.212 C  
BRANCH  18  19
HETATM   19  C   UNL     1      -9.057  10.206  64.447  1.00  0.00    -0.284 A  
HETATM   20  C   UNL     1      -8.580  10.808  63.271  1.00  0.00    -0.107 A  
HETATM   21  C   UNL     1      -7.420  10.335  62.660  1.00  0.00    -0.148 A  
HETATM   22  C   UNL     1      -6.717   9.285  63.238  1.00  0.00    -0.091 A  
HETATM   23  F   UNL     1      -5.654   8.774  62.604  1.00  0.00    -0.075 F  
HETATM   24  C   UNL     1      -7.111   8.749  64.454  1.00  0.00    -0.089 A  
HETATM   25  C   UNL     1      -8.266   9.225  65.072  1.00  0.00    -0.146 A  
ENDBRANCH  18  19
ENDBRANCH  13  18
ENDBRANCH   7   9
ENDBRANCH   2   3
BRANCH   2  26
HETATM   26  C   UNL     1      -9.800   7.275  71.158  1.00  0.00    -0.182 C  
HETATM   27  C   UNL     1     -11.394   5.747  71.777  1.00  0.00    -0.174 C  
HETATM   28  H   UNL     1     -10.196   9.216  71.694  1.00  0.00     0.000 HD 
HETATM   29  C   UNL     1     -11.714   8.031  72.399  1.00  0.00    -0.386 C  
HETATM   30  N   UNL     1     -10.199   6.031  71.176  1.00  0.00    -0.200 NA 
HETATM   31  O   UNL     1     -12.355   8.918  72.952  1.00  0.00    -0.188 OA 
HETATM   32  N   UNL     1     -10.540   8.257  71.746  1.00  0.00    -0.240 N  
HETATM   33  C   UNL     1     -12.171   6.637  72.391  1.00  0.00    -0.078 C  
ENDBRANCH   2  26
TORSDOF 5
ENDMDL
MODEL      154
REMARK 921   NORMALIZED FREE ENERGY PREDICTED BY IDOCK:   -4.67 KCAL/MOL
REMARK 922        TOTAL FREE ENERGY PREDICTED BY IDOCK:   -7.44 KCAL/MOL
REMARK 923 INTER-LIGAND FREE ENERGY PREDICTED BY IDOCK:   -6.50 KCAL/MOL
REMARK 924 INTRA-LIGAND FREE ENERGY PREDICTED BY IDOCK:   -0.94 KCAL/MOL
REMARK 927      BINDING AFFINITY PREDICTED BY RF-SCORE:    0.00 PKD
ROOT
HETATM    1  C   UNL     1     -10.437   5.229  69.660  1.00  0.00    -0.250 C  
HETATM    2  N   UNL     1      -9.302   6.032  70.162  1.00  0.00    -0.153 NA 
ENDROOT
BRANCH   2   3
HETATM    3  C   UNL     1      -9.592   7.495  70.212  1.00  0.00    -0.165 C  
HETATM    4  C   UNL     1     -10.974   7.833  69.670  1.00  0.00    -0.128 C  
HETATM    5  C   UNL     1      -8.498   8.417  69.693  1.00  0.00    -0.127 C  
HETATM    6  C   UNL     1     -11.011   8.117  68.180  1.00  0.00     0.213 C  
HETATM    7  N   UNL     1     -10.025   9.118  67.770  1.00  0.00    -0.178 NA 
HETATM    8  C   UNL     1      -8.681   9.079  68.328  1.00  0.00    -0.130 C  
BRANCH   7   9
HETATM    9  C   UNL     1     -10.431  10.066  66.858  1.00  0.00    -0.218 A  
HETATM   10  C   UNL     1     -10.710  11.104  64.973  1.00  0.00    -0.231 A  
HETATM   11  N   UNL     1      -9.988  10.132  65.614  1.00  0.00    -0.275 NA 
HETATM   12  C   UNL     1     -11.583  11.724  65.851  1.00  0.00    -0.130 A  
HETATM   13  N   UNL     1     -11.344  11.098  67.066  1.00  0.00    -0.417 NA 
HETATM   14  C   UNL     1     -12.462  12.745  65.453  1.00  0.00    -0.478 A  
HETATM   15  C   UNL     1     -12.443  13.119  64.106  1.00  0.00    -0.348 A  
HETATM   16  C   UNL     1     -11.566  12.513  63.206  1.00  0.00    -0.445 A  
HETATM   17  C   UNL     1     -10.685  11.509  63.630  1.00  0.00    -0.491 A  
BRANCH  13  18
HETATM   18  C   UNL     1     -11.914  11.600  68.309  1.00  0.00    -0.166 C  
BRANCH  18  19
HETATM   19  C   UNL     1     -11.292  12.900  68.780  1.00  0.00    -0.333 A  
HETATM   20  C   UNL     1     -12.116  13.845  69.413  1.00  0.00    -0.384 A  
HETATM   21  C   UNL     1     -11.640  15.129  69.676  1.00  0.00    -0.335 A  
HETATM   22  C   UNL     1     -10.333  15.460  69.339  1.00  0.00    -0.258 A  
HETATM   23  F   UNL     1      -9.906  16.717  69.509  1.00  0.00    -0.225 F  
HETATM   24  C   UNL     1      -9.472  14.511  68.812  1.00  0.00    -0.183 A  
HETATM   25  C   UNL     1      -9.942  13.224  68.555  1.00  0.00    -0.189 A  
ENDBRANCH  18  19
ENDBRANCH  13  18
ENDBRANCH   7   9
ENDBRANCH   2   3
BRANCH   2  26
HETATM   26  C   UNL     1      -8.493   5.389  71.080  1.00  0.00    -0.124 C  
HETATM   27  C   UNL     1      -8.072   4.398  73.105  1.00  0.00    -0.095 C  
HETATM   28  H   UNL     1      -6.908   5.424  69.778  1.00  0.00     0.000 HD 
HETATM   29  C   UNL     1      -6.321   4.445  71.481  1.00  0.00    -0.019 C  
HETATM   30  N   UNL     1      -8.937   5.032  72.256  1.00  0.00    -0.130 NA 
HETATM   31  O   UNL     1      -5.182   4.174  71.115  1.00  0.00     0.000 OA 
HETATM   32  N   UNL     1      -7.214   5.113  70.700  1.00  0.00    -0.065 N  
HETATM   33  C   UNL     1      -6.815   4.072  72.811  1.00  0.00    -0.047 C  
ENDBRANCH   2  26
TORSDOF 5
ENDMDL
MODEL      155
REMARK 921   NORMALIZED FREE ENERGY PREDICTED BY IDOCK:   -4.66 KCAL/MOL
REMARK 922        TOTAL FREE ENERGY PREDICTED BY IDOCK:   -7.43 KCAL/MOL
REMARK 923 INTER-LIGAND FREE ENERGY PREDICTED BY IDOCK:   -5.75 KCAL/MOL
REMARK 924 INTRA-LIGAND FREE ENERGY PREDICTED BY IDOCK:   -1.68 KCAL/MOL
REMARK 927      BINDING AFFINITY PREDICTED BY RF-SCORE:    0.00 PKD
ROOT
HETATM    1  C   UNL     1      -8.826   4.190  62.554  1.00  0.00    -0.103 C  
HETATM    2  N   UNL     1      -8.684   5.140  63.678  1.00  0.00    -0.088 NA 
ENDROOT
BRANCH   2   3
HETATM    3  C   UNL     1      -8.860   4.502  65.015  1.00  0.00    -0.146 C  
HETATM    4  C   UNL     1     -10.257   4.713  65.581  1.00  0.00    -0.255 C  
HETATM    5  C   UNL     1      -7.754   4.746  66.030  1.00  0.00    -0.091 C  
HETATM    6  C   UNL     1     -10.410   5.966  66.423  1.00  0.00    -0.111 C  
HETATM    7  N   UNL     1      -9.395   6.068  67.473  1.00  0.00    -0.114 NA 
HETATM    8  C   UNL     1      -8.011   5.724  67.177  1.00  0.00    -0.102 C  
BRANCH   7   9
HETATM    9  C   UNL     1      -9.811   6.496  68.713  1.00  0.00    -0.140 A  
HETATM   10  C   UNL     1     -10.773   6.504  70.659  1.00  0.00    -0.248 A  
HETATM   11  N   UNL     1     -10.719   5.872  69.444  1.00  0.00    -0.306 NA 
HETATM   12  C   UNL     1      -9.931   7.604  70.676  1.00  0.00    -0.183 A  
HETATM   13  N   UNL     1      -9.377   7.627  69.404  1.00  0.00    -0.153 NA 
HETATM   14  C   UNL     1      -9.773   8.422  71.807  1.00  0.00    -0.306 A  
HETATM   15  C   UNL     1     -10.496   8.078  72.953  1.00  0.00    -0.402 A  
HETATM   16  C   UNL     1     -11.355   6.979  72.955  1.00  0.00    -0.173 A  
HETATM   17  C   UNL     1     -11.510   6.188  71.809  1.00  0.00    -0.342 A  
BRANCH  13  18
HETATM   18  C   UNL     1      -8.587   8.757  68.935  1.00  0.00    -0.136 C  
BRANCH  18  19
HETATM   19  C   UNL     1      -9.372   9.735  68.084  1.00  0.00    -0.136 A  
HETATM   20  C   UNL     1     -10.212  10.659  68.729  1.00  0.00    -0.204 A  
HETATM   21  C   UNL     1     -11.104  11.434  67.990  1.00  0.00    -0.317 A  
HETATM   22  C   UNL     1     -11.136  11.313  66.606  1.00  0.00    -0.235 A  
HETATM   23  F   UNL     1     -12.054  11.990  65.905  1.00  0.00    -0.424 F  
HETATM   24  C   UNL     1     -10.243  10.486  65.942  1.00  0.00    -0.311 A  
HETATM   25  C   UNL     1      -9.344   9.716  66.678  1.00  0.00    -0.200 A  
ENDBRANCH  18  19
ENDBRANCH  13  18
ENDBRANCH   7   9
ENDBRANCH   2   3
BRANCH   2  26
HETATM   26  C   UNL     1      -7.814   6.190  63.449  1.00  0.00    -0.107 C  
HETATM   27  C   UNL     1      -5.804   7.085  62.804  1.00  0.00    -0.041 C  
HETATM   28  H   UNL     1      -9.230   7.554  64.035  1.00  0.00     0.000 HD 
HETATM   29  C   UNL     1      -7.553   8.578  63.450  1.00  0.00    -0.123 C  
HETATM   30  N   UNL     1      -6.601   5.991  63.006  1.00  0.00    -0.038 NA 
HETATM   31  O   UNL     1      -7.995   9.708  63.627  1.00  0.00    -0.126 OA 
HETATM   32  N   UNL     1      -8.281   7.449  63.676  1.00  0.00    -0.000 N  
HETATM   33  C   UNL     1      -6.182   8.349  62.980  1.00  0.00    -0.086 C  
ENDBRANCH   2  26
TORSDOF 5
ENDMDL
MODEL      156
REMARK 921   NORMALIZED FREE ENERGY PREDICTED BY IDOCK:   -4.62 KCAL/MOL
REMARK 922        TOTAL FREE ENERGY PREDICTED BY IDOCK:   -7.39 KCAL/MOL
REMARK 923 INTER-LIGAND FREE ENERGY PREDICTED BY IDOCK:   -6.85 KCAL/MOL
REMARK 924 INTRA-LIGAND FREE ENERGY PREDICTED BY IDOCK:   -0.54 KCAL/MOL
REMARK 927      BINDING AFFINITY PREDICTED BY RF-SCORE:    0.00 PKD
ROOT
HETATM    1  C   UNL     1     -11.800  12.959  68.531  1.00  0.00    -0.313 C  
HETATM    2  N   UNL     1     -10.347  12.886  68.267  1.00  0.00    -0.239 NA 
ENDROOT
BRANCH   2   3
HETATM    3  C   UNL     1      -9.868  11.500  67.988  1.00  0.00    -0.188 C  
HETATM    4  C   UNL     1     -10.977  10.465  68.113  1.00  0.00    -0.334 C  
HETATM    5  C   UNL     1      -8.573  11.084  68.670  1.00  0.00    -0.157 C  
HETATM    6  C   UNL     1     -11.131   9.877  69.503  1.00  0.00    -0.217 C  
HETATM    7  N   UNL     1      -9.870   9.367  70.044  1.00  0.00    -0.206 NA 
HETATM    8  C   UNL     1      -8.644  10.130  69.862  1.00  0.00    -0.072 C  
BRANCH   7   9
HETATM    9  C   UNL     1      -9.912   8.164  70.714  1.00  0.00    -0.188 A  
HETATM   10  C   UNL     1     -10.573   6.588  72.050  1.00  0.00    -0.217 A  
HETATM   11  N   UNL     1     -10.710   7.915  71.738  1.00  0.00    -0.225 NA 
HETATM   12  C   UNL     1      -9.609   5.994  71.253  1.00  0.00    -0.167 A  
HETATM   13  N   UNL     1      -9.147   7.029  70.452  1.00  0.00    -0.156 NA 
HETATM   14  C   UNL     1      -9.282   4.631  71.346  1.00  0.00    -0.192 A  
HETATM   15  C   UNL     1      -9.986   3.864  72.279  1.00  0.00    -0.236 A  
HETATM   16  C   UNL     1     -10.956   4.444  73.097  1.00  0.00    -0.332 A  
HETATM   17  C   UNL     1     -11.253   5.810  72.999  1.00  0.00    -0.289 A  
BRANCH  13  18
HETATM   18  C   UNL     1      -7.970   6.873  69.607  1.00  0.00    -0.125 C  
BRANCH  18  19
HETATM   19  C   UNL     1      -8.152   7.421  68.206  1.00  0.00    -0.125 A  
HETATM   20  C   UNL     1      -9.385   7.218  67.564  1.00  0.00    -0.144 A  
HETATM   21  C   UNL     1      -9.531   7.518  66.211  1.00  0.00    -0.161 A  
HETATM   22  C   UNL     1      -8.459   8.052  65.506  1.00  0.00    -0.144 A  
HETATM   23  F   UNL     1      -8.572   8.255  64.187  1.00  0.00    -0.133 F  
HETATM   24  C   UNL     1      -7.268   8.359  66.145  1.00  0.00    -0.077 A  
HETATM   25  C   UNL     1      -7.122   8.068  67.500  1.00  0.00    -0.080 A  
ENDBRANCH  18  19
ENDBRANCH  13  18
ENDBRANCH   7   9
ENDBRANCH   2   3
BRANCH   2  26
HETATM   26  C   UNL     1      -9.805  14.009  67.672  1.00  0.00    -0.233 C  
HETATM   27  C   UNL     1      -8.213  15.645  67.444  1.00  0.00    -0.175 C  
HETATM   28  H   UNL     1     -11.352  14.102  66.328  1.00  0.00     0.000 HD 
HETATM   29  C   UNL     1     -10.034  15.612  65.898  1.00  0.00    -0.351 C  
HETATM   30  N   UNL     1      -8.682  14.533  68.089  1.00  0.00    -0.164 NA 
HETATM   31  O   UNL     1     -10.627  16.059  64.922  1.00  0.00    -0.587 OA 
HETATM   32  N   UNL     1     -10.473  14.537  66.608  1.00  0.00    -0.271 N  
HETATM   33  C   UNL     1      -8.789  16.215  66.387  1.00  0.00    -0.355 C  
ENDBRANCH   2  26
TORSDOF 5
ENDMDL
MODEL      157
REMARK 921   NORMALIZED FREE ENERGY PREDICTED BY IDOCK:   -4.61 KCAL/MOL
REMARK 922        TOTAL FREE ENERGY PREDICTED BY IDOCK:   -7.36 KCAL/MOL
REMARK 923 INTER-LIGAND FREE ENERGY PREDICTED BY IDOCK:   -7.38 KCAL/MOL
REMARK 924 INTRA-LIGAND FREE ENERGY PREDICTED BY IDOCK:    0.02 KCAL/MOL
REMARK 927      BINDING AFFINITY PREDICTED BY RF-SCORE:    0.00 PKD
ROOT
HETATM    1  C   UNL     1     -12.036  11.721  66.546  1.00  0.00     0.268 C  
HETATM    2  N   UNL     1     -10.656  11.268  66.822  1.00  0.00    -0.249 NA 
ENDROOT
BRANCH   2   3
HETATM    3  C   UNL     1      -9.623  12.021  66.052  1.00  0.00    -0.234 C  
HETATM    4  C   UNL     1      -8.505  12.548  66.940  1.00  0.00    -0.130 C  
HETATM    5  C   UNL     1     -10.141  13.051  65.059  1.00  0.00    -0.234 C  
HETATM    6  C   UNL     1      -8.752  13.933  67.506  1.00  0.00    -0.193 C  
HETATM    7  N   UNL     1      -9.111  14.909  66.475  1.00  0.00    -0.279 NA 
HETATM    8  C   UNL     1     -10.034  14.534  65.414  1.00  0.00    -0.318 C  
BRANCH   7   9
HETATM    9  C   UNL     1      -8.542  16.160  66.567  1.00  0.00    -0.306 A  
HETATM   10  C   UNL     1      -7.094  17.766  66.399  1.00  0.00    -0.264 A  
HETATM   11  N   UNL     1      -7.261  16.407  66.354  1.00  0.00    -0.120 NA 
HETATM   12  C   UNL     1      -8.285  18.396  66.721  1.00  0.00    -0.253 A  
HETATM   13  N   UNL     1      -9.184  17.354  66.894  1.00  0.00    -0.248 NA 
HETATM   14  C   UNL     1      -8.405  19.793  66.812  1.00  0.00    -0.354 A  
HETATM   15  C   UNL     1      -7.262  20.553  66.546  1.00  0.00    -0.279 A  
HETATM   16  C   UNL     1      -6.051  19.939  66.227  1.00  0.00    -0.182 A  
HETATM   17  C   UNL     1      -5.950  18.543  66.160  1.00  0.00    -0.205 A  
BRANCH  13  18
HETATM   18  C   UNL     1     -10.513  17.575  67.448  1.00  0.00    -0.342 C  
BRANCH  18  19
HETATM   19  C   UNL     1     -10.987  16.456  68.353  1.00  0.00    -0.353 A  
HETATM   20  C   UNL     1     -10.457  16.375  69.651  1.00  0.00    -0.278 A  
HETATM   21  C   UNL     1     -10.703  15.255  70.443  1.00  0.00    -0.268 A  
HETATM   22  C   UNL     1     -11.504  14.230  69.954  1.00  0.00    -0.243 A  
HETATM   23  F   UNL     1     -11.666  13.115  70.678  1.00  0.00    -0.325 F  
HETATM   24  C   UNL     1     -12.123  14.337  68.718  1.00  0.00    -0.300 A  
HETATM   25  C   UNL     1     -11.886  15.460  67.928  1.00  0.00    -0.090 A  
ENDBRANCH  18  19
ENDBRANCH  13  18
ENDBRANCH   7   9
ENDBRANCH   2   3
BRANCH   2  26
HETATM   26  C   UNL     1     -10.445  10.784  68.100  1.00  0.00    -0.185 C  
HETATM   27  C   UNL     1      -9.134   9.964  69.793  1.00  0.00    -0.225 C  
HETATM   28  H   UNL     1     -12.435  10.987  68.556  1.00  0.00     0.000 HD 
HETATM   29  C   UNL     1     -11.458  10.303  70.224  1.00  0.00    -0.317 C  
HETATM   30  N   UNL     1      -9.256  10.432  68.513  1.00  0.00    -0.139 NA 
HETATM   31  O   UNL     1     -12.432  10.276  70.969  1.00  0.00    -0.322 OA 
HETATM   32  N   UNL     1     -11.525  10.715  68.928  1.00  0.00    -0.271 N  
HETATM   33  C   UNL     1     -10.127   9.881  70.675  1.00  0.00    -0.146 C  
ENDBRANCH   2  26
TORSDOF 5
ENDMDL
MODEL      158
REMARK 921   NORMALIZED FREE ENERGY PREDICTED BY IDOCK:   -4.60 KCAL/MOL
REMARK 922        TOTAL FREE ENERGY PREDICTED BY IDOCK:   -7.36 KCAL/MOL
REMARK 923 INTER-LIGAND FREE ENERGY PREDICTED BY IDOCK:   -6.43 KCAL/MOL
REMARK 924 INTRA-LIGAND FREE ENERGY PREDICTED BY IDOCK:   -0.93 KCAL/MOL
REMARK 927      BINDING AFFINITY PREDICTED BY RF-SCORE:    0.00 PKD
ROOT
HETATM    1  C   UNL     1     -12.040   6.565  70.676  1.00  0.00    -0.200 C  
HETATM    2  N   UNL     1     -10.602   6.905  70.716  1.00  0.00    -0.217 NA 
ENDROOT
BRANCH   2   3
HETATM    3  C   UNL     1     -10.340   8.303  71.167  1.00  0.00    -0.202 C  
HETATM    4  C   UNL     1     -11.516   9.231  70.898  1.00  0.00    -0.367 C  
HETATM    5  C   UNL     1      -8.998   8.899  70.771  1.00  0.00    -0.254 C  
HETATM    6  C   UNL     1     -11.479   9.914  69.543  1.00  0.00    -0.068 C  
HETATM    7  N   UNL     1     -10.206  10.587  69.285  1.00  0.00    -0.219 NA 
HETATM    8  C   UNL     1      -8.956   9.936  69.649  1.00  0.00    -0.216 C  
BRANCH   7   9
HETATM    9  C   UNL     1     -10.259  11.831  68.696  1.00  0.00    -0.201 A  
HETATM   10  C   UNL     1     -10.895  13.855  68.243  1.00  0.00    -0.249 A  
HETATM   11  N   UNL     1     -11.252  12.687  68.864  1.00  0.00    -0.266 NA 
HETATM   12  C   UNL     1      -9.676  13.716  67.601  1.00  0.00    -0.228 A  
HETATM   13  N   UNL     1      -9.315  12.398  67.840  1.00  0.00    -0.189 NA 
HETATM   14  C   UNL     1      -9.061  14.769  66.904  1.00  0.00    -0.268 A  
HETATM   15  C   UNL     1      -9.722  16.001  66.887  1.00  0.00    -0.244 A  
HETATM   16  C   UNL     1     -10.955  16.161  67.521  1.00  0.00    -0.238 A  
HETATM   17  C   UNL     1     -11.558  15.091  68.196  1.00  0.00    -0.360 A  
BRANCH  13  18
HETATM   18  C   UNL     1      -8.186  11.779  67.158  1.00  0.00    -0.169 C  
BRANCH  18  19
HETATM   19  C   UNL     1      -8.583  10.964  65.944  1.00  0.00    -0.179 A  
HETATM   20  C   UNL     1      -7.855   9.799  65.653  1.00  0.00    -0.114 A  
HETATM   21  C   UNL     1      -8.047   9.134  64.443  1.00  0.00    -0.145 A  
HETATM   22  C   UNL     1      -8.988   9.609  63.539  1.00  0.00    -0.217 A  
HETATM   23  F   UNL     1      -9.108   9.024  62.341  1.00  0.00    -0.242 F  
HETATM   24  C   UNL     1      -9.793  10.694  63.853  1.00  0.00    -0.398 A  
HETATM   25  C   UNL     1      -9.609  11.357  65.065  1.00  0.00    -0.250 A  
ENDBRANCH  18  19
ENDBRANCH  13  18
ENDBRANCH   7   9
ENDBRANCH   2   3
BRANCH   2  26
HETATM   26  C   UNL     1      -9.760   5.847  71.000  1.00  0.00    -0.172 C  
HETATM   27  C   UNL     1      -8.698   4.394  72.422  1.00  0.00    -0.113 C  
HETATM   28  H   UNL     1      -9.366   5.563  69.007  1.00  0.00     0.000 HD 
HETATM   29  C   UNL     1      -8.366   4.124  70.073  1.00  0.00    -0.061 C  
HETATM   30  N   UNL     1      -9.545   5.451  72.227  1.00  0.00    -0.154 NA 
HETATM   31  O   UNL     1      -7.875   3.538  69.113  1.00  0.00    -0.052 OA 
HETATM   32  N   UNL     1      -9.180   5.208  69.945  1.00  0.00    -0.121 N  
HETATM   33  C   UNL     1      -8.105   3.701  71.453  1.00  0.00    -0.061 C  
ENDBRANCH   2  26
TORSDOF 5
ENDMDL
MODEL      159
REMARK 921   NORMALIZED FREE ENERGY PREDICTED BY IDOCK:   -4.54 KCAL/MOL
REMARK 922        TOTAL FREE ENERGY PREDICTED BY IDOCK:   -7.27 KCAL/MOL
REMARK 923 INTER-LIGAND FREE ENERGY PREDICTED BY IDOCK:   -6.40 KCAL/MOL
REMARK 924 INTRA-LIGAND FREE ENERGY PREDICTED BY IDOCK:   -0.87 KCAL/MOL
REMARK 927      BINDING AFFINITY PREDICTED BY RF-SCORE:    0.00 PKD
ROOT
HETATM    1  C   UNL     1     -10.569   7.469  73.324  1.00  0.00    -0.384 C  
HETATM    2  N   UNL     1     -11.184   6.256  72.744  1.00  0.00    -0.255 NA 
ENDROOT
BRANCH   2   3
HETATM    3  C   UNL     1     -11.559   6.415  71.309  1.00  0.00    -0.311 C  
HETATM    4  C   UNL     1     -10.643   5.632  70.378  1.00  0.00    -0.364 C  
HETATM    5  C   UNL     1     -11.829   7.836  70.835  1.00  0.00    -0.257 C  
HETATM    6  C   UNL     1      -9.427   6.403  69.900  1.00  0.00    -0.154 C  
HETATM    7  N   UNL     1      -9.773   7.705  69.327  1.00  0.00    -0.163 NA 
HETATM    8  C   UNL     1     -10.778   8.536  69.974  1.00  0.00    -0.232 C  
BRANCH   7   9
HETATM    9  C   UNL     1      -9.112   8.084  68.180  1.00  0.00    -0.134 A  
HETATM   10  C   UNL     1      -8.244   7.994  66.194  1.00  0.00    -0.116 A  
HETATM   11  N   UNL     1      -8.744   7.246  67.227  1.00  0.00    -0.120 NA 
HETATM   12  C   UNL     1      -8.223   9.338  66.528  1.00  0.00    -0.107 A  
HETATM   13  N   UNL     1      -8.715   9.373  67.825  1.00  0.00    -0.117 NA 
HETATM   14  C   UNL     1      -7.778  10.333  65.642  1.00  0.00    -0.148 A  
HETATM   15  C   UNL     1      -7.360   9.922  64.373  1.00  0.00    -0.133 A  
HETATM   16  C   UNL     1      -7.365   8.573  64.019  1.00  0.00    -0.104 A  
HETATM   17  C   UNL     1      -7.796   7.595  64.925  1.00  0.00    -0.128 A  
BRANCH  13  18
HETATM   18  C   UNL     1      -8.663  10.586  68.629  1.00  0.00    -0.143 C  
BRANCH  18  19
HETATM   19  C   UNL     1      -9.557  11.695  68.113  1.00  0.00    -0.190 A  
HETATM   20  C   UNL     1      -9.072  13.014  68.142  1.00  0.00    -0.204 A  
HETATM   21  C   UNL     1      -9.926  14.083  67.874  1.00  0.00    -0.237 A  
HETATM   22  C   UNL     1     -11.253  13.837  67.544  1.00  0.00    -0.294 A  
HETATM   23  F   UNL     1     -12.093  14.865  67.375  1.00  0.00    -0.375 F  
HETATM   24  C   UNL     1     -11.724  12.540  67.405  1.00  0.00    -0.432 A  
HETATM   25  C   UNL     1     -10.871  11.469  67.665  1.00  0.00    -0.277 A  
ENDBRANCH  18  19
ENDBRANCH  13  18
ENDBRANCH   7   9
ENDBRANCH   2   3
BRANCH   2  26
HETATM   26  C   UNL     1     -10.744   5.063  73.285  1.00  0.00    -0.258 C  
HETATM   27  C   UNL     1      -9.212   3.741  74.364  1.00  0.00    -0.095 C  
HETATM   28  H   UNL     1     -12.492   4.126  72.762  1.00  0.00     0.000 HD 
HETATM   29  C   UNL     1     -11.312   2.778  73.760  1.00  0.00    -0.121 C  
HETATM   30  N   UNL     1      -9.571   4.958  73.853  1.00  0.00    -0.128 NA 
HETATM   31  O   UNL     1     -12.098   1.837  73.732  1.00  0.00    -0.163 OA 
HETATM   32  N   UNL     1     -11.594   4.000  73.229  1.00  0.00    -0.098 N  
HETATM   33  C   UNL     1      -9.983   2.657  74.371  1.00  0.00    -0.159 C  
ENDBRANCH   2  26
TORSDOF 5
ENDMDL
MODEL      160
REMARK 921   NORMALIZED FREE ENERGY PREDICTED BY IDOCK:   -4.51 KCAL/MOL
REMARK 922        TOTAL FREE ENERGY PREDICTED BY IDOCK:   -7.24 KCAL/MOL
REMARK 923 INTER-LIGAND FREE ENERGY PREDICTED BY IDOCK:   -5.44 KCAL/MOL
REMARK 924 INTRA-LIGAND FREE ENERGY PREDICTED BY IDOCK:   -1.80 KCAL/MOL
REMARK 927      BINDING AFFINITY PREDICTED BY RF-SCORE:    0.00 PKD
ROOT
HETATM    1  C   UNL     1      -9.224   8.379  66.093  1.00  0.00    -0.205 C  
HETATM    2  N   UNL     1      -8.852   9.369  67.126  1.00  0.00    -0.127 NA 
ENDROOT
BRANCH   2   3
HETATM    3  C   UNL     1      -9.122  10.778  66.715  1.00  0.00    -0.154 C  
HETATM    4  C   UNL     1      -7.863  11.503  66.262  1.00  0.00     0.046 C  
HETATM    5  C   UNL     1      -9.986  11.601  67.658  1.00  0.00    -0.201 C  
HETATM    6  C   UNL     1      -7.117  12.220  67.372  1.00  0.00    -0.151 C  
HETATM    7  N   UNL     1      -7.982  13.104  68.154  1.00  0.00    -0.144 NA 
HETATM    8  C   UNL     1      -9.316  12.662  68.533  1.00  0.00    -0.080 C  
BRANCH   7   9
HETATM    9  C   UNL     1      -7.476  14.337  68.499  1.00  0.00    -0.121 A  
HETATM   10  C   UNL     1      -6.467  15.893  69.626  1.00  0.00    -0.186 A  
HETATM   11  N   UNL     1      -7.002  14.634  69.697  1.00  0.00    -0.162 NA 
HETATM   12  C   UNL     1      -6.670  16.442  68.371  1.00  0.00    -0.141 A  
HETATM   13  N   UNL     1      -7.377  15.465  67.684  1.00  0.00    -0.161 NA 
HETATM   14  C   UNL     1      -6.202  17.717  68.015  1.00  0.00    -0.158 A  
HETATM   15  C   UNL     1      -5.491  18.433  68.983  1.00  0.00    -0.200 A  
HETATM   16  C   UNL     1      -5.281  17.902  70.256  1.00  0.00    -0.246 A  
HETATM   17  C   UNL     1      -5.773  16.634  70.595  1.00  0.00     0.044 A  
BRANCH  13  18
HETATM   18  C   UNL     1      -7.975  15.728  66.382  1.00  0.00    -0.004 C  
BRANCH  18  19
HETATM   19  C   UNL     1      -9.434  15.327  66.293  1.00  0.00    -0.341 A  
HETATM   20  C   UNL     1     -10.312  15.771  67.295  1.00  0.00    -0.290 A  
HETATM   21  C   UNL     1     -11.608  15.263  67.370  1.00  0.00    -0.196 A  
HETATM   22  C   UNL     1     -12.040  14.339  66.426  1.00  0.00    -0.419 A  
HETATM   23  F   UNL     1     -13.252  13.785  66.551  1.00  0.00    -0.039 F  
HETATM   24  C   UNL     1     -11.225  13.968  65.367  1.00  0.00    -0.319 A  
HETATM   25  C   UNL     1      -9.932  14.481  65.285  1.00  0.00    -0.322 A  
ENDBRANCH  18  19
ENDBRANCH  13  18
ENDBRANCH   7   9
ENDBRANCH   2   3
BRANCH   2  26
HETATM   26  C   UNL     1      -8.968   8.924  68.429  1.00  0.00    -0.134 C  
HETATM   27  C   UNL     1      -9.975   7.727  70.106  1.00  0.00    -0.186 C  
HETATM   28  H   UNL     1      -7.294   9.971  68.986  1.00  0.00     0.000 HD 
HETATM   29  C   UNL     1      -7.981   8.938  70.619  1.00  0.00    -0.129 C  
HETATM   30  N   UNL     1      -9.932   8.122  68.797  1.00  0.00    -0.184 NA 
HETATM   31  O   UNL     1      -7.102   9.287  71.400  1.00  0.00    -0.273 OA 
HETATM   32  N   UNL     1      -8.018   9.333  69.316  1.00  0.00    -0.094 N  
HETATM   33  C   UNL     1      -9.081   8.060  71.034  1.00  0.00    -0.166 C  
ENDBRANCH   2  26
TORSDOF 5
ENDMDL
MODEL      161
REMARK 921   NORMALIZED FREE ENERGY PREDICTED BY IDOCK:   -4.51 KCAL/MOL
REMARK 922        TOTAL FREE ENERGY PREDICTED BY IDOCK:   -7.24 KCAL/MOL
REMARK 923 INTER-LIGAND FREE ENERGY PREDICTED BY IDOCK:   -6.63 KCAL/MOL
REMARK 924 INTRA-LIGAND FREE ENERGY PREDICTED BY IDOCK:   -0.61 KCAL/MOL
REMARK 927      BINDING AFFINITY PREDICTED BY RF-SCORE:    0.00 PKD
ROOT
HETATM    1  C   UNL     1     -11.261   6.623  70.509  1.00  0.00    -0.334 C  
HETATM    2  N   UNL     1      -9.914   7.233  70.529  1.00  0.00    -0.190 NA 
ENDROOT
BRANCH   2   3
HETATM    3  C   UNL     1      -9.934   8.697  70.814  1.00  0.00    -0.197 C  
HETATM    4  C   UNL     1     -11.255   9.347  70.427  1.00  0.00    -0.309 C  
HETATM    5  C   UNL     1      -8.716   9.489  70.363  1.00  0.00    -0.265 C  
HETATM    6  C   UNL     1     -11.304   9.865  69.001  1.00  0.00    -0.023 C  
HETATM    7  N   UNL     1     -10.173  10.735  68.677  1.00  0.00    -0.177 NA 
HETATM    8  C   UNL     1      -8.835  10.380  69.126  1.00  0.00    -0.172 C  
BRANCH   7   9
HETATM    9  C   UNL     1     -10.441  11.871  67.945  1.00  0.00    -0.204 A  
HETATM   10  C   UNL     1     -10.324  13.376  66.387  1.00  0.00    -0.288 A  
HETATM   11  N   UNL     1      -9.675  12.316  66.964  1.00  0.00    -0.201 NA 
HETATM   12  C   UNL     1     -11.498  13.659  67.064  1.00  0.00    -0.343 A  
HETATM   13  N   UNL     1     -11.525  12.734  68.098  1.00  0.00    -0.291 NA 
HETATM   14  C   UNL     1     -12.373  14.685  66.670  1.00  0.00    -0.021 A  
HETATM   15  C   UNL     1     -12.025  15.424  65.536  1.00  0.00     0.342 A  
HETATM   16  C   UNL     1     -10.843  15.161  64.843  1.00  0.00    -0.437 A  
HETATM   17  C   UNL     1      -9.977  14.144  65.265  1.00  0.00    -0.295 A  
BRANCH  13  18
HETATM   18  C   UNL     1     -12.499  12.824  69.178  1.00  0.00     0.365 C  
BRANCH  18  19
HETATM   19  C   UNL     1     -12.166  13.883  70.209  1.00  0.00    -0.428 A  
HETATM   20  C   UNL     1     -12.930  13.934  71.387  1.00  0.00    -0.430 A  
HETATM   21  C   UNL     1     -12.799  15.009  72.264  1.00  0.00    -0.414 A  
HETATM   22  C   UNL     1     -11.882  16.016  71.985  1.00  0.00    -0.533 A  
HETATM   23  F   UNL     1     -11.821  17.092  72.781  1.00  0.00    -0.522 F  
HETATM   24  C   UNL     1     -11.043  15.931  70.885  1.00  0.00    -0.317 A  
HETATM   25  C   UNL     1     -11.166  14.853  70.010  1.00  0.00    -0.293 A  
ENDBRANCH  18  19
ENDBRANCH  13  18
ENDBRANCH   7   9
ENDBRANCH   2   3
BRANCH   2  26
HETATM   26  C   UNL     1      -8.900   6.393  70.949  1.00  0.00    -0.136 C  
HETATM   27  C   UNL     1      -7.335   4.746  70.631  1.00  0.00    -0.056 C  
HETATM   28  H   UNL     1      -8.972   7.176  72.844  1.00  0.00     0.000 HD 
HETATM   29  C   UNL     1      -7.473   5.778  72.781  1.00  0.00    -0.096 C  
HETATM   30  N   UNL     1      -8.333   5.540  70.136  1.00  0.00    -0.114 NA 
HETATM   31  O   UNL     1      -7.091   5.913  73.939  1.00  0.00    -0.081 OA 
HETATM   32  N   UNL     1      -8.490   6.507  72.243  1.00  0.00    -0.113 N  
HETATM   33  C   UNL     1      -6.859   4.802  71.873  1.00  0.00    -0.051 C  
ENDBRANCH   2  26
TORSDOF 5
ENDMDL
MODEL      162
REMARK 921   NORMALIZED FREE ENERGY PREDICTED BY IDOCK:   -4.50 KCAL/MOL
REMARK 922        TOTAL FREE ENERGY PREDICTED BY IDOCK:   -7.23 KCAL/MOL
REMARK 923 INTER-LIGAND FREE ENERGY PREDICTED BY IDOCK:   -5.67 KCAL/MOL
REMARK 924 INTRA-LIGAND FREE ENERGY PREDICTED BY IDOCK:   -1.55 KCAL/MOL
REMARK 927      BINDING AFFINITY PREDICTED BY RF-SCORE:    0.00 PKD
ROOT
HETATM    1  C   UNL     1      -9.107   7.510  73.965  1.00  0.00    -0.245 C  
HETATM    2  N   UNL     1      -9.893   6.690  73.019  1.00  0.00    -0.163 NA 
ENDROOT
BRANCH   2   3
HETATM    3  C   UNL     1      -9.863   7.213  71.622  1.00  0.00    -0.162 C  
HETATM    4  C   UNL     1     -11.011   6.679  70.776  1.00  0.00    -0.318 C  
HETATM    5  C   UNL     1      -8.518   7.165  70.912  1.00  0.00    -0.133 C  
HETATM    6  C   UNL     1     -10.704   5.385  70.046  1.00  0.00    -0.226 C  
HETATM    7  N   UNL     1      -9.465   5.455  69.270  1.00  0.00    -0.126 NA 
HETATM    8  C   UNL     1      -8.291   6.102  69.837  1.00  0.00    -0.128 C  
BRANCH   7   9
HETATM    9  C   UNL     1      -9.476   4.890  68.014  1.00  0.00    -0.136 A  
HETATM   10  C   UNL     1      -9.105   3.494  66.395  1.00  0.00    -0.159 A  
HETATM   11  N   UNL     1      -8.727   3.860  67.660  1.00  0.00    -0.101 NA 
HETATM   12  C   UNL     1     -10.068   4.359  65.902  1.00  0.00    -0.243 A  
HETATM   13  N   UNL     1     -10.244   5.286  66.920  1.00  0.00    -0.216 NA 
HETATM   14  C   UNL     1     -10.651   4.203  64.634  1.00  0.00    -0.176 A  
HETATM   15  C   UNL     1     -10.233   3.112  63.865  1.00  0.00    -0.194 A  
HETATM   16  C   UNL     1      -9.259   2.233  64.339  1.00  0.00    -0.127 A  
HETATM   17  C   UNL     1      -8.679   2.418  65.601  1.00  0.00    -0.121 A  
BRANCH  13  18
HETATM   18  C   UNL     1     -11.028   6.498  66.722  1.00  0.00    -0.239 C  
BRANCH  18  19
HETATM   19  C   UNL     1     -10.201   7.768  66.764  1.00  0.00    -0.346 A  
HETATM   20  C   UNL     1     -10.609   8.802  67.622  1.00  0.00    -0.281 A  
HETATM   21  C   UNL     1     -10.007  10.058  67.545  1.00  0.00    -0.232 A  
HETATM   22  C   UNL     1      -8.977  10.272  66.637  1.00  0.00    -0.140 A  
HETATM   23  F   UNL     1      -8.461  11.500  66.501  1.00  0.00    -0.159 F  
HETATM   24  C   UNL     1      -8.488   9.235  65.857  1.00  0.00    -0.141 A  
HETATM   25  C   UNL     1      -9.082   7.977  65.938  1.00  0.00    -0.159 A  
ENDBRANCH  18  19
ENDBRANCH  13  18
ENDBRANCH   7   9
ENDBRANCH   2   3
BRANCH   2  26
HETATM   26  C   UNL     1      -9.951   5.343  73.323  1.00  0.00    -0.170 C  
HETATM   27  C   UNL     1     -11.054   3.412  73.883  1.00  0.00    -0.140 C  
HETATM   28  H   UNL     1      -7.920   5.157  73.101  1.00  0.00     0.000 HD 
HETATM   29  C   UNL     1      -8.693   3.308  73.536  1.00  0.00    -0.077 C  
HETATM   30  N   UNL     1     -11.084   4.749  73.593  1.00  0.00    -0.317 NA 
HETATM   31  O   UNL     1      -7.638   2.686  73.483  1.00  0.00    -0.045 OA 
HETATM   32  N   UNL     1      -8.780   4.647  73.303  1.00  0.00    -0.101 N  
HETATM   33  C   UNL     1      -9.962   2.651  73.867  1.00  0.00    -0.154 C  
ENDBRANCH   2  26
TORSDOF 5
ENDMDL
MODEL      163
REMARK 921   NORMALIZED FREE ENERGY PREDICTED BY IDOCK:   -4.49 KCAL/MOL
REMARK 922        TOTAL FREE ENERGY PREDICTED BY IDOCK:   -7.21 KCAL/MOL
REMARK 923 INTER-LIGAND FREE ENERGY PREDICTED BY IDOCK:   -6.65 KCAL/MOL
REMARK 924 INTRA-LIGAND FREE ENERGY PREDICTED BY IDOCK:   -0.56 KCAL/MOL
REMARK 927      BINDING AFFINITY PREDICTED BY RF-SCORE:    0.00 PKD
ROOT
HETATM    1  C   UNL     1     -10.338  17.171  67.037  1.00  0.00    -0.308 C  
HETATM    2  N   UNL     1      -9.326  17.549  68.047  1.00  0.00    -0.265 NA 
ENDROOT
BRANCH   2   3
HETATM    3  C   UNL     1      -8.822  16.388  68.838  1.00  0.00    -0.256 C  
HETATM    4  C   UNL     1      -7.425  15.957  68.414  1.00  0.00    -0.127 C  
HETATM    5  C   UNL     1      -9.785  15.224  69.016  1.00  0.00    -0.234 C  
HETATM    6  C   UNL     1      -7.398  14.914  67.312  1.00  0.00    -0.140 C  
HETATM    7  N   UNL     1      -8.239  13.754  67.612  1.00  0.00    -0.163 NA 
HETATM    8  C   UNL     1      -9.555  13.949  68.205  1.00  0.00    -0.218 C  
BRANCH   7   9
HETATM    9  C   UNL     1      -7.730  12.511  67.309  1.00  0.00    -0.146 A  
HETATM   10  C   UNL     1      -6.309  10.901  67.003  1.00  0.00    -0.080 A  
HETATM   11  N   UNL     1      -6.442  12.256  67.160  1.00  0.00    -0.148 NA 
HETATM   12  C   UNL     1      -7.549  10.286  66.978  1.00  0.00    -0.099 A  
HETATM   13  N   UNL     1      -8.450  11.334  67.104  1.00  0.00    -0.144 NA 
HETATM   14  C   UNL     1      -7.705   8.896  66.851  1.00  0.00    -0.098 A  
HETATM   15  C   UNL     1      -6.542   8.126  66.764  1.00  0.00    -0.057 A  
HETATM   16  C   UNL     1      -5.282   8.725  66.780  1.00  0.00    -0.039 A  
HETATM   17  C   UNL     1      -5.151  10.116  66.890  1.00  0.00    -0.040 A  
BRANCH  13  18
HETATM   18  C   UNL     1      -9.881  11.139  66.913  1.00  0.00    -0.194 C  
BRANCH  18  19
HETATM   19  C   UNL     1     -10.623  10.800  68.190  1.00  0.00    -0.238 A  
HETATM   20  C   UNL     1     -11.933  11.280  68.350  1.00  0.00    -0.255 A  
HETATM   21  C   UNL     1     -12.577  11.171  69.582  1.00  0.00    -0.072 A  
HETATM   22  C   UNL     1     -11.927  10.554  70.645  1.00  0.00    -0.357 A  
HETATM   23  F   UNL     1     -12.510  10.530  71.850  1.00  0.00    -0.464 F  
HETATM   24  C   UNL     1     -10.677   9.980  70.478  1.00  0.00    -0.352 A  
HETATM   25  C   UNL     1     -10.034  10.079  69.245  1.00  0.00    -0.226 A  
ENDBRANCH  18  19
ENDBRANCH  13  18
ENDBRANCH   7   9
ENDBRANCH   2   3
BRANCH   2  26
HETATM   26  C   UNL     1      -8.539  18.633  67.706  1.00  0.00    -0.275 C  
HETATM   27  C   UNL     1      -7.459  20.605  68.155  1.00  0.00     0.003 C  
HETATM   28  H   UNL     1      -8.323  17.934  65.789  1.00  0.00     0.000 HD 
HETATM   29  C   UNL     1      -7.231  19.660  65.973  1.00  0.00    -0.291 C  
HETATM   30  N   UNL     1      -8.245  19.566  68.572  1.00  0.00    -0.347 NA 
HETATM   31  O   UNL     1      -6.774  19.672  64.835  1.00  0.00    -0.373 OA 
HETATM   32  N   UNL     1      -8.054  18.677  66.434  1.00  0.00    -0.284 N  
HETATM   33  C   UNL     1      -6.927  20.721  66.940  1.00  0.00    -0.361 C  
ENDBRANCH   2  26
TORSDOF 5
ENDMDL
MODEL      164
REMARK 921   NORMALIZED FREE ENERGY PREDICTED BY IDOCK:   -4.49 KCAL/MOL
REMARK 922        TOTAL FREE ENERGY PREDICTED BY IDOCK:   -7.21 KCAL/MOL
REMARK 923 INTER-LIGAND FREE ENERGY PREDICTED BY IDOCK:   -5.97 KCAL/MOL
REMARK 924 INTRA-LIGAND FREE ENERGY PREDICTED BY IDOCK:   -1.24 KCAL/MOL
REMARK 927      BINDING AFFINITY PREDICTED BY RF-SCORE:    0.00 PKD
ROOT
HETATM    1  C   UNL     1      -5.758  15.836  69.867  1.00  0.00    -0.145 C  
HETATM    2  N   UNL     1      -6.719  15.581  68.773  1.00  0.00    -0.110 NA 
ENDROOT
BRANCH   2   3
HETATM    3  C   UNL     1      -7.598  14.402  69.024  1.00  0.00    -0.106 C  
HETATM    4  C   UNL     1      -6.807  13.112  69.194  1.00  0.00    -0.062 C  
HETATM    5  C   UNL     1      -8.805  14.253  68.109  1.00  0.00    -0.183 C  
HETATM    6  C   UNL     1      -6.559  12.354  67.904  1.00  0.00    -0.097 C  
HETATM    7  N   UNL     1      -7.785  12.122  67.139  1.00  0.00    -0.164 NA 
HETATM    8  C   UNL     1      -8.771  13.186  67.015  1.00  0.00    -0.189 C  
BRANCH   7   9
HETATM    9  C   UNL     1      -7.944  10.881  66.564  1.00  0.00    -0.152 A  
HETATM   10  C   UNL     1      -7.562   9.124  65.350  1.00  0.00    -0.097 A  
HETATM   11  N   UNL     1      -7.211  10.432  65.560  1.00  0.00    -0.148 NA 
HETATM   12  C   UNL     1      -8.596   8.753  66.193  1.00  0.00    -0.146 A  
HETATM   13  N   UNL     1      -8.877   9.905  66.913  1.00  0.00    -0.134 NA 
HETATM   14  C   UNL     1      -9.137   7.457  66.206  1.00  0.00    -0.195 A  
HETATM   15  C   UNL     1      -8.577   6.520  65.332  1.00  0.00    -0.076 A  
HETATM   16  C   UNL     1      -7.540   6.874  64.469  1.00  0.00    -0.107 A  
HETATM   17  C   UNL     1      -7.028   8.179  64.461  1.00  0.00    -0.075 A  
BRANCH  13  18
HETATM   18  C   UNL     1     -10.051  10.003  67.771  1.00  0.00    -0.183 C  
BRANCH  18  19
HETATM   19  C   UNL     1      -9.833   9.447  69.163  1.00  0.00    -0.174 A  
HETATM   20  C   UNL     1     -10.957   9.194  69.966  1.00  0.00    -0.240 A  
HETATM   21  C   UNL     1     -10.802   8.881  71.316  1.00  0.00    -0.360 A  
HETATM   22  C   UNL     1      -9.525   8.787  71.857  1.00  0.00    -0.292 A  
HETATM   23  F   UNL     1      -9.379   8.576  73.171  1.00  0.00    -0.308 F  
HETATM   24  C   UNL     1      -8.401   8.928  71.058  1.00  0.00    -0.233 A  
HETATM   25  C   UNL     1      -8.553   9.233  69.707  1.00  0.00    -0.164 A  
ENDBRANCH  18  19
ENDBRANCH  13  18
ENDBRANCH   7   9
ENDBRANCH   2   3
BRANCH   2  26
HETATM   26  C   UNL     1      -7.140  16.707  68.091  1.00  0.00    -0.153 C  
HETATM   27  C   UNL     1      -7.412  17.981  66.204  1.00  0.00    -0.270 C  
HETATM   28  H   UNL     1      -7.873  17.537  69.819  1.00  0.00     0.000 HD 
HETATM   29  C   UNL     1      -8.280  18.815  68.267  1.00  0.00    -0.325 C  
HETATM   30  N   UNL     1      -6.965  16.835  66.802  1.00  0.00    -0.216 NA 
HETATM   31  O   UNL     1      -8.876  19.663  68.922  1.00  0.00    -0.321 OA 
HETATM   32  N   UNL     1      -7.773  17.674  68.813  1.00  0.00    -0.266 N  
HETATM   33  C   UNL     1      -8.056  18.967  66.825  1.00  0.00    -0.278 C  
ENDBRANCH   2  26
TORSDOF 5
ENDMDL
MODEL      165
REMARK 921   NORMALIZED FREE ENERGY PREDICTED BY IDOCK:   -4.48 KCAL/MOL
REMARK 922        TOTAL FREE ENERGY PREDICTED BY IDOCK:   -7.20 KCAL/MOL
REMARK 923 INTER-LIGAND FREE ENERGY PREDICTED BY IDOCK:   -5.28 KCAL/MOL
REMARK 924 INTRA-LIGAND FREE ENERGY PREDICTED BY IDOCK:   -1.92 KCAL/MOL
REMARK 927      BINDING AFFINITY PREDICTED BY RF-SCORE:    0.00 PKD
ROOT
HETATM    1  C   UNL     1      -7.976   3.062  63.497  1.00  0.00    -0.080 C  
HETATM    2  N   UNL     1      -8.264   4.269  64.300  1.00  0.00    -0.095 NA 
ENDROOT
BRANCH   2   3
HETATM    3  C   UNL     1      -8.679   3.960  65.700  1.00  0.00    -0.117 C  
HETATM    4  C   UNL     1     -10.159   4.223  65.939  1.00  0.00    -0.223 C  
HETATM    5  C   UNL     1      -7.784   4.502  66.804  1.00  0.00    -0.090 C  
HETATM    6  C   UNL     1     -10.479   5.631  66.407  1.00  0.00    -0.198 C  
HETATM    7  N   UNL     1      -9.678   6.038  67.562  1.00  0.00    -0.112 NA 
HETATM    8  C   UNL     1      -8.260   5.710  67.611  1.00  0.00    -0.101 C  
BRANCH   7   9
HETATM    9  C   UNL     1     -10.323   6.726  68.565  1.00  0.00    -0.190 A  
HETATM   10  C   UNL     1     -11.236   7.170  70.483  1.00  0.00    -0.290 A  
HETATM   11  N   UNL     1     -10.788   6.164  69.667  1.00  0.00    -0.318 NA 
HETATM   12  C   UNL     1     -11.122   8.398  69.853  1.00  0.00    -0.108 A  
HETATM   13  N   UNL     1     -10.602   8.092  68.604  1.00  0.00    -0.158 NA 
HETATM   14  C   UNL     1     -11.487   9.605  70.472  1.00  0.00    -0.352 A  
HETATM   15  C   UNL     1     -11.969   9.534  71.782  1.00  0.00    -0.443 A  
HETATM   16  C   UNL     1     -12.100   8.306  72.432  1.00  0.00    -0.430 A  
HETATM   17  C   UNL     1     -11.745   7.113  71.789  1.00  0.00    -0.324 A  
BRANCH  13  18
HETATM   18  C   UNL     1     -10.522   9.089  67.544  1.00  0.00    -0.272 C  
BRANCH  18  19
HETATM   19  C   UNL     1      -9.193   9.814  67.493  1.00  0.00    -0.145 A  
HETATM   20  C   UNL     1      -9.066  11.029  68.187  1.00  0.00    -0.155 A  
HETATM   21  C   UNL     1      -7.940  11.830  68.003  1.00  0.00    -0.141 A  
HETATM   22  C   UNL     1      -6.926  11.406  67.154  1.00  0.00    -0.128 A  
HETATM   23  F   UNL     1      -5.888  12.215  66.909  1.00  0.00    -0.136 F  
HETATM   24  C   UNL     1      -6.982  10.162  66.544  1.00  0.00    -0.102 A  
HETATM   25  C   UNL     1      -8.102   9.355  66.732  1.00  0.00    -0.109 A  
ENDBRANCH  18  19
ENDBRANCH  13  18
ENDBRANCH   7   9
ENDBRANCH   2   3
BRANCH   2  26
HETATM   26  C   UNL     1      -7.526   5.387  63.958  1.00  0.00    -0.061 C  
HETATM   27  C   UNL     1      -5.581   6.475  63.418  1.00  0.00    -0.030 C  
HETATM   28  H   UNL     1      -9.206   6.565  63.995  1.00  0.00     0.000 HD 
HETATM   29  C   UNL     1      -7.614   7.729  63.434  1.00  0.00    -0.123 C  
HETATM   30  N   UNL     1      -6.237   5.322  63.755  1.00  0.00    -0.022 NA 
HETATM   31  O   UNL     1      -8.238   8.773  63.274  1.00  0.00    -0.170 OA 
HETATM   32  N   UNL     1      -8.202   6.561  63.811  1.00  0.00    -0.005 N  
HETATM   33  C   UNL     1      -6.162   7.659  63.235  1.00  0.00    -0.055 C  
ENDBRANCH   2  26
TORSDOF 5
ENDMDL
MODEL      166
REMARK 921   NORMALIZED FREE ENERGY PREDICTED BY IDOCK:   -4.47 KCAL/MOL
REMARK 922        TOTAL FREE ENERGY PREDICTED BY IDOCK:   -7.19 KCAL/MOL
REMARK 923 INTER-LIGAND FREE ENERGY PREDICTED BY IDOCK:   -6.27 KCAL/MOL
REMARK 924 INTRA-LIGAND FREE ENERGY PREDICTED BY IDOCK:   -0.93 KCAL/MOL
REMARK 927      BINDING AFFINITY PREDICTED BY RF-SCORE:    0.00 PKD
ROOT
HETATM    1  C   UNL     1     -12.631   9.877  70.775  1.00  0.00    -0.241 C  
HETATM    2  N   UNL     1     -11.810  11.095  70.604  1.00  0.00    -0.337 NA 
ENDROOT
BRANCH   2   3
HETATM    3  C   UNL     1     -10.861  11.008  69.456  1.00  0.00    -0.216 C  
HETATM    4  C   UNL     1     -11.437  10.229  68.282  1.00  0.00    -0.149 C  
HETATM    5  C   UNL     1      -9.429  10.619  69.793  1.00  0.00     0.188 C  
HETATM    6  C   UNL     1     -11.157   8.739  68.319  1.00  0.00     0.307 C  
HETATM    7  N   UNL     1      -9.737   8.435  68.507  1.00  0.00    -0.156 NA 
HETATM    8  C   UNL     1      -8.953   9.205  69.462  1.00  0.00    -0.151 C  
BRANCH   7   9
HETATM    9  C   UNL     1      -9.206   7.414  67.752  1.00  0.00    -0.131 A  
HETATM   10  C   UNL     1      -7.948   6.356  66.336  1.00  0.00    -0.110 A  
HETATM   11  N   UNL     1      -8.360   7.595  66.753  1.00  0.00    -0.122 NA 
HETATM   12  C   UNL     1      -8.605   5.359  67.037  1.00  0.00    -0.109 A  
HETATM   13  N   UNL     1      -9.456   6.049  67.889  1.00  0.00    -0.112 NA 
HETATM   14  C   UNL     1      -8.356   3.993  66.827  1.00  0.00    -0.101 A  
HETATM   15  C   UNL     1      -7.390   3.656  65.875  1.00  0.00    -0.076 A  
HETATM   16  C   UNL     1      -6.721   4.644  65.152  1.00  0.00    -0.048 A  
HETATM   17  C   UNL     1      -6.998   6.000  65.366  1.00  0.00    -0.063 A  
BRANCH  13  18
HETATM   18  C   UNL     1     -10.484   5.363  68.661  1.00  0.00    -0.129 C  
BRANCH  18  19
HETATM   19  C   UNL     1     -10.231   5.375  70.155  1.00  0.00    -0.342 A  
HETATM   20  C   UNL     1      -9.228   4.538  70.670  1.00  0.00    -0.199 A  
HETATM   21  C   UNL     1      -9.097   4.361  72.047  1.00  0.00    -0.159 A  
HETATM   22  C   UNL     1      -9.945   5.044  72.911  1.00  0.00    -0.160 A  
HETATM   23  F   UNL     1      -9.879   4.805  74.226  1.00  0.00    -0.135 F  
HETATM   24  C   UNL     1     -10.871   5.956  72.427  1.00  0.00    -0.288 A  
HETATM   25  C   UNL     1     -10.998   6.141  71.052  1.00  0.00    -0.354 A  
ENDBRANCH  18  19
ENDBRANCH  13  18
ENDBRANCH   7   9
ENDBRANCH   2   3
BRANCH   2  26
HETATM   26  C   UNL     1     -12.422  12.271  70.994  1.00  0.00    -0.263 C  
HETATM   27  C   UNL     1     -13.847  13.509  72.297  1.00  0.00    -0.581 C  
HETATM   28  H   UNL     1     -11.398  13.332  69.567  1.00  0.00     0.000 HD 
HETATM   29  C   UNL     1     -12.553  14.643  70.640  1.00  0.00    -0.357 C  
HETATM   30  N   UNL     1     -13.287  12.303  71.973  1.00  0.00    -0.477 NA 
HETATM   31  O   UNL     1     -12.201  15.665  70.060  1.00  0.00    -0.367 OA 
HETATM   32  N   UNL     1     -12.067  13.409  70.334  1.00  0.00    -0.349 N  
HETATM   33  C   UNL     1     -13.545  14.670  71.721  1.00  0.00    -0.481 C  
ENDBRANCH   2  26
TORSDOF 5
ENDMDL
MODEL      167
REMARK 921   NORMALIZED FREE ENERGY PREDICTED BY IDOCK:   -4.47 KCAL/MOL
REMARK 922        TOTAL FREE ENERGY PREDICTED BY IDOCK:   -7.19 KCAL/MOL
REMARK 923 INTER-LIGAND FREE ENERGY PREDICTED BY IDOCK:   -5.98 KCAL/MOL
REMARK 924 INTRA-LIGAND FREE ENERGY PREDICTED BY IDOCK:   -1.21 KCAL/MOL
REMARK 927      BINDING AFFINITY PREDICTED BY RF-SCORE:    0.00 PKD
ROOT
HETATM    1  C   UNL     1     -10.283   4.370  65.508  1.00  0.00    -0.241 C  
HETATM    2  N   UNL     1      -9.146   5.127  66.075  1.00  0.00    -0.145 NA 
ENDROOT
BRANCH   2   3
HETATM    3  C   UNL     1      -9.539   6.021  67.203  1.00  0.00    -0.123 C  
HETATM    4  C   UNL     1     -10.517   7.105  66.772  1.00  0.00    -0.300 C  
HETATM    5  C   UNL     1      -8.407   6.542  68.076  1.00  0.00    -0.116 C  
HETATM    6  C   UNL     1      -9.862   8.388  66.295  1.00  0.00    -0.187 C  
HETATM    7  N   UNL     1      -8.883   8.911  67.249  1.00  0.00    -0.127 NA 
HETATM    8  C   UNL     1      -7.968   7.998  67.920  1.00  0.00    -0.128 C  
BRANCH   7   9
HETATM    9  C   UNL     1      -8.878  10.270  67.466  1.00  0.00    -0.128 A  
HETATM   10  C   UNL     1      -8.169  12.315  67.623  1.00  0.00    -0.166 A  
HETATM   11  N   UNL     1      -7.781  11.003  67.540  1.00  0.00    -0.111 NA 
HETATM   12  C   UNL     1      -9.549  12.414  67.679  1.00  0.00    -0.193 A  
HETATM   13  N   UNL     1      -9.985  11.098  67.648  1.00  0.00    -0.172 NA 
HETATM   14  C   UNL     1     -10.219  13.647  67.746  1.00  0.00    -0.242 A  
HETATM   15  C   UNL     1      -9.435  14.805  67.738  1.00  0.00    -0.204 A  
HETATM   16  C   UNL     1      -8.043  14.727  67.690  1.00  0.00    -0.183 A  
HETATM   17  C   UNL     1      -7.395  13.485  67.642  1.00  0.00    -0.180 A  
BRANCH  13  18
HETATM   18  C   UNL     1     -11.378  10.748  67.899  1.00  0.00    -0.299 C  
BRANCH  18  19
HETATM   19  C   UNL     1     -11.653  10.347  69.334  1.00  0.00    -0.272 A  
HETATM   20  C   UNL     1     -11.275   9.061  69.753  1.00  0.00    -0.041 A  
HETATM   21  C   UNL     1     -11.689   8.575  70.992  1.00  0.00    -0.310 A  
HETATM   22  C   UNL     1     -12.451   9.383  71.828  1.00  0.00    -0.391 A  
HETATM   23  F   UNL     1     -12.924   8.884  72.977  1.00  0.00    -0.433 F  
HETATM   24  C   UNL     1     -12.744  10.692  71.479  1.00  0.00    -0.549 A  
HETATM   25  C   UNL     1     -12.324  11.184  70.244  1.00  0.00    -0.397 A  
ENDBRANCH  18  19
ENDBRANCH  13  18
ENDBRANCH   7   9
ENDBRANCH   2   3
BRANCH   2  26
HETATM   26  C   UNL     1      -7.926   4.483  66.008  1.00  0.00    -0.099 C  
HETATM   27  C   UNL     1      -5.738   4.295  65.346  1.00  0.00    -0.018 C  
HETATM   28  H   UNL     1      -8.630   2.929  67.149  1.00  0.00     0.000 HD 
HETATM   29  C   UNL     1      -6.653   2.577  66.730  1.00  0.00    -0.039 C  
HETATM   30  N   UNL     1      -6.912   4.996  65.362  1.00  0.00    -0.061 NA 
HETATM   31  O   UNL     1      -6.550   1.527  67.356  1.00  0.00    -0.027 OA 
HETATM   32  N   UNL     1      -7.807   3.298  66.670  1.00  0.00    -0.080 N  
HETATM   33  C   UNL     1      -5.527   3.143  65.979  1.00  0.00    -0.017 C  
ENDBRANCH   2  26
TORSDOF 5
ENDMDL
MODEL      168
REMARK 921   NORMALIZED FREE ENERGY PREDICTED BY IDOCK:   -4.38 KCAL/MOL
REMARK 922        TOTAL FREE ENERGY PREDICTED BY IDOCK:   -7.07 KCAL/MOL
REMARK 923 INTER-LIGAND FREE ENERGY PREDICTED BY IDOCK:   -5.73 KCAL/MOL
REMARK 924 INTRA-LIGAND FREE ENERGY PREDICTED BY IDOCK:   -1.34 KCAL/MOL
REMARK 927      BINDING AFFINITY PREDICTED BY RF-SCORE:    0.00 PKD
ROOT
HETATM    1  C   UNL     1      -8.906   7.850  73.938  1.00  0.00    -0.254 C  
HETATM    2  N   UNL     1     -10.000   7.260  73.137  1.00  0.00    -0.221 NA 
ENDROOT
BRANCH   2   3
HETATM    3  C   UNL     1     -10.162   7.900  71.799  1.00  0.00    -0.196 C  
HETATM    4  C   UNL     1     -10.635   6.916  70.738  1.00  0.00    -0.245 C  
HETATM    5  C   UNL     1      -9.017   8.787  71.333  1.00  0.00    -0.307 C  
HETATM    6  C   UNL     1      -9.516   6.205  69.999  1.00  0.00    -0.154 C  
HETATM    7  N   UNL     1      -8.521   7.129  69.455  1.00  0.00    -0.133 NA 
HETATM    8  C   UNL     1      -8.071   8.260  70.254  1.00  0.00    -0.104 C  
BRANCH   7   9
HETATM    9  C   UNL     1      -8.051   6.874  68.186  1.00  0.00    -0.119 A  
HETATM   10  C   UNL     1      -6.727   6.266  66.578  1.00  0.00    -0.060 A  
HETATM   11  N   UNL     1      -6.790   6.592  67.907  1.00  0.00    -0.071 NA 
HETATM   12  C   UNL     1      -7.966   6.416  65.978  1.00  0.00    -0.115 A  
HETATM   13  N   UNL     1      -8.786   6.872  67.001  1.00  0.00    -0.117 NA 
HETATM   14  C   UNL     1      -8.193   6.127  64.622  1.00  0.00    -0.094 A  
HETATM   15  C   UNL     1      -7.109   5.656  63.876  1.00  0.00    -0.052 A  
HETATM   16  C   UNL     1      -5.850   5.504  64.459  1.00  0.00    -0.021 A  
HETATM   17  C   UNL     1      -5.643   5.816  65.809  1.00  0.00    -0.013 A  
BRANCH  13  18
HETATM   18  C   UNL     1     -10.135   7.357  66.741  1.00  0.00    -0.235 C  
BRANCH  18  19
HETATM   19  C   UNL     1     -10.245   8.868  66.735  1.00  0.00    -0.348 A  
HETATM   20  C   UNL     1     -10.805   9.502  67.857  1.00  0.00    -0.240 A  
HETATM   21  C   UNL     1     -11.116  10.861  67.815  1.00  0.00    -0.371 A  
HETATM   22  C   UNL     1     -10.837  11.594  66.668  1.00  0.00    -0.283 A  
HETATM   23  F   UNL     1     -11.217  12.876  66.596  1.00  0.00    -0.281 F  
HETATM   24  C   UNL     1     -10.186  11.012  65.591  1.00  0.00    -0.318 A  
HETATM   25  C   UNL     1      -9.867   9.656  65.633  1.00  0.00    -0.369 A  
ENDBRANCH  18  19
ENDBRANCH  13  18
ENDBRANCH   7   9
ENDBRANCH   2   3
BRANCH   2  26
HETATM   26  C   UNL     1     -10.233   5.917  73.368  1.00  0.00    -0.212 C  
HETATM   27  C   UNL     1     -11.576   4.064  73.521  1.00  0.00    -0.029 C  
HETATM   28  H   UNL     1      -8.243   5.588  73.743  1.00  0.00     0.000 HD 
HETATM   29  C   UNL     1      -9.229   3.795  73.875  1.00  0.00    -0.089 C  
HETATM   30  N   UNL     1     -11.431   5.403  73.278  1.00  0.00    -0.217 NA 
HETATM   31  O   UNL     1      -8.248   3.099  74.113  1.00  0.00    -0.069 OA 
HETATM   32  N   UNL     1      -9.156   5.139  73.669  1.00  0.00    -0.123 N  
HETATM   33  C   UNL     1     -10.580   3.227  73.801  1.00  0.00    -0.274 C  
ENDBRANCH   2  26
TORSDOF 5
ENDMDL
MODEL      169
REMARK 921   NORMALIZED FREE ENERGY PREDICTED BY IDOCK:   -4.36 KCAL/MOL
REMARK 922        TOTAL FREE ENERGY PREDICTED BY IDOCK:   -7.05 KCAL/MOL
REMARK 923 INTER-LIGAND FREE ENERGY PREDICTED BY IDOCK:   -5.23 KCAL/MOL
REMARK 924 INTRA-LIGAND FREE ENERGY PREDICTED BY IDOCK:   -1.82 KCAL/MOL
REMARK 927      BINDING AFFINITY PREDICTED BY RF-SCORE:    0.00 PKD
ROOT
HETATM    1  C   UNL     1     -10.473   4.234  65.876  1.00  0.00    -0.034 C  
HETATM    2  N   UNL     1      -9.528   5.225  66.434  1.00  0.00    -0.146 NA 
ENDROOT
BRANCH   2   3
HETATM    3  C   UNL     1     -10.040   5.902  67.660  1.00  0.00    -0.163 C  
HETATM    4  C   UNL     1     -11.217   6.823  67.368  1.00  0.00    -0.262 C  
HETATM    5  C   UNL     1      -8.996   6.529  68.571  1.00  0.00    -0.126 C  
HETATM    6  C   UNL     1     -10.827   8.250  67.030  1.00  0.00     0.009 C  
HETATM    7  N   UNL     1      -9.930   8.841  68.024  1.00  0.00    -0.173 NA 
HETATM    8  C   UNL     1      -8.840   8.050  68.575  1.00  0.00    -0.134 C  
BRANCH   7   9
HETATM    9  C   UNL     1     -10.169  10.146  68.392  1.00  0.00    -0.169 A  
HETATM   10  C   UNL     1      -9.995  12.306  68.504  1.00  0.00    -0.170 A  
HETATM   11  N   UNL     1      -9.370  11.156  68.098  1.00  0.00    -0.170 NA 
HETATM   12  C   UNL     1     -11.190  12.015  69.140  1.00  0.00    -0.246 A  
HETATM   13  N   UNL     1     -11.255  10.629  69.123  1.00  0.00    -0.246 NA 
HETATM   14  C   UNL     1     -12.048  13.009  69.637  1.00  0.00    -0.304 A  
HETATM   15  C   UNL     1     -11.661  14.340  69.454  1.00  0.00    -0.354 A  
HETATM   16  C   UNL     1     -10.458  14.656  68.823  1.00  0.00    -0.246 A  
HETATM   17  C   UNL     1      -9.609  13.646  68.351  1.00  0.00    -0.203 A  
BRANCH  13  18
HETATM   18  C   UNL     1     -12.264   9.901  69.882  1.00  0.00     0.199 C  
BRANCH  18  19
HETATM   19  C   UNL     1     -11.686   8.840  70.796  1.00  0.00    -0.253 A  
HETATM   20  C   UNL     1     -10.624   9.193  71.645  1.00  0.00    -0.427 A  
HETATM   21  C   UNL     1      -9.929   8.211  72.348  1.00  0.00    -0.345 A  
HETATM   22  C   UNL     1     -10.313   6.881  72.233  1.00  0.00    -0.196 A  
HETATM   23  F   UNL     1      -9.590   5.930  72.837  1.00  0.00    -0.153 F  
HETATM   24  C   UNL     1     -11.425   6.523  71.486  1.00  0.00    -0.351 A  
HETATM   25  C   UNL     1     -12.127   7.504  70.788  1.00  0.00    -0.190 A  
ENDBRANCH  18  19
ENDBRANCH  13  18
ENDBRANCH   7   9
ENDBRANCH   2   3
BRANCH   2  26
HETATM   26  C   UNL     1      -8.192   4.935  66.231  1.00  0.00    -0.108 C  
HETATM   27  C   UNL     1      -6.066   5.439  65.534  1.00  0.00    -0.033 C  
HETATM   28  H   UNL     1      -8.427   3.061  67.031  1.00  0.00     0.000 HD 
HETATM   29  C   UNL     1      -6.452   3.308  66.539  1.00  0.00    -0.036 C  
HETATM   30  N   UNL     1      -7.374   5.805  65.699  1.00  0.00    -0.074 NA 
HETATM   31  O   UNL     1      -6.059   2.216  66.936  1.00  0.00    -0.022 OA 
HETATM   32  N   UNL     1      -7.749   3.712  66.635  1.00  0.00    -0.080 N  
HETATM   33  C   UNL     1      -5.543   4.276  65.915  1.00  0.00    -0.017 C  
ENDBRANCH   2  26
TORSDOF 5
ENDMDL
MODEL      170
REMARK 921   NORMALIZED FREE ENERGY PREDICTED BY IDOCK:   -4.34 KCAL/MOL
REMARK 922        TOTAL FREE ENERGY PREDICTED BY IDOCK:   -7.02 KCAL/MOL
REMARK 923 INTER-LIGAND FREE ENERGY PREDICTED BY IDOCK:   -6.59 KCAL/MOL
REMARK 924 INTRA-LIGAND FREE ENERGY PREDICTED BY IDOCK:   -0.42 KCAL/MOL
REMARK 927      BINDING AFFINITY PREDICTED BY RF-SCORE:    0.00 PKD
ROOT
HETATM    1  C   UNL     1      -8.949  11.960  67.719  1.00  0.00    -0.173 C  
HETATM    2  N   UNL     1      -9.915  11.694  66.632  1.00  0.00    -0.200 NA 
ENDROOT
BRANCH   2   3
HETATM    3  C   UNL     1     -10.680  10.427  66.821  1.00  0.00    -0.168 C  
HETATM    4  C   UNL     1     -11.487  10.423  68.112  1.00  0.00    -0.194 C  
HETATM    5  C   UNL     1      -9.914   9.134  66.584  1.00  0.00    -0.343 C  
HETATM    6  C   UNL     1     -10.743   9.875  69.315  1.00  0.00    -0.224 C  
HETATM    7  N   UNL     1     -10.147   8.562  69.062  1.00  0.00    -0.195 NA 
HETATM    8  C   UNL     1      -9.484   8.302  67.793  1.00  0.00    -0.149 C  
BRANCH   7   9
HETATM    9  C   UNL     1     -10.248   7.621  70.062  1.00  0.00    -0.213 A  
HETATM   10  C   UNL     1     -10.989   6.550  71.797  1.00  0.00    -0.247 A  
HETATM   11  N   UNL     1     -11.065   7.724  71.096  1.00  0.00    -0.244 NA 
HETATM   12  C   UNL     1     -10.044   5.705  71.237  1.00  0.00    -0.206 A  
HETATM   13  N   UNL     1      -9.530   6.431  70.172  1.00  0.00    -0.160 NA 
HETATM   14  C   UNL     1      -9.778   4.423  71.743  1.00  0.00    -0.236 A  
HETATM   15  C   UNL     1     -10.523   4.002  72.849  1.00  0.00    -0.247 A  
HETATM   16  C   UNL     1     -11.474   4.839  73.433  1.00  0.00    -0.332 A  
HETATM   17  C   UNL     1     -11.710   6.122  72.922  1.00  0.00     0.005 A  
BRANCH  13  18
HETATM   18  C   UNL     1      -8.354   5.981  69.439  1.00  0.00    -0.115 C  
BRANCH  18  19
HETATM   19  C   UNL     1      -8.608   4.765  68.571  1.00  0.00    -0.101 A  
HETATM   20  C   UNL     1      -7.818   3.622  68.774  1.00  0.00    -0.055 A  
HETATM   21  C   UNL     1      -7.873   2.560  67.872  1.00  0.00    -0.059 A  
HETATM   22  C   UNL     1      -8.739   2.624  66.787  1.00  0.00    -0.123 A  
HETATM   23  F   UNL     1      -8.725   1.645  65.873  1.00  0.00    -0.095 F  
HETATM   24  C   UNL     1      -9.603   3.696  66.628  1.00  0.00    -0.168 A  
HETATM   25  C   UNL     1      -9.557   4.755  67.532  1.00  0.00    -0.190 A  
ENDBRANCH  18  19
ENDBRANCH  13  18
ENDBRANCH   7   9
ENDBRANCH   2   3
BRANCH   2  26
HETATM   26  C   UNL     1     -10.451  12.821  66.039  1.00  0.00    -0.274 C  
HETATM   27  C   UNL     1     -11.537  13.934  64.353  1.00  0.00    -0.382 C  
HETATM   28  H   UNL     1      -9.904  13.982  67.640  1.00  0.00     0.000 HD 
HETATM   29  C   UNL     1     -10.904  15.166  66.298  1.00  0.00    -0.333 C  
HETATM   30  N   UNL     1     -11.031  12.772  64.868  1.00  0.00    -0.284 NA 
HETATM   31  O   UNL     1     -10.860  16.204  66.950  1.00  0.00    -0.282 OA 
HETATM   32  N   UNL     1     -10.379  13.989  66.737  1.00  0.00    -0.269 N  
HETATM   33  C   UNL     1     -11.528  15.112  64.971  1.00  0.00    -0.339 C  
ENDBRANCH   2  26
TORSDOF 5
ENDMDL
MODEL      171
REMARK 921   NORMALIZED FREE ENERGY PREDICTED BY IDOCK:   -4.33 KCAL/MOL
REMARK 922        TOTAL FREE ENERGY PREDICTED BY IDOCK:   -7.01 KCAL/MOL
REMARK 923 INTER-LIGAND FREE ENERGY PREDICTED BY IDOCK:   -5.64 KCAL/MOL
REMARK 924 INTRA-LIGAND FREE ENERGY PREDICTED BY IDOCK:   -1.37 KCAL/MOL
REMARK 927      BINDING AFFINITY PREDICTED BY RF-SCORE:    0.00 PKD
ROOT
HETATM    1  C   UNL     1      -7.732   7.367  72.497  1.00  0.00    -0.092 C  
HETATM    2  N   UNL     1      -9.136   7.019  72.190  1.00  0.00    -0.131 NA 
ENDROOT
BRANCH   2   3
HETATM    3  C   UNL     1      -9.849   8.078  71.417  1.00  0.00    -0.171 C  
HETATM    4  C   UNL     1     -10.661   7.508  70.263  1.00  0.00    -0.247 C  
HETATM    5  C   UNL     1      -9.029   9.300  71.033  1.00  0.00    -0.225 C  
HETATM    6  C   UNL     1      -9.901   7.398  68.955  1.00  0.00    -0.157 C  
HETATM    7  N   UNL     1      -9.250   8.653  68.573  1.00  0.00    -0.138 NA 
HETATM    8  C   UNL     1      -8.571   9.452  69.582  1.00  0.00    -0.168 C  
BRANCH   7   9
HETATM    9  C   UNL     1      -9.316   9.018  67.247  1.00  0.00    -0.139 A  
HETATM   10  C   UNL     1      -9.920  10.051  65.437  1.00  0.00    -0.294 A  
HETATM   11  N   UNL     1     -10.256   9.799  66.741  1.00  0.00    -0.232 NA 
HETATM   12  C   UNL     1      -8.777   9.354  65.081  1.00  0.00    -0.181 A  
HETATM   13  N   UNL     1      -8.443   8.645  66.226  1.00  0.00    -0.120 NA 
HETATM   14  C   UNL     1      -8.197   9.447  63.806  1.00  0.00    -0.165 A  
HETATM   15  C   UNL     1      -8.811  10.298  62.882  1.00  0.00    -0.229 A  
HETATM   16  C   UNL     1      -9.967  11.004  63.216  1.00  0.00    -0.414 A  
HETATM   17  C   UNL     1     -10.539  10.882  64.490  1.00  0.00    -0.335 A  
BRANCH  13  18
HETATM   18  C   UNL     1      -7.411   7.616  66.214  1.00  0.00    -0.083 C  
BRANCH  18  19
HETATM   19  C   UNL     1      -7.943   6.220  66.469  1.00  0.00    -0.109 A  
HETATM   20  C   UNL     1      -9.123   5.825  65.817  1.00  0.00    -0.122 A  
HETATM   21  C   UNL     1      -9.760   4.637  66.174  1.00  0.00    -0.211 A  
HETATM   22  C   UNL     1      -9.203   3.828  67.157  1.00  0.00    -0.182 A  
HETATM   23  F   UNL     1      -9.861   2.734  67.563  1.00  0.00    -0.179 F  
HETATM   24  C   UNL     1      -7.985   4.146  67.737  1.00  0.00    -0.090 A  
HETATM   25  C   UNL     1      -7.342   5.329  67.376  1.00  0.00    -0.083 A  
ENDBRANCH  18  19
ENDBRANCH  13  18
ENDBRANCH   7   9
ENDBRANCH   2   3
BRANCH   2  26
HETATM   26  C   UNL     1      -9.380   5.669  72.029  1.00  0.00    -0.150 C  
HETATM   27  C   UNL     1      -9.038   3.624  71.048  1.00  0.00    -0.108 C  
HETATM   28  H   UNL     1     -10.790   5.698  73.519  1.00  0.00     0.000 HD 
HETATM   29  C   UNL     1     -10.612   3.772  72.838  1.00  0.00    -0.143 C  
HETATM   30  N   UNL     1      -8.737   4.956  71.142  1.00  0.00    -0.124 NA 
HETATM   31  O   UNL     1     -11.421   3.263  73.607  1.00  0.00    -0.200 OA 
HETATM   32  N   UNL     1     -10.303   5.098  72.853  1.00  0.00    -0.186 N  
HETATM   33  C   UNL     1      -9.908   2.981  71.822  1.00  0.00    -0.230 C  
ENDBRANCH   2  26
TORSDOF 5
ENDMDL
MODEL      172
REMARK 921   NORMALIZED FREE ENERGY PREDICTED BY IDOCK:   -4.32 KCAL/MOL
REMARK 922        TOTAL FREE ENERGY PREDICTED BY IDOCK:   -7.00 KCAL/MOL
REMARK 923 INTER-LIGAND FREE ENERGY PREDICTED BY IDOCK:   -5.85 KCAL/MOL
REMARK 924 INTRA-LIGAND FREE ENERGY PREDICTED BY IDOCK:   -1.15 KCAL/MOL
REMARK 927      BINDING AFFINITY PREDICTED BY RF-SCORE:    0.00 PKD
ROOT
HETATM    1  C   UNL     1      -6.551   6.258  66.933  1.00  0.00    -0.059 C  
HETATM    2  N   UNL     1      -7.494   5.123  67.021  1.00  0.00    -0.086 NA 
ENDROOT
BRANCH   2   3
HETATM    3  C   UNL     1      -8.404   5.203  68.201  1.00  0.00    -0.097 C  
HETATM    4  C   UNL     1      -9.816   5.623  67.820  1.00  0.00    -0.153 C  
HETATM    5  C   UNL     1      -7.864   5.936  69.420  1.00  0.00    -0.094 C  
HETATM    6  C   UNL     1     -10.050   7.122  67.836  1.00  0.00    -0.173 C  
HETATM    7  N   UNL     1      -9.637   7.745  69.094  1.00  0.00    -0.155 NA 
HETATM    8  C   UNL     1      -8.390   7.338  69.727  1.00  0.00    -0.135 C  
BRANCH   7   9
HETATM    9  C   UNL     1     -10.467   8.706  69.625  1.00  0.00    -0.220 A  
HETATM   10  C   UNL     1     -12.046   9.627  70.794  1.00  0.00    -0.248 A  
HETATM   11  N   UNL     1     -11.561   8.438  70.317  1.00  0.00    -0.074 NA 
HETATM   12  C   UNL     1     -11.284  10.687  70.333  1.00  0.00    -0.252 A  
HETATM   13  N   UNL     1     -10.321  10.090  69.532  1.00  0.00    -0.219 NA 
HETATM   14  C   UNL     1     -11.545  12.021  70.687  1.00  0.00     0.328 A  
HETATM   15  C   UNL     1     -12.615  12.257  71.555  1.00  0.00    -0.258 A  
HETATM   16  C   UNL     1     -13.401  11.205  72.026  1.00  0.00    -0.384 A  
HETATM   17  C   UNL     1     -13.133   9.883  71.644  1.00  0.00    -0.538 A  
BRANCH  13  18
HETATM   18  C   UNL     1      -9.438  10.877  68.682  1.00  0.00    -0.190 C  
BRANCH  18  19
HETATM   19  C   UNL     1     -10.106  11.387  67.420  1.00  0.00    -0.208 A  
HETATM   20  C   UNL     1     -10.835  12.585  67.487  1.00  0.00    -0.264 A  
HETATM   21  C   UNL     1     -11.632  12.984  66.414  1.00  0.00    -0.413 A  
HETATM   22  C   UNL     1     -11.676  12.206  65.264  1.00  0.00    -0.308 A  
HETATM   23  F   UNL     1     -12.510  12.542  64.271  1.00  0.00    -0.454 F  
HETATM   24  C   UNL     1     -10.882  11.076  65.137  1.00  0.00    -0.183 A  
HETATM   25  C   UNL     1     -10.078  10.680  66.204  1.00  0.00    -0.306 A  
ENDBRANCH  18  19
ENDBRANCH  13  18
ENDBRANCH   7   9
ENDBRANCH   2   3
BRANCH   2  26
HETATM   26  C   UNL     1      -7.875   4.586  65.806  1.00  0.00    -0.095 C  
HETATM   27  C   UNL     1      -8.593   2.880  64.451  1.00  0.00    -0.095 C  
HETATM   28  H   UNL     1      -7.600   6.389  64.868  1.00  0.00     0.000 HD 
HETATM   29  C   UNL     1      -8.295   5.044  63.485  1.00  0.00    -0.123 C  
HETATM   30  N   UNL     1      -8.228   3.332  65.689  1.00  0.00    -0.096 NA 
HETATM   31  O   UNL     1      -8.342   5.815  62.533  1.00  0.00    -0.104 OA 
HETATM   32  N   UNL     1      -7.898   5.423  64.731  1.00  0.00    -0.097 N  
HETATM   33  C   UNL     1      -8.663   3.630  63.353  1.00  0.00    -0.096 C  
ENDBRANCH   2  26
TORSDOF 5
ENDMDL
MODEL      173
REMARK 921   NORMALIZED FREE ENERGY PREDICTED BY IDOCK:   -4.27 KCAL/MOL
REMARK 922        TOTAL FREE ENERGY PREDICTED BY IDOCK:   -6.93 KCAL/MOL
REMARK 923 INTER-LIGAND FREE ENERGY PREDICTED BY IDOCK:   -6.19 KCAL/MOL
REMARK 924 INTRA-LIGAND FREE ENERGY PREDICTED BY IDOCK:   -0.73 KCAL/MOL
REMARK 927      BINDING AFFINITY PREDICTED BY RF-SCORE:    0.00 PKD
ROOT
HETATM    1  C   UNL     1     -10.032  10.315  66.044  1.00  0.00    -0.245 C  
HETATM    2  N   UNL     1      -9.070   9.332  66.588  1.00  0.00    -0.138 NA 
ENDROOT
BRANCH   2   3
HETATM    3  C   UNL     1      -8.101   9.929  67.554  1.00  0.00    -0.110 C  
HETATM    4  C   UNL     1      -8.782  10.816  68.587  1.00  0.00    -0.152 C  
HETATM    5  C   UNL     1      -6.849  10.552  66.955  1.00  0.00    -0.091 C  
HETATM    6  C   UNL     1      -8.908  12.272  68.179  1.00  0.00    -0.187 C  
HETATM    7  N   UNL     1      -7.635  12.849  67.746  1.00  0.00    -0.126 NA 
HETATM    8  C   UNL     1      -6.743  12.076  66.894  1.00  0.00    -0.040 C  
BRANCH   7   9
HETATM    9  C   UNL     1      -7.343  14.124  68.175  1.00  0.00    -0.130 A  
HETATM   10  C   UNL     1      -6.548  15.747  69.375  1.00  0.00    -0.174 A  
HETATM   11  N   UNL     1      -6.826  14.406  69.358  1.00  0.00    -0.129 NA 
HETATM   12  C   UNL     1      -6.968  16.350  68.201  1.00  0.00    -0.132 A  
HETATM   13  N   UNL     1      -7.536  15.314  67.473  1.00  0.00    -0.173 NA 
HETATM   14  C   UNL     1      -6.785  17.718  67.942  1.00  0.00    -0.192 A  
HETATM   15  C   UNL     1      -6.137  18.476  68.922  1.00  0.00    -0.229 A  
HETATM   16  C   UNL     1      -5.713  17.891  70.115  1.00  0.00    -0.227 A  
HETATM   17  C   UNL     1      -5.921  16.527  70.359  1.00  0.00     0.044 A  
BRANCH  13  18
HETATM   18  C   UNL     1      -8.292  15.563  66.253  1.00  0.00     0.026 C  
BRANCH  18  19
HETATM   19  C   UNL     1      -9.654  14.898  66.237  1.00  0.00    -0.334 A  
HETATM   20  C   UNL     1      -9.958  14.022  65.182  1.00  0.00    -0.257 A  
HETATM   21  C   UNL     1     -11.259  13.551  65.012  1.00  0.00    -0.334 A  
HETATM   22  C   UNL     1     -12.249  13.926  65.913  1.00  0.00    -0.467 A  
HETATM   23  F   UNL     1     -13.515  13.547  65.698  1.00  0.00    -0.267 F  
HETATM   24  C   UNL     1     -11.947  14.703  67.021  1.00  0.00    -0.301 A  
HETATM   25  C   UNL     1     -10.645  15.169  67.198  1.00  0.00    -0.295 A  
ENDBRANCH  18  19
ENDBRANCH  13  18
ENDBRANCH   7   9
ENDBRANCH   2   3
BRANCH   2  26
HETATM   26  C   UNL     1      -9.554   8.043  66.700  1.00  0.00    -0.230 C  
HETATM   27  C   UNL     1     -10.982   6.452  67.531  1.00  0.00    -0.364 C  
HETATM   28  H   UNL     1      -8.160   7.353  65.362  1.00  0.00     0.000 HD 
HETATM   29  C   UNL     1      -9.353   5.780  65.917  1.00  0.00    -0.077 C  
HETATM   30  N   UNL     1     -10.564   7.753  67.478  1.00  0.00    -0.262 NA 
HETATM   31  O   UNL     1      -8.826   4.931  65.207  1.00  0.00    -0.143 OA 
HETATM   32  N   UNL     1      -8.954   7.082  65.943  1.00  0.00    -0.111 N  
HETATM   33  C   UNL     1     -10.468   5.455  66.813  1.00  0.00    -0.347 C  
ENDBRANCH   2  26
TORSDOF 5
ENDMDL
MODEL      174
REMARK 921   NORMALIZED FREE ENERGY PREDICTED BY IDOCK:   -4.26 KCAL/MOL
REMARK 922        TOTAL FREE ENERGY PREDICTED BY IDOCK:   -6.92 KCAL/MOL
REMARK 923 INTER-LIGAND FREE ENERGY PREDICTED BY IDOCK:   -6.41 KCAL/MOL
REMARK 924 INTRA-LIGAND FREE ENERGY PREDICTED BY IDOCK:   -0.51 KCAL/MOL
REMARK 927      BINDING AFFINITY PREDICTED BY RF-SCORE:    0.00 PKD
ROOT
HETATM    1  C   UNL     1      -8.279  12.908  67.925  1.00  0.00    -0.165 C  
HETATM    2  N   UNL     1      -9.061  12.673  66.692  1.00  0.00    -0.217 NA 
ENDROOT
BRANCH   2   3
HETATM    3  C   UNL     1      -9.700  11.325  66.648  1.00  0.00    -0.196 C  
HETATM    4  C   UNL     1     -10.838  11.187  67.649  1.00  0.00    -0.295 C  
HETATM    5  C   UNL     1      -8.756  10.132  66.639  1.00  0.00    -0.134 C  
HETATM    6  C   UNL     1     -10.414  10.680  69.015  1.00  0.00    -0.214 C  
HETATM    7  N   UNL     1      -9.625   9.449  68.940  1.00  0.00    -0.153 NA 
HETATM    8  C   UNL     1      -8.600   9.308  67.917  1.00  0.00    -0.120 C  
BRANCH   7   9
HETATM    9  C   UNL     1      -9.901   8.467  69.865  1.00  0.00    -0.186 A  
HETATM   10  C   UNL     1     -11.018   7.105  71.132  1.00  0.00    -0.248 A  
HETATM   11  N   UNL     1     -11.105   8.231  70.356  1.00  0.00    -0.249 NA 
HETATM   12  C   UNL     1      -9.709   6.656  71.198  1.00  0.00    -0.174 A  
HETATM   13  N   UNL     1      -8.997   7.575  70.440  1.00  0.00    -0.152 NA 
HETATM   14  C   UNL     1      -9.337   5.504  71.909  1.00  0.00    -0.163 A  
HETATM   15  C   UNL     1     -10.352   4.793  72.556  1.00  0.00    -0.259 A  
HETATM   16  C   UNL     1     -11.675   5.232  72.510  1.00  0.00    -0.112 A  
HETATM   17  C   UNL     1     -12.021   6.394  71.808  1.00  0.00    -0.370 A  
BRANCH  13  18
HETATM   18  C   UNL     1      -7.540   7.585  70.423  1.00  0.00    -0.090 C  
BRANCH  18  19
HETATM   19  C   UNL     1      -6.932   6.345  69.799  1.00  0.00    -0.067 A  
HETATM   20  C   UNL     1      -7.432   5.905  68.562  1.00  0.00    -0.086 A  
HETATM   21  C   UNL     1      -7.052   4.665  68.051  1.00  0.00    -0.061 A  
HETATM   22  C   UNL     1      -6.149   3.878  68.755  1.00  0.00    -0.028 A  
HETATM   23  F   UNL     1      -5.854   2.651  68.309  1.00  0.00    -0.020 F  
HETATM   24  C   UNL     1      -5.562   4.340  69.924  1.00  0.00    -0.013 A  
HETATM   25  C   UNL     1      -5.934   5.583  70.433  1.00  0.00    -0.025 A  
ENDBRANCH  18  19
ENDBRANCH  13  18
ENDBRANCH   7   9
ENDBRANCH   2   3
BRANCH   2  26
HETATM   26  C   UNL     1      -9.638  13.803  66.143  1.00  0.00    -0.216 C  
HETATM   27  C   UNL     1      -9.747  16.056  65.730  1.00  0.00    -0.305 C  
HETATM   28  H   UNL     1     -11.142  12.687  65.307  1.00  0.00     0.000 HD 
HETATM   29  C   UNL     1     -11.410  14.644  64.757  1.00  0.00    -0.396 C  
HETATM   30  N   UNL     1      -9.115  14.990  66.308  1.00  0.00    -0.280 NA 
HETATM   31  O   UNL     1     -12.404  14.471  64.060  1.00  0.00    -0.697 OA 
HETATM   32  N   UNL     1     -10.763  13.630  65.395  1.00  0.00    -0.297 N  
HETATM   33  C   UNL     1     -10.837  15.978  64.968  1.00  0.00    -0.421 C  
ENDBRANCH   2  26
TORSDOF 5
ENDMDL
MODEL      175
REMARK 921   NORMALIZED FREE ENERGY PREDICTED BY IDOCK:   -4.22 KCAL/MOL
REMARK 922        TOTAL FREE ENERGY PREDICTED BY IDOCK:   -6.87 KCAL/MOL
REMARK 923 INTER-LIGAND FREE ENERGY PREDICTED BY IDOCK:   -6.04 KCAL/MOL
REMARK 924 INTRA-LIGAND FREE ENERGY PREDICTED BY IDOCK:   -0.83 KCAL/MOL
REMARK 927      BINDING AFFINITY PREDICTED BY RF-SCORE:    0.00 PKD
ROOT
HETATM    1  C   UNL     1      -5.833   5.400  63.743  1.00  0.00    -0.021 C  
HETATM    2  N   UNL     1      -5.952   6.518  64.703  1.00  0.00    -0.033 NA 
ENDROOT
BRANCH   2   3
HETATM    3  C   UNL     1      -6.119   7.845  64.042  1.00  0.00    -0.057 C  
HETATM    4  C   UNL     1      -6.187   8.989  65.044  1.00  0.00    -0.065 C  
HETATM    5  C   UNL     1      -7.183   7.929  62.958  1.00  0.00    -0.091 C  
HETATM    6  C   UNL     1      -7.587   9.318  65.527  1.00  0.00    -0.091 C  
HETATM    7  N   UNL     1      -8.530   9.525  64.427  1.00  0.00    -0.168 NA 
HETATM    8  C   UNL     1      -8.500   8.638  63.273  1.00  0.00    -0.084 C  
BRANCH   7   9
HETATM    9  C   UNL     1      -9.418  10.571  64.546  1.00  0.00    -0.276 A  
HETATM   10  C   UNL     1     -10.975  11.999  64.053  1.00  0.00    -0.381 A  
HETATM   11  N   UNL     1     -10.104  11.076  63.536  1.00  0.00    -0.349 NA 
HETATM   12  C   UNL     1     -10.787  12.138  65.418  1.00  0.00    -0.294 A  
HETATM   13  N   UNL     1      -9.743  11.271  65.707  1.00  0.00    -0.218 NA 
HETATM   14  C   UNL     1     -11.564  13.002  66.207  1.00  0.00    -0.408 A  
HETATM   15  C   UNL     1     -12.570  13.728  65.563  1.00  0.00    -0.551 A  
HETATM   16  C   UNL     1     -12.772  13.609  64.188  1.00  0.00    -0.008 A  
HETATM   17  C   UNL     1     -11.973  12.753  63.418  1.00  0.00    -0.613 A  
BRANCH  13  18
HETATM   18  C   UNL     1      -9.091  11.268  67.010  1.00  0.00    -0.163 C  
BRANCH  18  19
HETATM   19  C   UNL     1      -9.849  10.490  68.066  1.00  0.00    -0.166 A  
HETATM   20  C   UNL     1     -10.484  11.204  69.096  1.00  0.00    -0.211 A  
HETATM   21  C   UNL     1     -11.015  10.530  70.195  1.00  0.00    -0.338 A  
HETATM   22  C   UNL     1     -10.943   9.143  70.252  1.00  0.00    -0.245 A  
HETATM   23  F   UNL     1     -11.371   8.504  71.348  1.00  0.00    -0.268 F  
HETATM   24  C   UNL     1     -10.416   8.414  69.197  1.00  0.00    -0.218 A  
HETATM   25  C   UNL     1      -9.893   9.084  68.093  1.00  0.00    -0.191 A  
ENDBRANCH  18  19
ENDBRANCH  13  18
ENDBRANCH   7   9
ENDBRANCH   2   3
BRANCH   2  26
HETATM   26  C   UNL     1      -6.543   6.191  65.908  1.00  0.00    -0.047 C  
HETATM   27  C   UNL     1      -6.511   5.770  68.163  1.00  0.00    -0.043 C  
HETATM   28  H   UNL     1      -8.390   6.069  65.023  1.00  0.00     0.000 HD 
HETATM   29  C   UNL     1      -8.614   5.717  67.031  1.00  0.00    -0.110 C  
HETATM   30  N   UNL     1      -5.848   6.096  67.011  1.00  0.00    -0.016 NA 
HETATM   31  O   UNL     1      -9.832   5.578  67.026  1.00  0.00    -0.133 OA 
HETATM   32  N   UNL     1      -7.892   5.999  65.911  1.00  0.00    -0.103 N  
HETATM   33  C   UNL     1      -7.825   5.584  68.261  1.00  0.00    -0.089 C  
ENDBRANCH   2  26
TORSDOF 5
ENDMDL
MODEL      176
REMARK 921   NORMALIZED FREE ENERGY PREDICTED BY IDOCK:   -4.21 KCAL/MOL
REMARK 922        TOTAL FREE ENERGY PREDICTED BY IDOCK:   -6.86 KCAL/MOL
REMARK 923 INTER-LIGAND FREE ENERGY PREDICTED BY IDOCK:   -6.05 KCAL/MOL
REMARK 924 INTRA-LIGAND FREE ENERGY PREDICTED BY IDOCK:   -0.81 KCAL/MOL
REMARK 927      BINDING AFFINITY PREDICTED BY RF-SCORE:    0.00 PKD
ROOT
HETATM    1  C   UNL     1      -7.757   8.030  73.318  1.00  0.00    -0.157 C  
HETATM    2  N   UNL     1      -8.457   7.784  72.039  1.00  0.00    -0.109 NA 
ENDROOT
BRANCH   2   3
HETATM    3  C   UNL     1      -8.073   6.493  71.396  1.00  0.00    -0.112 C  
HETATM    4  C   UNL     1      -7.019   6.674  70.312  1.00  0.00    -0.066 C  
HETATM    5  C   UNL     1      -9.216   5.581  70.979  1.00  0.00    -0.174 C  
HETATM    6  C   UNL     1      -7.582   6.925  68.926  1.00  0.00    -0.105 C  
HETATM    7  N   UNL     1      -8.577   5.927  68.531  1.00  0.00    -0.111 NA 
HETATM    8  C   UNL     1      -9.570   5.475  69.495  1.00  0.00    -0.151 C  
BRANCH   7   9
HETATM    9  C   UNL     1      -8.520   5.457  67.238  1.00  0.00    -0.106 A  
HETATM   10  C   UNL     1      -8.804   4.171  65.514  1.00  0.00    -0.123 A  
HETATM   11  N   UNL     1      -8.856   4.229  66.882  1.00  0.00    -0.113 NA 
HETATM   12  C   UNL     1      -8.352   5.370  64.989  1.00  0.00    -0.145 A  
HETATM   13  N   UNL     1      -8.109   6.158  66.105  1.00  0.00    -0.111 NA 
HETATM   14  C   UNL     1      -8.224   5.595  63.609  1.00  0.00    -0.090 A  
HETATM   15  C   UNL     1      -8.590   4.553  62.752  1.00  0.00    -0.109 A  
HETATM   16  C   UNL     1      -9.041   3.334  63.259  1.00  0.00    -0.092 A  
HETATM   17  C   UNL     1      -9.143   3.126  64.641  1.00  0.00    -0.137 A  
BRANCH  13  18
HETATM   18  C   UNL     1      -7.419   7.438  66.002  1.00  0.00    -0.083 C  
BRANCH  18  19
HETATM   19  C   UNL     1      -8.283   8.549  65.440  1.00  0.00    -0.145 A  
HETATM   20  C   UNL     1      -7.916   9.127  64.214  1.00  0.00    -0.139 A  
HETATM   21  C   UNL     1      -8.554  10.281  63.761  1.00  0.00    -0.190 A  
HETATM   22  C   UNL     1      -9.580  10.839  64.513  1.00  0.00    -0.270 A  
HETATM   23  F   UNL     1     -10.131  11.995  64.124  1.00  0.00    -0.284 F  
HETATM   24  C   UNL     1     -10.029  10.224  65.672  1.00  0.00    -0.347 A  
HETATM   25  C   UNL     1      -9.399   9.066  66.123  1.00  0.00    -0.294 A  
ENDBRANCH  18  19
ENDBRANCH  13  18
ENDBRANCH   7   9
ENDBRANCH   2   3
BRANCH   2  26
HETATM   26  C   UNL     1      -9.727   8.323  71.956  1.00  0.00    -0.252 C  
HETATM   27  C   UNL     1     -11.928   8.496  72.579  1.00  0.00    -0.331 C  
HETATM   28  H   UNL     1      -9.136   9.608  70.470  1.00  0.00     0.000 HD 
HETATM   29  C   UNL     1     -11.106   9.983  70.900  1.00  0.00    -0.314 C  
HETATM   30  N   UNL     1     -10.700   7.908  72.724  1.00  0.00    -0.344 NA 
HETATM   31  O   UNL     1     -11.260  10.909  70.111  1.00  0.00    -0.288 OA 
HETATM   32  N   UNL     1      -9.922   9.329  71.058  1.00  0.00    -0.292 N  
HETATM   33  C   UNL     1     -12.203   9.495  71.744  1.00  0.00    -0.465 C  
ENDBRANCH   2  26
TORSDOF 5
ENDMDL
MODEL      177
REMARK 921   NORMALIZED FREE ENERGY PREDICTED BY IDOCK:   -4.20 KCAL/MOL
REMARK 922        TOTAL FREE ENERGY PREDICTED BY IDOCK:   -6.84 KCAL/MOL
REMARK 923 INTER-LIGAND FREE ENERGY PREDICTED BY IDOCK:   -5.56 KCAL/MOL
REMARK 924 INTRA-LIGAND FREE ENERGY PREDICTED BY IDOCK:   -1.28 KCAL/MOL
REMARK 927      BINDING AFFINITY PREDICTED BY RF-SCORE:    0.00 PKD
ROOT
HETATM    1  C   UNL     1      -5.727   6.115  63.435  1.00  0.00    -0.022 C  
HETATM    2  N   UNL     1      -6.146   6.990  64.550  1.00  0.00    -0.036 NA 
ENDROOT
BRANCH   2   3
HETATM    3  C   UNL     1      -6.556   8.354  64.106  1.00  0.00    -0.071 C  
HETATM    4  C   UNL     1      -6.159   9.434  65.102  1.00  0.00    -0.069 C  
HETATM    5  C   UNL     1      -7.983   8.498  63.597  1.00  0.00    -0.161 C  
HETATM    6  C   UNL     1      -7.205   9.724  66.163  1.00  0.00    -0.100 C  
HETATM    7  N   UNL     1      -8.527   9.992  65.595  1.00  0.00    -0.142 NA 
HETATM    8  C   UNL     1      -9.018   9.178  64.492  1.00  0.00    -0.079 C  
BRANCH   7   9
HETATM    9  C   UNL     1      -9.253  11.023  66.147  1.00  0.00    -0.190 A  
HETATM   10  C   UNL     1     -10.592  12.722  66.316  1.00  0.00    -0.257 A  
HETATM   11  N   UNL     1      -9.867  11.956  65.441  1.00  0.00    -0.240 NA 
HETATM   12  C   UNL     1     -10.376  12.311  67.621  1.00  0.00    -0.204 A  
HETATM   13  N   UNL     1      -9.465  11.271  67.503  1.00  0.00    -0.168 NA 
HETATM   14  C   UNL     1     -11.013  12.909  68.720  1.00  0.00    -0.292 A  
HETATM   15  C   UNL     1     -11.910  13.949  68.454  1.00  0.00    -0.409 A  
HETATM   16  C   UNL     1     -12.136  14.383  67.148  1.00  0.00    -0.367 A  
HETATM   17  C   UNL     1     -11.475  13.783  66.068  1.00  0.00    -0.336 A  
BRANCH  13  18
HETATM   18  C   UNL     1      -8.810  10.693  68.669  1.00  0.00    -0.151 C  
BRANCH  18  19
HETATM   19  C   UNL     1      -9.572   9.534  69.280  1.00  0.00    -0.179 A  
HETATM   20  C   UNL     1      -9.746   8.370  68.514  1.00  0.00    -0.169 A  
HETATM   21  C   UNL     1     -10.608   7.364  68.948  1.00  0.00    -0.191 A  
HETATM   22  C   UNL     1     -11.271   7.503  70.162  1.00  0.00    -0.196 A  
HETATM   23  F   UNL     1     -12.166   6.580  70.535  1.00  0.00    -0.442 F  
HETATM   24  C   UNL     1     -11.031   8.595  70.983  1.00  0.00    -0.314 A  
HETATM   25  C   UNL     1     -10.163   9.598  70.555  1.00  0.00    -0.351 A  
ENDBRANCH  18  19
ENDBRANCH  13  18
ENDBRANCH   7   9
ENDBRANCH   2   3
BRANCH   2  26
HETATM   26  C   UNL     1      -6.727   6.335  65.619  1.00  0.00    -0.048 C  
HETATM   27  C   UNL     1      -8.477   5.318  66.697  1.00  0.00    -0.107 C  
HETATM   28  H   UNL     1      -4.966   6.389  66.671  1.00  0.00     0.000 HD 
HETATM   29  C   UNL     1      -6.358   5.388  67.796  1.00  0.00    -0.039 C  
HETATM   30  N   UNL     1      -7.980   5.962  65.597  1.00  0.00    -0.112 NA 
HETATM   31  O   UNL     1      -5.625   5.123  68.743  1.00  0.00    -0.013 OA 
HETATM   32  N   UNL     1      -5.933   6.065  66.693  1.00  0.00    -0.021 N  
HETATM   33  C   UNL     1      -7.772   4.996  67.779  1.00  0.00    -0.087 C  
ENDBRANCH   2  26
TORSDOF 5
ENDMDL
MODEL      178
REMARK 921   NORMALIZED FREE ENERGY PREDICTED BY IDOCK:   -4.18 KCAL/MOL
REMARK 922        TOTAL FREE ENERGY PREDICTED BY IDOCK:   -6.81 KCAL/MOL
REMARK 923 INTER-LIGAND FREE ENERGY PREDICTED BY IDOCK:   -6.02 KCAL/MOL
REMARK 924 INTRA-LIGAND FREE ENERGY PREDICTED BY IDOCK:   -0.79 KCAL/MOL
REMARK 927      BINDING AFFINITY PREDICTED BY RF-SCORE:    0.00 PKD
ROOT
HETATM    1  C   UNL     1      -6.962   7.389  66.085  1.00  0.00    -0.065 C  
HETATM    2  N   UNL     1      -7.252   7.600  67.520  1.00  0.00    -0.085 NA 
ENDROOT
BRANCH   2   3
HETATM    3  C   UNL     1      -8.402   8.519  67.760  1.00  0.00    -0.130 C  
HETATM    4  C   UNL     1      -8.532   9.583  66.680  1.00  0.00    -0.136 C  
HETATM    5  C   UNL     1      -8.542   9.071  69.171  1.00  0.00    -0.133 C  
HETATM    6  C   UNL     1      -7.760  10.859  66.961  1.00  0.00    -0.129 C  
HETATM    7  N   UNL     1      -8.048  11.414  68.284  1.00  0.00    -0.136 NA 
HETATM    8  C   UNL     1      -8.154  10.526  69.433  1.00  0.00    -0.128 C  
BRANCH   7   9
HETATM    9  C   UNL     1      -8.207  12.779  68.375  1.00  0.00    -0.128 A  
HETATM   10  C   UNL     1      -7.727  14.888  68.537  1.00  0.00    -0.123 A  
HETATM   11  N   UNL     1      -7.232  13.618  68.676  1.00  0.00    -0.106 NA 
HETATM   12  C   UNL     1      -9.073  14.856  68.213  1.00  0.00    -0.179 A  
HETATM   13  N   UNL     1      -9.382  13.504  68.181  1.00  0.00    -0.209 NA 
HETATM   14  C   UNL     1      -9.828  16.019  67.990  1.00  0.00    -0.222 A  
HETATM   15  C   UNL     1      -9.163  17.245  68.091  1.00  0.00    -0.267 A  
HETATM   16  C   UNL     1      -7.810  17.301  68.424  1.00  0.00    -0.254 A  
HETATM   17  C   UNL     1      -7.081  16.128  68.660  1.00  0.00    -0.147 A  
BRANCH  13  18
HETATM   18  C   UNL     1     -10.759  13.037  68.079  1.00  0.00    -0.232 C  
BRANCH  18  19
HETATM   19  C   UNL     1     -11.221  12.819  66.653  1.00  0.00    -0.344 A  
HETATM   20  C   UNL     1     -12.259  13.625  66.156  1.00  0.00    -0.490 A  
HETATM   21  C   UNL     1     -12.855  13.329  64.931  1.00  0.00    -0.321 A  
HETATM   22  C   UNL     1     -12.395  12.249  64.186  1.00  0.00    -0.451 A  
HETATM   23  F   UNL     1     -13.026  11.911  63.055  1.00  0.00    -0.665 F  
HETATM   24  C   UNL     1     -11.303  11.506  64.608  1.00  0.00    -0.226 A  
HETATM   25  C   UNL     1     -10.700  11.806  65.828  1.00  0.00    -0.328 A  
ENDBRANCH  18  19
ENDBRANCH  13  18
ENDBRANCH   7   9
ENDBRANCH   2   3
BRANCH   2  26
HETATM   26  C   UNL     1      -6.957   6.526  68.338  1.00  0.00    -0.080 C  
HETATM   27  C   UNL     1      -5.533   4.994  69.281  1.00  0.00    -0.008 C  
HETATM   28  H   UNL     1      -8.917   6.372  68.924  1.00  0.00     0.000 HD 
HETATM   29  C   UNL     1      -7.831   4.955  69.932  1.00  0.00    -0.066 C  
HETATM   30  N   UNL     1      -5.740   6.060  68.448  1.00  0.00    -0.011 NA 
HETATM   31  O   UNL     1      -8.756   4.497  70.594  1.00  0.00    -0.091 OA 
HETATM   32  N   UNL     1      -7.983   5.985  69.053  1.00  0.00    -0.102 N  
HETATM   33  C   UNL     1      -6.470   4.417  70.030  1.00  0.00    -0.032 C  
ENDBRANCH   2  26
TORSDOF 5
ENDMDL
MODEL      179
REMARK 921   NORMALIZED FREE ENERGY PREDICTED BY IDOCK:   -4.15 KCAL/MOL
REMARK 922        TOTAL FREE ENERGY PREDICTED BY IDOCK:   -6.77 KCAL/MOL
REMARK 923 INTER-LIGAND FREE ENERGY PREDICTED BY IDOCK:   -5.48 KCAL/MOL
REMARK 924 INTRA-LIGAND FREE ENERGY PREDICTED BY IDOCK:   -1.29 KCAL/MOL
REMARK 927      BINDING AFFINITY PREDICTED BY RF-SCORE:    0.00 PKD
ROOT
HETATM    1  C   UNL     1     -10.016  13.631  65.577  1.00  0.00    -0.224 C  
HETATM    2  N   UNL     1     -10.298  13.627  67.028  1.00  0.00    -0.258 NA 
ENDROOT
BRANCH   2   3
HETATM    3  C   UNL     1      -9.890  12.361  67.703  1.00  0.00    -0.198 C  
HETATM    4  C   UNL     1      -8.438  11.995  67.426  1.00  0.00    -0.170 C  
HETATM    5  C   UNL     1     -10.845  11.185  67.565  1.00  0.00    -0.303 C  
HETATM    6  C   UNL     1      -8.233  11.128  66.198  1.00  0.00    -0.128 C  
HETATM    7  N   UNL     1      -9.085   9.938  66.198  1.00  0.00    -0.152 NA 
HETATM    8  C   UNL     1     -10.475  10.044  66.617  1.00  0.00    -0.174 C  
BRANCH   7   9
HETATM    9  C   UNL     1      -8.513   8.753  65.792  1.00  0.00    -0.148 A  
HETATM   10  C   UNL     1      -7.901   7.109  64.516  1.00  0.00    -0.121 A  
HETATM   11  N   UNL     1      -8.739   8.187  64.619  1.00  0.00     0.069 NA 
HETATM   12  C   UNL     1      -7.176   6.939  65.684  1.00  0.00    -0.073 A  
HETATM   13  N   UNL     1      -7.627   7.955  66.514  1.00  0.00    -0.091 NA 
HETATM   14  C   UNL     1      -6.222   5.920  65.844  1.00  0.00    -0.037 A  
HETATM   15  C   UNL     1      -6.007   5.066  64.758  1.00  0.00    -0.021 A  
HETATM   16  C   UNL     1      -6.732   5.214  63.576  1.00  0.00    -0.037 A  
HETATM   17  C   UNL     1      -7.692   6.227  63.445  1.00  0.00    -0.098 A  
BRANCH  13  18
HETATM   18  C   UNL     1      -7.265   8.007  67.924  1.00  0.00    -0.091 C  
BRANCH  18  19
HETATM   19  C   UNL     1      -8.419   7.704  68.859  1.00  0.00    -0.129 A  
HETATM   20  C   UNL     1      -8.816   8.693  69.774  1.00  0.00    -0.137 A  
HETATM   21  C   UNL     1      -9.727   8.390  70.785  1.00  0.00    -0.207 A  
HETATM   22  C   UNL     1     -10.268   7.113  70.863  1.00  0.00    -0.197 A  
HETATM   23  F   UNL     1     -11.073   6.798  71.885  1.00  0.00    -0.245 F  
HETATM   24  C   UNL     1      -9.972   6.154  69.906  1.00  0.00    -0.215 A  
HETATM   25  C   UNL     1      -9.067   6.456  68.889  1.00  0.00    -0.129 A  
ENDBRANCH  18  19
ENDBRANCH  13  18
ENDBRANCH   7   9
ENDBRANCH   2   3
BRANCH   2  26
HETATM   26  C   UNL     1     -10.234  14.865  67.638  1.00  0.00    -0.236 C  
HETATM   27  C   UNL     1      -9.577  17.059  67.765  1.00  0.00    -0.244 C  
HETATM   28  H   UNL     1     -11.374  14.202  69.210  1.00  0.00     0.000 HD 
HETATM   29  C   UNL     1     -10.959  16.188  69.508  1.00  0.00    -0.341 C  
HETATM   30  N   UNL     1      -9.590  15.865  67.096  1.00  0.00    -0.216 NA 
HETATM   31  O   UNL     1     -11.586  16.319  70.554  1.00  0.00    -0.343 OA 
HETATM   32  N   UNL     1     -10.897  15.015  68.819  1.00  0.00    -0.240 N  
HETATM   33  C   UNL     1     -10.211  17.300  68.911  1.00  0.00    -0.349 C  
ENDBRANCH   2  26
TORSDOF 5
ENDMDL
MODEL      180
REMARK 921   NORMALIZED FREE ENERGY PREDICTED BY IDOCK:   -4.13 KCAL/MOL
REMARK 922        TOTAL FREE ENERGY PREDICTED BY IDOCK:   -6.75 KCAL/MOL
REMARK 923 INTER-LIGAND FREE ENERGY PREDICTED BY IDOCK:   -5.93 KCAL/MOL
REMARK 924 INTRA-LIGAND FREE ENERGY PREDICTED BY IDOCK:   -0.82 KCAL/MOL
REMARK 927      BINDING AFFINITY PREDICTED BY RF-SCORE:    0.00 PKD
ROOT
HETATM    1  C   UNL     1      -6.958  15.342  67.140  1.00  0.00    -0.050 C  
HETATM    2  N   UNL     1      -6.571  14.838  68.475  1.00  0.00    -0.089 NA 
ENDROOT
BRANCH   2   3
HETATM    3  C   UNL     1      -6.016  13.453  68.442  1.00  0.00    -0.092 C  
HETATM    4  C   UNL     1      -6.226  12.774  67.096  1.00  0.00     0.086 C  
HETATM    5  C   UNL     1      -6.356  12.562  69.627  1.00  0.00    -0.100 C  
HETATM    6  C   UNL     1      -7.526  12.000  66.980  1.00  0.00    -0.106 C  
HETATM    7  N   UNL     1      -7.724  11.058  68.082  1.00  0.00    -0.101 NA 
HETATM    8  C   UNL     1      -7.399  11.459  69.443  1.00  0.00     0.015 C  
BRANCH   7   9
HETATM    9  C   UNL     1      -8.220   9.813  67.766  1.00  0.00    -0.114 A  
HETATM   10  C   UNL     1      -8.287   7.696  67.299  1.00  0.00    -0.115 A  
HETATM   11  N   UNL     1      -7.469   8.791  67.395  1.00  0.00    -0.088 NA 
HETATM   12  C   UNL     1      -9.605   8.046  67.543  1.00  0.00    -0.153 A  
HETATM   13  N   UNL     1      -9.556   9.413  67.771  1.00  0.00    -0.132 NA 
HETATM   14  C   UNL     1     -10.653   7.111  67.532  1.00  0.00    -0.348 A  
HETATM   15  C   UNL     1     -10.321   5.777  67.277  1.00  0.00    -0.284 A  
HETATM   16  C   UNL     1      -9.002   5.404  67.022  1.00  0.00    -0.112 A  
HETATM   17  C   UNL     1      -7.974   6.357  67.020  1.00  0.00    -0.109 A  
BRANCH  13  18
HETATM   18  C   UNL     1     -10.768  10.217  67.862  1.00  0.00    -0.269 C  
BRANCH  18  19
HETATM   19  C   UNL     1     -10.901  11.242  66.754  1.00  0.00    -0.334 A  
HETATM   20  C   UNL     1     -11.369  12.525  67.082  1.00  0.00    -0.381 A  
HETATM   21  C   UNL     1     -11.702  13.431  66.076  1.00  0.00    -0.398 A  
HETATM   22  C   UNL     1     -11.537  13.070  64.744  1.00  0.00    -0.329 A  
HETATM   23  F   UNL     1     -11.941  13.905  63.779  1.00  0.00    -0.453 F  
HETATM   24  C   UNL     1     -10.977  11.849  64.401  1.00  0.00    -0.392 A  
HETATM   25  C   UNL     1     -10.635  10.945  65.405  1.00  0.00    -0.243 A  
ENDBRANCH  18  19
ENDBRANCH  13  18
ENDBRANCH   7   9
ENDBRANCH   2   3
BRANCH   2  26
HETATM   26  C   UNL     1      -6.140  15.805  69.362  1.00  0.00    -0.138 C  
HETATM   27  C   UNL     1      -5.150  16.512  71.306  1.00  0.00    -0.061 C  
HETATM   28  H   UNL     1      -6.815  17.302  68.131  1.00  0.00     0.000 HD 
HETATM   29  C   UNL     1      -5.920  18.164  69.763  1.00  0.00    -0.231 C  
HETATM   30  N   UNL     1      -5.547  15.493  70.484  1.00  0.00    -0.148 NA 
HETATM   31  O   UNL     1      -6.071  19.331  69.419  1.00  0.00    -0.246 OA 
HETATM   32  N   UNL     1      -6.333  17.107  69.009  1.00  0.00    -0.192 N  
HETATM   33  C   UNL     1      -5.280  17.808  71.034  1.00  0.00    -0.224 C  
ENDBRANCH   2  26
TORSDOF 5
ENDMDL
MODEL      181
REMARK 921   NORMALIZED FREE ENERGY PREDICTED BY IDOCK:   -4.12 KCAL/MOL
REMARK 922        TOTAL FREE ENERGY PREDICTED BY IDOCK:   -6.74 KCAL/MOL
REMARK 923 INTER-LIGAND FREE ENERGY PREDICTED BY IDOCK:   -5.13 KCAL/MOL
REMARK 924 INTRA-LIGAND FREE ENERGY PREDICTED BY IDOCK:   -1.61 KCAL/MOL
REMARK 927      BINDING AFFINITY PREDICTED BY RF-SCORE:    0.00 PKD
ROOT
HETATM    1  C   UNL     1      -8.832   6.750  72.605  1.00  0.00    -0.122 C  
HETATM    2  N   UNL     1      -8.184   7.333  71.410  1.00  0.00    -0.105 NA 
ENDROOT
BRANCH   2   3
HETATM    3  C   UNL     1      -8.154   8.825  71.426  1.00  0.00    -0.142 C  
HETATM    4  C   UNL     1      -9.543   9.436  71.310  1.00  0.00    -0.161 C  
HETATM    5  C   UNL     1      -7.125   9.488  70.522  1.00  0.00    -0.130 C  
HETATM    6  C   UNL     1      -9.997   9.697  69.886  1.00  0.00    -0.241 C  
HETATM    7  N   UNL     1      -9.018  10.462  69.112  1.00  0.00    -0.178 NA 
HETATM    8  C   UNL     1      -7.601  10.151  69.229  1.00  0.00    -0.117 C  
BRANCH   7   9
HETATM    9  C   UNL     1      -9.502  11.458  68.294  1.00  0.00    -0.187 A  
HETATM   10  C   UNL     1      -9.854  13.429  67.458  1.00  0.00    -0.227 A  
HETATM   11  N   UNL     1      -9.381  12.749  68.550  1.00  0.00    -0.135 NA 
HETATM   12  C   UNL     1     -10.357  12.551  66.514  1.00  0.00    -0.237 A  
HETATM   13  N   UNL     1     -10.189  11.300  67.091  1.00  0.00    -0.196 NA 
HETATM   14  C   UNL     1     -10.885  12.978  65.285  1.00  0.00    -0.311 A  
HETATM   15  C   UNL     1     -10.875  14.352  65.025  1.00  0.00    -0.420 A  
HETATM   16  C   UNL     1     -10.380  15.255  65.965  1.00  0.00    -0.327 A  
HETATM   17  C   UNL     1      -9.874  14.807  67.193  1.00  0.00    -0.232 A  
BRANCH  13  18
HETATM   18  C   UNL     1     -10.783  10.104  66.508  1.00  0.00    -0.048 C  
BRANCH  18  19
HETATM   19  C   UNL     1      -9.766   9.053  66.111  1.00  0.00    -0.354 A  
HETATM   20  C   UNL     1      -8.791   9.393  65.159  1.00  0.00    -0.233 A  
HETATM   21  C   UNL     1      -7.968   8.408  64.613  1.00  0.00    -0.147 A  
HETATM   22  C   UNL     1      -8.095   7.092  65.039  1.00  0.00    -0.119 A  
HETATM   23  F   UNL     1      -7.369   6.134  64.451  1.00  0.00    -0.055 F  
HETATM   24  C   UNL     1      -8.977   6.754  66.055  1.00  0.00    -0.129 A  
HETATM   25  C   UNL     1      -9.795   7.737  66.609  1.00  0.00    -0.295 A  
ENDBRANCH  18  19
ENDBRANCH  13  18
ENDBRANCH   7   9
ENDBRANCH   2   3
BRANCH   2  26
HETATM   26  C   UNL     1      -7.181   6.561  70.855  1.00  0.00    -0.071 C  
HETATM   27  C   UNL     1      -5.168   5.463  70.910  1.00  0.00    -0.005 C  
HETATM   28  H   UNL     1      -8.203   6.425  69.081  1.00  0.00     0.000 HD 
HETATM   29  C   UNL     1      -6.479   5.326  68.918  1.00  0.00    -0.042 C  
HETATM   30  N   UNL     1      -6.114   6.231  71.534  1.00  0.00    -0.039 NA 
HETATM   31  O   UNL     1      -6.667   4.917  67.777  1.00  0.00    -0.049 OA 
HETATM   32  N   UNL     1      -7.360   6.129  69.576  1.00  0.00    -0.078 N  
HETATM   33  C   UNL     1      -5.269   4.982  69.673  1.00  0.00     0.000 C  
ENDBRANCH   2  26
TORSDOF 5
ENDMDL
MODEL      182
REMARK 921   NORMALIZED FREE ENERGY PREDICTED BY IDOCK:   -4.09 KCAL/MOL
REMARK 922        TOTAL FREE ENERGY PREDICTED BY IDOCK:   -6.70 KCAL/MOL
REMARK 923 INTER-LIGAND FREE ENERGY PREDICTED BY IDOCK:   -5.42 KCAL/MOL
REMARK 924 INTRA-LIGAND FREE ENERGY PREDICTED BY IDOCK:   -1.28 KCAL/MOL
REMARK 927      BINDING AFFINITY PREDICTED BY RF-SCORE:    0.00 PKD
ROOT
HETATM    1  C   UNL     1      -9.047   7.238  72.397  1.00  0.00    -0.131 C  
HETATM    2  N   UNL     1     -10.443   6.756  72.473  1.00  0.00    -0.203 NA 
ENDROOT
BRANCH   2   3
HETATM    3  C   UNL     1     -11.401   7.599  71.700  1.00  0.00    -0.251 C  
HETATM    4  C   UNL     1     -11.568   7.123  70.265  1.00  0.00    -0.260 C  
HETATM    5  C   UNL     1     -11.220   9.105  71.819  1.00  0.00    -0.451 C  
HETATM    6  C   UNL     1     -10.595   7.743  69.280  1.00  0.00    -0.192 C  
HETATM    7  N   UNL     1     -10.575   9.205  69.351  1.00  0.00    -0.225 NA 
HETATM    8  C   UNL     1     -10.601   9.867  70.647  1.00  0.00    -0.271 C  
BRANCH   7   9
HETATM    9  C   UNL     1     -10.530   9.893  68.159  1.00  0.00    -0.215 A  
HETATM   10  C   UNL     1     -11.128  11.168  66.509  1.00  0.00    -0.167 A  
HETATM   11  N   UNL     1     -11.579  10.471  67.599  1.00  0.00    -0.368 NA 
HETATM   12  C   UNL     1      -9.770  10.969  66.327  1.00  0.00    -0.207 A  
HETATM   13  N   UNL     1      -9.415  10.098  67.347  1.00  0.00    -0.151 NA 
HETATM   14  C   UNL     1      -9.044  11.585  65.294  1.00  0.00    -0.027 A  
HETATM   15  C   UNL     1      -9.745  12.442  64.440  1.00  0.00     0.004 A  
HETATM   16  C   UNL     1     -11.115  12.650  64.600  1.00  0.00    -0.348 A  
HETATM   17  C   UNL     1     -11.822  12.011  65.627  1.00  0.00    -0.242 A  
BRANCH  13  18
HETATM   18  C   UNL     1      -8.103   9.467  67.390  1.00  0.00    -0.110 C  
BRANCH  18  19
HETATM   19  C   UNL     1      -8.110   8.020  66.941  1.00  0.00    -0.108 A  
HETATM   20  C   UNL     1      -7.334   7.093  67.656  1.00  0.00    -0.093 A  
HETATM   21  C   UNL     1      -7.147   5.803  67.163  1.00  0.00    -0.070 A  
HETATM   22  C   UNL     1      -7.760   5.426  65.974  1.00  0.00    -0.091 A  
HETATM   23  F   UNL     1      -7.508   4.218  65.455  1.00  0.00    -0.075 F  
HETATM   24  C   UNL     1      -8.616   6.290  65.309  1.00  0.00    -0.068 A  
HETATM   25  C   UNL     1      -8.812   7.578  65.805  1.00  0.00    -0.122 A  
ENDBRANCH  18  19
ENDBRANCH  13  18
ENDBRANCH   7   9
ENDBRANCH   2   3
BRANCH   2  26
HETATM   26  C   UNL     1     -10.581   5.388  72.613  1.00  0.00    -0.228 C  
HETATM   27  C   UNL     1     -11.652   3.498  73.348  1.00  0.00     0.062 C  
HETATM   28  H   UNL     1      -8.859   5.058  71.547  1.00  0.00     0.000 HD 
HETATM   29  C   UNL     1      -9.668   3.240  72.043  1.00  0.00    -0.165 C  
HETATM   30  N   UNL     1     -11.589   4.861  73.257  1.00  0.00    -0.293 NA 
HETATM   31  O   UNL     1      -8.828   2.542  71.484  1.00  0.00    -0.070 OA 
HETATM   32  N   UNL     1      -9.635   4.601  72.026  1.00  0.00    -0.145 N  
HETATM   33  C   UNL     1     -10.786   2.654  72.792  1.00  0.00    -0.141 C  
ENDBRANCH   2  26
TORSDOF 5
ENDMDL
MODEL      183
REMARK 921   NORMALIZED FREE ENERGY PREDICTED BY IDOCK:   -4.09 KCAL/MOL
REMARK 922        TOTAL FREE ENERGY PREDICTED BY IDOCK:   -6.69 KCAL/MOL
REMARK 923 INTER-LIGAND FREE ENERGY PREDICTED BY IDOCK:   -6.45 KCAL/MOL
REMARK 924 INTRA-LIGAND FREE ENERGY PREDICTED BY IDOCK:   -0.24 KCAL/MOL
REMARK 927      BINDING AFFINITY PREDICTED BY RF-SCORE:    0.00 PKD
ROOT
HETATM    1  C   UNL     1     -11.643  12.787  66.485  1.00  0.00    -0.376 C  
HETATM    2  N   UNL     1     -11.467  11.905  67.659  1.00  0.00    -0.347 NA 
ENDROOT
BRANCH   2   3
HETATM    3  C   UNL     1     -10.410  10.869  67.463  1.00  0.00    -0.202 C  
HETATM    4  C   UNL     1     -10.906   9.465  67.780  1.00  0.00    -0.223 C  
HETATM    5  C   UNL     1      -9.045  11.177  68.060  1.00  0.00    -0.153 C  
HETATM    6  C   UNL     1     -10.716   9.045  69.225  1.00  0.00    -0.174 C  
HETATM    7  N   UNL     1      -9.343   9.238  69.694  1.00  0.00    -0.169 NA 
HETATM    8  C   UNL     1      -8.619  10.448  69.335  1.00  0.00    -0.130 C  
BRANCH   7   9
HETATM    9  C   UNL     1      -8.796   8.240  70.470  1.00  0.00    -0.145 A  
HETATM   10  C   UNL     1      -7.424   7.185  71.778  1.00  0.00    -0.086 A  
HETATM   11  N   UNL     1      -7.565   8.268  70.950  1.00  0.00    -0.071 NA 
HETATM   12  C   UNL     1      -8.569   6.407  71.767  1.00  0.00    -0.128 A  
HETATM   13  N   UNL     1      -9.411   7.056  70.874  1.00  0.00    -0.157 NA 
HETATM   14  C   UNL     1      -8.707   5.247  72.546  1.00  0.00    -0.120 A  
HETATM   15  C   UNL     1      -7.632   4.895  73.368  1.00  0.00    -0.088 A  
HETATM   16  C   UNL     1      -6.465   5.659  73.388  1.00  0.00    -0.072 A  
HETATM   17  C   UNL     1      -6.344   6.804  72.589  1.00  0.00    -0.054 A  
BRANCH  13  18
HETATM   18  C   UNL     1     -10.651   6.446  70.414  1.00  0.00    -0.241 C  
BRANCH  18  19
HETATM   19  C   UNL     1     -10.458   5.465  69.275  1.00  0.00    -0.309 A  
HETATM   20  C   UNL     1      -9.771   4.268  69.532  1.00  0.00    -0.272 A  
HETATM   21  C   UNL     1      -9.391   3.435  68.480  1.00  0.00    -0.231 A  
HETATM   22  C   UNL     1      -9.725   3.779  67.176  1.00  0.00    -0.101 A  
HETATM   23  F   UNL     1      -9.282   3.026  66.161  1.00  0.00    -0.139 F  
HETATM   24  C   UNL     1     -10.495   4.901  66.910  1.00  0.00    -0.202 A  
HETATM   25  C   UNL     1     -10.884   5.731  67.960  1.00  0.00    -0.251 A  
ENDBRANCH  18  19
ENDBRANCH  13  18
ENDBRANCH   7   9
ENDBRANCH   2   3
BRANCH   2  26
HETATM   26  C   UNL     1     -11.729  12.497  68.879  1.00  0.00    -0.322 C  
HETATM   27  C   UNL     1     -12.425  12.474  71.064  1.00  0.00    -0.258 C  
HETATM   28  H   UNL     1     -11.112  14.324  68.178  1.00  0.00     0.000 HD 
HETATM   29  C   UNL     1     -11.625  14.531  70.153  1.00  0.00    -0.276 C  
HETATM   30  N   UNL     1     -12.193  11.811  69.890  1.00  0.00    -0.256 NA 
HETATM   31  O   UNL     1     -11.347  15.721  70.258  1.00  0.00    -0.299 OA 
HETATM   32  N   UNL     1     -11.458  13.827  68.999  1.00  0.00    -0.284 N  
HETATM   33  C   UNL     1     -12.172  13.763  71.277  1.00  0.00    -0.314 C  
ENDBRANCH   2  26
TORSDOF 5
ENDMDL
MODEL      184
REMARK 921   NORMALIZED FREE ENERGY PREDICTED BY IDOCK:   -4.03 KCAL/MOL
REMARK 922        TOTAL FREE ENERGY PREDICTED BY IDOCK:   -6.62 KCAL/MOL
REMARK 923 INTER-LIGAND FREE ENERGY PREDICTED BY IDOCK:   -5.84 KCAL/MOL
REMARK 924 INTRA-LIGAND FREE ENERGY PREDICTED BY IDOCK:   -0.78 KCAL/MOL
REMARK 927      BINDING AFFINITY PREDICTED BY RF-SCORE:    0.00 PKD
ROOT
HETATM    1  C   UNL     1     -12.807  12.115  64.858  1.00  0.00     0.342 C  
HETATM    2  N   UNL     1     -11.438  11.751  65.280  1.00  0.00    -0.242 NA 
ENDROOT
BRANCH   2   3
HETATM    3  C   UNL     1     -10.391  12.663  64.734  1.00  0.00    -0.312 C  
HETATM    4  C   UNL     1      -9.062  12.524  65.462  1.00  0.00     0.395 C  
HETATM    5  C   UNL     1     -10.808  14.109  64.508  1.00  0.00    -0.336 C  
HETATM    6  C   UNL     1      -8.903  13.444  66.658  1.00  0.00    -0.060 C  
HETATM    7  N   UNL     1      -9.183  14.844  66.336  1.00  0.00    -0.288 NA 
HETATM    8  C   UNL     1     -10.317  15.177  65.486  1.00  0.00    -0.375 C  
BRANCH   7   9
HETATM    9  C   UNL     1      -8.341  15.795  66.868  1.00  0.00    -0.248 A  
HETATM   10  C   UNL     1      -7.008  17.501  67.004  1.00  0.00    -0.175 A  
HETATM   11  N   UNL     1      -7.603  16.617  66.142  1.00  0.00    -0.186 NA 
HETATM   12  C   UNL     1      -7.316  17.188  68.317  1.00  0.00    -0.214 A  
HETATM   13  N   UNL     1      -8.111  16.055  68.218  1.00  0.00    -0.147 NA 
HETATM   14  C   UNL     1      -6.857  17.946  69.407  1.00  0.00    -0.121 A  
HETATM   15  C   UNL     1      -6.070  19.066  69.122  1.00  0.00    -0.274 A  
HETATM   16  C   UNL     1      -5.742  19.396  67.807  1.00  0.00    -0.200 A  
HETATM   17  C   UNL     1      -6.197  18.615  66.737  1.00  0.00    -0.193 A  
BRANCH  13  18
HETATM   18  C   UNL     1      -8.481  15.276  69.392  1.00  0.00    -0.231 C  
BRANCH  18  19
HETATM   19  C   UNL     1      -9.967  15.290  69.687  1.00  0.00    -0.236 A  
HETATM   20  C   UNL     1     -10.537  16.469  70.196  1.00  0.00    -0.083 A  
HETATM   21  C   UNL     1     -11.847  16.468  70.673  1.00  0.00     0.321 A  
HETATM   22  C   UNL     1     -12.600  15.302  70.611  1.00  0.00    -0.417 A  
HETATM   23  F   UNL     1     -13.825  15.278  71.151  1.00  0.00    -0.473 F  
HETATM   24  C   UNL     1     -12.093  14.157  70.015  1.00  0.00    -0.409 A  
HETATM   25  C   UNL     1     -10.787  14.157  69.530  1.00  0.00    -0.111 A  
ENDBRANCH  18  19
ENDBRANCH  13  18
ENDBRANCH   7   9
ENDBRANCH   2   3
BRANCH   2  26
HETATM   26  C   UNL     1     -11.351  11.156  66.525  1.00  0.00     0.044 C  
HETATM   27  C   UNL     1     -11.791  11.025  68.772  1.00  0.00    -0.282 C  
HETATM   28  H   UNL     1     -10.220   9.622  65.765  1.00  0.00     0.000 HD 
HETATM   29  C   UNL     1     -10.534   9.264  67.759  1.00  0.00    -0.255 C  
HETATM   30  N   UNL     1     -11.925  11.678  67.577  1.00  0.00    -0.621 NA 
HETATM   31  O   UNL     1      -9.940   8.192  67.816  1.00  0.00    -0.162 OA 
HETATM   32  N   UNL     1     -10.663   9.983  66.610  1.00  0.00    -0.114 N  
HETATM   33  C   UNL     1     -11.155   9.867  68.943  1.00  0.00    -0.181 C  
ENDBRANCH   2  26
TORSDOF 5
ENDMDL
MODEL      185
REMARK 921   NORMALIZED FREE ENERGY PREDICTED BY IDOCK:   -4.03 KCAL/MOL
REMARK 922        TOTAL FREE ENERGY PREDICTED BY IDOCK:   -6.62 KCAL/MOL
REMARK 923 INTER-LIGAND FREE ENERGY PREDICTED BY IDOCK:   -5.71 KCAL/MOL
REMARK 924 INTRA-LIGAND FREE ENERGY PREDICTED BY IDOCK:   -0.90 KCAL/MOL
REMARK 927      BINDING AFFINITY PREDICTED BY RF-SCORE:    0.00 PKD
ROOT
HETATM    1  C   UNL     1      -9.958   5.710  67.454  1.00  0.00    -0.156 C  
HETATM    2  N   UNL     1      -9.172   6.043  66.247  1.00  0.00    -0.156 NA 
ENDROOT
BRANCH   2   3
HETATM    3  C   UNL     1      -7.993   6.912  66.533  1.00  0.00    -0.109 C  
HETATM    4  C   UNL     1      -8.114   7.634  67.868  1.00  0.00    -0.123 C  
HETATM    5  C   UNL     1      -7.529   7.814  65.399  1.00  0.00    -0.081 C  
HETATM    6  C   UNL     1      -8.794   8.988  67.790  1.00  0.00    -0.124 C  
HETATM    7  N   UNL     1      -8.206   9.858  66.771  1.00  0.00    -0.123 NA 
HETATM    8  C   UNL     1      -7.840   9.309  65.474  1.00  0.00    -0.099 C  
BRANCH   7   9
HETATM    9  C   UNL     1      -8.025  11.183  67.102  1.00  0.00    -0.139 A  
HETATM   10  C   UNL     1      -7.045  13.043  67.637  1.00  0.00    -0.156 A  
HETATM   11  N   UNL     1      -6.887  11.685  67.549  1.00  0.00    -0.094 NA 
HETATM   12  C   UNL     1      -8.340  13.408  67.308  1.00  0.00    -0.176 A  
HETATM   13  N   UNL     1      -8.973  12.203  67.036  1.00  0.00    -0.195 NA 
HETATM   14  C   UNL     1      -8.771  14.744  67.291  1.00  0.00    -0.226 A  
HETATM   15  C   UNL     1      -7.829  15.726  67.610  1.00  0.00    -0.168 A  
HETATM   16  C   UNL     1      -6.521  15.381  67.952  1.00  0.00    -0.168 A  
HETATM   17  C   UNL     1      -6.118  14.039  67.979  1.00  0.00    -0.144 A  
BRANCH  13  18
HETATM   18  C   UNL     1     -10.416  12.124  66.849  1.00  0.00    -0.225 C  
BRANCH  18  19
HETATM   19  C   UNL     1     -11.199  12.181  68.145  1.00  0.00    -0.320 A  
HETATM   20  C   UNL     1     -11.838  13.384  68.487  1.00  0.00    -0.401 A  
HETATM   21  C   UNL     1     -12.393  13.549  69.756  1.00  0.00    -0.249 A  
HETATM   22  C   UNL     1     -12.340  12.504  70.671  1.00  0.00    -0.282 A  
HETATM   23  F   UNL     1     -12.792  12.694  71.917  1.00  0.00    -0.417 F  
HETATM   24  C   UNL     1     -11.808  11.274  70.317  1.00  0.00    -0.446 A  
HETATM   25  C   UNL     1     -11.261  11.103  69.047  1.00  0.00    -0.318 A  
ENDBRANCH  18  19
ENDBRANCH  13  18
ENDBRANCH   7   9
ENDBRANCH   2   3
BRANCH   2  26
HETATM   26  C   UNL     1      -9.176   5.073  65.262  1.00  0.00    -0.118 C  
HETATM   27  C   UNL     1      -9.032   4.356  63.088  1.00  0.00    -0.128 C  
HETATM   28  H   UNL     1      -9.463   3.593  66.654  1.00  0.00     0.000 HD 
HETATM   29  C   UNL     1      -9.305   2.718  64.806  1.00  0.00    -0.143 C  
HETATM   30  N   UNL     1      -9.016   5.376  64.000  1.00  0.00     0.131 NA 
HETATM   31  O   UNL     1      -9.408   1.555  65.179  1.00  0.00    -0.111 OA 
HETATM   32  N   UNL     1      -9.326   3.779  65.660  1.00  0.00    -0.154 N  
HETATM   33  C   UNL     1      -9.154   3.064  63.388  1.00  0.00    -0.095 C  
ENDBRANCH   2  26
TORSDOF 5
ENDMDL
MODEL      186
REMARK 921   NORMALIZED FREE ENERGY PREDICTED BY IDOCK:   -3.93 KCAL/MOL
REMARK 922        TOTAL FREE ENERGY PREDICTED BY IDOCK:   -6.49 KCAL/MOL
REMARK 923 INTER-LIGAND FREE ENERGY PREDICTED BY IDOCK:   -5.91 KCAL/MOL
REMARK 924 INTRA-LIGAND FREE ENERGY PREDICTED BY IDOCK:   -0.58 KCAL/MOL
REMARK 927      BINDING AFFINITY PREDICTED BY RF-SCORE:    0.00 PKD
ROOT
HETATM    1  C   UNL     1      -7.865   7.155  71.843  1.00  0.00    -0.092 C  
HETATM    2  N   UNL     1      -9.157   6.579  71.414  1.00  0.00    -0.148 NA 
ENDROOT
BRANCH   2   3
HETATM    3  C   UNL     1     -10.266   7.576  71.385  1.00  0.00    -0.186 C  
HETATM    4  C   UNL     1     -11.142   7.438  70.148  1.00  0.00    -0.265 C  
HETATM    5  C   UNL     1      -9.886   9.016  71.698  1.00  0.00    -0.366 C  
HETATM    6  C   UNL     1     -10.685   8.265  68.961  1.00  0.00    -0.079 C  
HETATM    7  N   UNL     1     -10.473   9.673  69.301  1.00  0.00    -0.208 NA 
HETATM    8  C   UNL     1      -9.812  10.023  70.550  1.00  0.00     0.085 C  
BRANCH   7   9
HETATM    9  C   UNL     1     -10.919  10.614  68.400  1.00  0.00    -0.251 A  
HETATM   10  C   UNL     1     -11.696  12.475  67.602  1.00  0.00    -0.361 A  
HETATM   11  N   UNL     1     -11.525  11.737  68.743  1.00  0.00    -0.263 NA 
HETATM   12  C   UNL     1     -11.254  11.773  66.493  1.00  0.00    -0.321 A  
HETATM   13  N   UNL     1     -10.825  10.559  67.010  1.00  0.00    -0.255 NA 
HETATM   14  C   UNL     1     -11.290  12.304  65.193  1.00  0.00    -0.376 A  
HETATM   15  C   UNL     1     -11.783  13.604  65.045  1.00  0.00    -0.354 A  
HETATM   16  C   UNL     1     -12.241  14.327  66.147  1.00  0.00    -0.430 A  
HETATM   17  C   UNL     1     -12.212  13.769  67.432  1.00  0.00    -0.290 A  
BRANCH  13  18
HETATM   18  C   UNL     1     -10.474   9.440  66.144  1.00  0.00     0.043 C  
BRANCH  18  19
HETATM   19  C   UNL     1      -9.063   9.515  65.598  1.00  0.00    -0.250 A  
HETATM   20  C   UNL     1      -8.854   9.222  64.241  1.00  0.00    -0.185 A  
HETATM   21  C   UNL     1      -7.560   9.076  63.743  1.00  0.00    -0.115 A  
HETATM   22  C   UNL     1      -6.473   9.255  64.591  1.00  0.00    -0.077 A  
HETATM   23  F   UNL     1      -5.235   9.027  64.136  1.00  0.00    -0.051 F  
HETATM   24  C   UNL     1      -6.655   9.650  65.908  1.00  0.00    -0.080 A  
HETATM   25  C   UNL     1      -7.948   9.804  66.406  1.00  0.00    -0.109 A  
ENDBRANCH  18  19
ENDBRANCH  13  18
ENDBRANCH   7   9
ENDBRANCH   2   3
BRANCH   2  26
HETATM   26  C   UNL     1      -9.060   5.529  70.521  1.00  0.00    -0.147 C  
HETATM   27  C   UNL     1      -8.627   4.622  68.459  1.00  0.00    -0.097 C  
HETATM   28  H   UNL     1      -9.618   4.185  71.967  1.00  0.00     0.000 HD 
HETATM   29  C   UNL     1      -9.227   3.149  70.241  1.00  0.00    -0.147 C  
HETATM   30  N   UNL     1      -8.700   5.715  69.278  1.00  0.00    -0.108 NA 
HETATM   31  O   UNL     1      -9.438   2.026  70.687  1.00  0.00    -0.120 OA 
HETATM   32  N   UNL     1      -9.326   4.279  70.994  1.00  0.00    -0.140 N  
HETATM   33  C   UNL     1      -8.850   3.366  68.839  1.00  0.00    -0.164 C  
ENDBRANCH   2  26
TORSDOF 5
ENDMDL
MODEL      187
REMARK 921   NORMALIZED FREE ENERGY PREDICTED BY IDOCK:   -3.69 KCAL/MOL
REMARK 922        TOTAL FREE ENERGY PREDICTED BY IDOCK:   -6.18 KCAL/MOL
REMARK 923 INTER-LIGAND FREE ENERGY PREDICTED BY IDOCK:   -5.34 KCAL/MOL
REMARK 924 INTRA-LIGAND FREE ENERGY PREDICTED BY IDOCK:   -0.84 KCAL/MOL
REMARK 927      BINDING AFFINITY PREDICTED BY RF-SCORE:    0.00 PKD
ROOT
HETATM    1  C   UNL     1      -6.361   6.114  72.275  1.00  0.00    -0.053 C  
HETATM    2  N   UNL     1      -7.508   6.882  71.744  1.00  0.00    -0.088 NA 
ENDROOT
BRANCH   2   3
HETATM    3  C   UNL     1      -7.310   7.340  70.338  1.00  0.00    -0.078 C  
HETATM    4  C   UNL     1      -6.856   8.791  70.258  1.00  0.00    -0.042 C  
HETATM    5  C   UNL     1      -8.419   6.999  69.355  1.00  0.00    -0.133 C  
HETATM    6  C   UNL     1      -7.988   9.798  70.175  1.00  0.00    -0.186 C  
HETATM    7  N   UNL     1      -8.946   9.486  69.114  1.00  0.00    -0.141 NA 
HETATM    8  C   UNL     1      -9.369   8.109  68.904  1.00  0.00    -0.147 C  
BRANCH   7   9
HETATM    9  C   UNL     1      -9.409  10.536  68.354  1.00  0.00    -0.158 A  
HETATM   10  C   UNL     1      -9.880  12.561  67.732  1.00  0.00    -0.204 A  
HETATM   11  N   UNL     1      -9.523  11.776  68.797  1.00  0.00    -0.092 NA 
HETATM   12  C   UNL     1     -10.070  11.789  66.597  1.00  0.00    -0.204 A  
HETATM   13  N   UNL     1      -9.834  10.491  67.026  1.00  0.00    -0.177 NA 
HETATM   14  C   UNL     1     -10.420  12.341  65.354  1.00  0.00    -0.302 A  
HETATM   15  C   UNL     1     -10.559  13.730  65.285  1.00  0.00    -0.363 A  
HETATM   16  C   UNL     1     -10.379  14.526  66.417  1.00  0.00    -0.296 A  
HETATM   17  C   UNL     1     -10.048  13.951  67.651  1.00  0.00    -0.241 A  
BRANCH  13  18
HETATM   18  C   UNL     1     -10.133   9.341  66.183  1.00  0.00    -0.233 C  
BRANCH  18  19
HETATM   19  C   UNL     1      -8.964   8.895  65.328  1.00  0.00    -0.213 A  
HETATM   20  C   UNL     1      -8.557   9.722  64.268  1.00  0.00    -0.202 A  
HETATM   21  C   UNL     1      -7.629   9.262  63.334  1.00  0.00    -0.110 A  
HETATM   22  C   UNL     1      -7.083   7.992  63.476  1.00  0.00    -0.082 A  
HETATM   23  F   UNL     1      -6.262   7.518  62.531  1.00  0.00    -0.060 F  
HETATM   24  C   UNL     1      -7.390   7.203  64.573  1.00  0.00    -0.081 A  
HETATM   25  C   UNL     1      -8.311   7.663  65.513  1.00  0.00    -0.139 A  
ENDBRANCH  18  19
ENDBRANCH  13  18
ENDBRANCH   7   9
ENDBRANCH   2   3
BRANCH   2  26
HETATM   26  C   UNL     1      -8.740   6.520  72.257  1.00  0.00    -0.130 C  
HETATM   27  C   UNL     1     -10.739   6.954  73.293  1.00  0.00    -0.320 C  
HETATM   28  H   UNL     1      -8.447   4.565  71.707  1.00  0.00     0.000 HD 
HETATM   29  C   UNL     1     -10.309   4.725  72.551  1.00  0.00    -0.201 C  
HETATM   30  N   UNL     1      -9.536   7.395  72.812  1.00  0.00    -0.153 NA 
HETATM   31  O   UNL     1     -10.642   3.553  72.406  1.00  0.00    -0.087 OA 
HETATM   32  N   UNL     1      -9.108   5.214  72.134  1.00  0.00    -0.135 N  
HETATM   33  C   UNL     1     -11.187   5.704  73.200  1.00  0.00    -0.285 C  
ENDBRANCH   2  26
TORSDOF 5
ENDMDL
MODEL      188
REMARK 921   NORMALIZED FREE ENERGY PREDICTED BY IDOCK:   -3.68 KCAL/MOL
REMARK 922        TOTAL FREE ENERGY PREDICTED BY IDOCK:   -6.17 KCAL/MOL
REMARK 923 INTER-LIGAND FREE ENERGY PREDICTED BY IDOCK:   -5.47 KCAL/MOL
REMARK 924 INTRA-LIGAND FREE ENERGY PREDICTED BY IDOCK:   -0.70 KCAL/MOL
REMARK 927      BINDING AFFINITY PREDICTED BY RF-SCORE:    0.00 PKD
ROOT
HETATM    1  C   UNL     1     -13.212  13.018  65.790  1.00  0.00     1.109 C  
HETATM    2  N   UNL     1     -11.973  12.681  65.057  1.00  0.00    -0.395 NA 
ENDROOT
BRANCH   2   3
HETATM    3  C   UNL     1     -11.306  13.870  64.451  1.00  0.00    -0.341 C  
HETATM    4  C   UNL     1      -9.806  13.890  64.708  1.00  0.00     0.075 C  
HETATM    5  C   UNL     1     -11.977  15.214  64.689  1.00  0.00    -0.301 C  
HETATM    6  C   UNL     1      -9.398  14.608  65.982  1.00  0.00    -0.181 C  
HETATM    7  N   UNL     1      -9.967  15.952  66.080  1.00  0.00    -0.310 NA 
HETATM    8  C   UNL     1     -11.353  16.181  65.695  1.00  0.00     0.255 C  
BRANCH   7   9
HETATM    9  C   UNL     1      -9.144  16.953  66.543  1.00  0.00    -0.273 A  
HETATM   10  C   UNL     1      -7.964  18.774  66.593  1.00  0.00    -0.266 A  
HETATM   11  N   UNL     1      -8.599  17.879  65.772  1.00  0.00    -0.404 NA 
HETATM   12  C   UNL     1      -8.042  18.367  67.915  1.00  0.00    -0.259 A  
HETATM   13  N   UNL     1      -8.738  17.168  67.860  1.00  0.00    -0.218 NA 
HETATM   14  C   UNL     1      -7.495  19.112  68.972  1.00  0.00    -0.353 A  
HETATM   15  C   UNL     1      -6.863  20.317  68.648  1.00  0.00    -0.259 A  
HETATM   16  C   UNL     1      -6.766  20.742  67.323  1.00  0.00    -0.391 A  
HETATM   17  C   UNL     1      -7.305  19.973  66.282  1.00  0.00    -0.312 A  
BRANCH  13  18
HETATM   18  C   UNL     1      -8.857  16.300  69.024  1.00  0.00    -0.243 C  
BRANCH  18  19
HETATM   19  C   UNL     1      -7.886  15.136  69.013  1.00  0.00    -0.181 A  
HETATM   20  C   UNL     1      -8.384  13.853  68.730  1.00  0.00    -0.019 A  
HETATM   21  C   UNL     1      -7.577  12.730  68.910  1.00  0.00     0.057 A  
HETATM   22  C   UNL     1      -6.265  12.889  69.340  1.00  0.00    -0.114 A  
HETATM   23  F   UNL     1      -5.520  11.807  69.598  1.00  0.00    -0.058 F  
HETATM   24  C   UNL     1      -5.722  14.151  69.521  1.00  0.00    -0.097 A  
HETATM   25  C   UNL     1      -6.524  15.276  69.334  1.00  0.00    -0.141 A  
ENDBRANCH  18  19
ENDBRANCH  13  18
ENDBRANCH   7   9
ENDBRANCH   2   3
BRANCH   2  26
HETATM   26  C   UNL     1     -11.279  11.594  65.554  1.00  0.00    -0.205 C  
HETATM   27  C   UNL     1     -10.691  10.115  67.205  1.00  0.00    -0.254 C  
HETATM   28  H   UNL     1     -10.379  11.279  63.738  1.00  0.00     0.000 HD 
HETATM   29  C   UNL     1      -9.755   9.813  65.028  1.00  0.00    -0.233 C  
HETATM   30  N   UNL     1     -11.414  11.201  66.793  1.00  0.00    -0.354 NA 
HETATM   31  O   UNL     1      -9.050   9.200  64.234  1.00  0.00    -0.126 OA 
HETATM   32  N   UNL     1     -10.464  10.926  64.691  1.00  0.00    -0.337 N  
HETATM   33  C   UNL     1      -9.888   9.392  66.428  1.00  0.00    -0.337 C  
ENDBRANCH   2  26
TORSDOF 5
ENDMDL
MODEL      189
REMARK 921   NORMALIZED FREE ENERGY PREDICTED BY IDOCK:   -3.65 KCAL/MOL
REMARK 922        TOTAL FREE ENERGY PREDICTED BY IDOCK:   -6.13 KCAL/MOL
REMARK 923 INTER-LIGAND FREE ENERGY PREDICTED BY IDOCK:   -5.34 KCAL/MOL
REMARK 924 INTRA-LIGAND FREE ENERGY PREDICTED BY IDOCK:   -0.79 KCAL/MOL
REMARK 927      BINDING AFFINITY PREDICTED BY RF-SCORE:    0.00 PKD
ROOT
HETATM    1  C   UNL     1     -11.443  15.467  64.639  1.00  0.00    -0.324 C  
HETATM    2  N   UNL     1     -11.320  15.586  66.108  1.00  0.00    -0.104 NA 
ENDROOT
BRANCH   2   3
HETATM    3  C   UNL     1     -10.974  14.297  66.776  1.00  0.00    -0.304 C  
HETATM    4  C   UNL     1      -9.474  14.035  66.793  1.00  0.00    -0.292 C  
HETATM    5  C   UNL     1     -11.794  13.083  66.364  1.00  0.00    -0.465 C  
HETATM    6  C   UNL     1      -8.956  13.275  65.586  1.00  0.00     0.833 C  
HETATM    7  N   UNL     1      -9.703  12.043  65.331  1.00  0.00    -0.220 NA 
HETATM    8  C   UNL     1     -11.154  12.039  65.448  1.00  0.00    -0.320 C  
BRANCH   7   9
HETATM    9  C   UNL     1      -8.977  10.926  64.983  1.00  0.00    -0.168 A  
HETATM   10  C   UNL     1      -8.354   9.138  63.923  1.00  0.00    -0.181 A  
HETATM   11  N   UNL     1      -9.387  10.018  64.114  1.00  0.00    -0.278 NA 
HETATM   12  C   UNL     1      -7.286   9.451  64.747  1.00  0.00    -0.106 A  
HETATM   13  N   UNL     1      -7.724  10.552  65.468  1.00  0.00    -0.149 NA 
HETATM   14  C   UNL     1      -6.084   8.724  64.740  1.00  0.00    -0.065 A  
HETATM   15  C   UNL     1      -5.985   7.656  63.844  1.00  0.00    -0.049 A  
HETATM   16  C   UNL     1      -7.052   7.319  63.010  1.00  0.00    -0.069 A  
HETATM   17  C   UNL     1      -8.248   8.048  63.046  1.00  0.00    -0.073 A  
BRANCH  13  18
HETATM   18  C   UNL     1      -6.973  11.070  66.604  1.00  0.00    -0.140 C  
BRANCH  18  19
HETATM   19  C   UNL     1      -7.300  10.381  67.913  1.00  0.00    -0.086 A  
HETATM   20  C   UNL     1      -8.649  10.248  68.281  1.00  0.00    -0.122 A  
HETATM   21  C   UNL     1      -8.990   9.811  69.560  1.00  0.00    -0.215 A  
HETATM   22  C   UNL     1      -7.987   9.473  70.461  1.00  0.00    -0.159 A  
HETATM   23  F   UNL     1      -8.312   9.140  71.716  1.00  0.00    -0.176 F  
HETATM   24  C   UNL     1      -6.653   9.494  70.083  1.00  0.00    -0.073 A  
HETATM   25  C   UNL     1      -6.310   9.923  68.802  1.00  0.00    -0.045 A  
ENDBRANCH  18  19
ENDBRANCH  13  18
ENDBRANCH   7   9
ENDBRANCH   2   3
BRANCH   2  26
HETATM   26  C   UNL     1     -10.877  16.815  66.559  1.00  0.00     0.006 C  
HETATM   27  C   UNL     1     -10.233  18.997  66.268  1.00  0.00    -0.446 C  
HETATM   28  H   UNL     1     -10.851  16.147  68.499  1.00  0.00     0.000 HD 
HETATM   29  C   UNL     1     -10.303  18.123  68.490  1.00  0.00    -0.336 C  
HETATM   30  N   UNL     1     -10.670  17.812  65.740  1.00  0.00    -0.419 NA 
HETATM   31  O   UNL     1     -10.170  18.249  69.703  1.00  0.00     0.044 OA 
HETATM   32  N   UNL     1     -10.691  16.958  67.901  1.00  0.00    -0.355 N  
HETATM   33  C   UNL     1     -10.044  19.232  67.564  1.00  0.00    -0.487 C  
ENDBRANCH   2  26
TORSDOF 5
ENDMDL
MODEL      190
REMARK 921   NORMALIZED FREE ENERGY PREDICTED BY IDOCK:   -3.65 KCAL/MOL
REMARK 922        TOTAL FREE ENERGY PREDICTED BY IDOCK:   -6.13 KCAL/MOL
REMARK 923 INTER-LIGAND FREE ENERGY PREDICTED BY IDOCK:   -5.44 KCAL/MOL
REMARK 924 INTRA-LIGAND FREE ENERGY PREDICTED BY IDOCK:   -0.68 KCAL/MOL
REMARK 927      BINDING AFFINITY PREDICTED BY RF-SCORE:    0.00 PKD
ROOT
HETATM    1  C   UNL     1      -6.050  14.281  67.575  1.00  0.00     0.071 C  
HETATM    2  N   UNL     1      -6.057  13.488  68.823  1.00  0.00    -0.082 NA 
ENDROOT
BRANCH   2   3
HETATM    3  C   UNL     1      -5.682  12.059  68.614  1.00  0.00    -0.052 C  
HETATM    4  C   UNL     1      -5.892  11.606  67.177  1.00  0.00    -0.122 C  
HETATM    5  C   UNL     1      -6.205  11.067  69.643  1.00  0.00    -0.095 C  
HETATM    6  C   UNL     1      -7.270  11.038  66.893  1.00  0.00    -0.133 C  
HETATM    7  N   UNL     1      -7.654   9.988  67.838  1.00  0.00    -0.089 NA 
HETATM    8  C   UNL     1      -7.366  10.151  69.256  1.00  0.00    -0.098 C  
BRANCH   7   9
HETATM    9  C   UNL     1      -8.283   8.877  67.324  1.00  0.00    -0.104 A  
HETATM   10  C   UNL     1      -8.578   6.942  66.388  1.00  0.00    -0.134 A  
HETATM   11  N   UNL     1      -7.676   7.951  66.602  1.00  0.00    -0.096 NA 
HETATM   12  C   UNL     1      -9.813   7.267  66.924  1.00  0.00    -0.214 A  
HETATM   13  N   UNL     1      -9.628   8.534  67.458  1.00  0.00    -0.149 NA 
HETATM   14  C   UNL     1     -10.917   6.400  66.869  1.00  0.00    -0.413 A  
HETATM   15  C   UNL     1     -10.727   5.159  66.253  1.00  0.00    -0.272 A  
HETATM   16  C   UNL     1      -9.494   4.814  65.699  1.00  0.00    -0.173 A  
HETATM   17  C   UNL     1      -8.411   5.703  65.751  1.00  0.00    -0.140 A  
BRANCH  13  18
HETATM   18  C   UNL     1     -10.749   9.332  67.938  1.00  0.00    -0.188 C  
BRANCH  18  19
HETATM   19  C   UNL     1     -10.863  10.685  67.266  1.00  0.00    -0.345 A  
HETATM   20  C   UNL     1     -10.701  10.755  65.872  1.00  0.00    -0.143 A  
HETATM   21  C   UNL     1     -10.592  11.992  65.238  1.00  0.00    -0.328 A  
HETATM   22  C   UNL     1     -10.678  13.159  65.988  1.00  0.00    -0.276 A  
HETATM   23  F   UNL     1     -10.484  14.342  65.393  1.00  0.00    -0.292 F  
HETATM   24  C   UNL     1     -10.945  13.113  67.348  1.00  0.00    -0.283 A  
HETATM   25  C   UNL     1     -11.063  11.878  67.983  1.00  0.00    -0.293 A  
ENDBRANCH  18  19
ENDBRANCH  13  18
ENDBRANCH   7   9
ENDBRANCH   2   3
BRANCH   2  26
HETATM   26  C   UNL     1      -5.739  14.196  69.966  1.00  0.00    -0.123 C  
HETATM   27  C   UNL     1      -5.268  16.119  71.125  1.00  0.00    -0.075 C  
HETATM   28  H   UNL     1      -5.741  12.478  71.088  1.00  0.00     0.000 HD 
HETATM   29  C   UNL     1      -5.359  14.061  72.334  1.00  0.00    -0.206 C  
HETATM   30  N   UNL     1      -5.581  15.494  69.949  1.00  0.00    -0.123 NA 
HETATM   31  O   UNL     1      -5.289  13.420  73.377  1.00  0.00    -0.403 OA 
HETATM   32  N   UNL     1      -5.623  13.491  71.126  1.00  0.00    -0.203 N  
HETATM   33  C   UNL     1      -5.154  15.514  72.305  1.00  0.00     0.134 C  
ENDBRANCH   2  26
TORSDOF 5
ENDMDL
MODEL      191
REMARK 921   NORMALIZED FREE ENERGY PREDICTED BY IDOCK:   -3.64 KCAL/MOL
REMARK 922        TOTAL FREE ENERGY PREDICTED BY IDOCK:   -6.12 KCAL/MOL
REMARK 923 INTER-LIGAND FREE ENERGY PREDICTED BY IDOCK:   -4.32 KCAL/MOL
REMARK 924 INTRA-LIGAND FREE ENERGY PREDICTED BY IDOCK:   -1.80 KCAL/MOL
REMARK 927      BINDING AFFINITY PREDICTED BY RF-SCORE:    0.00 PKD
ROOT
HETATM    1  C   UNL     1     -11.388   4.479  73.385  1.00  0.00    -0.286 C  
HETATM    2  N   UNL     1     -10.610   4.647  72.139  1.00  0.00    -0.153 NA 
ENDROOT
BRANCH   2   3
HETATM    3  C   UNL     1     -10.299   6.072  71.827  1.00  0.00    -0.215 C  
HETATM    4  C   UNL     1     -10.818   6.495  70.460  1.00  0.00    -0.323 C  
HETATM    5  C   UNL     1      -8.871   6.525  72.097  1.00  0.00    -0.135 C  
HETATM    6  C   UNL     1      -9.838   6.279  69.322  1.00  0.00    -0.141 C  
HETATM    7  N   UNL     1      -8.523   6.863  69.590  1.00  0.00    -0.132 NA 
HETATM    8  C   UNL     1      -7.928   6.729  70.911  1.00  0.00    -0.106 C  
BRANCH   7   9
HETATM    9  C   UNL     1      -7.904   7.524  68.553  1.00  0.00    -0.122 A  
HETATM   10  C   UNL     1      -6.941   7.888  66.643  1.00  0.00    -0.072 A  
HETATM   11  N   UNL     1      -7.319   6.918  67.534  1.00  0.00    -0.093 NA 
HETATM   12  C   UNL     1      -7.225   9.148  67.141  1.00  0.00    -0.086 A  
HETATM   13  N   UNL     1      -7.776   8.903  68.390  1.00  0.00    -0.098 NA 
HETATM   14  C   UNL     1      -6.962  10.326  66.422  1.00  0.00    -0.111 A  
HETATM   15  C   UNL     1      -6.403  10.188  65.148  1.00  0.00    -0.121 A  
HETATM   16  C   UNL     1      -6.102   8.928  64.630  1.00  0.00    -0.066 A  
HETATM   17  C   UNL     1      -6.357   7.768  65.373  1.00  0.00    -0.041 A  
BRANCH  13  18
HETATM   18  C   UNL     1      -8.024   9.980  69.341  1.00  0.00    -0.145 C  
BRANCH  18  19
HETATM   19  C   UNL     1      -9.488  10.347  69.472  1.00  0.00    -0.164 A  
HETATM   20  C   UNL     1     -10.154  10.027  70.666  1.00  0.00    -0.010 A  
HETATM   21  C   UNL     1     -11.540  10.156  70.756  1.00  0.00    -0.445 A  
HETATM   22  C   UNL     1     -12.257  10.637  69.667  1.00  0.00    -0.206 A  
HETATM   23  F   UNL     1     -13.594  10.676  69.722  1.00  0.00     0.089 F  
HETATM   24  C   UNL     1     -11.608  11.060  68.517  1.00  0.00    -0.380 A  
HETATM   25  C   UNL     1     -10.222  10.939  68.427  1.00  0.00    -0.193 A  
ENDBRANCH  18  19
ENDBRANCH  13  18
ENDBRANCH   7   9
ENDBRANCH   2   3
BRANCH   2  26
HETATM   26  C   UNL     1      -9.757   3.602  71.839  1.00  0.00    -0.166 C  
HETATM   27  C   UNL     1      -8.138   2.061  72.355  1.00  0.00    -0.053 C  
HETATM   28  H   UNL     1     -10.446   3.532  69.908  1.00  0.00     0.000 HD 
HETATM   29  C   UNL     1      -9.063   2.038  70.153  1.00  0.00    -0.099 C  
HETATM   30  N   UNL     1      -8.950   3.096  72.734  1.00  0.00    -0.087 NA 
HETATM   31  O   UNL     1      -9.143   1.570  69.022  1.00  0.00    -0.083 OA 
HETATM   32  N   UNL     1      -9.811   3.095  70.575  1.00  0.00    -0.028 N  
HETATM   33  C   UNL     1      -8.137   1.493  71.152  1.00  0.00    -0.048 C  
ENDBRANCH   2  26
TORSDOF 5
ENDMDL
MODEL      192
REMARK 921   NORMALIZED FREE ENERGY PREDICTED BY IDOCK:   -3.64 KCAL/MOL
REMARK 922        TOTAL FREE ENERGY PREDICTED BY IDOCK:   -6.11 KCAL/MOL
REMARK 923 INTER-LIGAND FREE ENERGY PREDICTED BY IDOCK:   -5.44 KCAL/MOL
REMARK 924 INTRA-LIGAND FREE ENERGY PREDICTED BY IDOCK:   -0.67 KCAL/MOL
REMARK 927      BINDING AFFINITY PREDICTED BY RF-SCORE:    0.00 PKD
ROOT
HETATM    1  C   UNL     1      -6.009  14.147  71.181  1.00  0.00    -0.168 C  
HETATM    2  N   UNL     1      -6.417  13.902  69.781  1.00  0.00    -0.119 NA 
ENDROOT
BRANCH   2   3
HETATM    3  C   UNL     1      -6.888  12.507  69.541  1.00  0.00     0.089 C  
HETATM    4  C   UNL     1      -5.791  11.611  68.983  1.00  0.00    -0.053 C  
HETATM    5  C   UNL     1      -8.216  12.359  68.813  1.00  0.00     0.099 C  
HETATM    6  C   UNL     1      -5.707  11.591  67.468  1.00  0.00    -0.063 C  
HETATM    7  N   UNL     1      -6.994  11.304  66.835  1.00  0.00    -0.128 NA 
HETATM    8  C   UNL     1      -8.207  11.925  67.347  1.00  0.00    -0.164 C  
BRANCH   7   9
HETATM    9  C   UNL     1      -6.990  10.442  65.761  1.00  0.00    -0.136 A  
HETATM   10  C   UNL     1      -6.277   9.272  64.079  1.00  0.00    -0.089 A  
HETATM   11  N   UNL     1      -5.975  10.306  64.926  1.00  0.00    -0.125 NA 
HETATM   12  C   UNL     1      -7.549   8.787  64.333  1.00  0.00    -0.116 A  
HETATM   13  N   UNL     1      -8.019   9.589  65.363  1.00  0.00    -0.110 NA 
HETATM   14  C   UNL     1      -8.105   7.709  63.624  1.00  0.00    -0.038 A  
HETATM   15  C   UNL     1      -7.314   7.112  62.639  1.00  0.00    -0.084 A  
HETATM   16  C   UNL     1      -6.033   7.590  62.361  1.00  0.00    -0.059 A  
HETATM   17  C   UNL     1      -5.505   8.678  63.069  1.00  0.00    -0.069 A  
BRANCH  13  18
HETATM   18  C   UNL     1      -9.411   9.545  65.791  1.00  0.00    -0.233 C  
BRANCH  18  19
HETATM   19  C   UNL     1     -10.235  10.717  65.298  1.00  0.00    -0.351 A  
HETATM   20  C   UNL     1      -9.967  11.230  64.018  1.00  0.00    -0.362 A  
HETATM   21  C   UNL     1     -10.551  12.427  63.605  1.00  0.00    -0.481 A  
HETATM   22  C   UNL     1     -11.427  13.094  64.453  1.00  0.00    -0.366 A  
HETATM   23  F   UNL     1     -11.917  14.286  64.092  1.00  0.00    -0.436 F  
HETATM   24  C   UNL     1     -11.787  12.549  65.676  1.00  0.00    -0.493 A  
HETATM   25  C   UNL     1     -11.211  11.349  66.089  1.00  0.00    -0.203 A  
ENDBRANCH  18  19
ENDBRANCH  13  18
ENDBRANCH   7   9
ENDBRANCH   2   3
BRANCH   2  26
HETATM   26  C   UNL     1      -6.939  15.001  69.125  1.00  0.00    -0.139 C  
HETATM   27  C   UNL     1      -8.398  16.756  68.901  1.00  0.00    -0.222 C  
HETATM   28  H   UNL     1      -5.572  14.802  67.607  1.00  0.00     0.000 HD 
HETATM   29  C   UNL     1      -6.721  16.458  67.227  1.00  0.00    -0.186 C  
HETATM   30  N   UNL     1      -7.943  15.680  69.613  1.00  0.00    -0.163 NA 
HETATM   31  O   UNL     1      -6.157  16.800  66.193  1.00  0.00    -0.159 OA 
HETATM   32  N   UNL     1      -6.344  15.371  67.956  1.00  0.00    -0.126 N  
HETATM   33  C   UNL     1      -7.867  17.200  67.764  1.00  0.00    -0.189 C  
ENDBRANCH   2  26
TORSDOF 5
ENDMDL
MODEL      193
REMARK 921   NORMALIZED FREE ENERGY PREDICTED BY IDOCK:   -3.61 KCAL/MOL
REMARK 922        TOTAL FREE ENERGY PREDICTED BY IDOCK:   -6.07 KCAL/MOL
REMARK 923 INTER-LIGAND FREE ENERGY PREDICTED BY IDOCK:   -4.47 KCAL/MOL
REMARK 924 INTRA-LIGAND FREE ENERGY PREDICTED BY IDOCK:   -1.60 KCAL/MOL
REMARK 927      BINDING AFFINITY PREDICTED BY RF-SCORE:    0.00 PKD
ROOT
HETATM    1  C   UNL     1      -6.066   5.001  71.575  1.00  0.00    -0.025 C  
HETATM    2  N   UNL     1      -6.414   5.245  70.159  1.00  0.00    -0.033 NA 
ENDROOT
BRANCH   2   3
HETATM    3  C   UNL     1      -5.764   6.464  69.595  1.00  0.00    -0.014 C  
HETATM    4  C   UNL     1      -5.861   7.661  70.530  1.00  0.00    -0.030 C  
HETATM    5  C   UNL     1      -6.099   6.798  68.149  1.00  0.00    -0.032 C  
HETATM    6  C   UNL     1      -7.098   8.516  70.328  1.00  0.00    -0.043 C  
HETATM    7  N   UNL     1      -7.284   8.920  68.933  1.00  0.00    -0.072 NA 
HETATM    8  C   UNL     1      -7.053   7.959  67.865  1.00  0.00    -0.086 C  
BRANCH   7   9
HETATM    9  C   UNL     1      -7.677  10.219  68.701  1.00  0.00    -0.094 A  
HETATM   10  C   UNL     1      -7.610  12.298  68.082  1.00  0.00    -0.127 A  
HETATM   11  N   UNL     1      -6.850  11.192  68.360  1.00  0.00    -0.063 NA 
HETATM   12  C   UNL     1      -8.950  12.043  68.322  1.00  0.00    -0.186 A  
HETATM   13  N   UNL     1      -8.970  10.735  68.783  1.00  0.00    -0.165 NA 
HETATM   14  C   UNL     1      -9.956  12.997  68.097  1.00  0.00    -0.231 A  
HETATM   15  C   UNL     1      -9.561  14.241  67.595  1.00  0.00    -0.219 A  
HETATM   16  C   UNL     1      -8.215  14.521  67.353  1.00  0.00    -0.220 A  
HETATM   17  C   UNL     1      -7.227  13.559  67.602  1.00  0.00    -0.175 A  
BRANCH  13  18
HETATM   18  C   UNL     1     -10.174  10.143  69.351  1.00  0.00    -0.227 C  
BRANCH  18  19
HETATM   19  C   UNL     1     -10.521   8.791  68.761  1.00  0.00    -0.214 A  
HETATM   20  C   UNL     1     -10.741   7.715  69.637  1.00  0.00    -0.230 A  
HETATM   21  C   UNL     1     -10.858   6.417  69.142  1.00  0.00    -0.382 A  
HETATM   22  C   UNL     1     -10.790   6.195  67.772  1.00  0.00    -0.325 A  
HETATM   23  F   UNL     1     -10.813   4.941  67.304  1.00  0.00    -0.164 F  
HETATM   24  C   UNL     1     -10.681   7.254  66.883  1.00  0.00    -0.346 A  
HETATM   25  C   UNL     1     -10.572   8.554  67.375  1.00  0.00    -0.304 A  
ENDBRANCH  18  19
ENDBRANCH  13  18
ENDBRANCH   7   9
ENDBRANCH   2   3
BRANCH   2  26
HETATM   26  C   UNL     1      -6.665   4.107  69.416  1.00  0.00    -0.044 C  
HETATM   27  C   UNL     1      -6.034   2.219  68.277  1.00  0.00    -0.024 C  
HETATM   28  H   UNL     1      -8.686   4.458  69.474  1.00  0.00     0.000 HD 
HETATM   29  C   UNL     1      -8.365   2.701  68.466  1.00  0.00    -0.065 C  
HETATM   30  N   UNL     1      -5.699   3.327  69.007  1.00  0.00    -0.021 NA 
HETATM   31  O   UNL     1      -9.543   2.428  68.258  1.00  0.00    -0.206 OA 
HETATM   32  N   UNL     1      -7.968   3.811  69.147  1.00  0.00    -0.055 N  
HETATM   33  C   UNL     1      -7.277   1.843  67.985  1.00  0.00    -0.046 C  
ENDBRANCH   2  26
TORSDOF 5
ENDMDL
MODEL      194
REMARK 921   NORMALIZED FREE ENERGY PREDICTED BY IDOCK:   -3.57 KCAL/MOL
REMARK 922        TOTAL FREE ENERGY PREDICTED BY IDOCK:   -6.03 KCAL/MOL
REMARK 923 INTER-LIGAND FREE ENERGY PREDICTED BY IDOCK:   -5.38 KCAL/MOL
REMARK 924 INTRA-LIGAND FREE ENERGY PREDICTED BY IDOCK:   -0.64 KCAL/MOL
REMARK 927      BINDING AFFINITY PREDICTED BY RF-SCORE:    0.00 PKD
ROOT
HETATM    1  C   UNL     1      -8.994   9.806  65.214  1.00  0.00    -0.193 C  
HETATM    2  N   UNL     1      -8.317   8.676  65.884  1.00  0.00    -0.128 NA 
ENDROOT
BRANCH   2   3
HETATM    3  C   UNL     1      -7.188   9.102  66.761  1.00  0.00    -0.086 C  
HETATM    4  C   UNL     1      -7.654   9.508  68.152  1.00  0.00    -0.079 C  
HETATM    5  C   UNL     1      -6.190  10.074  66.151  1.00  0.00    -0.076 C  
HETATM    6  C   UNL     1      -8.004  10.978  68.292  1.00  0.00    -0.124 C  
HETATM    7  N   UNL     1      -6.940  11.861  67.814  1.00  0.00    -0.093 NA 
HETATM    8  C   UNL     1      -6.233  11.540  66.582  1.00  0.00    -0.113 C  
BRANCH   7   9
HETATM    9  C   UNL     1      -6.657  12.975  68.571  1.00  0.00    -0.088 A  
HETATM   10  C   UNL     1      -5.958  14.210  70.212  1.00  0.00    -0.158 A  
HETATM   11  N   UNL     1      -6.279  12.932  69.837  1.00  0.00    -0.117 NA 
HETATM   12  C   UNL     1      -6.208  15.101  69.181  1.00  0.00    -0.106 A  
HETATM   13  N   UNL     1      -6.719  14.307  68.164  1.00  0.00    -0.112 NA 
HETATM   14  C   UNL     1      -5.946  16.477  69.286  1.00  0.00    -0.165 A  
HETATM   15  C   UNL     1      -5.396  16.936  70.487  1.00  0.00    -0.213 A  
HETATM   16  C   UNL     1      -5.144  16.057  71.541  1.00  0.00    -0.024 A  
HETATM   17  C   UNL     1      -5.429  14.691  71.420  1.00  0.00    -0.113 A  
BRANCH  13  18
HETATM   18  C   UNL     1      -7.309  14.888  66.965  1.00  0.00     0.150 C  
BRANCH  18  19
HETATM   19  C   UNL     1      -8.356  15.944  67.256  1.00  0.00    -0.211 A  
HETATM   20  C   UNL     1      -8.329  17.136  66.512  1.00  0.00    -0.309 A  
HETATM   21  C   UNL     1      -9.135  18.213  66.879  1.00  0.00    -0.276 A  
HETATM   22  C   UNL     1      -9.992  18.091  67.967  1.00  0.00    -0.343 A  
HETATM   23  F   UNL     1     -10.698  19.153  68.373  1.00  0.00    -0.379 F  
HETATM   24  C   UNL     1     -10.112  16.889  68.648  1.00  0.00    -0.291 A  
HETATM   25  C   UNL     1      -9.314  15.808  68.278  1.00  0.00    -0.193 A  
ENDBRANCH  18  19
ENDBRANCH  13  18
ENDBRANCH   7   9
ENDBRANCH   2   3
BRANCH   2  26
HETATM   26  C   UNL     1      -9.130   7.594  66.167  1.00  0.00    -0.144 C  
HETATM   27  C   UNL     1     -11.024   6.616  67.013  1.00  0.00    -0.393 C  
HETATM   28  H   UNL     1      -7.788   6.301  65.309  1.00  0.00     0.000 HD 
HETATM   29  C   UNL     1      -9.414   5.220  65.934  1.00  0.00    -0.142 C  
HETATM   30  N   UNL     1     -10.280   7.738  66.771  1.00  0.00    -0.286 NA 
HETATM   31  O   UNL     1      -9.030   4.125  65.538  1.00  0.00    -0.122 OA 
HETATM   32  N   UNL     1      -8.698   6.366  65.764  1.00  0.00    -0.148 N  
HETATM   33  C   UNL     1     -10.691   5.383  66.638  1.00  0.00    -0.309 C  
ENDBRANCH   2  26
TORSDOF 5
ENDMDL
MODEL      195
REMARK 921   NORMALIZED FREE ENERGY PREDICTED BY IDOCK:   -3.52 KCAL/MOL
REMARK 922        TOTAL FREE ENERGY PREDICTED BY IDOCK:   -5.96 KCAL/MOL
REMARK 923 INTER-LIGAND FREE ENERGY PREDICTED BY IDOCK:   -5.06 KCAL/MOL
REMARK 924 INTRA-LIGAND FREE ENERGY PREDICTED BY IDOCK:   -0.91 KCAL/MOL
REMARK 927      BINDING AFFINITY PREDICTED BY RF-SCORE:    0.00 PKD
ROOT
HETATM    1  C   UNL     1      -9.082   4.125  62.360  1.00  0.00    -0.113 C  
HETATM    2  N   UNL     1      -9.097   4.641  63.745  1.00  0.00    -0.119 NA 
ENDROOT
BRANCH   2   3
HETATM    3  C   UNL     1      -9.804   3.741  64.702  1.00  0.00    -0.190 C  
HETATM    4  C   UNL     1     -10.633   4.510  65.721  1.00  0.00    -0.226 C  
HETATM    5  C   UNL     1      -8.973   2.625  65.318  1.00  0.00    -0.137 C  
HETATM    6  C   UNL     1      -9.885   4.877  66.989  1.00  0.00    -0.193 C  
HETATM    7  N   UNL     1      -9.223   3.728  67.607  1.00  0.00    -0.159 NA 
HETATM    8  C   UNL     1      -8.526   2.760  66.773  1.00  0.00    -0.101 C  
BRANCH   7   9
HETATM    9  C   UNL     1      -9.296   3.621  68.978  1.00  0.00    -0.169 A  
HETATM   10  C   UNL     1      -9.428   2.744  70.958  1.00  0.00    -0.156 A  
HETATM   11  N   UNL     1      -9.581   2.501  69.619  1.00  0.00    -0.052 NA 
HETATM   12  C   UNL     1      -9.109   4.073  71.181  1.00  0.00    -0.118 A  
HETATM   13  N   UNL     1      -9.097   4.636  69.913  1.00  0.00    -0.099 NA 
HETATM   14  C   UNL     1      -8.873   4.592  72.465  1.00  0.00    -0.126 A  
HETATM   15  C   UNL     1      -8.955   3.704  73.541  1.00  0.00    -0.096 A  
HETATM   16  C   UNL     1      -9.283   2.363  73.340  1.00  0.00    -0.093 A  
HETATM   17  C   UNL     1      -9.532   1.871  72.052  1.00  0.00    -0.171 A  
BRANCH  13  18
HETATM   18  C   UNL     1      -9.007   6.077  69.718  1.00  0.00    -0.133 C  
BRANCH  18  19
HETATM   19  C   UNL     1     -10.193   6.840  70.274  1.00  0.00    -0.216 A  
HETATM   20  C   UNL     1      -9.948   7.996  71.033  1.00  0.00    -0.208 A  
HETATM   21  C   UNL     1     -10.986   8.610  71.733  1.00  0.00    -0.396 A  
HETATM   22  C   UNL     1     -12.273   8.091  71.650  1.00  0.00    -0.307 A  
HETATM   23  F   UNL     1     -13.250   8.627  72.392  1.00  0.00    -0.362 F  
HETATM   24  C   UNL     1     -12.555   7.016  70.822  1.00  0.00    -0.195 A  
HETATM   25  C   UNL     1     -11.521   6.405  70.114  1.00  0.00    -0.484 A  
ENDBRANCH  18  19
ENDBRANCH  13  18
ENDBRANCH   7   9
ENDBRANCH   2   3
BRANCH   2  26
HETATM   26  C   UNL     1      -8.000   5.406  64.095  1.00  0.00    -0.118 C  
HETATM   27  C   UNL     1      -5.761   5.729  64.473  1.00  0.00    -0.024 C  
HETATM   28  H   UNL     1      -9.181   7.060  64.371  1.00  0.00     0.000 HD 
HETATM   29  C   UNL     1      -7.230   7.598  64.704  1.00  0.00    -0.075 C  
HETATM   30  N   UNL     1      -6.793   4.904  64.117  1.00  0.00    -0.047 NA 
HETATM   31  O   UNL     1      -7.437   8.785  64.935  1.00  0.00    -0.091 OA 
HETATM   32  N   UNL     1      -8.220   6.718  64.388  1.00  0.00    -0.046 N  
HETATM   33  C   UNL     1      -5.881   7.024  64.757  1.00  0.00    -0.036 C  
ENDBRANCH   2  26
TORSDOF 5
ENDMDL
MODEL      196
REMARK 921   NORMALIZED FREE ENERGY PREDICTED BY IDOCK:   -3.49 KCAL/MOL
REMARK 922        TOTAL FREE ENERGY PREDICTED BY IDOCK:   -5.93 KCAL/MOL
REMARK 923 INTER-LIGAND FREE ENERGY PREDICTED BY IDOCK:   -5.41 KCAL/MOL
REMARK 924 INTRA-LIGAND FREE ENERGY PREDICTED BY IDOCK:   -0.51 KCAL/MOL
REMARK 927      BINDING AFFINITY PREDICTED BY RF-SCORE:    0.00 PKD
ROOT
HETATM    1  C   UNL     1      -6.046  14.282  67.573  1.00  0.00     0.071 C  
HETATM    2  N   UNL     1      -6.054  13.459  68.801  1.00  0.00    -0.081 NA 
ENDROOT
BRANCH   2   3
HETATM    3  C   UNL     1      -5.689  12.033  68.557  1.00  0.00    -0.052 C  
HETATM    4  C   UNL     1      -5.953  11.603  67.121  1.00  0.00    -0.127 C  
HETATM    5  C   UNL     1      -6.176  11.026  69.589  1.00  0.00    -0.095 C  
HETATM    6  C   UNL     1      -7.341  11.041  66.880  1.00  0.00    -0.133 C  
HETATM    7  N   UNL     1      -7.692   9.977  67.822  1.00  0.00    -0.090 NA 
HETATM    8  C   UNL     1      -7.351  10.117  69.231  1.00  0.00    -0.098 C  
BRANCH   7   9
HETATM    9  C   UNL     1      -8.341   8.874  67.315  1.00  0.00    -0.104 A  
HETATM   10  C   UNL     1      -8.721   7.068  66.174  1.00  0.00    -0.145 A  
HETATM   11  N   UNL     1      -7.890   8.149  66.306  1.00  0.00    -0.093 NA 
HETATM   12  C   UNL     1      -9.771   7.145  67.073  1.00  0.00    -0.170 A  
HETATM   13  N   UNL     1      -9.554   8.338  67.747  1.00  0.00    -0.145 NA 
HETATM   14  C   UNL     1     -10.762   6.154  67.171  1.00  0.00    -0.422 A  
HETATM   15  C   UNL     1     -10.649   5.049  66.322  1.00  0.00    -0.332 A  
HETATM   16  C   UNL     1      -9.604   4.955  65.403  1.00  0.00    -0.115 A  
HETATM   17  C   UNL     1      -8.636   5.964  65.312  1.00  0.00    -0.119 A  
BRANCH  13  18
HETATM   18  C   UNL     1     -10.554   8.903  68.644  1.00  0.00    -0.147 C  
BRANCH  18  19
HETATM   19  C   UNL     1     -10.539   8.291  70.031  1.00  0.00    -0.235 A  
HETATM   20  C   UNL     1     -11.570   8.630  70.923  1.00  0.00    -0.307 A  
HETATM   21  C   UNL     1     -11.489   8.260  72.264  1.00  0.00    -0.452 A  
HETATM   22  C   UNL     1     -10.398   7.524  72.710  1.00  0.00    -0.278 A  
HETATM   23  F   UNL     1     -10.277   7.246  74.014  1.00  0.00    -0.348 F  
HETATM   24  C   UNL     1      -9.424   7.087  71.825  1.00  0.00    -0.157 A  
HETATM   25  C   UNL     1      -9.506   7.449  70.481  1.00  0.00    -0.161 A  
ENDBRANCH  18  19
ENDBRANCH  13  18
ENDBRANCH   7   9
ENDBRANCH   2   3
BRANCH   2  26
HETATM   26  C   UNL     1      -5.727  14.138  69.960  1.00  0.00    -0.123 C  
HETATM   27  C   UNL     1      -5.221  16.026  71.159  1.00  0.00    -0.076 C  
HETATM   28  H   UNL     1      -5.770  12.398  71.047  1.00  0.00     0.000 HD 
HETATM   29  C   UNL     1      -5.361  13.947  72.327  1.00  0.00    -0.198 C  
HETATM   30  N   UNL     1      -5.542  15.431  69.969  1.00  0.00    -0.123 NA 
HETATM   31  O   UNL     1      -5.310  13.284  73.357  1.00  0.00    -0.398 OA 
HETATM   32  N   UNL     1      -5.631  13.407  71.106  1.00  0.00    -0.203 N  
HETATM   33  C   UNL     1      -5.126  15.395  72.328  1.00  0.00     0.043 C  
ENDBRANCH   2  26
TORSDOF 5
ENDMDL
MODEL      197
REMARK 921   NORMALIZED FREE ENERGY PREDICTED BY IDOCK:   -3.41 KCAL/MOL
REMARK 922        TOTAL FREE ENERGY PREDICTED BY IDOCK:   -5.82 KCAL/MOL
REMARK 923 INTER-LIGAND FREE ENERGY PREDICTED BY IDOCK:   -5.49 KCAL/MOL
REMARK 924 INTRA-LIGAND FREE ENERGY PREDICTED BY IDOCK:   -0.32 KCAL/MOL
REMARK 927      BINDING AFFINITY PREDICTED BY RF-SCORE:    0.00 PKD
ROOT
HETATM    1  C   UNL     1     -11.785  16.530  68.623  1.00  0.00     0.106 C  
HETATM    2  N   UNL     1     -11.080  15.268  68.312  1.00  0.00    -0.286 NA 
ENDROOT
BRANCH   2   3
HETATM    3  C   UNL     1     -10.623  14.534  69.528  1.00  0.00    -0.107 C  
HETATM    4  C   UNL     1      -9.616  13.440  69.203  1.00  0.00     0.455 C  
HETATM    5  C   UNL     1     -11.709  14.087  70.494  1.00  0.00    -0.262 C  
HETATM    6  C   UNL     1     -10.234  12.086  68.908  1.00  0.00    -0.058 C  
HETATM    7  N   UNL     1     -11.166  11.652  69.950  1.00  0.00    -0.138 NA 
HETATM    8  C   UNL     1     -12.096  12.608  70.532  1.00  0.00    -0.275 C  
BRANCH   7   9
HETATM    9  C   UNL     1     -11.113  10.330  70.332  1.00  0.00    -0.319 A  
HETATM   10  C   UNL     1     -11.715   8.406  71.133  1.00  0.00    -0.280 A  
HETATM   11  N   UNL     1     -12.031   9.738  71.076  1.00  0.00    -0.327 NA 
HETATM   12  C   UNL     1     -10.525   8.156  70.472  1.00  0.00    -0.214 A  
HETATM   13  N   UNL     1     -10.116   9.405  70.025  1.00  0.00    -0.210 NA 
HETATM   14  C   UNL     1      -9.976   6.868  70.355  1.00  0.00    -0.190 A  
HETATM   15  C   UNL     1     -10.692   5.812  70.928  1.00  0.00    -0.333 A  
HETATM   16  C   UNL     1     -11.890   6.042  71.605  1.00  0.00    -0.142 A  
HETATM   17  C   UNL     1     -12.409   7.339  71.724  1.00  0.00    -0.375 A  
BRANCH  13  18
HETATM   18  C   UNL     1      -8.792   9.617  69.456  1.00  0.00    -0.190 C  
BRANCH  18  19
HETATM   19  C   UNL     1      -8.753   9.491  67.946  1.00  0.00    -0.119 A  
HETATM   20  C   UNL     1      -9.791   8.793  67.306  1.00  0.00    -0.260 A  
HETATM   21  C   UNL     1      -9.695   8.475  65.952  1.00  0.00    -0.101 A  
HETATM   22  C   UNL     1      -8.580   8.880  65.229  1.00  0.00    -0.184 A  
HETATM   23  F   UNL     1      -8.446   8.497  63.953  1.00  0.00    -0.172 F  
HETATM   24  C   UNL     1      -7.596   9.661  65.815  1.00  0.00    -0.103 A  
HETATM   25  C   UNL     1      -7.693   9.988  67.166  1.00  0.00    -0.092 A  
ENDBRANCH  18  19
ENDBRANCH  13  18
ENDBRANCH   7   9
ENDBRANCH   2   3
BRANCH   2  26
HETATM   26  C   UNL     1     -11.500  14.634  67.158  1.00  0.00    -0.368 C  
HETATM   27  C   UNL     1     -13.075  13.636  65.822  1.00  0.00     0.007 C  
HETATM   28  H   UNL     1      -9.615  14.741  66.356  1.00  0.00     0.000 HD 
HETATM   29  C   UNL     1     -10.855  13.874  64.972  1.00  0.00    -0.382 C  
HETATM   30  N   UNL     1     -12.741  14.256  66.995  1.00  0.00     0.213 NA 
HETATM   31  O   UNL     1     -10.020  13.736  64.085  1.00  0.00    -0.046 OA 
HETATM   32  N   UNL     1     -10.574  14.443  66.178  1.00  0.00    -0.291 N  
HETATM   33  C   UNL     1     -12.242  13.425  64.805  1.00  0.00    -0.454 C  
ENDBRANCH   2  26
TORSDOF 5
ENDMDL
MODEL      198
REMARK 921   NORMALIZED FREE ENERGY PREDICTED BY IDOCK:   -3.39 KCAL/MOL
REMARK 922        TOTAL FREE ENERGY PREDICTED BY IDOCK:   -5.79 KCAL/MOL
REMARK 923 INTER-LIGAND FREE ENERGY PREDICTED BY IDOCK:   -5.09 KCAL/MOL
REMARK 924 INTRA-LIGAND FREE ENERGY PREDICTED BY IDOCK:   -0.70 KCAL/MOL
REMARK 927      BINDING AFFINITY PREDICTED BY RF-SCORE:    0.00 PKD
ROOT
HETATM    1  C   UNL     1     -10.529   5.153  69.951  1.00  0.00    -0.226 C  
HETATM    2  N   UNL     1      -9.579   5.848  70.845  1.00  0.00    -0.168 NA 
ENDROOT
BRANCH   2   3
HETATM    3  C   UNL     1     -10.247   6.757  71.821  1.00  0.00    -0.190 C  
HETATM    4  C   UNL     1     -11.680   7.085  71.425  1.00  0.00    -0.344 C  
HETATM    5  C   UNL     1      -9.449   7.976  72.263  1.00  0.00    -0.272 C  
HETATM    6  C   UNL     1     -11.822   8.312  70.545  1.00  0.00    -0.001 C  
HETATM    7  N   UNL     1     -11.147   9.487  71.100  1.00  0.00    -0.352 NA 
HETATM    8  C   UNL     1      -9.830   9.346  71.703  1.00  0.00     0.122 C  
BRANCH   7   9
HETATM    9  C   UNL     1     -11.810  10.691  71.019  1.00  0.00    -0.296 A  
HETATM   10  C   UNL     1     -13.218  12.285  71.448  1.00  0.00    -0.086 A  
HETATM   11  N   UNL     1     -12.935  10.961  71.658  1.00  0.00    -0.464 NA 
HETATM   12  C   UNL     1     -12.290  12.855  70.593  1.00  0.00    -0.302 A  
HETATM   13  N   UNL     1     -11.437  11.808  70.272  1.00  0.00    -0.117 NA 
HETATM   14  C   UNL     1     -12.328  14.209  70.225  1.00  0.00    -0.421 A  
HETATM   15  C   UNL     1     -13.348  14.994  70.771  1.00  0.00    -0.362 A  
HETATM   16  C   UNL     1     -14.298  14.439  71.629  1.00  0.00    -0.516 A  
HETATM   17  C   UNL     1     -14.250  13.080  71.968  1.00  0.00     0.125 A  
BRANCH  13  18
HETATM   18  C   UNL     1     -10.433  11.935  69.224  1.00  0.00     0.091 C  
BRANCH  18  19
HETATM   19  C   UNL     1     -10.210  10.657  68.440  1.00  0.00    -0.191 A  
HETATM   20  C   UNL     1      -8.948  10.045  68.502  1.00  0.00    -0.124 A  
HETATM   21  C   UNL     1      -8.633   8.993  67.644  1.00  0.00    -0.120 A  
HETATM   22  C   UNL     1      -9.588   8.528  66.748  1.00  0.00    -0.210 A  
HETATM   23  F   UNL     1      -9.256   7.578  65.863  1.00  0.00    -0.191 F  
HETATM   24  C   UNL     1     -10.874   9.046  66.744  1.00  0.00     0.062 A  
HETATM   25  C   UNL     1     -11.194  10.093  67.607  1.00  0.00    -0.169 A  
ENDBRANCH  18  19
ENDBRANCH  13  18
ENDBRANCH   7   9
ENDBRANCH   2   3
BRANCH   2  26
HETATM   26  C   UNL     1      -8.426   5.142  71.134  1.00  0.00    -0.122 C  
HETATM   27  C   UNL     1      -7.186   3.650  72.357  1.00  0.00    -0.048 C  
HETATM   28  H   UNL     1      -7.449   5.994  69.544  1.00  0.00     0.000 HD 
HETATM   29  C   UNL     1      -6.176   4.662  70.444  1.00  0.00    -0.022 C  
HETATM   30  N   UNL     1      -8.365   4.310  72.141  1.00  0.00    -0.101 NA 
HETATM   31  O   UNL     1      -5.233   4.810  69.674  1.00  0.00     0.000 OA 
HETATM   32  N   UNL     1      -7.358   5.324  70.308  1.00  0.00    -0.065 N  
HETATM   33  C   UNL     1      -6.102   3.751  71.592  1.00  0.00    -0.014 C  
ENDBRANCH   2  26
TORSDOF 5
ENDMDL
MODEL      199
REMARK 921   NORMALIZED FREE ENERGY PREDICTED BY IDOCK:   -3.27 KCAL/MOL
REMARK 922        TOTAL FREE ENERGY PREDICTED BY IDOCK:   -5.64 KCAL/MOL
REMARK 923 INTER-LIGAND FREE ENERGY PREDICTED BY IDOCK:   -4.90 KCAL/MOL
REMARK 924 INTRA-LIGAND FREE ENERGY PREDICTED BY IDOCK:   -0.74 KCAL/MOL
REMARK 927      BINDING AFFINITY PREDICTED BY RF-SCORE:    0.00 PKD
ROOT
HETATM    1  C   UNL     1      -7.090  12.773  68.741  1.00  0.00    -0.089 C  
HETATM    2  N   UNL     1      -7.467  11.768  67.724  1.00  0.00    -0.109 NA 
ENDROOT
BRANCH   2   3
HETATM    3  C   UNL     1      -6.752  10.469  67.887  1.00  0.00    -0.065 C  
HETATM    4  C   UNL     1      -6.549   9.747  66.562  1.00  0.00    -0.072 C  
HETATM    5  C   UNL     1      -7.250   9.559  69.000  1.00  0.00    -0.071 C  
HETATM    6  C   UNL     1      -7.677   8.806  66.181  1.00  0.00    -0.101 C  
HETATM    7  N   UNL     1      -8.012   7.864  67.249  1.00  0.00    -0.116 NA 
HETATM    8  C   UNL     1      -8.073   8.325  68.629  1.00  0.00    -0.120 C  
BRANCH   7   9
HETATM    9  C   UNL     1      -8.259   6.559  66.884  1.00  0.00    -0.113 A  
HETATM   10  C   UNL     1      -8.821   4.842  65.683  1.00  0.00    -0.135 A  
HETATM   11  N   UNL     1      -8.882   6.208  65.772  1.00  0.00    -0.150 NA 
HETATM   12  C   UNL     1      -8.209   4.304  66.803  1.00  0.00    -0.101 A  
HETATM   13  N   UNL     1      -7.918   5.408  67.593  1.00  0.00    -0.100 NA 
HETATM   14  C   UNL     1      -7.994   2.926  66.963  1.00  0.00    -0.075 A  
HETATM   15  C   UNL     1      -8.411   2.087  65.926  1.00  0.00    -0.102 A  
HETATM   16  C   UNL     1      -9.037   2.606  64.792  1.00  0.00    -0.135 A  
HETATM   17  C   UNL     1      -9.257   3.984  64.662  1.00  0.00    -0.151 A  
BRANCH  13  18
HETATM   18  C   UNL     1      -7.453   5.263  68.966  1.00  0.00    -0.070 C  
BRANCH  18  19
HETATM   19  C   UNL     1      -8.562   5.356  69.995  1.00  0.00    -0.124 A  
HETATM   20  C   UNL     1      -8.215   5.607  71.332  1.00  0.00    -0.122 A  
HETATM   21  C   UNL     1      -9.171   5.497  72.340  1.00  0.00    -0.153 A  
HETATM   22  C   UNL     1     -10.481   5.169  72.012  1.00  0.00    -0.215 A  
HETATM   23  F   UNL     1     -11.378   4.975  72.987  1.00  0.00    -0.302 F  
HETATM   24  C   UNL     1     -10.868   5.022  70.689  1.00  0.00     0.114 A  
HETATM   25  C   UNL     1      -9.916   5.140  69.678  1.00  0.00    -0.313 A  
ENDBRANCH  18  19
ENDBRANCH  13  18
ENDBRANCH   7   9
ENDBRANCH   2   3
BRANCH   2  26
HETATM   26  C   UNL     1      -8.766  11.865  67.263  1.00  0.00    -0.171 C  
HETATM   27  C   UNL     1     -10.349  12.355  65.677  1.00  0.00    -0.258 C  
HETATM   28  H   UNL     1      -9.502  11.161  69.044  1.00  0.00     0.000 HD 
HETATM   29  C   UNL     1     -11.080  11.469  67.771  1.00  0.00    -0.260 C  
HETATM   30  N   UNL     1      -9.036  12.290  66.057  1.00  0.00    -0.087 NA 
HETATM   31  O   UNL     1     -11.964  11.082  68.529  1.00  0.00    -0.535 OA 
HETATM   32  N   UNL     1      -9.761  11.471  68.107  1.00  0.00    -0.186 N  
HETATM   33  C   UNL     1     -11.381  11.974  66.427  1.00  0.00    -0.411 C  
ENDBRANCH   2  26
TORSDOF 5
ENDMDL
MODEL      200
REMARK 921   NORMALIZED FREE ENERGY PREDICTED BY IDOCK:   -3.24 KCAL/MOL
REMARK 922        TOTAL FREE ENERGY PREDICTED BY IDOCK:   -5.59 KCAL/MOL
REMARK 923 INTER-LIGAND FREE ENERGY PREDICTED BY IDOCK:   -5.74 KCAL/MOL
REMARK 924 INTRA-LIGAND FREE ENERGY PREDICTED BY IDOCK:    0.14 KCAL/MOL
REMARK 927      BINDING AFFINITY PREDICTED BY RF-SCORE:    0.00 PKD
ROOT
HETATM    1  C   UNL     1      -8.037   9.603  65.580  1.00  0.00    -0.117 C  
HETATM    2  N   UNL     1      -8.764   9.209  66.806  1.00  0.00    -0.126 NA 
ENDROOT
BRANCH   2   3
HETATM    3  C   UNL     1      -9.543  10.328  67.414  1.00  0.00    -0.158 C  
HETATM    4  C   UNL     1     -10.337  11.113  66.380  1.00  0.00    -0.300 C  
HETATM    5  C   UNL     1      -8.793  11.213  68.399  1.00  0.00    -0.157 C  
HETATM    6  C   UNL     1      -9.588  12.282  65.768  1.00  0.00    -0.176 C  
HETATM    7  N   UNL     1      -9.010  13.172  66.776  1.00  0.00    -0.210 NA 
HETATM    8  C   UNL     1      -8.362  12.610  67.952  1.00  0.00    -0.172 C  
BRANCH   7   9
HETATM    9  C   UNL     1      -9.112  14.527  66.553  1.00  0.00    -0.219 A  
HETATM   10  C   UNL     1      -9.978  16.474  66.146  1.00  0.00    -0.343 A  
HETATM   11  N   UNL     1     -10.206  15.124  66.113  1.00  0.00    -0.278 NA 
HETATM   12  C   UNL     1      -8.679  16.742  66.545  1.00  0.00    -0.275 A  
HETATM   13  N   UNL     1      -8.117  15.487  66.735  1.00  0.00    -0.238 NA 
HETATM   14  C   UNL     1      -8.181  18.047  66.688  1.00  0.00    -0.285 A  
HETATM   15  C   UNL     1      -9.061  19.101  66.423  1.00  0.00    -0.362 A  
HETATM   16  C   UNL     1     -10.371  18.855  66.012  1.00  0.00    -0.485 A  
HETATM   17  C   UNL     1     -10.840  17.543  65.859  1.00  0.00     0.014 A  
BRANCH  13  18
HETATM   18  C   UNL     1      -6.688  15.316  66.960  1.00  0.00     0.337 C  
BRANCH  18  19
HETATM   19  C   UNL     1      -6.138  16.196  68.063  1.00  0.00    -0.131 A  
HETATM   20  C   UNL     1      -6.404  15.842  69.396  1.00  0.00    -0.160 A  
HETATM   21  C   UNL     1      -6.099  16.724  70.432  1.00  0.00     0.204 A  
HETATM   22  C   UNL     1      -5.498  17.943  70.143  1.00  0.00    -0.247 A  
HETATM   23  F   UNL     1      -5.288  18.826  71.127  1.00  0.00    -0.232 F  
HETATM   24  C   UNL     1      -5.130  18.266  68.846  1.00  0.00    -0.176 A  
HETATM   25  C   UNL     1      -5.426  17.382  67.809  1.00  0.00    -0.128 A  
ENDBRANCH  18  19
ENDBRANCH  13  18
ENDBRANCH   7   9
ENDBRANCH   2   3
BRANCH   2  26
HETATM   26  C   UNL     1      -9.180   7.891  66.840  1.00  0.00    -0.155 C  
HETATM   27  C   UNL     1     -10.771   6.244  66.950  1.00  0.00    -0.339 C  
HETATM   28  H   UNL     1      -7.243   7.228  66.704  1.00  0.00     0.000 HD 
HETATM   29  C   UNL     1      -8.483   5.595  66.728  1.00  0.00    -0.111 C  
HETATM   30  N   UNL     1     -10.444   7.572  66.923  1.00  0.00    -0.325 NA 
HETATM   31  O   UNL     1      -7.610   4.740  66.617  1.00  0.00    -0.085 OA 
HETATM   32  N   UNL     1      -8.217   6.931  66.753  1.00  0.00    -0.112 N  
HETATM   33  C   UNL     1      -9.901   5.241  66.851  1.00  0.00    -0.191 C  
ENDBRANCH   2  26
TORSDOF 5
ENDMDL
MODEL      201
REMARK 921   NORMALIZED FREE ENERGY PREDICTED BY IDOCK:   -3.21 KCAL/MOL
REMARK 922        TOTAL FREE ENERGY PREDICTED BY IDOCK:   -5.56 KCAL/MOL
REMARK 923 INTER-LIGAND FREE ENERGY PREDICTED BY IDOCK:   -4.68 KCAL/MOL
REMARK 924 INTRA-LIGAND FREE ENERGY PREDICTED BY IDOCK:   -0.88 KCAL/MOL
REMARK 927      BINDING AFFINITY PREDICTED BY RF-SCORE:    0.00 PKD
ROOT
HETATM    1  C   UNL     1     -13.798  13.368  71.287  1.00  0.00     0.370 C  
HETATM    2  N   UNL     1     -12.781  13.661  70.255  1.00  0.00    -0.171 NA 
ENDROOT
BRANCH   2   3
HETATM    3  C   UNL     1     -12.184  15.022  70.387  1.00  0.00    -0.341 C  
HETATM    4  C   UNL     1     -12.273  15.824  69.097  1.00  0.00    -0.095 C  
HETATM    5  C   UNL     1     -10.817  15.097  71.052  1.00  0.00    -0.123 C  
HETATM    6  C   UNL     1     -11.085  15.652  68.168  1.00  0.00    -0.330 C  
HETATM    7  N   UNL     1      -9.805  15.877  68.841  1.00  0.00    -0.214 NA 
HETATM    8  C   UNL     1      -9.587  15.344  70.178  1.00  0.00     0.191 C  
BRANCH   7   9
HETATM    9  C   UNL     1      -8.851  16.597  68.157  1.00  0.00    -0.206 A  
HETATM   10  C   UNL     1      -7.951  18.071  66.843  1.00  0.00    -0.231 A  
HETATM   11  N   UNL     1      -9.124  17.450  67.186  1.00  0.00    -0.232 NA 
HETATM   12  C   UNL     1      -6.891  17.545  67.563  1.00  0.00    -0.159 A  
HETATM   13  N   UNL     1      -7.470  16.558  68.347  1.00  0.00    -0.177 NA 
HETATM   14  C   UNL     1      -5.574  18.014  67.427  1.00  0.00    -0.145 A  
HETATM   15  C   UNL     1      -5.357  19.066  66.532  1.00  0.00    -0.162 A  
HETATM   16  C   UNL     1      -6.409  19.605  65.791  1.00  0.00    -0.233 A  
HETATM   17  C   UNL     1      -7.712  19.109  65.930  1.00  0.00    -0.202 A  
BRANCH  13  18
HETATM   18  C   UNL     1      -6.661  15.614  69.108  1.00  0.00    -0.149 C  
BRANCH  18  19
HETATM   19  C   UNL     1      -6.427  14.300  68.390  1.00  0.00    -0.106 A  
HETATM   20  C   UNL     1      -7.455  13.786  67.583  1.00  0.00    -0.187 A  
HETATM   21  C   UNL     1      -7.368  12.492  67.072  1.00  0.00     0.013 A  
HETATM   22  C   UNL     1      -6.241  11.723  67.337  1.00  0.00    -0.108 A  
HETATM   23  F   UNL     1      -6.198  10.451  66.922  1.00  0.00    -0.058 F  
HETATM   24  C   UNL     1      -5.169  12.249  68.040  1.00  0.00    -0.068 A  
HETATM   25  C   UNL     1      -5.250  13.545  68.546  1.00  0.00    -0.084 A  
ENDBRANCH  18  19
ENDBRANCH  13  18
ENDBRANCH   7   9
ENDBRANCH   2   3
BRANCH   2  26
HETATM   26  C   UNL     1     -12.072  12.563  69.806  1.00  0.00    -0.224 C  
HETATM   27  C   UNL     1     -10.901  10.614  70.104  1.00  0.00    -0.157 C  
HETATM   28  H   UNL     1     -12.299  13.156  67.855  1.00  0.00     0.000 HD 
HETATM   29  C   UNL     1     -11.284  11.375  67.873  1.00  0.00    -0.288 C  
HETATM   30  N   UNL     1     -11.590  11.672  70.631  1.00  0.00     0.029 NA 
HETATM   31  O   UNL     1     -11.180  11.247  66.657  1.00  0.00    -0.284 OA 
HETATM   32  N   UNL     1     -11.918  12.428  68.459  1.00  0.00    -0.289 N  
HETATM   33  C   UNL     1     -10.719  10.392  68.805  1.00  0.00    -0.255 C  
ENDBRANCH   2  26
TORSDOF 5
ENDMDL
MODEL      202
REMARK 921   NORMALIZED FREE ENERGY PREDICTED BY IDOCK:   -3.05 KCAL/MOL
REMARK 922        TOTAL FREE ENERGY PREDICTED BY IDOCK:   -5.35 KCAL/MOL
REMARK 923 INTER-LIGAND FREE ENERGY PREDICTED BY IDOCK:   -5.13 KCAL/MOL
REMARK 924 INTRA-LIGAND FREE ENERGY PREDICTED BY IDOCK:   -0.22 KCAL/MOL
REMARK 927      BINDING AFFINITY PREDICTED BY RF-SCORE:    0.00 PKD
ROOT
HETATM    1  C   UNL     1      -6.789   5.910  73.036  1.00  0.00    -0.075 C  
HETATM    2  N   UNL     1      -7.151   5.638  71.629  1.00  0.00    -0.078 NA 
ENDROOT
BRANCH   2   3
HETATM    3  C   UNL     1      -6.613   6.653  70.676  1.00  0.00    -0.053 C  
HETATM    4  C   UNL     1      -6.608   8.057  71.264  1.00  0.00    -0.042 C  
HETATM    5  C   UNL     1      -7.152   6.596  69.255  1.00  0.00    -0.084 C  
HETATM    6  C   UNL     1      -7.880   8.846  71.016  1.00  0.00    -0.137 C  
HETATM    7  N   UNL     1      -8.265   8.867  69.604  1.00  0.00    -0.109 NA 
HETATM    8  C   UNL     1      -8.163   7.653  68.808  1.00  0.00    -0.128 C  
BRANCH   7   9
HETATM    9  C   UNL     1      -8.717  10.063  69.092  1.00  0.00    -0.167 A  
HETATM   10  C   UNL     1      -8.707  12.043  68.205  1.00  0.00    -0.178 A  
HETATM   11  N   UNL     1      -7.935  11.094  68.823  1.00  0.00    -0.143 NA 
HETATM   12  C   UNL     1     -10.030  11.636  68.147  1.00  0.00    -0.195 A  
HETATM   13  N   UNL     1     -10.033  10.401  68.779  1.00  0.00    -0.179 NA 
HETATM   14  C   UNL     1     -11.036  12.409  67.544  1.00  0.00    -0.293 A  
HETATM   15  C   UNL     1     -10.654  13.627  66.974  1.00  0.00    -0.274 A  
HETATM   16  C   UNL     1      -9.329  14.060  67.028  1.00  0.00    -0.256 A  
HETATM   17  C   UNL     1      -8.345  13.280  67.651  1.00  0.00    -0.181 A  
BRANCH  13  18
HETATM   18  C   UNL     1     -11.275   9.720  69.118  1.00  0.00    -0.061 C  
BRANCH  18  19
HETATM   19  C   UNL     1     -11.136   8.741  70.267  1.00  0.00    -0.240 A  
HETATM   20  C   UNL     1     -11.107   7.368  69.976  1.00  0.00    -0.238 A  
HETATM   21  C   UNL     1     -11.188   6.429  71.004  1.00  0.00    -0.370 A  
HETATM   22  C   UNL     1     -11.264   6.859  72.323  1.00  0.00    -0.263 A  
HETATM   23  F   UNL     1     -11.433   5.961  73.302  1.00  0.00    -0.249 F  
HETATM   24  C   UNL     1     -11.187   8.207  72.639  1.00  0.00    -0.447 A  
HETATM   25  C   UNL     1     -11.097   9.147  71.614  1.00  0.00    -0.445 A  
ENDBRANCH  18  19
ENDBRANCH  13  18
ENDBRANCH   7   9
ENDBRANCH   2   3
BRANCH   2  26
HETATM   26  C   UNL     1      -7.292   4.301  71.311  1.00  0.00    -0.051 C  
HETATM   27  C   UNL     1      -8.514   2.387  70.983  1.00  0.00    -0.057 C  
HETATM   28  H   UNL     1      -5.274   4.114  70.994  1.00  0.00     0.000 HD 
HETATM   29  C   UNL     1      -6.160   2.310  70.585  1.00  0.00    -0.019 C  
HETATM   30  N   UNL     1      -8.461   3.715  71.312  1.00  0.00    -0.068 NA 
HETATM   31  O   UNL     1      -5.143   1.714  70.246  1.00  0.00    -0.003 OA 
HETATM   32  N   UNL     1      -6.165   3.618  70.966  1.00  0.00    -0.018 N  
HETATM   33  C   UNL     1      -7.469   1.649  70.616  1.00  0.00    -0.033 C  
ENDBRANCH   2  26
TORSDOF 5
ENDMDL
MODEL      203
REMARK 921   NORMALIZED FREE ENERGY PREDICTED BY IDOCK:   -3.00 KCAL/MOL
REMARK 922        TOTAL FREE ENERGY PREDICTED BY IDOCK:   -5.29 KCAL/MOL
REMARK 923 INTER-LIGAND FREE ENERGY PREDICTED BY IDOCK:   -5.46 KCAL/MOL
REMARK 924 INTRA-LIGAND FREE ENERGY PREDICTED BY IDOCK:    0.16 KCAL/MOL
REMARK 927      BINDING AFFINITY PREDICTED BY RF-SCORE:    0.00 PKD
ROOT
HETATM    1  C   UNL     1     -12.537  13.858  66.148  1.00  0.00    -0.380 C  
HETATM    2  N   UNL     1     -11.944  13.344  67.401  1.00  0.00    -0.364 NA 
ENDROOT
BRANCH   2   3
HETATM    3  C   UNL     1     -11.359  11.978  67.259  1.00  0.00    -0.330 C  
HETATM    4  C   UNL     1     -11.855  11.018  68.331  1.00  0.00    -0.254 C  
HETATM    5  C   UNL     1      -9.856  11.908  67.034  1.00  0.00    -0.206 C  
HETATM    6  C   UNL     1     -11.007  10.992  69.590  1.00  0.00    -0.225 C  
HETATM    7  N   UNL     1      -9.586  10.781  69.309  1.00  0.00    -0.153 NA 
HETATM    8  C   UNL     1      -8.959  11.473  68.193  1.00  0.00    -0.172 C  
BRANCH   7   9
HETATM    9  C   UNL     1      -8.902   9.919  70.137  1.00  0.00    -0.104 A  
HETATM   10  C   UNL     1      -8.502   8.465  71.696  1.00  0.00    -0.163 A  
HETATM   11  N   UNL     1      -9.424   9.354  71.211  1.00  0.00    -0.246 NA 
HETATM   12  C   UNL     1      -7.333   8.519  70.956  1.00  0.00    -0.074 A  
HETATM   13  N   UNL     1      -7.578   9.501  70.007  1.00  0.00    -0.113 NA 
HETATM   14  C   UNL     1      -6.227   7.695  71.221  1.00  0.00    -0.035 A  
HETATM   15  C   UNL     1      -6.345   6.782  72.273  1.00  0.00    -0.049 A  
HETATM   16  C   UNL     1      -7.511   6.716  73.037  1.00  0.00    -0.088 A  
HETATM   17  C   UNL     1      -8.595   7.560  72.765  1.00  0.00    -0.159 A  
BRANCH  13  18
HETATM   18  C   UNL     1      -6.518  10.019  69.152  1.00  0.00    -0.048 C  
BRANCH  18  19
HETATM   19  C   UNL     1      -6.629   9.570  67.709  1.00  0.00    -0.062 A  
HETATM   20  C   UNL     1      -7.033   8.251  67.447  1.00  0.00    -0.075 A  
HETATM   21  C   UNL     1      -6.952   7.733  66.156  1.00  0.00    -0.062 A  
HETATM   22  C   UNL     1      -6.500   8.540  65.119  1.00  0.00    -0.063 A  
HETATM   23  F   UNL     1      -6.337   8.017  63.897  1.00  0.00    -0.062 F  
HETATM   24  C   UNL     1      -6.198   9.876  65.335  1.00  0.00    -0.087 A  
HETATM   25  C   UNL     1      -6.286  10.399  66.624  1.00  0.00    -0.073 A  
ENDBRANCH  18  19
ENDBRANCH  13  18
ENDBRANCH   7   9
ENDBRANCH   2   3
BRANCH   2  26
HETATM   26  C   UNL     1     -11.417  14.310  68.237  1.00  0.00    -0.304 C  
HETATM   27  C   UNL     1     -10.516  15.043  70.215  1.00  0.00    -0.031 C  
HETATM   28  H   UNL     1     -11.621  15.745  66.785  1.00  0.00     0.000 HD 
HETATM   29  C   UNL     1     -10.747  16.609  68.426  1.00  0.00    -0.353 C  
HETATM   30  N   UNL     1     -11.028  14.028  69.453  1.00  0.00    -0.201 NA 
HETATM   31  O   UNL     1     -10.608  17.731  67.951  1.00  0.00    -0.386 OA 
HETATM   32  N   UNL     1     -11.290  15.570  67.734  1.00  0.00    -0.317 N  
HETATM   33  C   UNL     1     -10.339  16.295  69.800  1.00  0.00    -0.219 C  
ENDBRANCH   2  26
TORSDOF 5
ENDMDL
MODEL      204
REMARK 921   NORMALIZED FREE ENERGY PREDICTED BY IDOCK:   -2.66 KCAL/MOL
REMARK 922        TOTAL FREE ENERGY PREDICTED BY IDOCK:   -4.85 KCAL/MOL
REMARK 923 INTER-LIGAND FREE ENERGY PREDICTED BY IDOCK:   -4.08 KCAL/MOL
REMARK 924 INTRA-LIGAND FREE ENERGY PREDICTED BY IDOCK:   -0.77 KCAL/MOL
REMARK 927      BINDING AFFINITY PREDICTED BY RF-SCORE:    0.00 PKD
ROOT
HETATM    1  C   UNL     1      -6.233   5.938  65.552  1.00  0.00    -0.037 C  
HETATM    2  N   UNL     1      -6.030   7.381  65.800  1.00  0.00    -0.037 NA 
ENDROOT
BRANCH   2   3
HETATM    3  C   UNL     1      -6.599   8.249  64.728  1.00  0.00    -0.067 C  
HETATM    4  C   UNL     1      -6.340   9.728  64.977  1.00  0.00    -0.096 C  
HETATM    5  C   UNL     1      -8.030   7.949  64.306  1.00  0.00    -0.130 C  
HETATM    6  C   UNL     1      -7.419  10.426  65.785  1.00  0.00    -0.147 C  
HETATM    7  N   UNL     1      -8.760  10.210  65.242  1.00  0.00    -0.156 NA 
HETATM    8  C   UNL     1      -9.145   8.889  64.767  1.00  0.00     0.054 C  
BRANCH   7   9
HETATM    9  C   UNL     1      -9.609  11.294  65.208  1.00  0.00    -0.232 A  
HETATM   10  C   UNL     1     -11.025  12.762  64.469  1.00  0.00    -0.341 A  
HETATM   11  N   UNL     1     -10.137  11.786  64.101  1.00  0.00    -0.291 NA 
HETATM   12  C   UNL     1     -11.008  12.947  65.841  1.00  0.00    -0.276 A  
HETATM   13  N   UNL     1     -10.049  12.052  66.292  1.00  0.00    -0.217 NA 
HETATM   14  C   UNL     1     -11.840  13.872  66.493  1.00  0.00    -0.440 A  
HETATM   15  C   UNL     1     -12.723  14.612  65.699  1.00  0.00    -0.039 A  
HETATM   16  C   UNL     1     -12.751  14.446  64.314  1.00  0.00     0.051 A  
HETATM   17  C   UNL     1     -11.899  13.530  63.684  1.00  0.00    -0.383 A  
BRANCH  13  18
HETATM   18  C   UNL     1      -9.570  12.075  67.668  1.00  0.00    -0.188 C  
BRANCH  18  19
HETATM   19  C   UNL     1      -8.310  12.894  67.858  1.00  0.00    -0.170 A  
HETATM   20  C   UNL     1      -7.431  12.539  68.895  1.00  0.00     0.011 A  
HETATM   21  C   UNL     1      -6.372  13.379  69.238  1.00  0.00    -0.110 A  
HETATM   22  C   UNL     1      -6.170  14.556  68.527  1.00  0.00    -0.089 A  
HETATM   23  F   UNL     1      -5.210  15.404  68.914  1.00  0.00    -0.095 F  
HETATM   24  C   UNL     1      -6.960  14.871  67.432  1.00  0.00    -0.162 A  
HETATM   25  C   UNL     1      -8.014  14.029  67.081  1.00  0.00    -0.083 A  
ENDBRANCH  18  19
ENDBRANCH  13  18
ENDBRANCH   7   9
ENDBRANCH   2   3
BRANCH   2  26
HETATM   26  C   UNL     1      -6.001   7.745  67.133  1.00  0.00    -0.048 C  
HETATM   27  C   UNL     1      -5.169   8.912  68.924  1.00  0.00    -0.037 C  
HETATM   28  H   UNL     1      -7.590   6.517  67.552  1.00  0.00     0.000 HD 
HETATM   29  C   UNL     1      -7.059   7.494  69.275  1.00  0.00    -0.077 C  
HETATM   30  N   UNL     1      -5.129   8.605  67.591  1.00  0.00    -0.034 NA 
HETATM   31  O   UNL     1      -7.928   7.015  69.996  1.00  0.00    -0.111 OA 
HETATM   32  N   UNL     1      -6.940   7.193  67.952  1.00  0.00    -0.077 N  
HETATM   33  C   UNL     1      -6.060   8.437  69.791  1.00  0.00    -0.028 C  
ENDBRANCH   2  26
TORSDOF 5
ENDMDL
MODEL      205
REMARK 921   NORMALIZED FREE ENERGY PREDICTED BY IDOCK:   -2.65 KCAL/MOL
REMARK 922        TOTAL FREE ENERGY PREDICTED BY IDOCK:   -4.84 KCAL/MOL
REMARK 923 INTER-LIGAND FREE ENERGY PREDICTED BY IDOCK:   -4.24 KCAL/MOL
REMARK 924 INTRA-LIGAND FREE ENERGY PREDICTED BY IDOCK:   -0.60 KCAL/MOL
REMARK 927      BINDING AFFINITY PREDICTED BY RF-SCORE:    0.00 PKD
ROOT
HETATM    1  C   UNL     1      -9.286   3.058  70.387  1.00  0.00    -0.141 C  
HETATM    2  N   UNL     1      -8.279   3.889  71.082  1.00  0.00    -0.070 NA 
ENDROOT
BRANCH   2   3
HETATM    3  C   UNL     1      -7.317   4.548  70.152  1.00  0.00    -0.050 C  
HETATM    4  C   UNL     1      -7.441   6.065  70.166  1.00  0.00    -0.090 C  
HETATM    5  C   UNL     1      -7.224   3.963  68.751  1.00  0.00    -0.054 C  
HETATM    6  C   UNL     1      -8.429   6.623  69.159  1.00  0.00    -0.124 C  
HETATM    7  N   UNL     1      -8.195   6.126  67.802  1.00  0.00    -0.116 NA 
HETATM    8  C   UNL     1      -7.871   4.722  67.592  1.00  0.00    -0.090 C  
BRANCH   7   9
HETATM    9  C   UNL     1      -8.296   7.033  66.772  1.00  0.00    -0.116 A  
HETATM   10  C   UNL     1      -8.051   7.950  64.821  1.00  0.00    -0.141 A  
HETATM   11  N   UNL     1      -7.584   6.972  65.660  1.00  0.00    -0.088 NA 
HETATM   12  C   UNL     1      -9.035   8.700  65.442  1.00  0.00    -0.130 A  
HETATM   13  N   UNL     1      -9.132   8.148  66.711  1.00  0.00    -0.149 NA 
HETATM   14  C   UNL     1      -9.703   9.756  64.801  1.00  0.00    -0.213 A  
HETATM   15  C   UNL     1      -9.350  10.028  63.475  1.00  0.00    -0.301 A  
HETATM   16  C   UNL     1      -8.356   9.289  62.833  1.00  0.00    -0.193 A  
HETATM   17  C   UNL     1      -7.690   8.252  63.498  1.00  0.00    -0.142 A  
BRANCH  13  18
HETATM   18  C   UNL     1      -9.913   8.784  67.764  1.00  0.00    -0.194 C  
BRANCH  18  19
HETATM   19  C   UNL     1      -9.468  10.198  68.079  1.00  0.00    -0.156 A  
HETATM   20  C   UNL     1     -10.444  11.205  68.159  1.00  0.00    -0.215 A  
HETATM   21  C   UNL     1     -10.067  12.544  68.241  1.00  0.00    -0.228 A  
HETATM   22  C   UNL     1      -8.719  12.878  68.278  1.00  0.00    -0.168 A  
HETATM   23  F   UNL     1      -8.357  14.167  68.266  1.00  0.00    -0.129 F  
HETATM   24  C   UNL     1      -7.742  11.895  68.309  1.00  0.00    -0.127 A  
HETATM   25  C   UNL     1      -8.116  10.554  68.236  1.00  0.00    -0.115 A  
ENDBRANCH  18  19
ENDBRANCH  13  18
ENDBRANCH   7   9
ENDBRANCH   2   3
BRANCH   2  26
HETATM   26  C   UNL     1      -8.714   4.469  72.259  1.00  0.00    -0.118 C  
HETATM   27  C   UNL     1      -8.392   5.374  74.341  1.00  0.00    -0.106 C  
HETATM   28  H   UNL     1     -10.663   4.415  71.621  1.00  0.00     0.000 HD 
HETATM   29  C   UNL     1     -10.613   5.313  73.464  1.00  0.00    -0.270 C  
HETATM   30  N   UNL     1      -7.880   4.803  73.208  1.00  0.00    -0.095 NA 
HETATM   31  O   UNL     1     -11.813   5.551  73.550  1.00  0.00     0.287 OA 
HETATM   32  N   UNL     1     -10.050   4.707  72.382  1.00  0.00    -0.176 N  
HETATM   33  C   UNL     1      -9.677   5.660  74.539  1.00  0.00    -0.217 C  
ENDBRANCH   2  26
TORSDOF 5
ENDMDL
MODEL      206
REMARK 921   NORMALIZED FREE ENERGY PREDICTED BY IDOCK:   -2.64 KCAL/MOL
REMARK 922        TOTAL FREE ENERGY PREDICTED BY IDOCK:   -4.82 KCAL/MOL
REMARK 923 INTER-LIGAND FREE ENERGY PREDICTED BY IDOCK:   -4.38 KCAL/MOL
REMARK 924 INTRA-LIGAND FREE ENERGY PREDICTED BY IDOCK:   -0.45 KCAL/MOL
REMARK 927      BINDING AFFINITY PREDICTED BY RF-SCORE:    0.00 PKD
ROOT
HETATM    1  C   UNL     1      -7.782  13.664  69.638  1.00  0.00     0.745 C  
HETATM    2  N   UNL     1      -8.177  13.057  68.349  1.00  0.00    -0.146 NA 
ENDROOT
BRANCH   2   3
HETATM    3  C   UNL     1      -8.486  11.601  68.454  1.00  0.00    -0.157 C  
HETATM    4  C   UNL     1      -7.236  10.735  68.396  1.00  0.00    -0.085 C  
HETATM    5  C   UNL     1      -9.618  11.087  67.577  1.00  0.00    -0.178 C  
HETATM    6  C   UNL     1      -6.835  10.307  66.996  1.00  0.00    -0.084 C  
HETATM    7  N   UNL     1      -7.937   9.692  66.256  1.00  0.00    -0.108 NA 
HETATM    8  C   UNL     1      -9.271  10.268  66.334  1.00  0.00    -0.158 C  
BRANCH   7   9
HETATM    9  C   UNL     1      -7.647   8.574  65.506  1.00  0.00    -0.090 A  
HETATM   10  C   UNL     1      -7.242   7.309  63.791  1.00  0.00    -0.075 A  
HETATM   11  N   UNL     1      -7.738   8.522  64.189  1.00  0.00    -0.127 NA 
HETATM   12  C   UNL     1      -6.896   6.538  64.888  1.00  0.00    -0.046 A  
HETATM   13  N   UNL     1      -7.224   7.331  65.977  1.00  0.00    -0.072 NA 
HETATM   14  C   UNL     1      -6.339   5.254  64.768  1.00  0.00    -0.034 A  
HETATM   15  C   UNL     1      -6.123   4.766  63.475  1.00  0.00    -0.021 A  
HETATM   16  C   UNL     1      -6.473   5.523  62.356  1.00  0.00    -0.028 A  
HETATM   17  C   UNL     1      -7.043   6.794  62.500  1.00  0.00    -0.050 A  
BRANCH  13  18
HETATM   18  C   UNL     1      -7.209   6.806  67.337  1.00  0.00    -0.090 C  
BRANCH  18  19
HETATM   19  C   UNL     1      -8.560   6.857  68.021  1.00  0.00    -0.123 A  
HETATM   20  C   UNL     1      -8.623   7.327  69.343  1.00  0.00    -0.134 A  
HETATM   21  C   UNL     1      -9.800   7.200  70.079  1.00  0.00    -0.178 A  
HETATM   22  C   UNL     1     -10.924   6.636  69.488  1.00  0.00    -0.313 A  
HETATM   23  F   UNL     1     -12.025   6.432  70.222  1.00  0.00    -0.456 F  
HETATM   24  C   UNL     1     -10.914   6.264  68.152  1.00  0.00    -0.412 A  
HETATM   25  C   UNL     1      -9.742   6.397  67.411  1.00  0.00    -0.141 A  
ENDBRANCH  18  19
ENDBRANCH  13  18
ENDBRANCH   7   9
ENDBRANCH   2   3
BRANCH   2  26
HETATM   26  C   UNL     1      -8.830  13.910  67.479  1.00  0.00    -0.196 C  
HETATM   27  C   UNL     1     -10.404  14.404  65.885  1.00  0.00    -0.314 C  
HETATM   28  H   UNL     1      -7.654  15.485  68.064  1.00  0.00     0.000 HD 
HETATM   29  C   UNL     1      -9.015  16.172  66.692  1.00  0.00    -0.255 C  
HETATM   30  N   UNL     1      -9.809  13.496  66.718  1.00  0.00    -0.259 NA 
HETATM   31  O   UNL     1      -8.669  17.348  66.711  1.00  0.00    -0.235 OA 
HETATM   32  N   UNL     1      -8.432  15.213  67.464  1.00  0.00    -0.160 N  
HETATM   33  C   UNL     1     -10.094  15.697  65.819  1.00  0.00    -0.394 C  
ENDBRANCH   2  26
TORSDOF 5
ENDMDL
MODEL      207
REMARK 921   NORMALIZED FREE ENERGY PREDICTED BY IDOCK:   -2.57 KCAL/MOL
REMARK 922        TOTAL FREE ENERGY PREDICTED BY IDOCK:   -4.73 KCAL/MOL
REMARK 923 INTER-LIGAND FREE ENERGY PREDICTED BY IDOCK:   -4.38 KCAL/MOL
REMARK 924 INTRA-LIGAND FREE ENERGY PREDICTED BY IDOCK:   -0.35 KCAL/MOL
REMARK 927      BINDING AFFINITY PREDICTED BY RF-SCORE:    0.00 PKD
ROOT
HETATM    1  C   UNL     1      -9.136   9.294  64.719  1.00  0.00    -0.144 C  
HETATM    2  N   UNL     1      -8.162   8.268  65.147  1.00  0.00    -0.148 NA 
ENDROOT
BRANCH   2   3
HETATM    3  C   UNL     1      -6.922   8.845  65.745  1.00  0.00    -0.080 C  
HETATM    4  C   UNL     1      -6.860   8.652  67.253  1.00  0.00    -0.067 C  
HETATM    5  C   UNL     1      -6.551  10.252  65.300  1.00  0.00    -0.119 C  
HETATM    6  C   UNL     1      -7.487   9.777  68.056  1.00  0.00    -0.082 C  
HETATM    7  N   UNL     1      -6.980  11.095  67.672  1.00  0.00    -0.081 NA 
HETATM    8  C   UNL     1      -6.788  11.414  66.265  1.00  0.00     0.068 C  
BRANCH   7   9
HETATM    9  C   UNL     1      -6.707  11.986  68.686  1.00  0.00    -0.080 A  
HETATM   10  C   UNL     1      -5.938  12.795  70.546  1.00  0.00    -0.063 A  
HETATM   11  N   UNL     1      -6.197  11.640  69.856  1.00  0.00    -0.140 NA 
HETATM   12  C   UNL     1      -6.363  13.901  69.829  1.00  0.00    -0.125 A  
HETATM   13  N   UNL     1      -6.914  13.364  68.674  1.00  0.00    -0.096 NA 
HETATM   14  C   UNL     1      -6.199  15.216  70.293  1.00  0.00    -0.108 A  
HETATM   15  C   UNL     1      -5.564  15.386  71.527  1.00  0.00     0.258 A  
HETATM   16  C   UNL     1      -5.135  14.286  72.270  1.00  0.00    -0.212 A  
HETATM   17  C   UNL     1      -5.325  12.982  71.795  1.00  0.00    -0.028 A  
BRANCH  13  18
HETATM   18  C   UNL     1      -7.670  14.184  67.736  1.00  0.00    -0.168 C  
BRANCH  18  19
HETATM   19  C   UNL     1      -9.093  14.457  68.179  1.00  0.00    -0.194 A  
HETATM   20  C   UNL     1      -9.300  15.076  69.422  1.00  0.00    -0.120 A  
HETATM   21  C   UNL     1     -10.583  15.160  69.962  1.00  0.00    -0.237 A  
HETATM   22  C   UNL     1     -11.663  14.658  69.247  1.00  0.00    -0.312 A  
HETATM   23  F   UNL     1     -12.881  14.658  69.804  1.00  0.00    -0.286 F  
HETATM   24  C   UNL     1     -11.495  14.140  67.972  1.00  0.00    -0.342 A  
HETATM   25  C   UNL     1     -10.215  14.062  67.427  1.00  0.00    -0.248 A  
ENDBRANCH  18  19
ENDBRANCH  13  18
ENDBRANCH   7   9
ENDBRANCH   2   3
BRANCH   2  26
HETATM   26  C   UNL     1      -8.718   7.073  65.563  1.00  0.00    -0.025 C  
HETATM   27  C   UNL     1      -9.003   4.799  65.468  1.00  0.00    -0.146 C  
HETATM   28  H   UNL     1      -9.807   8.030  67.013  1.00  0.00     0.000 HD 
HETATM   29  C   UNL     1     -10.173   6.018  67.157  1.00  0.00    -0.202 C  
HETATM   30  N   UNL     1      -8.408   5.937  64.995  1.00  0.00    -0.141 NA 
HETATM   31  O   UNL     1     -10.927   6.068  68.122  1.00  0.00    -0.300 OA 
HETATM   32  N   UNL     1      -9.585   7.119  66.612  1.00  0.00    -0.176 N  
HETATM   33  C   UNL     1      -9.845   4.748  66.498  1.00  0.00    -0.235 C  
ENDBRANCH   2  26
TORSDOF 5
ENDMDL
MODEL      208
REMARK 921   NORMALIZED FREE ENERGY PREDICTED BY IDOCK:   -2.36 KCAL/MOL
REMARK 922        TOTAL FREE ENERGY PREDICTED BY IDOCK:   -4.47 KCAL/MOL
REMARK 923 INTER-LIGAND FREE ENERGY PREDICTED BY IDOCK:   -3.82 KCAL/MOL
REMARK 924 INTRA-LIGAND FREE ENERGY PREDICTED BY IDOCK:   -0.65 KCAL/MOL
REMARK 927      BINDING AFFINITY PREDICTED BY RF-SCORE:    0.00 PKD
ROOT
HETATM    1  C   UNL     1      -6.403   6.073  65.531  1.00  0.00    -0.038 C  
HETATM    2  N   UNL     1      -6.259   7.468  66.000  1.00  0.00    -0.041 NA 
ENDROOT
BRANCH   2   3
HETATM    3  C   UNL     1      -6.857   8.467  65.066  1.00  0.00    -0.067 C  
HETATM    4  C   UNL     1      -6.546   9.901  65.472  1.00  0.00    -0.092 C  
HETATM    5  C   UNL     1      -8.314   8.249  64.687  1.00  0.00    -0.115 C  
HETATM    6  C   UNL     1      -7.565  10.521  66.410  1.00  0.00    -0.132 C  
HETATM    7  N   UNL     1      -8.937  10.399  65.916  1.00  0.00    -0.156 NA 
HETATM    8  C   UNL     1      -9.379   9.151  65.311  1.00  0.00    -0.156 C  
BRANCH   7   9
HETATM    9  C   UNL     1      -9.757  11.497  66.052  1.00  0.00    -0.226 A  
HETATM   10  C   UNL     1     -11.151  13.083  65.557  1.00  0.00    -0.275 A  
HETATM   11  N   UNL     1     -10.298  12.146  65.036  1.00  0.00    -0.279 NA 
HETATM   12  C   UNL     1     -11.095  13.081  66.941  1.00  0.00    -0.277 A  
HETATM   13  N   UNL     1     -10.150  12.111  67.241  1.00  0.00    -0.202 NA 
HETATM   14  C   UNL     1     -11.886  13.929  67.734  1.00  0.00    -0.415 A  
HETATM   15  C   UNL     1     -12.768  14.789  67.072  1.00  0.00     0.989 A  
HETATM   16  C   UNL     1     -12.835  14.813  65.679  1.00  0.00     0.208 A  
HETATM   17  C   UNL     1     -12.023  13.970  64.908  1.00  0.00    -0.416 A  
BRANCH  13  18
HETATM   18  C   UNL     1      -9.637  11.936  68.593  1.00  0.00    -0.093 C  
BRANCH  18  19
HETATM   19  C   UNL     1     -10.525  11.080  69.473  1.00  0.00    -0.133 A  
HETATM   20  C   UNL     1     -10.365   9.686  69.430  1.00  0.00    -0.226 A  
HETATM   21  C   UNL     1     -11.289   8.852  70.058  1.00  0.00    -0.050 A  
HETATM   22  C   UNL     1     -12.353   9.409  70.759  1.00  0.00    -0.120 A  
HETATM   23  F   UNL     1     -13.288   8.608  71.285  1.00  0.00    -0.328 F  
HETATM   24  C   UNL     1     -12.468  10.783  70.904  1.00  0.00    -0.500 A  
HETATM   25  C   UNL     1     -11.542  11.619  70.283  1.00  0.00    -0.254 A  
ENDBRANCH  18  19
ENDBRANCH  13  18
ENDBRANCH   7   9
ENDBRANCH   2   3
BRANCH   2  26
HETATM   26  C   UNL     1      -6.252   7.624  67.373  1.00  0.00    -0.053 C  
HETATM   27  C   UNL     1      -5.594   8.645  69.318  1.00  0.00    -0.035 C  
HETATM   28  H   UNL     1      -7.559   6.060  67.606  1.00  0.00     0.000 HD 
HETATM   29  C   UNL     1      -7.163   6.850  69.457  1.00  0.00    -0.081 C  
HETATM   30  N   UNL     1      -5.545   8.558  67.954  1.00  0.00    -0.035 NA 
HETATM   31  O   UNL     1      -7.897   6.107  70.099  1.00  0.00    -0.098 OA 
HETATM   32  N   UNL     1      -7.037   6.782  68.102  1.00  0.00    -0.083 N  
HETATM   33  C   UNL     1      -6.345   7.880  70.107  1.00  0.00    -0.033 C  
ENDBRANCH   2  26
TORSDOF 5
ENDMDL
MODEL      209
REMARK 921   NORMALIZED FREE ENERGY PREDICTED BY IDOCK:   -1.73 KCAL/MOL
REMARK 922        TOTAL FREE ENERGY PREDICTED BY IDOCK:   -3.65 KCAL/MOL
REMARK 923 INTER-LIGAND FREE ENERGY PREDICTED BY IDOCK:   -3.85 KCAL/MOL
REMARK 924 INTRA-LIGAND FREE ENERGY PREDICTED BY IDOCK:    0.20 KCAL/MOL
REMARK 927      BINDING AFFINITY PREDICTED BY RF-SCORE:    0.00 PKD
ROOT
HETATM    1  C   UNL     1      -7.054   3.394  69.419  1.00  0.00    -0.042 C  
HETATM    2  N   UNL     1      -7.157   4.322  68.273  1.00  0.00    -0.058 NA 
ENDROOT
BRANCH   2   3
HETATM    3  C   UNL     1      -6.171   5.441  68.331  1.00  0.00    -0.030 C  
HETATM    4  C   UNL     1      -6.385   6.341  69.539  1.00  0.00    -0.035 C  
HETATM    5  C   UNL     1      -5.947   6.209  67.037  1.00  0.00    -0.018 C  
HETATM    6  C   UNL     1      -7.332   7.502  69.297  1.00  0.00    -0.089 C  
HETATM    7  N   UNL     1      -6.974   8.285  68.113  1.00  0.00    -0.075 NA 
HETATM    8  C   UNL     1      -6.555   7.605  66.896  1.00  0.00    -0.062 C  
BRANCH   7   9
HETATM    9  C   UNL     1      -7.056   9.656  68.215  1.00  0.00    -0.078 A  
HETATM   10  C   UNL     1      -6.545  11.756  68.028  1.00  0.00    -0.060 A  
HETATM   11  N   UNL     1      -6.056  10.478  67.951  1.00  0.00    -0.047 NA 
HETATM   12  C   UNL     1      -7.872  11.749  68.424  1.00  0.00    -0.141 A  
HETATM   13  N   UNL     1      -8.165  10.405  68.606  1.00  0.00    -0.114 NA 
HETATM   14  C   UNL     1      -8.629  12.924  68.561  1.00  0.00    -0.042 A  
HETATM   15  C   UNL     1      -7.995  14.135  68.265  1.00  0.00    -0.140 A  
HETATM   16  C   UNL     1      -6.656  14.165  67.873  1.00  0.00    -0.174 A  
HETATM   17  C   UNL     1      -5.915  12.981  67.759  1.00  0.00    -0.145 A  
BRANCH  13  18
HETATM   18  C   UNL     1      -9.410   9.972  69.228  1.00  0.00    -0.214 C  
BRANCH  18  19
HETATM   19  C   UNL     1     -10.046   8.780  68.543  1.00  0.00    -0.210 A  
HETATM   20  C   UNL     1     -10.626   7.781  69.343  1.00  0.00    -0.211 A  
HETATM   21  C   UNL     1     -11.037   6.575  68.775  1.00  0.00    -0.357 A  
HETATM   22  C   UNL     1     -10.900   6.379  67.406  1.00  0.00    -0.375 A  
HETATM   23  F   UNL     1     -11.211   5.190  66.875  1.00  0.00    -0.097 F  
HETATM   24  C   UNL     1     -10.430   7.392  66.584  1.00  0.00    -0.201 A  
HETATM   25  C   UNL     1     -10.026   8.601  67.148  1.00  0.00    -0.297 A  
ENDBRANCH  18  19
ENDBRANCH  13  18
ENDBRANCH   7   9
ENDBRANCH   2   3
BRANCH   2  26
HETATM   26  C   UNL     1      -7.577   3.743  67.090  1.00  0.00    -0.079 C  
HETATM   27  C   UNL     1      -9.079   3.409  65.390  1.00  0.00    -0.147 C  
HETATM   28  H   UNL     1      -5.827   2.685  66.931  1.00  0.00     0.000 HD 
HETATM   29  C   UNL     1      -6.978   2.278  65.283  1.00  0.00    -0.048 C  
HETATM   30  N   UNL     1      -8.740   4.024  66.564  1.00  0.00    -0.114 NA 
HETATM   31  O   UNL     1      -6.182   1.532  64.722  1.00  0.00    -0.016 OA 
HETATM   32  N   UNL     1      -6.717   2.885  66.474  1.00  0.00    -0.043 N  
HETATM   33  C   UNL     1      -8.296   2.574  64.710  1.00  0.00    -0.088 C  
ENDBRANCH   2  26
TORSDOF 5
ENDMDL
MODEL      210
REMARK 921   NORMALIZED FREE ENERGY PREDICTED BY IDOCK:   -0.94 KCAL/MOL
REMARK 922        TOTAL FREE ENERGY PREDICTED BY IDOCK:   -2.63 KCAL/MOL
REMARK 923 INTER-LIGAND FREE ENERGY PREDICTED BY IDOCK:   -3.25 KCAL/MOL
REMARK 924 INTRA-LIGAND FREE ENERGY PREDICTED BY IDOCK:    0.62 KCAL/MOL
REMARK 927      BINDING AFFINITY PREDICTED BY RF-SCORE:    0.00 PKD
ROOT
HETATM    1  C   UNL     1     -11.234   9.116  69.328  1.00  0.00     0.132 C  
HETATM    2  N   UNL     1     -11.445   9.804  68.037  1.00  0.00     0.071 NA 
ENDROOT
BRANCH   2   3
HETATM    3  C   UNL     1     -12.153  11.110  68.174  1.00  0.00     0.123 C  
HETATM    4  C   UNL     1     -12.142  11.916  66.883  1.00  0.00     0.248 C  
HETATM    5  C   UNL     1     -11.810  11.937  69.404  1.00  0.00    -0.389 C  
HETATM    6  C   UNL     1     -10.952  12.846  66.734  1.00  0.00    -0.272 C  
HETATM    7  N   UNL     1     -10.764  13.713  67.898  1.00  0.00    -0.243 NA 
HETATM    8  C   UNL     1     -10.919  13.168  69.238  1.00  0.00    -0.078 C  
BRANCH   7   9
HETATM    9  C   UNL     1     -10.441  15.030  67.657  1.00  0.00    -0.247 A  
HETATM   10  C   UNL     1     -10.403  16.991  66.729  1.00  0.00    -0.302 A  
HETATM   11  N   UNL     1     -10.766  15.681  66.554  1.00  0.00    -0.307 NA 
HETATM   12  C   UNL     1      -9.764  17.163  67.946  1.00  0.00    -0.270 A  
HETATM   13  N   UNL     1      -9.734  15.890  68.496  1.00  0.00    -0.207 NA 
HETATM   14  C   UNL     1      -9.306  18.414  68.392  1.00  0.00    -0.347 A  
HETATM   15  C   UNL     1      -9.532  19.514  67.560  1.00  0.00    -0.413 A  
HETATM   16  C   UNL     1     -10.167  19.362  66.327  1.00  0.00    -0.566 A  
HETATM   17  C   UNL     1     -10.600  18.101  65.895  1.00  0.00    -0.247 A  
BRANCH  13  18
HETATM   18  C   UNL     1      -8.956  15.593  69.692  1.00  0.00    -0.136 C  
BRANCH  18  19
HETATM   19  C   UNL     1      -7.874  14.556  69.470  1.00  0.00     0.107 A  
HETATM   20  C   UNL     1      -7.880  13.829  68.268  1.00  0.00    -0.144 A  
HETATM   21  C   UNL     1      -7.038  12.731  68.105  1.00  0.00    -0.105 A  
HETATM   22  C   UNL     1      -6.165  12.376  69.127  1.00  0.00    -0.090 A  
HETATM   23  F   UNL     1      -5.422  11.270  69.007  1.00  0.00    -0.042 F  
HETATM   24  C   UNL     1      -6.067  13.144  70.278  1.00  0.00    -0.079 A  
HETATM   25  C   UNL     1      -6.903  14.247  70.440  1.00  0.00     0.195 A  
ENDBRANCH  18  19
ENDBRANCH  13  18
ENDBRANCH   7   9
ENDBRANCH   2   3
BRANCH   2  26
HETATM   26  C   UNL     1     -10.473   9.565  67.083  1.00  0.00    -0.253 C  
HETATM   27  C   UNL     1      -9.758   9.081  64.959  1.00  0.00     0.464 C  
HETATM   28  H   UNL     1      -8.982   9.832  68.467  1.00  0.00     0.000 HD 
HETATM   29  C   UNL     1      -8.113   9.473  66.645  1.00  0.00    -0.108 C  
HETATM   30  N   UNL     1     -10.781   9.305  65.840  1.00  0.00     0.636 NA 
HETATM   31  O   UNL     1      -6.947   9.575  67.010  1.00  0.00    -0.083 OA 
HETATM   32  N   UNL     1      -9.173   9.640  67.484  1.00  0.00    -0.133 N  
HETATM   33  C   UNL     1      -8.463   9.153  65.257  1.00  0.00    -0.169 C  
ENDBRANCH   2  26
TORSDOF 5
ENDMDL
MODEL      211
REMARK 921   NORMALIZED FREE ENERGY PREDICTED BY IDOCK:   -0.81 KCAL/MOL
REMARK 922        TOTAL FREE ENERGY PREDICTED BY IDOCK:   -2.45 KCAL/MOL
REMARK 923 INTER-LIGAND FREE ENERGY PREDICTED BY IDOCK:   -3.10 KCAL/MOL
REMARK 924 INTRA-LIGAND FREE ENERGY PREDICTED BY IDOCK:    0.65 KCAL/MOL
REMARK 927      BINDING AFFINITY PREDICTED BY RF-SCORE:    0.00 PKD
ROOT
HETATM    1  C   UNL     1      -6.705   7.719  68.539  1.00  0.00    -0.058 C  
HETATM    2  N   UNL     1      -7.977   7.112  68.986  1.00  0.00    -0.118 NA 
ENDROOT
BRANCH   2   3
HETATM    3  C   UNL     1      -9.106   7.346  68.039  1.00  0.00    -0.130 C  
HETATM    4  C   UNL     1      -8.644   7.953  66.722  1.00  0.00    -0.133 C  
HETATM    5  C   UNL     1     -10.341   8.022  68.616  1.00  0.00    -0.224 C  
HETATM    6  C   UNL     1      -8.627   9.470  66.703  1.00  0.00    -0.134 C  
HETATM    7  N   UNL     1      -9.896  10.055  67.137  1.00  0.00    -0.177 NA 
HETATM    8  C   UNL     1     -10.600   9.490  68.279  1.00  0.00    -0.216 C  
BRANCH   7   9
HETATM    9  C   UNL     1     -10.369  11.136  66.426  1.00  0.00    -0.252 A  
HETATM   10  C   UNL     1     -11.748  12.527  65.493  1.00  0.00    -0.409 A  
HETATM   11  N   UNL     1     -11.628  11.282  66.052  1.00  0.00    -0.101 NA 
HETATM   12  C   UNL     1     -10.518  13.161  65.442  1.00  0.00    -0.296 A  
HETATM   13  N   UNL     1      -9.635  12.234  65.978  1.00  0.00    -0.239 NA 
HETATM   14  C   UNL     1     -10.354  14.462  64.937  1.00  0.00    -0.419 A  
HETATM   15  C   UNL     1     -11.500  15.124  64.488  1.00  0.00    -0.319 A  
HETATM   16  C   UNL     1     -12.748  14.501  64.523  1.00  0.00    -0.032 A  
HETATM   17  C   UNL     1     -12.884  13.196  65.015  1.00  0.00    -0.370 A  
BRANCH  13  18
HETATM   18  C   UNL     1      -8.192  12.427  65.915  1.00  0.00     0.996 C  
BRANCH  18  19
HETATM   19  C   UNL     1      -7.500  12.263  67.253  1.00  0.00    -0.147 A  
HETATM   20  C   UNL     1      -6.113  12.039  67.265  1.00  0.00    -0.147 A  
HETATM   21  C   UNL     1      -5.470  11.678  68.448  1.00  0.00    -0.045 A  
HETATM   22  C   UNL     1      -6.202  11.574  69.625  1.00  0.00    -0.124 A  
HETATM   23  F   UNL     1      -5.601  11.142  70.740  1.00  0.00    -0.100 F  
HETATM   24  C   UNL     1      -7.550  11.895  69.656  1.00  0.00     0.673 A  
HETATM   25  C   UNL     1      -8.195  12.264  68.476  1.00  0.00    -0.096 A  
ENDBRANCH  18  19
ENDBRANCH  13  18
ENDBRANCH   7   9
ENDBRANCH   2   3
BRANCH   2  26
HETATM   26  C   UNL     1      -7.841   5.957  69.733  1.00  0.00    -0.100 C  
HETATM   27  C   UNL     1      -7.145   4.770  71.568  1.00  0.00    -0.056 C  
HETATM   28  H   UNL     1      -8.838   4.864  68.312  1.00  0.00     0.000 HD 
HETATM   29  C   UNL     1      -8.371   3.619  69.872  1.00  0.00    -0.052 C  
HETATM   30  N   UNL     1      -7.236   5.956  70.892  1.00  0.00    -0.074 NA 
HETATM   31  O   UNL     1      -8.897   2.606  69.421  1.00  0.00    -0.074 OA 
HETATM   32  N   UNL     1      -8.389   4.817  69.226  1.00  0.00    -0.080 N  
HETATM   33  C   UNL     1      -7.667   3.616  71.159  1.00  0.00    -0.051 C  
ENDBRANCH   2  26
TORSDOF 5
ENDMDL
MODEL      212
REMARK 921   NORMALIZED FREE ENERGY PREDICTED BY IDOCK:   -0.79 KCAL/MOL
REMARK 922        TOTAL FREE ENERGY PREDICTED BY IDOCK:   -2.43 KCAL/MOL
REMARK 923 INTER-LIGAND FREE ENERGY PREDICTED BY IDOCK:   -2.38 KCAL/MOL
REMARK 924 INTRA-LIGAND FREE ENERGY PREDICTED BY IDOCK:   -0.05 KCAL/MOL
REMARK 927      BINDING AFFINITY PREDICTED BY RF-SCORE:    0.00 PKD
ROOT
HETATM    1  C   UNL     1     -12.842  13.839  66.583  1.00  0.00     0.334 C  
HETATM    2  N   UNL     1     -12.140  13.114  67.663  1.00  0.00    -0.296 NA 
ENDROOT
BRANCH   2   3
HETATM    3  C   UNL     1     -11.580  11.802  67.224  1.00  0.00    -0.269 C  
HETATM    4  C   UNL     1     -11.896  10.679  68.201  1.00  0.00     0.082 C  
HETATM    5  C   UNL     1     -10.131  11.810  66.761  1.00  0.00    -0.235 C  
HETATM    6  C   UNL     1     -10.860  10.487  69.293  1.00  0.00    -0.243 C  
HETATM    7  N   UNL     1      -9.500  10.361  68.766  1.00  0.00    -0.166 NA 
HETATM    8  C   UNL     1      -9.060  11.230  67.685  1.00  0.00    -0.149 C  
BRANCH   7   9
HETATM    9  C   UNL     1      -8.690   9.404  69.335  1.00  0.00    -0.157 A  
HETATM   10  C   UNL     1      -7.853   7.466  69.837  1.00  0.00    -0.115 A  
HETATM   11  N   UNL     1      -8.935   8.106  69.291  1.00  0.00    -0.147 NA 
HETATM   12  C   UNL     1      -6.928   8.383  70.308  1.00  0.00    -0.036 A  
HETATM   13  N   UNL     1      -7.508   9.615  70.044  1.00  0.00    -0.122 NA 
HETATM   14  C   UNL     1      -5.712   8.000  70.897  1.00  0.00    -0.033 A  
HETATM   15  C   UNL     1      -5.443   6.630  70.983  1.00  0.00    -0.026 A  
HETATM   16  C   UNL     1      -6.364   5.690  70.521  1.00  0.00    -0.031 A  
HETATM   17  C   UNL     1      -7.580   6.095  69.954  1.00  0.00    -0.088 A  
BRANCH  13  18
HETATM   18  C   UNL     1      -6.949  10.852  70.575  1.00  0.00     0.650 C  
BRANCH  18  19
HETATM   19  C   UNL     1      -6.639  11.884  69.510  1.00  0.00    -0.093 A  
HETATM   20  C   UNL     1      -5.990  11.463  68.339  1.00  0.00    -0.045 A  
HETATM   21  C   UNL     1      -5.503  12.400  67.428  1.00  0.00    -0.117 A  
HETATM   22  C   UNL     1      -5.692  13.755  67.669  1.00  0.00    -0.013 A  
HETATM   23  F   UNL     1      -5.146  14.656  66.842  1.00  0.00     0.550 F  
HETATM   24  C   UNL     1      -6.424  14.189  68.765  1.00  0.00    -0.091 A  
HETATM   25  C   UNL     1      -6.919  13.254  69.672  1.00  0.00     0.242 A  
ENDBRANCH  18  19
ENDBRANCH  13  18
ENDBRANCH   7   9
ENDBRANCH   2   3
BRANCH   2  26
HETATM   26  C   UNL     1     -11.532  13.919  68.608  1.00  0.00    -0.298 C  
HETATM   27  C   UNL     1      -9.721  14.944  69.570  1.00  0.00    -0.034 C  
HETATM   28  H   UNL     1     -13.335  14.304  69.509  1.00  0.00     0.000 HD 
HETATM   29  C   UNL     1     -11.883  15.364  70.495  1.00  0.00    -0.339 C  
HETATM   30  N   UNL     1     -10.243  14.132  68.601  1.00  0.00    -0.238 NA 
HETATM   31  O   UNL     1     -12.621  15.916  71.304  1.00  0.00    -0.454 OA 
HETATM   32  N   UNL     1     -12.337  14.511  69.535  1.00  0.00    -0.258 N  
HETATM   33  C   UNL     1     -10.431  15.577  70.501  1.00  0.00    -0.147 C  
ENDBRANCH   2  26
TORSDOF 5
ENDMDL
MODEL      213
REMARK 921   NORMALIZED FREE ENERGY PREDICTED BY IDOCK:   -0.27 KCAL/MOL
REMARK 922        TOTAL FREE ENERGY PREDICTED BY IDOCK:   -1.76 KCAL/MOL
REMARK 923 INTER-LIGAND FREE ENERGY PREDICTED BY IDOCK:   -1.22 KCAL/MOL
REMARK 924 INTRA-LIGAND FREE ENERGY PREDICTED BY IDOCK:   -0.54 KCAL/MOL
REMARK 927      BINDING AFFINITY PREDICTED BY RF-SCORE:    0.00 PKD
ROOT
HETATM    1  C   UNL     1      -7.982   4.575  68.430  1.00  0.00    -0.079 C  
HETATM    2  N   UNL     1      -7.209   5.689  67.840  1.00  0.00    -0.071 NA 
ENDROOT
BRANCH   2   3
HETATM    3  C   UNL     1      -6.198   6.264  68.775  1.00  0.00    -0.036 C  
HETATM    4  C   UNL     1      -6.821   6.757  70.073  1.00  0.00    -0.057 C  
HETATM    5  C   UNL     1      -5.204   7.245  68.172  1.00  0.00    -0.024 C  
HETATM    6  C   UNL     1      -7.270   8.206  70.044  1.00  0.00    -0.056 C  
HETATM    7  N   UNL     1      -6.218   9.114  69.587  1.00  0.00    -0.039 NA 
HETATM    8  C   UNL     1      -5.376   8.737  68.461  1.00  0.00    -0.037 C  
BRANCH   7   9
HETATM    9  C   UNL     1      -6.077  10.306  70.261  1.00  0.00    -0.098 A  
HETATM   10  C   UNL     1      -5.746  11.717  71.876  1.00  0.00     0.942 A  
HETATM   11  N   UNL     1      -6.026  10.409  71.578  1.00  0.00    -0.305 NA 
HETATM   12  C   UNL     1      -5.690  12.481  70.722  1.00  0.00    -0.103 A  
HETATM   13  N   UNL     1      -5.972  11.580  69.705  1.00  0.00    -0.088 NA 
HETATM   14  C   UNL     1      -5.396  13.854  70.735  1.00  0.00    -0.142 A  
HETATM   15  C   UNL     1      -5.138  14.444  71.976  1.00  0.00    -0.182 A  
HETATM   16  C   UNL     1      -5.197  13.695  73.151  1.00  0.00    -0.112 A  
HETATM   17  C   UNL     1      -5.510  12.329  73.116  1.00  0.00     1.080 A  
BRANCH  13  18
HETATM   18  C   UNL     1      -6.219  12.024  68.339  1.00  0.00    -0.051 C  
BRANCH  18  19
HETATM   19  C   UNL     1      -7.616  12.568  68.121  1.00  0.00    -0.127 A  
HETATM   20  C   UNL     1      -8.702  11.682  68.214  1.00  0.00    -0.163 A  
HETATM   21  C   UNL     1      -9.977  12.088  67.822  1.00  0.00    -0.199 A  
HETATM   22  C   UNL     1     -10.176  13.386  67.370  1.00  0.00    -0.237 A  
HETATM   23  F   UNL     1     -11.380  13.748  66.909  1.00  0.00    -0.298 F  
HETATM   24  C   UNL     1      -9.140  14.308  67.371  1.00  0.00    -0.199 A  
HETATM   25  C   UNL     1      -7.866  13.908  67.771  1.00  0.00    -0.172 A  
ENDBRANCH  18  19
ENDBRANCH  13  18
ENDBRANCH   7   9
ENDBRANCH   2   3
BRANCH   2  26
HETATM   26  C   UNL     1      -7.016   5.605  66.474  1.00  0.00    -0.064 C  
HETATM   27  C   UNL     1      -6.319   6.420  64.446  1.00  0.00    -0.030 C  
HETATM   28  H   UNL     1      -7.817   3.717  66.428  1.00  0.00     0.000 HD 
HETATM   29  C   UNL     1      -7.213   4.207  64.530  1.00  0.00    -0.066 C  
HETATM   30  N   UNL     1      -6.476   6.584  65.796  1.00  0.00    -0.042 NA 
HETATM   31  O   UNL     1      -7.521   3.147  63.995  1.00  0.00    -0.064 OA 
HETATM   32  N   UNL     1      -7.386   4.447  65.860  1.00  0.00    -0.076 N  
HETATM   33  C   UNL     1      -6.633   5.319  63.769  1.00  0.00    -0.030 C  
ENDBRANCH   2  26
TORSDOF 5
ENDMDL
MODEL      214
REMARK 921   NORMALIZED FREE ENERGY PREDICTED BY IDOCK:   -0.26 KCAL/MOL
REMARK 922        TOTAL FREE ENERGY PREDICTED BY IDOCK:   -1.75 KCAL/MOL
REMARK 923 INTER-LIGAND FREE ENERGY PREDICTED BY IDOCK:   -2.09 KCAL/MOL
REMARK 924 INTRA-LIGAND FREE ENERGY PREDICTED BY IDOCK:    0.34 KCAL/MOL
REMARK 927      BINDING AFFINITY PREDICTED BY RF-SCORE:    0.00 PKD
ROOT
HETATM    1  C   UNL     1      -9.096  12.206  65.491  1.00  0.00     0.214 C  
HETATM    2  N   UNL     1      -9.648  11.497  66.665  1.00  0.00    -0.193 NA 
ENDROOT
BRANCH   2   3
HETATM    3  C   UNL     1      -9.126  10.107  66.811  1.00  0.00    -0.139 C  
HETATM    4  C   UNL     1     -10.033   9.232  67.666  1.00  0.00    -0.245 C  
HETATM    5  C   UNL     1      -7.652   9.973  67.163  1.00  0.00    -0.092 C  
HETATM    6  C   UNL     1      -9.711   9.256  69.149  1.00  0.00    -0.164 C  
HETATM    7  N   UNL     1      -8.300   8.981  69.425  1.00  0.00    -0.116 NA 
HETATM    8  C   UNL     1      -7.269   9.581  68.590  1.00  0.00    -0.074 C  
BRANCH   7   9
HETATM    9  C   UNL     1      -8.016   8.150  70.485  1.00  0.00    -0.095 A  
HETATM   10  C   UNL     1      -8.213   7.106  72.377  1.00  0.00    -0.104 A  
HETATM   11  N   UNL     1      -8.687   8.148  71.624  1.00  0.00    -0.132 NA 
HETATM   12  C   UNL     1      -7.161   6.475  71.734  1.00  0.00    -0.086 A  
HETATM   13  N   UNL     1      -7.002   7.196  70.558  1.00  0.00    -0.057 NA 
HETATM   14  C   UNL     1      -6.502   5.358  72.272  1.00  0.00    -0.055 A  
HETATM   15  C   UNL     1      -6.957   4.877  73.504  1.00  0.00    -0.072 A  
HETATM   16  C   UNL     1      -8.009   5.502  74.173  1.00  0.00    -0.102 A  
HETATM   17  C   UNL     1      -8.641   6.626  73.624  1.00  0.00    -0.137 A  
BRANCH  13  18
HETATM   18  C   UNL     1      -5.856   6.986  69.683  1.00  0.00    -0.023 C  
BRANCH  18  19
HETATM   19  C   UNL     1      -6.231   6.494  68.300  1.00  0.00    -0.032 A  
HETATM   20  C   UNL     1      -5.388   6.816  67.224  1.00  0.00    -0.009 A  
HETATM   21  C   UNL     1      -5.794   6.566  65.913  1.00  0.00    -0.022 A  
HETATM   22  C   UNL     1      -7.024   5.964  65.677  1.00  0.00    -0.068 A  
HETATM   23  F   UNL     1      -7.451   5.807  64.419  1.00  0.00    -0.060 F  
HETATM   24  C   UNL     1      -7.823   5.541  66.728  1.00  0.00    -0.101 A  
HETATM   25  C   UNL     1      -7.417   5.782  68.040  1.00  0.00    -0.077 A  
ENDBRANCH  18  19
ENDBRANCH  13  18
ENDBRANCH   7   9
ENDBRANCH   2   3
BRANCH   2  26
HETATM   26  C   UNL     1      -9.962  12.306  67.740  1.00  0.00    -0.200 C  
HETATM   27  C   UNL     1     -10.824  12.699  69.829  1.00  0.00     0.491 C  
HETATM   28  H   UNL     1      -9.165  13.946  66.800  1.00  0.00     0.000 HD 
HETATM   29  C   UNL     1      -9.813  14.520  68.659  1.00  0.00    -0.232 C  
HETATM   30  N   UNL     1     -10.549  11.831  68.807  1.00  0.00    -0.212 NA 
HETATM   31  O   UNL     1      -9.461  15.693  68.587  1.00  0.00    -0.190 OA 
HETATM   32  N   UNL     1      -9.608  13.619  67.659  1.00  0.00    -0.215 N  
HETATM   33  C   UNL     1     -10.498  13.990  69.843  1.00  0.00     0.505 C  
ENDBRANCH   2  26
TORSDOF 5
ENDMDL
MODEL      215
REMARK 921   NORMALIZED FREE ENERGY PREDICTED BY IDOCK:    0.65 KCAL/MOL
REMARK 922        TOTAL FREE ENERGY PREDICTED BY IDOCK:   -0.57 KCAL/MOL
REMARK 923 INTER-LIGAND FREE ENERGY PREDICTED BY IDOCK:   -3.49 KCAL/MOL
REMARK 924 INTRA-LIGAND FREE ENERGY PREDICTED BY IDOCK:    2.92 KCAL/MOL
REMARK 927      BINDING AFFINITY PREDICTED BY RF-SCORE:    0.00 PKD
ROOT
HETATM    1  C   UNL     1      -6.557   4.675  63.587  1.00  0.00    -0.038 C  
HETATM    2  N   UNL     1      -6.704   5.899  64.403  1.00  0.00    -0.044 NA 
ENDROOT
BRANCH   2   3
HETATM    3  C   UNL     1      -6.791   7.145  63.586  1.00  0.00    -0.052 C  
HETATM    4  C   UNL     1      -6.496   8.397  64.400  1.00  0.00    -0.066 C  
HETATM    5  C   UNL     1      -8.014   7.281  62.691  1.00  0.00    -0.123 C  
HETATM    6  C   UNL     1      -7.715   9.023  65.052  1.00  0.00    -0.109 C  
HETATM    7  N   UNL     1      -8.805   9.255  64.104  1.00  0.00    -0.183 NA 
HETATM    8  C   UNL     1      -9.127   8.243  63.108  1.00  0.00     1.072 C  
BRANCH   7   9
HETATM    9  C   UNL     1      -9.487  10.447  64.208  1.00  0.00    -0.294 A  
HETATM   10  C   UNL     1     -10.836  12.080  63.739  1.00  0.00    -0.420 A  
HETATM   11  N   UNL     1     -10.200  10.979  63.230  1.00  0.00    -0.338 NA 
HETATM   12  C   UNL     1     -10.461  12.299  65.054  1.00  0.00    -0.290 A  
HETATM   13  N   UNL     1      -9.546  11.289  65.318  1.00  0.00    -0.227 NA 
HETATM   14  C   UNL     1     -10.981  13.350  65.827  1.00  0.00    -0.288 A  
HETATM   15  C   UNL     1     -11.925  14.185  65.223  1.00  0.00    -0.383 A  
HETATM   16  C   UNL     1     -12.312  13.988  63.897  1.00  0.00    -0.280 A  
HETATM   17  C   UNL     1     -11.767  12.943  63.139  1.00  0.00    -0.210 A  
BRANCH  13  18
HETATM   18  C   UNL     1      -8.748  11.281  66.536  1.00  0.00    -0.178 C  
BRANCH  18  19
HETATM   19  C   UNL     1      -8.863  12.557  67.345  1.00  0.00    -0.187 A  
HETATM   20  C   UNL     1      -8.095  13.667  66.956  1.00  0.00    -0.004 A  
HETATM   21  C   UNL     1      -8.010  14.788  67.782  1.00  0.00    -0.167 A  
HETATM   22  C   UNL     1      -8.716  14.815  68.978  1.00  0.00    -0.139 A  
HETATM   23  F   UNL     1      -8.563  15.852  69.812  1.00  0.00    -0.229 F  
HETATM   24  C   UNL     1      -9.563  13.775  69.329  1.00  0.00     0.461 A  
HETATM   25  C   UNL     1      -9.657  12.658  68.502  1.00  0.00    -0.112 A  
ENDBRANCH  18  19
ENDBRANCH  13  18
ENDBRANCH   7   9
ENDBRANCH   2   3
BRANCH   2  26
HETATM   26  C   UNL     1      -7.381   5.727  65.596  1.00  0.00    -0.076 C  
HETATM   27  C   UNL     1      -8.491   6.487  67.453  1.00  0.00    -0.119 C  
HETATM   28  H   UNL     1      -7.207   3.688  65.455  1.00  0.00     0.000 HD 
HETATM   29  C   UNL     1      -8.278   4.128  67.148  1.00  0.00    -0.100 C  
HETATM   30  N   UNL     1      -7.830   6.744  66.283  1.00  0.00    -0.101 NA 
HETATM   31  O   UNL     1      -8.487   2.972  67.500  1.00  0.00    -0.081 OA 
HETATM   32  N   UNL     1      -7.589   4.448  66.017  1.00  0.00    -0.085 N  
HETATM   33  C   UNL     1      -8.756   5.273  67.931  1.00  0.00    -0.102 C  
ENDBRANCH   2  26
TORSDOF 5
ENDMDL
MODEL      216
REMARK 921   NORMALIZED FREE ENERGY PREDICTED BY IDOCK:    1.64 KCAL/MOL
REMARK 922        TOTAL FREE ENERGY PREDICTED BY IDOCK:    0.71 KCAL/MOL
REMARK 923 INTER-LIGAND FREE ENERGY PREDICTED BY IDOCK:    1.49 KCAL/MOL
REMARK 924 INTRA-LIGAND FREE ENERGY PREDICTED BY IDOCK:   -0.78 KCAL/MOL
REMARK 927      BINDING AFFINITY PREDICTED BY RF-SCORE:    0.00 PKD
ROOT
HETATM    1  C   UNL     1      -9.558   8.189  67.278  1.00  0.00    -0.163 C  
HETATM    2  N   UNL     1     -10.057   8.929  68.457  1.00  0.00    -0.183 NA 
ENDROOT
BRANCH   2   3
HETATM    3  C   UNL     1     -10.533  10.305  68.130  1.00  0.00    -0.190 C  
HETATM    4  C   UNL     1      -9.570  11.382  68.606  1.00  0.00    -0.179 C  
HETATM    5  C   UNL     1     -11.989  10.609  68.453  1.00  0.00     0.108 C  
HETATM    6  C   UNL     1      -9.835  11.882  70.014  1.00  0.00     2.290 C  
HETATM    7  N   UNL     1     -11.225  12.291  70.217  1.00  0.00     0.374 NA 
HETATM    8  C   UNL     1     -12.304  11.482  69.668  1.00  0.00    -0.142 C  
BRANCH   7   9
HETATM    9  C   UNL     1     -11.445  13.446  70.933  1.00  0.00     0.919 A  
HETATM   10  C   UNL     1     -11.806  14.778  72.607  1.00  0.00    -0.110 A  
HETATM   11  N   UNL     1     -11.823  13.470  72.199  1.00  0.00     1.200 NA 
HETATM   12  C   UNL     1     -11.481  15.616  71.554  1.00  0.00    -0.422 A  
HETATM   13  N   UNL     1     -11.321  14.757  70.475  1.00  0.00    -0.229 NA 
HETATM   14  C   UNL     1     -11.369  17.008  71.697  1.00  0.00     0.796 A  
HETATM   15  C   UNL     1     -11.585  17.541  72.972  1.00  0.00     1.269 A  
HETATM   16  C   UNL     1     -11.922  16.717  74.045  1.00  0.00    -0.241 A  
HETATM   17  C   UNL     1     -12.045  15.331  73.875  1.00  0.00    -0.649 A  
BRANCH  13  18
HETATM   18  C   UNL     1     -11.176  15.258  69.115  1.00  0.00    -0.278 C  
BRANCH  18  19
HETATM   19  C   UNL     1      -9.740  15.539  68.721  1.00  0.00    -0.213 A  
HETATM   20  C   UNL     1      -8.901  16.168  69.656  1.00  0.00     0.178 A  
HETATM   21  C   UNL     1      -7.643  16.630  69.272  1.00  0.00    -0.130 A  
HETATM   22  C   UNL     1      -7.207  16.436  67.967  1.00  0.00    -0.136 A  
HETATM   23  F   UNL     1      -6.038  16.958  67.576  1.00  0.00    -0.122 F  
HETATM   24  C   UNL     1      -7.976  15.723  67.059  1.00  0.00    -0.272 A  
HETATM   25  C   UNL     1      -9.230  15.253  67.441  1.00  0.00    -0.201 A  
ENDBRANCH  18  19
ENDBRANCH  13  18
ENDBRANCH   7   9
ENDBRANCH   2   3
BRANCH   2  26
HETATM   26  C   UNL     1     -10.628   8.143  69.440  1.00  0.00    -0.200 C  
HETATM   27  C   UNL     1     -11.499   6.184  70.253  1.00  0.00    -0.287 C  
HETATM   28  H   UNL     1     -10.586   9.701  70.775  1.00  0.00     0.000 HD 
HETATM   29  C   UNL     1     -11.341   8.052  71.733  1.00  0.00    -0.270 C  
HETATM   30  N   UNL     1     -10.938   6.892  69.225  1.00  0.00    -0.239 NA 
HETATM   31  O   UNL     1     -11.488   8.571  72.834  1.00  0.00    -0.198 OA 
HETATM   32  N   UNL     1     -10.830   8.717  70.659  1.00  0.00    -0.224 N  
HETATM   33  C   UNL     1     -11.714   6.656  71.479  1.00  0.00    -0.369 C  
ENDBRANCH   2  26
TORSDOF 5
ENDMDL
MODEL      217
REMARK 921   NORMALIZED FREE ENERGY PREDICTED BY IDOCK:    3.76 KCAL/MOL
REMARK 922        TOTAL FREE ENERGY PREDICTED BY IDOCK:    3.44 KCAL/MOL
REMARK 923 INTER-LIGAND FREE ENERGY PREDICTED BY IDOCK:    3.10 KCAL/MOL
REMARK 924 INTRA-LIGAND FREE ENERGY PREDICTED BY IDOCK:    0.34 KCAL/MOL
REMARK 927      BINDING AFFINITY PREDICTED BY RF-SCORE:    0.00 PKD
ROOT
HETATM    1  C   UNL     1      -9.607  10.532  71.012  1.00  0.00     2.697 C  
HETATM    2  N   UNL     1      -9.091   9.454  70.142  1.00  0.00    -0.213 NA 
ENDROOT
BRANCH   2   3
HETATM    3  C   UNL     1      -8.766   9.916  68.762  1.00  0.00    -0.132 C  
HETATM    4  C   UNL     1      -7.713  11.016  68.749  1.00  0.00    -0.135 C  
HETATM    5  C   UNL     1      -9.950  10.203  67.850  1.00  0.00    -0.190 C  
HETATM    6  C   UNL     1      -8.275  12.423  68.833  1.00  0.00     0.218 C  
HETATM    7  N   UNL     1      -9.314  12.676  67.833  1.00  0.00    -0.197 NA 
HETATM    8  C   UNL     1     -10.318  11.658  67.559  1.00  0.00    -0.197 C  
BRANCH   7   9
HETATM    9  C   UNL     1      -9.287  13.894  67.191  1.00  0.00    -0.243 A  
HETATM   10  C   UNL     1      -9.961  15.672  66.146  1.00  0.00    -0.312 A  
HETATM   11  N   UNL     1     -10.310  14.402  66.527  1.00  0.00    -0.276 NA 
HETATM   12  C   UNL     1      -8.655  15.952  66.513  1.00  0.00    -0.310 A  
HETATM   13  N   UNL     1      -8.215  14.783  67.117  1.00  0.00    -0.212 NA 
HETATM   14  C   UNL     1      -8.047  17.193  66.266  1.00  0.00    -0.325 A  
HETATM   15  C   UNL     1      -8.820  18.172  65.635  1.00  0.00     0.693 A  
HETATM   16  C   UNL     1     -10.135  17.909  65.250  1.00  0.00     0.817 A  
HETATM   17  C   UNL     1     -10.716  16.657  65.491  1.00  0.00    -0.234 A  
BRANCH  13  18
HETATM   18  C   UNL     1      -6.814  14.583  67.464  1.00  0.00    -0.143 C  
BRANCH  18  19
HETATM   19  C   UNL     1      -6.518  14.788  68.935  1.00  0.00    -0.089 A  
HETATM   20  C   UNL     1      -5.617  13.913  69.565  1.00  0.00    -0.089 A  
HETATM   21  C   UNL     1      -5.471  13.931  70.951  1.00  0.00    -0.170 A  
HETATM   22  C   UNL     1      -6.197  14.843  71.707  1.00  0.00     0.687 A  
HETATM   23  F   UNL     1      -6.124  14.800  73.043  1.00  0.00     0.214 F  
HETATM   24  C   UNL     1      -7.010  15.786  71.097  1.00  0.00     2.190 A  
HETATM   25  C   UNL     1      -7.152  15.776  69.710  1.00  0.00    -0.077 A  
ENDBRANCH  18  19
ENDBRANCH  13  18
ENDBRANCH   7   9
ENDBRANCH   2   3
BRANCH   2  26
HETATM   26  C   UNL     1      -8.381   8.465  70.797  1.00  0.00    -0.130 C  
HETATM   27  C   UNL     1      -6.751   7.713  72.224  1.00  0.00    -0.057 C  
HETATM   28  H   UNL     1      -9.520   7.001  69.922  1.00  0.00     0.000 HD 
HETATM   29  C   UNL     1      -8.183   6.104  71.191  1.00  0.00    -0.123 C  
HETATM   30  N   UNL     1      -7.402   8.750  71.615  1.00  0.00    -0.216 NA 
HETATM   31  O   UNL     1      -8.554   4.949  71.012  1.00  0.00    -0.116 OA 
HETATM   32  N   UNL     1      -8.761   7.175  70.580  1.00  0.00    -0.148 N  
HETATM   33  C   UNL     1      -7.066   6.427  72.086  1.00  0.00    -0.078 C  
ENDBRANCH   2  26
TORSDOF 5
ENDMDL
MODEL      218
REMARK 921   NORMALIZED FREE ENERGY PREDICTED BY IDOCK:    6.03 KCAL/MOL
REMARK 922        TOTAL FREE ENERGY PREDICTED BY IDOCK:    6.38 KCAL/MOL
REMARK 923 INTER-LIGAND FREE ENERGY PREDICTED BY IDOCK:    4.23 KCAL/MOL
REMARK 924 INTRA-LIGAND FREE ENERGY PREDICTED BY IDOCK:    2.14 KCAL/MOL
REMARK 927      BINDING AFFINITY PREDICTED BY RF-SCORE:    0.00 PKD
ROOT
HETATM    1  C   UNL     1     -11.117   4.913  73.963  1.00  0.00     0.027 C  
HETATM    2  N   UNL     1     -10.902   5.069  72.508  1.00  0.00    -0.213 NA 
ENDROOT
BRANCH   2   3
HETATM    3  C   UNL     1     -10.185   6.328  72.151  1.00  0.00    -0.184 C  
HETATM    4  C   UNL     1     -11.054   7.284  71.346  1.00  0.00    -0.268 C  
HETATM    5  C   UNL     1      -8.781   6.168  71.587  1.00  0.00    -0.135 C  
HETATM    6  C   UNL     1     -10.973   7.092  69.843  1.00  0.00    -0.263 C  
HETATM    7  N   UNL     1      -9.596   7.088  69.348  1.00  0.00    -0.155 NA 
HETATM    8  C   UNL     1      -8.563   6.377  70.088  1.00  0.00    -0.135 C  
BRANCH   7   9
HETATM    9  C   UNL     1      -9.344   7.772  68.180  1.00  0.00    -0.145 A  
HETATM   10  C   UNL     1      -8.965   8.166  66.080  1.00  0.00    -0.178 A  
HETATM   11  N   UNL     1      -8.994   7.192  67.044  1.00  0.00    -0.126 NA 
HETATM   12  C   UNL     1      -9.230   9.408  66.630  1.00  0.00    -0.153 A  
HETATM   13  N   UNL     1      -9.401   9.151  67.983  1.00  0.00    -0.137 NA 
HETATM   14  C   UNL     1      -9.286  10.583  65.862  1.00  0.00    -0.210 A  
HETATM   15  C   UNL     1      -9.076  10.459  64.485  1.00  0.00    -0.263 A  
HETATM   16  C   UNL     1      -8.800   9.218  63.911  1.00  0.00    -0.160 A  
HETATM   17  C   UNL     1      -8.731   8.062  64.700  1.00  0.00     0.188 A  
BRANCH  13  18
HETATM   18  C   UNL     1      -9.493  10.228  68.960  1.00  0.00    -0.200 C  
BRANCH  18  19
HETATM   19  C   UNL     1      -8.873   9.886  70.300  1.00  0.00    -0.078 A  
HETATM   20  C   UNL     1      -7.499   9.597  70.347  1.00  0.00    -0.168 A  
HETATM   21  C   UNL     1      -6.929   9.080  71.509  1.00  0.00    -0.045 A  
HETATM   22  C   UNL     1      -7.720   8.881  72.634  1.00  0.00     0.357 A  
HETATM   23  F   UNL     1      -7.192   8.301  73.719  1.00  0.00    -0.145 F  
HETATM   24  C   UNL     1      -9.054   9.259  72.642  1.00  0.00     1.544 A  
HETATM   25  C   UNL     1      -9.625   9.785  71.485  1.00  0.00     1.078 A  
ENDBRANCH  18  19
ENDBRANCH  13  18
ENDBRANCH   7   9
ENDBRANCH   2   3
BRANCH   2  26
HETATM   26  C   UNL     1     -10.749   3.886  71.810  1.00  0.00     0.492 C  
HETATM   27  C   UNL     1     -10.920   1.613  71.563  1.00  0.00     1.182 C  
HETATM   28  H   UNL     1      -9.961   4.883  70.200  1.00  0.00     0.000 HD 
HETATM   29  C   UNL     1     -10.074   2.890  69.731  1.00  0.00     0.909 C  
HETATM   30  N   UNL     1     -11.104   2.737  72.321  1.00  0.00     0.627 NA 
HETATM   31  O   UNL     1      -9.642   2.978  68.587  1.00  0.00    -0.164 OA 
HETATM   32  N   UNL     1     -10.237   3.966  70.550  1.00  0.00     0.170 N  
HETATM   33  C   UNL     1     -10.446   1.599  70.319  1.00  0.00     1.182 C  
ENDBRANCH   2  26
TORSDOF 5
ENDMDL
MODEL      219
REMARK 921   NORMALIZED FREE ENERGY PREDICTED BY IDOCK:    6.54 KCAL/MOL
REMARK 922        TOTAL FREE ENERGY PREDICTED BY IDOCK:    7.05 KCAL/MOL
REMARK 923 INTER-LIGAND FREE ENERGY PREDICTED BY IDOCK:    0.83 KCAL/MOL
REMARK 924 INTRA-LIGAND FREE ENERGY PREDICTED BY IDOCK:    6.21 KCAL/MOL
REMARK 927      BINDING AFFINITY PREDICTED BY RF-SCORE:    0.00 PKD
ROOT
HETATM    1  C   UNL     1     -11.578  18.038  66.619  1.00  0.00     1.834 C  
HETATM    2  N   UNL     1     -10.468  17.392  67.351  1.00  0.00    -0.345 NA 
ENDROOT
BRANCH   2   3
HETATM    3  C   UNL     1     -10.895  16.193  68.129  1.00  0.00    -0.329 C  
HETATM    4  C   UNL     1      -9.714  15.392  68.658  1.00  0.00    -0.210 C  
HETATM    5  C   UNL     1     -11.976  15.328  67.497  1.00  0.00     0.105 C  
HETATM    6  C   UNL     1      -9.218  14.310  67.717  1.00  0.00    -0.194 C  
HETATM    7  N   UNL     1     -10.290  13.426  67.257  1.00  0.00    -0.244 NA 
HETATM    8  C   UNL     1     -11.578  13.989  66.878  1.00  0.00    -0.386 C  
BRANCH   7   9
HETATM    9  C   UNL     1     -10.016  12.078  67.203  1.00  0.00    -0.195 A  
HETATM   10  C   UNL     1      -9.488  10.127  66.416  1.00  0.00    -0.176 A  
HETATM   11  N   UNL     1      -9.891  11.392  66.080  1.00  0.00    -0.214 NA 
HETATM   12  C   UNL     1      -9.426   9.981  67.792  1.00  0.00    -0.140 A  
HETATM   13  N   UNL     1      -9.833  11.213  68.282  1.00  0.00    -0.182 NA 
HETATM   14  C   UNL     1      -9.018   8.788  68.411  1.00  0.00    -0.141 A  
HETATM   15  C   UNL     1      -8.650   7.726  67.579  1.00  0.00    -0.122 A  
HETATM   16  C   UNL     1      -8.712   7.849  66.191  1.00  0.00    -0.181 A  
HETATM   17  C   UNL     1      -9.139   9.043  65.595  1.00  0.00    -0.278 A  
BRANCH  13  18
HETATM   18  C   UNL     1     -10.110  11.419  69.698  1.00  0.00     0.506 C  
BRANCH  18  19
HETATM   19  C   UNL     1     -11.052  12.574  69.970  1.00  0.00     0.408 A  
HETATM   20  C   UNL     1     -10.500  13.830  70.270  1.00  0.00     1.392 A  
HETATM   21  C   UNL     1     -11.314  14.866  70.727  1.00  0.00    -0.266 A  
HETATM   22  C   UNL     1     -12.683  14.660  70.852  1.00  0.00    -0.348 A  
HETATM   23  F   UNL     1     -13.450  15.624  71.375  1.00  0.00    -0.494 F  
HETATM   24  C   UNL     1     -13.262  13.463  70.459  1.00  0.00     0.289 A  
HETATM   25  C   UNL     1     -12.451  12.429  69.994  1.00  0.00    -0.037 A  
ENDBRANCH  18  19
ENDBRANCH  13  18
ENDBRANCH   7   9
ENDBRANCH   2   3
BRANCH   2  26
HETATM   26  C   UNL     1      -9.230  17.502  66.747  1.00  0.00    -0.265 C  
HETATM   27  C   UNL     1      -7.127  16.749  66.227  1.00  0.00    -0.053 C  
HETATM   28  H   UNL     1      -9.722  19.332  65.962  1.00  0.00     0.000 HD 
HETATM   29  C   UNL     1      -7.837  18.841  65.319  1.00  0.00     1.090 C  
HETATM   30  N   UNL     1      -8.327  16.563  66.856  1.00  0.00    -0.190 NA 
HETATM   31  O   UNL     1      -7.648  19.836  64.628  1.00  0.00     0.246 OA 
HETATM   32  N   UNL     1      -8.993  18.620  66.006  1.00  0.00    -0.098 N  
HETATM   33  C   UNL     1      -6.817  17.798  65.468  1.00  0.00     0.053 C  
ENDBRANCH   2  26
TORSDOF 5
ENDMDL
MODEL      220
REMARK 921   NORMALIZED FREE ENERGY PREDICTED BY IDOCK:   10.04 KCAL/MOL
REMARK 922        TOTAL FREE ENERGY PREDICTED BY IDOCK:   11.56 KCAL/MOL
REMARK 923 INTER-LIGAND FREE ENERGY PREDICTED BY IDOCK:   10.17 KCAL/MOL
REMARK 924 INTRA-LIGAND FREE ENERGY PREDICTED BY IDOCK:    1.39 KCAL/MOL
REMARK 927      BINDING AFFINITY PREDICTED BY RF-SCORE:    0.00 PKD
ROOT
HETATM    1  C   UNL     1      -9.529  10.809  71.262  1.00  0.00     5.178 C  
HETATM    2  N   UNL     1      -8.733   9.973  70.339  1.00  0.00     0.006 NA 
ENDROOT
BRANCH   2   3
HETATM    3  C   UNL     1      -8.358  10.679  69.079  1.00  0.00    -0.152 C  
HETATM    4  C   UNL     1      -7.884  12.104  69.330  1.00  0.00     0.426 C  
HETATM    5  C   UNL     1      -9.342  10.565  67.924  1.00  0.00    -0.150 C  
HETATM    6  C   UNL     1      -8.988  13.145  69.306  1.00  0.00     0.926 C  
HETATM    7  N   UNL     1      -9.811  13.069  68.098  1.00  0.00    -0.224 NA 
HETATM    8  C   UNL     1     -10.218  11.770  67.581  1.00  0.00    -0.199 C  
BRANCH   7   9
HETATM    9  C   UNL     1     -10.166  14.258  67.501  1.00  0.00    -0.240 A  
HETATM   10  C   UNL     1     -11.250  15.696  66.292  1.00  0.00    -0.033 A  
HETATM   11  N   UNL     1     -11.063  14.361  66.536  1.00  0.00    -0.324 NA 
HETATM   12  C   UNL     1     -10.397  16.461  67.070  1.00  0.00    -0.293 A  
HETATM   13  N   UNL     1      -9.663  15.526  67.786  1.00  0.00    -0.211 NA 
HETATM   14  C   UNL     1     -10.393  17.865  67.039  1.00  0.00    -0.366 A  
HETATM   15  C   UNL     1     -11.310  18.490  66.188  1.00  0.00     1.100 A  
HETATM   16  C   UNL     1     -12.173  17.739  65.389  1.00  0.00     5.724 A  
HETATM   17  C   UNL     1     -12.147  16.338  65.425  1.00  0.00     1.517 A  
BRANCH  13  18
HETATM   18  C   UNL     1      -8.500  15.911  68.577  1.00  0.00    -0.184 C  
BRANCH  18  19
HETATM   19  C   UNL     1      -7.927  17.260  68.195  1.00  0.00    -0.223 A  
HETATM   20  C   UNL     1      -7.250  17.377  66.970  1.00  0.00    -0.214 A  
HETATM   21  C   UNL     1      -6.532  18.534  66.670  1.00  0.00    -0.209 A  
HETATM   22  C   UNL     1      -6.517  19.588  67.577  1.00  0.00    -0.203 A  
HETATM   23  F   UNL     1      -5.755  20.661  67.329  1.00  0.00    -0.181 F  
HETATM   24  C   UNL     1      -7.265  19.535  68.743  1.00  0.00    -0.391 A  
HETATM   25  C   UNL     1      -7.990  18.383  69.041  1.00  0.00    -0.115 A  
ENDBRANCH  18  19
ENDBRANCH  13  18
ENDBRANCH   7   9
ENDBRANCH   2   3
BRANCH   2  26
HETATM   26  C   UNL     1      -7.923   9.036  70.952  1.00  0.00    -0.164 C  
HETATM   27  C   UNL     1      -6.312   8.380  72.447  1.00  0.00    -0.081 C  
HETATM   28  H   UNL     1      -8.723   7.529  69.812  1.00  0.00     0.000 HD 
HETATM   29  C   UNL     1      -7.362   6.705  71.106  1.00  0.00    -0.079 C  
HETATM   30  N   UNL     1      -7.077   9.369  71.890  1.00  0.00    -0.236 NA 
HETATM   31  O   UNL     1      -7.517   5.537  70.766  1.00  0.00    -0.082 OA 
HETATM   32  N   UNL     1      -8.060   7.738  70.559  1.00  0.00    -0.102 N  
HETATM   33  C   UNL     1      -6.393   7.088  72.139  1.00  0.00    -0.045 C  
ENDBRANCH   2  26
TORSDOF 5
ENDMDL
MODEL      221
REMARK 921   NORMALIZED FREE ENERGY PREDICTED BY IDOCK:   12.37 KCAL/MOL
REMARK 922        TOTAL FREE ENERGY PREDICTED BY IDOCK:   14.58 KCAL/MOL
REMARK 923 INTER-LIGAND FREE ENERGY PREDICTED BY IDOCK:   14.69 KCAL/MOL
REMARK 924 INTRA-LIGAND FREE ENERGY PREDICTED BY IDOCK:   -0.11 KCAL/MOL
REMARK 927      BINDING AFFINITY PREDICTED BY RF-SCORE:    0.00 PKD
ROOT
HETATM    1  C   UNL     1      -9.111  12.635  64.515  1.00  0.00     1.186 C  
HETATM    2  N   UNL     1     -10.100  12.098  65.474  1.00  0.00    -0.246 NA 
ENDROOT
BRANCH   2   3
HETATM    3  C   UNL     1     -10.133  10.606  65.512  1.00  0.00    -0.280 C  
HETATM    4  C   UNL     1     -11.453  10.068  66.045  1.00  0.00     1.900 C  
HETATM    5  C   UNL     1      -8.915   9.919  66.111  1.00  0.00    -0.177 C  
HETATM    6  C   UNL     1     -11.489   9.870  67.549  1.00  0.00     0.672 C  
HETATM    7  N   UNL     1     -10.360   9.080  68.041  1.00  0.00    -0.216 NA 
HETATM    8  C   UNL     1      -9.025   9.317  67.511  1.00  0.00    -0.118 C  
BRANCH   7   9
HETATM    9  C   UNL     1     -10.626   8.132  69.004  1.00  0.00    -0.151 A  
HETATM   10  C   UNL     1     -11.528   7.152  70.716  1.00  0.00    -0.305 A  
HETATM   11  N   UNL     1     -11.379   8.350  70.068  1.00  0.00    -0.086 NA 
HETATM   12  C   UNL     1     -10.790   6.161  70.091  1.00  0.00    -0.329 A  
HETATM   13  N   UNL     1     -10.165   6.817  69.040  1.00  0.00    -0.170 NA 
HETATM   14  C   UNL     1     -10.779   4.828  70.534  1.00  0.00     0.268 A  
HETATM   15  C   UNL     1     -11.568   4.515  71.645  1.00  0.00     1.758 A  
HETATM   16  C   UNL     1     -12.313   5.499  72.295  1.00  0.00     0.402 A  
HETATM   17  C   UNL     1     -12.295   6.826  71.846  1.00  0.00    -0.369 A  
BRANCH  13  18
HETATM   18  C   UNL     1      -9.123   6.173  68.250  1.00  0.00    -0.112 C  
BRANCH  18  19
HETATM   19  C   UNL     1      -9.377   6.221  66.757  1.00  0.00    -0.158 A  
HETATM   20  C   UNL     1      -8.332   5.865  65.889  1.00  0.00    -0.136 A  
HETATM   21  C   UNL     1      -8.450   6.090  64.518  1.00  0.00     0.024 A  
HETATM   22  C   UNL     1      -9.621   6.637  64.009  1.00  0.00     2.999 A  
HETATM   23  F   UNL     1      -9.698   6.936  62.706  1.00  0.00     1.696 F  
HETATM   24  C   UNL     1     -10.704   6.896  64.835  1.00  0.00     6.223 A  
HETATM   25  C   UNL     1     -10.593   6.665  66.205  1.00  0.00     0.588 A  
ENDBRANCH  18  19
ENDBRANCH  13  18
ENDBRANCH   7   9
ENDBRANCH   2   3
BRANCH   2  26
HETATM   26  C   UNL     1     -10.324  12.889  66.585  1.00  0.00    -0.251 C  
HETATM   27  C   UNL     1      -9.664  14.007  68.475  1.00  0.00    -0.215 C  
HETATM   28  H   UNL     1     -12.319  13.042  66.131  1.00  0.00     0.000 HD 
HETATM   29  C   UNL     1     -11.952  14.161  67.810  1.00  0.00    -0.354 C  
HETATM   30  N   UNL     1      -9.357  13.219  67.399  1.00  0.00    -0.209 NA 
HETATM   31  O   UNL     1     -13.093  14.586  67.961  1.00  0.00     1.461 OA 
HETATM   32  N   UNL     1     -11.595  13.338  66.785  1.00  0.00    -0.346 N  
HETATM   33  C   UNL     1     -10.869  14.506  68.737  1.00  0.00    -0.256 C  
ENDBRANCH   2  26
TORSDOF 5
ENDMDL
MODEL      222
REMARK 921   NORMALIZED FREE ENERGY PREDICTED BY IDOCK:   12.78 KCAL/MOL
REMARK 922        TOTAL FREE ENERGY PREDICTED BY IDOCK:   15.11 KCAL/MOL
REMARK 923 INTER-LIGAND FREE ENERGY PREDICTED BY IDOCK:   14.94 KCAL/MOL
REMARK 924 INTRA-LIGAND FREE ENERGY PREDICTED BY IDOCK:    0.16 KCAL/MOL
REMARK 927      BINDING AFFINITY PREDICTED BY RF-SCORE:    0.00 PKD
ROOT
HETATM    1  C   UNL     1     -11.371  11.447  68.859  1.00  0.00    -0.270 C  
HETATM    2  N   UNL     1     -10.272  11.404  67.871  1.00  0.00    -0.179 NA 
ENDROOT
BRANCH   2   3
HETATM    3  C   UNL     1      -9.338  12.563  67.979  1.00  0.00    -0.205 C  
HETATM    4  C   UNL     1      -9.386  13.223  69.350  1.00  0.00     1.050 C  
HETATM    5  C   UNL     1      -9.362  13.558  66.829  1.00  0.00    -0.262 C  
HETATM    6  C   UNL     1     -10.406  14.338  69.474  1.00  0.00     0.113 C  
HETATM    7  N   UNL     1     -10.282  15.338  68.412  1.00  0.00    -0.220 NA 
HETATM    8  C   UNL     1     -10.043  14.911  67.041  1.00  0.00    -0.244 C  
BRANCH   7   9
HETATM    9  C   UNL     1     -10.403  16.661  68.774  1.00  0.00    -0.301 A  
HETATM   10  C   UNL     1     -10.555  18.439  70.008  1.00  0.00     1.523 A  
HETATM   11  N   UNL     1     -10.637  17.071  70.009  1.00  0.00     0.003 NA 
HETATM   12  C   UNL     1     -10.338  18.916  68.726  1.00  0.00    -0.138 A  
HETATM   13  N   UNL     1     -10.313  17.774  67.939  1.00  0.00    -0.369 NA 
HETATM   14  C   UNL     1     -10.191  20.283  68.440  1.00  0.00    -0.340 A  
HETATM   15  C   UNL     1     -10.255  21.175  69.515  1.00  0.00     1.215 A  
HETATM   16  C   UNL     1     -10.481  20.716  70.813  1.00  0.00     2.313 A  
HETATM   17  C   UNL     1     -10.642  19.349  71.073  1.00  0.00     2.651 A  
BRANCH  13  18
HETATM   18  C   UNL     1     -10.315  17.849  66.484  1.00  0.00    -0.362 C  
BRANCH  18  19
HETATM   19  C   UNL     1      -8.930  17.975  65.881  1.00  0.00     0.172 A  
HETATM   20  C   UNL     1      -8.390  19.260  65.709  1.00  0.00     0.135 A  
HETATM   21  C   UNL     1      -7.218  19.437  64.976  1.00  0.00     0.414 A  
HETATM   22  C   UNL     1      -6.566  18.332  64.443  1.00  0.00     2.055 A  
HETATM   23  F   UNL     1      -5.491  18.510  63.665  1.00  0.00    -0.190 F  
HETATM   24  C   UNL     1      -7.023  17.047  64.692  1.00  0.00     5.953 A  
HETATM   25  C   UNL     1      -8.190  16.865  65.432  1.00  0.00     1.644 A  
ENDBRANCH  18  19
ENDBRANCH  13  18
ENDBRANCH   7   9
ENDBRANCH   2   3
BRANCH   2  26
HETATM   26  C   UNL     1      -9.865  10.135  67.505  1.00  0.00    -0.177 C  
HETATM   27  C   UNL     1      -9.603   7.884  67.854  1.00  0.00    -0.147 C  
HETATM   28  H   UNL     1      -9.184  10.824  65.697  1.00  0.00     0.000 HD 
HETATM   29  C   UNL     1      -8.902   8.794  65.760  1.00  0.00    -0.195 C  
HETATM   30  N   UNL     1     -10.032   9.106  68.294  1.00  0.00    -0.168 NA 
HETATM   31  O   UNL     1      -8.430   8.671  64.635  1.00  0.00    -0.171 OA 
HETATM   32  N   UNL     1      -9.307   9.990  66.271  1.00  0.00    -0.161 N  
HETATM   33  C   UNL     1      -9.065   7.647  66.660  1.00  0.00    -0.198 C  
ENDBRANCH   2  26
TORSDOF 5
ENDMDL
MODEL      223
REMARK 921   NORMALIZED FREE ENERGY PREDICTED BY IDOCK:   13.88 KCAL/MOL
REMARK 922        TOTAL FREE ENERGY PREDICTED BY IDOCK:   16.53 KCAL/MOL
REMARK 923 INTER-LIGAND FREE ENERGY PREDICTED BY IDOCK:   13.53 KCAL/MOL
REMARK 924 INTRA-LIGAND FREE ENERGY PREDICTED BY IDOCK:    3.00 KCAL/MOL
REMARK 927      BINDING AFFINITY PREDICTED BY RF-SCORE:    0.00 PKD
ROOT
HETATM    1  C   UNL     1      -8.990  12.722  64.430  1.00  0.00     1.830 C  
HETATM    2  N   UNL     1      -9.940  13.580  65.171  1.00  0.00    -0.228 NA 
ENDROOT
BRANCH   2   3
HETATM    3  C   UNL     1     -10.661  12.856  66.258  1.00  0.00    -0.266 C  
HETATM    4  C   UNL     1     -12.010  13.483  66.579  1.00  0.00    -0.460 C  
HETATM    5  C   UNL     1      -9.845  12.513  67.496  1.00  0.00    -0.198 C  
HETATM    6  C   UNL     1     -11.965  14.558  67.649  1.00  0.00    -0.320 C  
HETATM    7  N   UNL     1     -11.287  14.113  68.868  1.00  0.00    -0.260 NA 
HETATM    8  C   UNL     1     -10.065  13.328  68.771  1.00  0.00    -0.073 C  
BRANCH   7   9
HETATM    9  C   UNL     1     -11.855  14.470  70.071  1.00  0.00    -0.313 A  
HETATM   10  C   UNL     1     -12.982  15.587  71.550  1.00  0.00    -0.472 A  
HETATM   11  N   UNL     1     -12.409  15.646  70.307  1.00  0.00    -0.400 NA 
HETATM   12  C   UNL     1     -12.722  14.367  72.151  1.00  0.00    -0.323 A  
HETATM   13  N   UNL     1     -11.943  13.690  71.223  1.00  0.00    -0.043 NA 
HETATM   14  C   UNL     1     -13.212  14.028  73.424  1.00  0.00     0.499 A  
HETATM   15  C   UNL     1     -14.003  14.976  74.080  1.00  0.00     3.702 A  
HETATM   16  C   UNL     1     -14.271  16.214  73.496  1.00  0.00     1.149 A  
HETATM   17  C   UNL     1     -13.757  16.537  72.232  1.00  0.00     1.689 A  
BRANCH  13  18
HETATM   18  C   UNL     1     -11.277  12.437  71.554  1.00  0.00     4.172 C  
BRANCH  18  19
HETATM   19  C   UNL     1     -11.426  11.372  70.487  1.00  0.00    -0.005 A  
HETATM   20  C   UNL     1     -10.670  10.194  70.608  1.00  0.00    -0.243 A  
HETATM   21  C   UNL     1     -10.616   9.281  69.555  1.00  0.00    -0.236 A  
HETATM   22  C   UNL     1     -11.341   9.526  68.396  1.00  0.00     0.260 A  
HETATM   23  F   UNL     1     -11.218   8.696  67.352  1.00  0.00    -0.162 F  
HETATM   24  C   UNL     1     -12.177  10.628  68.297  1.00  0.00     0.763 A  
HETATM   25  C   UNL     1     -12.239  11.538  69.351  1.00  0.00    -0.273 A  
ENDBRANCH  18  19
ENDBRANCH  13  18
ENDBRANCH   7   9
ENDBRANCH   2   3
BRANCH   2  26
HETATM   26  C   UNL     1      -9.579  14.911  65.257  1.00  0.00     0.071 C  
HETATM   27  C   UNL     1      -8.088  16.613  65.626  1.00  0.00     0.903 C  
HETATM   28  H   UNL     1     -11.479  15.506  64.758  1.00  0.00     0.000 HD 
HETATM   29  C   UNL     1     -10.316  17.181  64.979  1.00  0.00     0.519 C  
HETATM   30  N   UNL     1      -8.362  15.274  65.564  1.00  0.00     1.902 NA 
HETATM   31  O   UNL     1     -11.180  18.004  64.696  1.00  0.00    -0.556 OA 
HETATM   32  N   UNL     1     -10.539  15.837  64.979  1.00  0.00    -0.416 N  
HETATM   33  C   UNL     1      -8.956  17.585  65.353  1.00  0.00     1.323 C  
ENDBRANCH   2  26
TORSDOF 5
ENDMDL
MODEL      224
REMARK 921   NORMALIZED FREE ENERGY PREDICTED BY IDOCK:   13.95 KCAL/MOL
REMARK 922        TOTAL FREE ENERGY PREDICTED BY IDOCK:   16.61 KCAL/MOL
REMARK 923 INTER-LIGAND FREE ENERGY PREDICTED BY IDOCK:    3.60 KCAL/MOL
REMARK 924 INTRA-LIGAND FREE ENERGY PREDICTED BY IDOCK:   13.01 KCAL/MOL
REMARK 927      BINDING AFFINITY PREDICTED BY RF-SCORE:    0.00 PKD
ROOT
HETATM    1  C   UNL     1     -11.466  17.577  69.252  1.00  0.00     1.611 C  
HETATM    2  N   UNL     1     -10.080  17.406  69.738  1.00  0.00     0.171 NA 
ENDROOT
BRANCH   2   3
HETATM    3  C   UNL     1      -9.644  15.979  69.783  1.00  0.00    -0.007 C  
HETATM    4  C   UNL     1      -8.394  15.727  68.951  1.00  0.00    -0.213 C  
HETATM    5  C   UNL     1     -10.730  14.935  69.572  1.00  0.00    -0.256 C  
HETATM    6  C   UNL     1      -8.667  15.351  67.507  1.00  0.00    -0.175 C  
HETATM    7  N   UNL     1      -9.616  14.244  67.381  1.00  0.00    -0.210 NA 
HETATM    8  C   UNL     1     -10.797  14.203  68.231  1.00  0.00    -0.247 C  
BRANCH   7   9
HETATM    9  C   UNL     1      -9.336  13.277  66.441  1.00  0.00    -0.174 A  
HETATM   10  C   UNL     1      -9.340  12.182  64.568  1.00  0.00     0.337 A  
HETATM   11  N   UNL     1      -9.978  13.155  65.292  1.00  0.00    -0.217 NA 
HETATM   12  C   UNL     1      -8.311  11.619  65.304  1.00  0.00     0.658 A  
HETATM   13  N   UNL     1      -8.365  12.280  66.523  1.00  0.00    -0.018 NA 
HETATM   14  C   UNL     1      -7.476  10.611  64.795  1.00  0.00     0.132 A  
HETATM   15  C   UNL     1      -7.706  10.190  63.482  1.00  0.00    -0.144 A  
HETATM   16  C   UNL     1      -8.742  10.738  62.725  1.00  0.00    -0.268 A  
HETATM   17  C   UNL     1      -9.574  11.731  63.260  1.00  0.00    -0.283 A  
BRANCH  13  18
HETATM   18  C   UNL     1      -7.579  11.838  67.668  1.00  0.00    -0.132 C  
BRANCH  18  19
HETATM   19  C   UNL     1      -7.068  12.976  68.528  1.00  0.00    -0.105 A  
HETATM   20  C   UNL     1      -7.929  13.523  69.494  1.00  0.00     0.811 A  
HETATM   21  C   UNL     1      -7.581  14.696  70.162  1.00  0.00     0.442 A  
HETATM   22  C   UNL     1      -6.361  15.304  69.893  1.00  0.00    -0.164 A  
HETATM   23  F   UNL     1      -6.067  16.477  70.468  1.00  0.00    -0.144 F  
HETATM   24  C   UNL     1      -5.451  14.723  69.024  1.00  0.00    -0.093 A  
HETATM   25  C   UNL     1      -5.793  13.546  68.360  1.00  0.00    -0.092 A  
ENDBRANCH  18  19
ENDBRANCH  13  18
ENDBRANCH   7   9
ENDBRANCH   2   3
BRANCH   2  26
HETATM   26  C   UNL     1      -9.225  18.450  69.443  1.00  0.00     0.348 C  
HETATM   27  C   UNL     1      -7.721  20.090  69.997  1.00  0.00     0.678 C  
HETATM   28  H   UNL     1      -9.653  18.298  67.442  1.00  0.00     0.000 HD 
HETATM   29  C   UNL     1      -8.253  19.775  67.690  1.00  0.00    -0.305 C  
HETATM   30  N   UNL     1      -8.547  19.067  70.374  1.00  0.00     1.990 NA 
HETATM   31  O   UNL     1      -8.117  20.057  66.504  1.00  0.00    -0.306 OA 
HETATM   32  N   UNL     1      -9.092  18.798  68.132  1.00  0.00    -0.298 N  
HETATM   33  C   UNL     1      -7.515  20.484  68.742  1.00  0.00     0.272 C  
ENDBRANCH   2  26
TORSDOF 5
ENDMDL
MODEL      225
REMARK 921   NORMALIZED FREE ENERGY PREDICTED BY IDOCK:   19.77 KCAL/MOL
REMARK 922        TOTAL FREE ENERGY PREDICTED BY IDOCK:   24.13 KCAL/MOL
REMARK 923 INTER-LIGAND FREE ENERGY PREDICTED BY IDOCK:   24.64 KCAL/MOL
REMARK 924 INTRA-LIGAND FREE ENERGY PREDICTED BY IDOCK:   -0.50 KCAL/MOL
REMARK 927      BINDING AFFINITY PREDICTED BY RF-SCORE:    0.00 PKD
ROOT
HETATM    1  C   UNL     1     -13.716  13.858  67.016  1.00  0.00     6.099 C  
HETATM    2  N   UNL     1     -12.434  13.734  66.290  1.00  0.00    -0.424 NA 
ENDROOT
BRANCH   2   3
HETATM    3  C   UNL     1     -11.821  15.050  65.947  1.00  0.00    -0.021 C  
HETATM    4  C   UNL     1     -10.305  15.039  66.083  1.00  0.00    -0.310 C  
HETATM    5  C   UNL     1     -12.474  16.279  66.563  1.00  0.00     2.969 C  
HETATM    6  C   UNL     1      -9.796  15.429  67.459  1.00  0.00    -0.217 C  
HETATM    7  N   UNL     1     -10.359  16.695  67.932  1.00  0.00    -0.298 NA 
HETATM    8  C   UNL     1     -11.771  16.980  67.726  1.00  0.00     0.857 C  
BRANCH   7   9
HETATM    9  C   UNL     1      -9.502  17.569  68.563  1.00  0.00    -0.296 A  
HETATM   10  C   UNL     1      -8.562  18.741  70.128  1.00  0.00     1.915 A  
HETATM   11  N   UNL     1      -9.672  18.008  69.798  1.00  0.00     0.552 NA 
HETATM   12  C   UNL     1      -7.697  18.832  69.050  1.00  0.00    -0.202 A  
HETATM   13  N   UNL     1      -8.343  18.138  68.037  1.00  0.00    -0.255 NA 
HETATM   14  C   UNL     1      -6.468  19.509  69.118  1.00  0.00    -0.356 A  
HETATM   15  C   UNL     1      -6.123  20.091  70.342  1.00  0.00    -0.384 A  
HETATM   16  C   UNL     1      -6.983  20.018  71.438  1.00  0.00     0.671 A  
HETATM   17  C   UNL     1      -8.213  19.352  71.342  1.00  0.00     3.999 A  
BRANCH  13  18
HETATM   18  C   UNL     1      -7.863  18.171  66.662  1.00  0.00    -0.242 C  
BRANCH  18  19
HETATM   19  C   UNL     1      -8.586  19.177  65.791  1.00  0.00     0.260 A  
HETATM   20  C   UNL     1      -9.985  19.257  65.882  1.00  0.00    -0.287 A  
HETATM   21  C   UNL     1     -10.708  20.015  64.961  1.00  0.00     0.503 A  
HETATM   22  C   UNL     1     -10.034  20.719  63.971  1.00  0.00     4.504 A  
HETATM   23  F   UNL     1     -10.732  21.372  63.034  1.00  0.00     2.911 F  
HETATM   24  C   UNL     1      -8.648  20.739  63.929  1.00  0.00     3.741 A  
HETATM   25  C   UNL     1      -7.923  19.990  64.853  1.00  0.00     1.178 A  
ENDBRANCH  18  19
ENDBRANCH  13  18
ENDBRANCH   7   9
ENDBRANCH   2   3
BRANCH   2  26
HETATM   26  C   UNL     1     -11.691  12.612  66.606  1.00  0.00    -0.398 C  
HETATM   27  C   UNL     1     -11.101  10.856  67.959  1.00  0.00    -0.293 C  
HETATM   28  H   UNL     1     -10.651  12.745  64.843  1.00  0.00     0.000 HD 
HETATM   29  C   UNL     1     -10.002  11.080  65.850  1.00  0.00    -0.240 C  
HETATM   30  N   UNL     1     -11.877  11.957  67.722  1.00  0.00    -0.573 NA 
HETATM   31  O   UNL     1      -9.200  10.695  65.005  1.00  0.00    -0.189 OA 
HETATM   32  N   UNL     1     -10.771  12.193  65.693  1.00  0.00    -0.265 N  
HETATM   33  C   UNL     1     -10.194  10.365  67.116  1.00  0.00    -0.271 C  
ENDBRANCH   2  26
TORSDOF 5
ENDMDL
MODEL      226
REMARK 921   NORMALIZED FREE ENERGY PREDICTED BY IDOCK:   44.98 KCAL/MOL
REMARK 922        TOTAL FREE ENERGY PREDICTED BY IDOCK:   56.72 KCAL/MOL
REMARK 923 INTER-LIGAND FREE ENERGY PREDICTED BY IDOCK:   47.63 KCAL/MOL
REMARK 924 INTRA-LIGAND FREE ENERGY PREDICTED BY IDOCK:    9.09 KCAL/MOL
REMARK 927      BINDING AFFINITY PREDICTED BY RF-SCORE:    0.00 PKD
ROOT
HETATM    1  C   UNL     1     -11.809  12.268  64.642  1.00  0.00    -0.367 C  
HETATM    2  N   UNL     1     -11.225  11.605  65.827  1.00  0.00    -0.275 NA 
ENDROOT
BRANCH   2   3
HETATM    3  C   UNL     1     -10.897  12.554  66.930  1.00  0.00    -0.248 C  
HETATM    4  C   UNL     1     -12.023  13.542  67.202  1.00  0.00    -0.426 C  
HETATM    5  C   UNL     1      -9.523  13.205  66.874  1.00  0.00    -0.244 C  
HETATM    6  C   UNL     1     -11.940  14.824  66.394  1.00  0.00    -0.168 C  
HETATM    7  N   UNL     1     -10.633  15.474  66.497  1.00  0.00    -0.304 NA 
HETATM    8  C   UNL     1      -9.420  14.670  66.448  1.00  0.00    -0.299 C  
BRANCH   7   9
HETATM    9  C   UNL     1     -10.619  16.843  66.636  1.00  0.00    -0.189 A  
HETATM   10  C   UNL     1     -10.757  18.952  66.144  1.00  0.00    -0.289 A  
HETATM   11  N   UNL     1     -10.643  17.690  65.621  1.00  0.00    -0.569 NA 
HETATM   12  C   UNL     1     -10.730  18.913  67.528  1.00  0.00    -0.434 A  
HETATM   13  N   UNL     1     -10.571  17.568  67.826  1.00  0.00    -0.381 NA 
HETATM   14  C   UNL     1     -10.852  20.065  68.322  1.00  0.00     0.142 A  
HETATM   15  C   UNL     1     -11.022  21.285  67.661  1.00  0.00     2.954 A  
HETATM   16  C   UNL     1     -11.045  21.348  66.267  1.00  0.00     5.382 A  
HETATM   17  C   UNL     1     -10.903  20.187  65.495  1.00  0.00    -0.108 A  
BRANCH  13  18
HETATM   18  C   UNL     1     -10.285  17.114  69.181  1.00  0.00    -0.284 C  
BRANCH  18  19
HETATM   19  C   UNL     1     -10.706  15.683  69.444  1.00  0.00    -0.252 A  
HETATM   20  C   UNL     1      -9.752  14.787  69.953  1.00  0.00     0.286 A  
HETATM   21  C   UNL     1     -10.031  13.422  70.015  1.00  0.00     2.113 A  
HETATM   22  C   UNL     1     -11.273  12.955  69.602  1.00  0.00    -0.002 A  
HETATM   23  F   UNL     1     -11.508  11.637  69.578  1.00  0.00    -0.282 F  
HETATM   24  C   UNL     1     -12.266  13.834  69.198  1.00  0.00    -0.289 A  
HETATM   25  C   UNL     1     -11.993  15.199  69.142  1.00  0.00    -0.304 A  
ENDBRANCH  18  19
ENDBRANCH  13  18
ENDBRANCH   7   9
ENDBRANCH   2   3
BRANCH   2  26
HETATM   26  C   UNL     1     -11.660  10.311  66.045  1.00  0.00     1.969 C  
HETATM   27  C   UNL     1     -12.697   8.362  65.423  1.00  0.00    18.495 C  
HETATM   28  H   UNL     1     -10.875  10.316  67.941  1.00  0.00     0.000 HD 
HETATM   29  C   UNL     1     -11.690   8.468  67.586  1.00  0.00     2.647 C  
HETATM   30  N   UNL     1     -12.303   9.639  65.127  1.00  0.00     9.062 NA 
HETATM   31  O   UNL     1     -11.391   7.962  68.663  1.00  0.00     0.390 OA 
HETATM   32  N   UNL     1     -11.365   9.748  67.250  1.00  0.00     0.294 N  
HETATM   33  C   UNL     1     -12.437   7.727  66.564  1.00  0.00     9.612 C  
ENDBRANCH   2  26
TORSDOF 5
ENDMDL
MODEL      227
REMARK 921   NORMALIZED FREE ENERGY PREDICTED BY IDOCK:   56.33 KCAL/MOL
REMARK 922        TOTAL FREE ENERGY PREDICTED BY IDOCK:   71.38 KCAL/MOL
REMARK 923 INTER-LIGAND FREE ENERGY PREDICTED BY IDOCK:   72.06 KCAL/MOL
REMARK 924 INTRA-LIGAND FREE ENERGY PREDICTED BY IDOCK:   -0.68 KCAL/MOL
REMARK 927      BINDING AFFINITY PREDICTED BY RF-SCORE:    0.00 PKD
ROOT
HETATM    1  C   UNL     1      -9.615  11.203  71.845  1.00  0.00    11.272 C  
HETATM    2  N   UNL     1      -8.870  10.709  70.668  1.00  0.00     1.434 NA 
ENDROOT
BRANCH   2   3
HETATM    3  C   UNL     1      -8.985  11.605  69.480  1.00  0.00     1.039 C  
HETATM    4  C   UNL     1      -8.538  13.029  69.780  1.00  0.00     2.293 C  
HETATM    5  C   UNL     1     -10.292  11.533  68.706  1.00  0.00    -0.213 C  
HETATM    6  C   UNL     1      -9.643  13.941  70.278  1.00  0.00     2.592 C  
HETATM    7  N   UNL     1     -10.820  13.930  69.408  1.00  0.00    -0.136 NA 
HETATM    8  C   UNL     1     -11.301  12.671  68.858  1.00  0.00    -0.297 C  
BRANCH   7   9
HETATM    9  C   UNL     1     -11.425  15.140  69.151  1.00  0.00    -0.306 A  
HETATM   10  C   UNL     1     -12.972  16.627  68.833  1.00  0.00     3.585 A  
HETATM   11  N   UNL     1     -12.715  15.283  68.902  1.00  0.00     0.383 NA 
HETATM   12  C   UNL     1     -11.803  17.357  68.967  1.00  0.00     2.206 A  
HETATM   13  N   UNL     1     -10.815  16.392  69.100  1.00  0.00    -0.310 NA 
HETATM   14  C   UNL     1     -11.779  18.761  68.958  1.00  0.00     4.291 A  
HETATM   15  C   UNL     1     -13.003  19.423  68.820  1.00  0.00    10.879 A  
HETATM   16  C   UNL     1     -14.192  18.707  68.675  1.00  0.00    14.369 A  
HETATM   17  C   UNL     1     -14.190  17.306  68.670  1.00  0.00    10.050 A  
BRANCH  13  18
HETATM   18  C   UNL     1      -9.400  16.737  69.058  1.00  0.00    -0.212 C  
BRANCH  18  19
HETATM   19  C   UNL     1      -8.870  16.951  67.654  1.00  0.00    -0.215 A  
HETATM   20  C   UNL     1      -8.664  15.827  66.838  1.00  0.00    -0.274 A  
HETATM   21  C   UNL     1      -7.989  15.953  65.625  1.00  0.00     1.956 A  
HETATM   22  C   UNL     1      -7.550  17.204  65.209  1.00  0.00     2.205 A  
HETATM   23  F   UNL     1      -6.825  17.310  64.088  1.00  0.00     3.840 F  
HETATM   24  C   UNL     1      -7.837  18.341  65.948  1.00  0.00    -0.082 A  
HETATM   25  C   UNL     1      -8.519  18.220  67.157  1.00  0.00    -0.253 A  
ENDBRANCH  18  19
ENDBRANCH  13  18
ENDBRANCH   7   9
ENDBRANCH   2   3
BRANCH   2  26
HETATM   26  C   UNL     1      -7.731   9.982  70.961  1.00  0.00     0.973 C  
HETATM   27  C   UNL     1      -5.725   9.650  72.022  1.00  0.00     0.063 C  
HETATM   28  H   UNL     1      -8.332   8.455  69.730  1.00  0.00     0.000 HD 
HETATM   29  C   UNL     1      -6.560   7.914  70.610  1.00  0.00    -0.037 C  
HETATM   30  N   UNL     1      -6.822  10.433  71.785  1.00  0.00     1.107 NA 
HETATM   31  O   UNL     1      -6.473   6.801  70.103  1.00  0.00    -0.038 OA 
HETATM   32  N   UNL     1      -7.604   8.757  70.378  1.00  0.00    -0.073 N  
HETATM   33  C   UNL     1      -5.528   8.436  71.513  1.00  0.00    -0.035 C  
ENDBRANCH   2  26
TORSDOF 5
ENDMDL
MODEL      228
REMARK 921   NORMALIZED FREE ENERGY PREDICTED BY IDOCK:   87.78 KCAL/MOL
REMARK 922        TOTAL FREE ENERGY PREDICTED BY IDOCK:  112.03 KCAL/MOL
REMARK 923 INTER-LIGAND FREE ENERGY PREDICTED BY IDOCK:   89.87 KCAL/MOL
REMARK 924 INTRA-LIGAND FREE ENERGY PREDICTED BY IDOCK:   22.16 KCAL/MOL
REMARK 927      BINDING AFFINITY PREDICTED BY RF-SCORE:    0.00 PKD
ROOT
HETATM    1  C   UNL     1     -11.926  12.272  64.648  1.00  0.00    -0.366 C  
HETATM    2  N   UNL     1     -11.626  11.392  65.798  1.00  0.00    -0.115 NA 
ENDROOT
BRANCH   2   3
HETATM    3  C   UNL     1     -11.262  12.144  67.035  1.00  0.00    -0.314 C  
HETATM    4  C   UNL     1     -12.267  13.238  67.367  1.00  0.00    -0.236 C  
HETATM    5  C   UNL     1      -9.815  12.599  67.146  1.00  0.00    -0.212 C  
HETATM    6  C   UNL     1     -11.956  14.585  66.742  1.00  0.00    -0.342 C  
HETATM    7  N   UNL     1     -10.587  15.029  67.007  1.00  0.00    -0.287 NA 
HETATM    8  C   UNL     1      -9.489  14.076  66.925  1.00  0.00    -0.265 C  
BRANCH   7   9
HETATM    9  C   UNL     1     -10.405  16.356  67.327  1.00  0.00    -0.287 A  
HETATM   10  C   UNL     1      -9.668  18.139  68.319  1.00  0.00    -0.337 A  
HETATM   11  N   UNL     1      -9.770  16.775  68.408  1.00  0.00    -0.238 NA 
HETATM   12  C   UNL     1     -10.319  18.607  67.190  1.00  0.00    -0.401 A  
HETATM   13  N   UNL     1     -10.844  17.464  66.604  1.00  0.00    -0.057 NA 
HETATM   14  C   UNL     1     -10.352  19.967  66.841  1.00  0.00    -0.596 A  
HETATM   15  C   UNL     1      -9.678  20.860  67.679  1.00  0.00    -0.287 A  
HETATM   16  C   UNL     1      -9.022  20.412  68.826  1.00  0.00     0.472 A  
HETATM   17  C   UNL     1      -9.017  19.052  69.163  1.00  0.00    -0.109 A  
BRANCH  13  18
HETATM   18  C   UNL     1     -11.787  17.538  65.495  1.00  0.00     3.022 C  
BRANCH  18  19
HETATM   19  C   UNL     1     -11.860  16.266  64.675  1.00  0.00     0.248 A  
HETATM   20  C   UNL     1     -12.196  15.068  65.326  1.00  0.00     0.050 A  
HETATM   21  C   UNL     1     -12.076  13.848  64.662  1.00  0.00    -0.458 A  
HETATM   22  C   UNL     1     -11.651  13.825  63.339  1.00  0.00     0.371 A  
HETATM   23  F   UNL     1     -11.449  12.649  62.731  1.00  0.00    -0.315 F  
HETATM   24  C   UNL     1     -11.417  15.002  62.646  1.00  0.00     5.532 A  
HETATM   25  C   UNL     1     -11.545  16.224  63.304  1.00  0.00     3.632 A  
ENDBRANCH  18  19
ENDBRANCH  13  18
ENDBRANCH   7   9
ENDBRANCH   2   3
BRANCH   2  26
HETATM   26  C   UNL     1     -12.318  10.196  65.814  1.00  0.00     7.129 C  
HETATM   27  C   UNL     1     -14.219   8.923  65.654  1.00  0.00    25.855 C  
HETATM   28  H   UNL     1     -10.591   9.147  66.167  1.00  0.00     0.000 HD 
HETATM   29  C   UNL     1     -12.136   7.808  66.003  1.00  0.00     8.682 C  
HETATM   30  N   UNL     1     -13.610  10.148  65.623  1.00  0.00    14.605 NA 
HETATM   31  O   UNL     1     -11.470   6.789  66.147  1.00  0.00     1.280 OA 
HETATM   32  N   UNL     1     -11.595   9.058  66.008  1.00  0.00     3.994 N  
HETATM   33  C   UNL     1     -13.590   7.762  65.817  1.00  0.00    20.224 C  
ENDBRANCH   2  26
TORSDOF 5
ENDMDL
